ligand
 OpenBabel11021811413D
libRbt.so/2013.1/901 2013/11/27
 14 13  0  0  0  0  0  0  0  0999 V2000
   43.3090   12.6615   17.6125 N   0  0  0  0  0  0  0  0  0  0  0  0
   43.7146   11.2418   17.5293 C   0  0  0  0  0  0  0  0  0  0  0  0
   45.1975   11.1081   17.1203 C   0  0  0  0  0  0  0  0  0  0  0  0
   45.6743    9.6622   16.9058 C   0  0  0  0  0  0  0  0  0  0  0  0
   45.6060    8.8835   18.1729 N   0  0  0  0  0  0  0  0  0  0  0  0
   46.9324    8.2911   18.4835 C   0  0  0  0  0  0  0  0  0  0  0  0
   46.9104    7.0347   19.4179 C   0  0  0  0  0  0  0  0  0  0  0  0
   46.1894    5.7999   18.8048 C   0  0  0  0  0  0  0  0  0  0  0  0
   46.1775    4.5826   19.7087 C   0  0  0  0  0  0  0  0  0  0  0  0
   45.4647    3.5269   19.0146 N   0  0  0  0  0  0  0  0  0  0  0  0
   46.4750    2.5675   18.6044 C   0  0  0  0  0  0  0  0  0  0  0  0
   46.1656    1.9849   17.2303 C   0  0  0  0  0  0  0  0  0  0  0  0
   44.9177    1.1000   17.3710 C   0  0  0  0  0  0  0  0  0  0  0  0
   44.5469    0.4567   16.1016 N   0  0  0  0  0  0  0  0  0  0  0  0
  1  2  1  0  0  0  0
  2  3  1  0  0  0  0
  3  4  1  0  0  0  0
  4  5  1  0  0  0  0
  5  6  1  0  0  0  0
  6  7  1  0  0  0  0
  7  8  1  0  0  0  0
  8  9  1  0  0  0  0
  9 10  1  0  0  0  0
 10 11  1  0  0  0  0
 11 12  1  0  0  0  0
 12 13  1  0  0  0  0
 13 14  1  0  0  0  0
M  END
>  <CHROM.1>
-175.57123897,-63.88686919,-124.70635533,-156.97130722,64.37169134,179.63613551
179.36714252,107.36296179,-142.38561902,-68.77458675,-178.59127158,45.52039920
6.35008144,18.00564800,1.70359832,-0.78725774,0.08561529

>  <Name>
ligand

>  <RI>
0

>  <Rbt.Current_Directory>
/home/itssahil/PROJECTS/Mol_Feturizer/New_Systems/rnas/1TN1

>  <Rbt.Executable>
rbdock ($Id: //depot/dev/client3/rdock/2013.1/src/exe/rbdock.cxx#4 $)

>  <Rbt.Library>
libRbt.so (2013.1, Build901 2013/11/27)

>  <Rbt.Parameter_File>
/export/apps/rDock/src/rDock_2013.1_src/data/scripts/dock_solv.prm

>  <Rbt.Receptor>
prm/pocket_docking_2.prm

>  <SCORE>
-3.55651

>  <SCORE.INTER>
-1.55575

>  <SCORE.INTER.CONST>
1

>  <SCORE.INTER.POLAR>
0

>  <SCORE.INTER.ROT>
11

>  <SCORE.INTER.SOLV>
12.8472

>  <SCORE.INTER.VDW>
-16.2529

>  <SCORE.INTER.norm>
-0.111125

>  <SCORE.INTRA>
-2.00076

>  <SCORE.INTRA.DIHEDRAL>
-3.82221

>  <SCORE.INTRA.DIHEDRAL.0>
7.79482

>  <SCORE.INTRA.POLAR>
0

>  <SCORE.INTRA.POLAR.0>
0

>  <SCORE.INTRA.REPUL>
0

>  <SCORE.INTRA.REPUL.0>
0

>  <SCORE.INTRA.SOLV>
0.955827

>  <SCORE.INTRA.SOLV.lig_0>
-49.456

>  <SCORE.INTRA.VDW>
-0.567563

>  <SCORE.INTRA.VDW.0>
-0.478406

>  <SCORE.INTRA.norm>
-0.142911

>  <SCORE.RESTR>
0

>  <SCORE.RESTR.CAVITY>
0

>  <SCORE.RESTR.norm>
0

>  <SCORE.SYSTEM>
0

>  <SCORE.SYSTEM.CONST>
0

>  <SCORE.SYSTEM.DIHEDRAL>
0

>  <SCORE.SYSTEM.SOLV>
0

>  <SCORE.SYSTEM.norm>
0

>  <SCORE.heavy>
14

>  <SCORE.norm>
-0.254036

>  <RMSD>
1.222

$$$$
ligand
 OpenBabel11021811413D
libRbt.so/2013.1/901 2013/11/27
 14 13  0  0  0  0  0  0  0  0999 V2000
   45.0955    1.0150   16.0204 N   0  0  0  0  0  0  0  0  0  0  0  0
   44.6619    0.9027   17.4299 C   0  0  0  0  0  0  0  0  0  0  0  0
   45.8461    1.1185   18.3969 C   0  0  0  0  0  0  0  0  0  0  0  0
   46.4187    2.5454   18.3988 C   0  0  0  0  0  0  0  0  0  0  0  0
   45.4736    3.4997   19.0410 N   0  0  0  0  0  0  0  0  0  0  0  0
   46.2205    4.6282   19.6536 C   0  0  0  0  0  0  0  0  0  0  0  0
   45.9252    6.0424   19.0494 C   0  0  0  0  0  0  0  0  0  0  0  0
   46.9741    7.1269   19.4291 C   0  0  0  0  0  0  0  0  0  0  0  0
   46.5431    8.5424   19.0986 C   0  0  0  0  0  0  0  0  0  0  0  0
   46.6135    8.6983   17.6581 N   0  0  0  0  0  0  0  0  0  0  0  0
   45.3980    9.3941   17.2732 C   0  0  0  0  0  0  0  0  0  0  0  0
   45.5569   10.9049   17.3980 C   0  0  0  0  0  0  0  0  0  0  0  0
   44.2179   11.5471   17.0048 C   0  0  0  0  0  0  0  0  0  0  0  0
   43.1382   11.1973   17.9400 N   0  0  0  0  0  0  0  0  0  0  0  0
  1  2  1  0  0  0  0
  2  3  1  0  0  0  0
  3  4  1  0  0  0  0
  4  5  1  0  0  0  0
  5  6  1  0  0  0  0
  6  7  1  0  0  0  0
  7  8  1  0  0  0  0
  8  9  1  0  0  0  0
  9 10  1  0  0  0  0
 10 11  1  0  0  0  0
 11 12  1  0  0  0  0
 12 13  1  0  0  0  0
 13 14  1  0  0  0  0
M  END
>  <CHROM.1>
67.17554157,70.98333266,151.37057816,116.89270701,-164.36308790,-167.70266164
-72.78890907,136.05557234,85.51176550,-178.64412533,64.89101712,45.57757697
6.22596319,18.12818110,1.47789744,0.81785857,-3.09509708

>  <Name>
ligand

>  <RI>
0

>  <Rbt.Current_Directory>
/home/itssahil/PROJECTS/Mol_Feturizer/New_Systems/rnas/1TN1

>  <Rbt.Executable>
rbdock ($Id: //depot/dev/client3/rdock/2013.1/src/exe/rbdock.cxx#4 $)

>  <Rbt.Library>
libRbt.so (2013.1, Build901 2013/11/27)

>  <Rbt.Parameter_File>
/export/apps/rDock/src/rDock_2013.1_src/data/scripts/dock_solv.prm

>  <Rbt.Receptor>
prm/pocket_docking_2.prm

>  <SCORE>
-2.27229

>  <SCORE.INTER>
-2.74553

>  <SCORE.INTER.CONST>
1

>  <SCORE.INTER.POLAR>
0

>  <SCORE.INTER.ROT>
11

>  <SCORE.INTER.SOLV>
12.4386

>  <SCORE.INTER.VDW>
-16.9099

>  <SCORE.INTER.norm>
-0.196109

>  <SCORE.INTRA>
0.44592

>  <SCORE.INTRA.DIHEDRAL>
-1.76859

>  <SCORE.INTRA.DIHEDRAL.0>
7.79482

>  <SCORE.INTRA.POLAR>
0

>  <SCORE.INTRA.POLAR.0>
0

>  <SCORE.INTRA.REPUL>
0

>  <SCORE.INTRA.REPUL.0>
0

>  <SCORE.INTRA.SOLV>
2.71708

>  <SCORE.INTRA.SOLV.lig_0>
-49.456

>  <SCORE.INTRA.VDW>
-0.0283265

>  <SCORE.INTRA.VDW.0>
-0.478406

>  <SCORE.INTRA.norm>
0.0318515

>  <SCORE.RESTR>
0.0273226

>  <SCORE.RESTR.CAVITY>
0.0273226

>  <SCORE.RESTR.norm>
0.00195162

>  <SCORE.SYSTEM>
0

>  <SCORE.SYSTEM.CONST>
0

>  <SCORE.SYSTEM.DIHEDRAL>
0

>  <SCORE.SYSTEM.SOLV>
0

>  <SCORE.SYSTEM.norm>
0

>  <SCORE.heavy>
14

>  <SCORE.norm>
-0.162306

>  <RMSD>
1.273

$$$$
ligand
 OpenBabel11021811413D
libRbt.so/2013.1/901 2013/11/27
 14 13  0  0  0  0  0  0  0  0999 V2000
   41.7677   12.0352   18.0505 N   0  0  0  0  0  0  0  0  0  0  0  0
   43.0578   11.4263   17.6604 C   0  0  0  0  0  0  0  0  0  0  0  0
   43.3825   10.1974   18.5369 C   0  0  0  0  0  0  0  0  0  0  0  0
   44.7455    9.5474   18.2477 C   0  0  0  0  0  0  0  0  0  0  0  0
   44.9544    8.3431   19.0977 N   0  0  0  0  0  0  0  0  0  0  0  0
   46.3897    7.9602   19.1017 C   0  0  0  0  0  0  0  0  0  0  0  0
   46.7135    6.5424   18.5211 C   0  0  0  0  0  0  0  0  0  0  0  0
   45.9833    5.3766   19.2479 C   0  0  0  0  0  0  0  0  0  0  0  0
   46.1416    4.0313   18.5667 C   0  0  0  0  0  0  0  0  0  0  0  0
   45.4268    3.0500   19.3606 N   0  0  0  0  0  0  0  0  0  0  0  0
   44.9309    2.0612   18.4192 C   0  0  0  0  0  0  0  0  0  0  0  0
   45.9519    0.9544   18.1835 C   0  0  0  0  0  0  0  0  0  0  0  0
   45.3627   -0.0069   17.1401 C   0  0  0  0  0  0  0  0  0  0  0  0
   45.2007    0.6317   15.8253 N   0  0  0  0  0  0  0  0  0  0  0  0
  1  2  1  0  0  0  0
  2  3  1  0  0  0  0
  3  4  1  0  0  0  0
  4  5  1  0  0  0  0
  5  6  1  0  0  0  0
  6  7  1  0  0  0  0
  7  8  1  0  0  0  0
  8  9  1  0  0  0  0
  9 10  1  0  0  0  0
 10 11  1  0  0  0  0
 11 12  1  0  0  0  0
 12 13  1  0  0  0  0
 13 14  1  0  0  0  0
M  END
>  <CHROM.1>
-176.87583714,-177.81531456,-163.77273474,-118.23860903,-58.06589212,171.82409411
179.33069912,147.91185994,88.47987986,-177.85208357,65.55634954,45.00092658
5.86782887,18.28290473,1.83089102,-0.59639552,0.21371578

>  <Name>
ligand

>  <RI>
0

>  <Rbt.Current_Directory>
/home/itssahil/PROJECTS/Mol_Feturizer/New_Systems/rnas/1TN1

>  <Rbt.Executable>
rbdock ($Id: //depot/dev/client3/rdock/2013.1/src/exe/rbdock.cxx#4 $)

>  <Rbt.Library>
libRbt.so (2013.1, Build901 2013/11/27)

>  <Rbt.Parameter_File>
/export/apps/rDock/src/rDock_2013.1_src/data/scripts/dock_solv.prm

>  <Rbt.Receptor>
prm/pocket_docking_2.prm

>  <SCORE>
-6.03805

>  <SCORE.INTER>
-4.19522

>  <SCORE.INTER.CONST>
1

>  <SCORE.INTER.POLAR>
0

>  <SCORE.INTER.ROT>
11

>  <SCORE.INTER.SOLV>
15.4991

>  <SCORE.INTER.VDW>
-18.8965

>  <SCORE.INTER.norm>
-0.299658

>  <SCORE.INTRA>
-1.85492

>  <SCORE.INTRA.DIHEDRAL>
-4.69548

>  <SCORE.INTRA.DIHEDRAL.0>
7.79482

>  <SCORE.INTRA.POLAR>
0

>  <SCORE.INTRA.POLAR.0>
0

>  <SCORE.INTRA.REPUL>
0

>  <SCORE.INTRA.REPUL.0>
0

>  <SCORE.INTRA.SOLV>
1.32999

>  <SCORE.INTRA.SOLV.lig_0>
-49.456

>  <SCORE.INTRA.VDW>
-0.172175

>  <SCORE.INTRA.VDW.0>
-0.478406

>  <SCORE.INTRA.norm>
-0.132494

>  <SCORE.RESTR>
0.0120813

>  <SCORE.RESTR.CAVITY>
0.0120813

>  <SCORE.RESTR.norm>
0.000862949

>  <SCORE.SYSTEM>
0

>  <SCORE.SYSTEM.CONST>
0

>  <SCORE.SYSTEM.DIHEDRAL>
0

>  <SCORE.SYSTEM.SOLV>
0

>  <SCORE.SYSTEM.norm>
0

>  <SCORE.heavy>
14

>  <SCORE.norm>
-0.43129

>  <RMSD>
1.298

$$$$
ligand
 OpenBabel11021811413D
libRbt.so/2013.1/901 2013/11/27
 14 13  0  0  0  0  0  0  0  0999 V2000
   45.6479   -0.0032   17.2749 N   0  0  0  0  0  0  0  0  0  0  0  0
   45.7970    1.1545   16.3670 C   0  0  0  0  0  0  0  0  0  0  0  0
   45.2316    2.4413   17.0060 C   0  0  0  0  0  0  0  0  0  0  0  0
   45.8935    2.8399   18.3353 C   0  0  0  0  0  0  0  0  0  0  0  0
   45.2494    4.0526   18.9106 N   0  0  0  0  0  0  0  0  0  0  0  0
   46.1082    4.6345   19.9738 C   0  0  0  0  0  0  0  0  0  0  0  0
   46.0654    6.1948   20.0999 C   0  0  0  0  0  0  0  0  0  0  0  0
   46.6950    6.9471   18.8923 C   0  0  0  0  0  0  0  0  0  0  0  0
   46.8013    8.4467   19.0889 C   0  0  0  0  0  0  0  0  0  0  0  0
   45.4531    8.9796   19.1415 N   0  0  0  0  0  0  0  0  0  0  0  0
   45.2194    9.5992   17.8487 C   0  0  0  0  0  0  0  0  0  0  0  0
   44.3014   10.8101   17.9685 C   0  0  0  0  0  0  0  0  0  0  0  0
   42.9348   10.3104   18.4612 C   0  0  0  0  0  0  0  0  0  0  0  0
   41.9364   11.3886   18.5178 N   0  0  0  0  0  0  0  0  0  0  0  0
  1  2  1  0  0  0  0
  2  3  1  0  0  0  0
  3  4  1  0  0  0  0
  4  5  1  0  0  0  0
  5  6  1  0  0  0  0
  6  7  1  0  0  0  0
  7  8  1  0  0  0  0
  8  9  1  0  0  0  0
  9 10  1  0  0  0  0
 10 11  1  0  0  0  0
 11 12  1  0  0  0  0
 12 13  1  0  0  0  0
 13 14  1  0  0  0  0
M  END
>  <CHROM.1>
59.14155178,-177.46310978,-164.79667506,146.44573485,-67.98817729,-173.13238097
-66.33883060,-103.38739577,-147.41601879,-63.78847596,-175.76097244,45.23843885
6.27121667,18.42043942,1.33098190,0.60312821,-2.89637821

>  <Name>
ligand

>  <RI>
0

>  <Rbt.Current_Directory>
/home/itssahil/PROJECTS/Mol_Feturizer/New_Systems/rnas/1TN1

>  <Rbt.Executable>
rbdock ($Id: //depot/dev/client3/rdock/2013.1/src/exe/rbdock.cxx#4 $)

>  <Rbt.Library>
libRbt.so (2013.1, Build901 2013/11/27)

>  <Rbt.Parameter_File>
/export/apps/rDock/src/rDock_2013.1_src/data/scripts/dock_solv.prm

>  <Rbt.Receptor>
prm/pocket_docking_2.prm

>  <SCORE>
-4.40836

>  <SCORE.INTER>
-2.7262

>  <SCORE.INTER.CONST>
1

>  <SCORE.INTER.POLAR>
0

>  <SCORE.INTER.ROT>
11

>  <SCORE.INTER.SOLV>
18.0251

>  <SCORE.INTER.VDW>
-18.7592

>  <SCORE.INTER.norm>
-0.194729

>  <SCORE.INTRA>
-1.68216

>  <SCORE.INTRA.DIHEDRAL>
-4.50243

>  <SCORE.INTRA.DIHEDRAL.0>
7.79482

>  <SCORE.INTRA.POLAR>
0

>  <SCORE.INTRA.POLAR.0>
0

>  <SCORE.INTRA.REPUL>
0

>  <SCORE.INTRA.REPUL.0>
0

>  <SCORE.INTRA.SOLV>
1.74606

>  <SCORE.INTRA.SOLV.lig_0>
-49.456

>  <SCORE.INTRA.VDW>
-0.303974

>  <SCORE.INTRA.VDW.0>
-0.478406

>  <SCORE.INTRA.norm>
-0.120154

>  <SCORE.RESTR>
0

>  <SCORE.RESTR.CAVITY>
0

>  <SCORE.RESTR.norm>
0

>  <SCORE.SYSTEM>
0

>  <SCORE.SYSTEM.CONST>
0

>  <SCORE.SYSTEM.DIHEDRAL>
0

>  <SCORE.SYSTEM.SOLV>
0

>  <SCORE.SYSTEM.norm>
0

>  <SCORE.heavy>
14

>  <SCORE.norm>
-0.314883

>  <RMSD>
1.371

$$$$
ligand
 OpenBabel11021811413D
libRbt.so/2013.1/901 2013/11/27
 14 13  0  0  0  0  0  0  0  0999 V2000
   42.2682   12.3367   18.6894 N   0  0  0  0  0  0  0  0  0  0  0  0
   42.5257   10.9913   18.1321 C   0  0  0  0  0  0  0  0  0  0  0  0
   43.8520   10.9589   17.3422 C   0  0  0  0  0  0  0  0  0  0  0  0
   45.0975   10.6656   18.1947 C   0  0  0  0  0  0  0  0  0  0  0  0
   45.1073    9.2506   18.6574 N   0  0  0  0  0  0  0  0  0  0  0  0
   46.4741    8.8614   19.0900 C   0  0  0  0  0  0  0  0  0  0  0  0
   46.7841    7.3269   19.0537 C   0  0  0  0  0  0  0  0  0  0  0  0
   45.8959    6.4768   20.0071 C   0  0  0  0  0  0  0  0  0  0  0  0
   46.2237    4.9965   19.9970 C   0  0  0  0  0  0  0  0  0  0  0  0
   45.9863    4.5031   18.6537 N   0  0  0  0  0  0  0  0  0  0  0  0
   46.0281    3.0543   18.7487 C   0  0  0  0  0  0  0  0  0  0  0  0
   45.7692    2.3991   17.3970 C   0  0  0  0  0  0  0  0  0  0  0  0
   45.7125    0.8802   17.6200 C   0  0  0  0  0  0  0  0  0  0  0  0
   45.5048    0.1419   16.3653 N   0  0  0  0  0  0  0  0  0  0  0  0
  1  2  1  0  0  0  0
  2  3  1  0  0  0  0
  3  4  1  0  0  0  0
  4  5  1  0  0  0  0
  5  6  1  0  0  0  0
  6  7  1  0  0  0  0
  7  8  1  0  0  0  0
  8  9  1  0  0  0  0
  9 10  1  0  0  0  0
 10 11  1  0  0  0  0
 11 12  1  0  0  0  0
 12 13  1  0  0  0  0
 13 14  1  0  0  0  0
M  END
>  <CHROM.1>
86.97382721,70.53443905,161.94447291,-156.51438538,-62.50656643,-178.44794872
-61.83218278,-168.02604990,179.09917714,-175.20019228,-178.31699156,45.23088479
6.63171770,18.42500583,1.85325436,-0.67055116,0.24478617

>  <Name>
ligand

>  <RI>
0

>  <Rbt.Current_Directory>
/home/itssahil/PROJECTS/Mol_Feturizer/New_Systems/rnas/1TN1

>  <Rbt.Executable>
rbdock ($Id: //depot/dev/client3/rdock/2013.1/src/exe/rbdock.cxx#4 $)

>  <Rbt.Library>
libRbt.so (2013.1, Build901 2013/11/27)

>  <Rbt.Parameter_File>
/export/apps/rDock/src/rDock_2013.1_src/data/scripts/dock_solv.prm

>  <Rbt.Receptor>
prm/pocket_docking_2.prm

>  <SCORE>
-6.10455

>  <SCORE.INTER>
-4.09331

>  <SCORE.INTER.CONST>
1

>  <SCORE.INTER.POLAR>
0

>  <SCORE.INTER.ROT>
11

>  <SCORE.INTER.SOLV>
15.2232

>  <SCORE.INTER.VDW>
-18.7366

>  <SCORE.INTER.norm>
-0.292379

>  <SCORE.INTRA>
-2.01673

>  <SCORE.INTRA.DIHEDRAL>
-4.15425

>  <SCORE.INTRA.DIHEDRAL.0>
7.79482

>  <SCORE.INTRA.POLAR>
0

>  <SCORE.INTRA.POLAR.0>
0

>  <SCORE.INTRA.REPUL>
0

>  <SCORE.INTRA.REPUL.0>
0

>  <SCORE.INTRA.SOLV>
1.66004

>  <SCORE.INTRA.SOLV.lig_0>
-49.456

>  <SCORE.INTRA.VDW>
-0.769631

>  <SCORE.INTRA.VDW.0>
-0.478406

>  <SCORE.INTRA.norm>
-0.144052

>  <SCORE.RESTR>
0.00549228

>  <SCORE.RESTR.CAVITY>
0.00549228

>  <SCORE.RESTR.norm>
0.000392305

>  <SCORE.SYSTEM>
0

>  <SCORE.SYSTEM.CONST>
0

>  <SCORE.SYSTEM.DIHEDRAL>
0

>  <SCORE.SYSTEM.SOLV>
0

>  <SCORE.SYSTEM.norm>
0

>  <SCORE.heavy>
14

>  <SCORE.norm>
-0.43604

>  <RMSD>
1.405

$$$$
ligand
 OpenBabel11021811413D
libRbt.so/2013.1/901 2013/11/27
 14 13  0  0  0  0  0  0  0  0999 V2000
   41.9671   12.9134   17.0567 N   0  0  0  0  0  0  0  0  0  0  0  0
   42.3680   11.6969   17.7960 C   0  0  0  0  0  0  0  0  0  0  0  0
   43.8433   11.3358   17.5182 C   0  0  0  0  0  0  0  0  0  0  0  0
   44.3727   10.1403   18.3272 C   0  0  0  0  0  0  0  0  0  0  0  0
   45.8089    9.8867   18.0281 N   0  0  0  0  0  0  0  0  0  0  0  0
   46.3808    8.9410   19.0207 C   0  0  0  0  0  0  0  0  0  0  0  0
   45.8951    7.4572   18.8996 C   0  0  0  0  0  0  0  0  0  0  0  0
   46.3663    6.5378   20.0629 C   0  0  0  0  0  0  0  0  0  0  0  0
   45.7830    5.1391   20.0168 C   0  0  0  0  0  0  0  0  0  0  0  0
   46.2394    4.5129   18.7904 N   0  0  0  0  0  0  0  0  0  0  0  0
   45.8189    3.1250   18.8718 C   0  0  0  0  0  0  0  0  0  0  0  0
   46.0097    2.4056   17.5416 C   0  0  0  0  0  0  0  0  0  0  0  0
   45.5767    0.9447   17.7371 C   0  0  0  0  0  0  0  0  0  0  0  0
   45.6577    0.1696   16.4899 N   0  0  0  0  0  0  0  0  0  0  0  0
  1  2  1  0  0  0  0
  2  3  1  0  0  0  0
  3  4  1  0  0  0  0
  4  5  1  0  0  0  0
  5  6  1  0  0  0  0
  6  7  1  0  0  0  0
  7  8  1  0  0  0  0
  8  9  1  0  0  0  0
  9 10  1  0  0  0  0
 10 11  1  0  0  0  0
 11 12  1  0  0  0  0
 12 13  1  0  0  0  0
 13 14  1  0  0  0  0
M  END
>  <CHROM.1>
175.79982895,-178.35168227,167.50523026,71.28123881,-172.40265477,174.25647958
62.31037054,172.25895504,169.70091912,178.46590158,177.16979961,45.14921287
6.80039974,18.29722244,1.90563323,-0.75143335,0.22091232

>  <Name>
ligand

>  <RI>
0

>  <Rbt.Current_Directory>
/home/itssahil/PROJECTS/Mol_Feturizer/New_Systems/rnas/1TN1

>  <Rbt.Executable>
rbdock ($Id: //depot/dev/client3/rdock/2013.1/src/exe/rbdock.cxx#4 $)

>  <Rbt.Library>
libRbt.so (2013.1, Build901 2013/11/27)

>  <Rbt.Parameter_File>
/export/apps/rDock/src/rDock_2013.1_src/data/scripts/dock_solv.prm

>  <Rbt.Receptor>
prm/pocket_docking_2.prm

>  <SCORE>
-7.37404

>  <SCORE.INTER>
-3.81706

>  <SCORE.INTER.CONST>
1

>  <SCORE.INTER.POLAR>
0

>  <SCORE.INTER.ROT>
11

>  <SCORE.INTER.SOLV>
15.4754

>  <SCORE.INTER.VDW>
-18.6365

>  <SCORE.INTER.norm>
-0.272647

>  <SCORE.INTRA>
-3.56184

>  <SCORE.INTRA.DIHEDRAL>
-6.9466

>  <SCORE.INTRA.DIHEDRAL.0>
7.79482

>  <SCORE.INTRA.POLAR>
0

>  <SCORE.INTRA.POLAR.0>
0

>  <SCORE.INTRA.REPUL>
0

>  <SCORE.INTRA.REPUL.0>
0

>  <SCORE.INTRA.SOLV>
0.342205

>  <SCORE.INTRA.SOLV.lig_0>
-49.456

>  <SCORE.INTRA.VDW>
-0.259642

>  <SCORE.INTRA.VDW.0>
-0.478406

>  <SCORE.INTRA.norm>
-0.254417

>  <SCORE.RESTR>
0.00485657

>  <SCORE.RESTR.CAVITY>
0.00485657

>  <SCORE.RESTR.norm>
0.000346898

>  <SCORE.SYSTEM>
0

>  <SCORE.SYSTEM.CONST>
0

>  <SCORE.SYSTEM.DIHEDRAL>
0

>  <SCORE.SYSTEM.SOLV>
0

>  <SCORE.SYSTEM.norm>
0

>  <SCORE.heavy>
14

>  <SCORE.norm>
-0.526717

>  <RMSD>
1.407

$$$$
ligand
 OpenBabel11021811413D
libRbt.so/2013.1/901 2013/11/27
 14 13  0  0  0  0  0  0  0  0999 V2000
   45.6978    0.6900   16.2334 N   0  0  0  0  0  0  0  0  0  0  0  0
   45.6484    0.6269   17.7101 C   0  0  0  0  0  0  0  0  0  0  0  0
   45.2503    1.9910   18.3139 C   0  0  0  0  0  0  0  0  0  0  0  0
   46.2582    3.1233   18.0566 C   0  0  0  0  0  0  0  0  0  0  0  0
   45.6781    4.4467   18.4149 N   0  0  0  0  0  0  0  0  0  0  0  0
   46.3674    5.0036   19.6071 C   0  0  0  0  0  0  0  0  0  0  0  0
   45.9252    6.4442   20.0331 C   0  0  0  0  0  0  0  0  0  0  0  0
   46.1906    7.5346   18.9557 C   0  0  0  0  0  0  0  0  0  0  0  0
   45.5838    8.8848   19.2839 C   0  0  0  0  0  0  0  0  0  0  0  0
   45.9625    9.8050   18.2285 N   0  0  0  0  0  0  0  0  0  0  0  0
   45.0005   10.8918   18.2838 C   0  0  0  0  0  0  0  0  0  0  0  0
   44.1986   10.9931   16.9915 C   0  0  0  0  0  0  0  0  0  0  0  0
   43.0437   11.9759   17.2370 C   0  0  0  0  0  0  0  0  0  0  0  0
   43.5209   13.3481   17.4648 N   0  0  0  0  0  0  0  0  0  0  0  0
  1  2  1  0  0  0  0
  2  3  1  0  0  0  0
  3  4  1  0  0  0  0
  4  5  1  0  0  0  0
  5  6  1  0  0  0  0
  6  7  1  0  0  0  0
  7  8  1  0  0  0  0
  8  9  1  0  0  0  0
  9 10  1  0  0  0  0
 10 11  1  0  0  0  0
 11 12  1  0  0  0  0
 12 13  1  0  0  0  0
 13 14  1  0  0  0  0
M  END
>  <CHROM.1>
-64.06193565,168.14878313,111.56374727,175.77011581,-61.70142005,171.61849395
177.47536304,159.16539920,-118.09112984,169.43412856,66.32927017,45.30903265
6.83983850,18.20126969,1.28702064,0.97258369,-2.91154212

>  <Name>
ligand

>  <RI>
0

>  <Rbt.Current_Directory>
/home/itssahil/PROJECTS/Mol_Feturizer/New_Systems/rnas/1TN1

>  <Rbt.Executable>
rbdock ($Id: //depot/dev/client3/rdock/2013.1/src/exe/rbdock.cxx#4 $)

>  <Rbt.Library>
libRbt.so (2013.1, Build901 2013/11/27)

>  <Rbt.Parameter_File>
/export/apps/rDock/src/rDock_2013.1_src/data/scripts/dock_solv.prm

>  <Rbt.Receptor>
prm/pocket_docking_2.prm

>  <SCORE>
-5.11771

>  <SCORE.INTER>
-3.63713

>  <SCORE.INTER.CONST>
1

>  <SCORE.INTER.POLAR>
0

>  <SCORE.INTER.ROT>
11

>  <SCORE.INTER.SOLV>
10.0308

>  <SCORE.INTER.VDW>
-16.7017

>  <SCORE.INTER.norm>
-0.259795

>  <SCORE.INTRA>
-1.48261

>  <SCORE.INTRA.DIHEDRAL>
-3.65416

>  <SCORE.INTRA.DIHEDRAL.0>
7.79482

>  <SCORE.INTRA.POLAR>
0

>  <SCORE.INTRA.POLAR.0>
0

>  <SCORE.INTRA.REPUL>
0

>  <SCORE.INTRA.REPUL.0>
0

>  <SCORE.INTRA.SOLV>
1.79241

>  <SCORE.INTRA.SOLV.lig_0>
-49.456

>  <SCORE.INTRA.VDW>
-0.551738

>  <SCORE.INTRA.VDW.0>
-0.478406

>  <SCORE.INTRA.norm>
-0.105901

>  <SCORE.RESTR>
0.00203773

>  <SCORE.RESTR.CAVITY>
0.00203773

>  <SCORE.RESTR.norm>
0.000145552

>  <SCORE.SYSTEM>
0

>  <SCORE.SYSTEM.CONST>
0

>  <SCORE.SYSTEM.DIHEDRAL>
0

>  <SCORE.SYSTEM.SOLV>
0

>  <SCORE.SYSTEM.norm>
0

>  <SCORE.heavy>
14

>  <SCORE.norm>
-0.365551

>  <RMSD>
1.442

$$$$
ligand
 OpenBabel11021811413D
libRbt.so/2013.1/901 2013/11/27
 14 13  0  0  0  0  0  0  0  0999 V2000
   43.6024   11.6770   17.7503 N   0  0  0  0  0  0  0  0  0  0  0  0
   44.2713   10.3852   18.0170 C   0  0  0  0  0  0  0  0  0  0  0  0
   45.6424   10.3107   17.3110 C   0  0  0  0  0  0  0  0  0  0  0  0
   46.3503    8.9510   17.4300 C   0  0  0  0  0  0  0  0  0  0  0  0
   46.6719    8.6383   18.8496 N   0  0  0  0  0  0  0  0  0  0  0  0
   46.8953    7.1792   19.0160 C   0  0  0  0  0  0  0  0  0  0  0  0
   45.9671    6.4668   20.0567 C   0  0  0  0  0  0  0  0  0  0  0  0
   46.1346    4.9208   20.1035 C   0  0  0  0  0  0  0  0  0  0  0  0
   45.7605    4.2217   18.8112 C   0  0  0  0  0  0  0  0  0  0  0  0
   45.6018    2.8101   19.1053 N   0  0  0  0  0  0  0  0  0  0  0  0
   46.5013    2.1120   18.2035 C   0  0  0  0  0  0  0  0  0  0  0  0
   46.0521    0.6743   17.9701 C   0  0  0  0  0  0  0  0  0  0  0  0
   44.8153    0.7158   17.0598 C   0  0  0  0  0  0  0  0  0  0  0  0
   45.1552    1.0844   15.6773 N   0  0  0  0  0  0  0  0  0  0  0  0
  1  2  1  0  0  0  0
  2  3  1  0  0  0  0
  3  4  1  0  0  0  0
  4  5  1  0  0  0  0
  5  6  1  0  0  0  0
  6  7  1  0  0  0  0
  7  8  1  0  0  0  0
  8  9  1  0  0  0  0
  9 10  1  0  0  0  0
 10 11  1  0  0  0  0
 11 12  1  0  0  0  0
 12 13  1  0  0  0  0
 13 14  1  0  0  0  0
M  END
>  <CHROM.1>
-174.70375571,-63.14321810,159.90110461,-122.27492832,174.36004044,-63.20016414
-164.27209755,-124.18627009,-156.18312920,73.33619439,71.85109863,45.67313075
5.72465761,18.24026162,1.68031751,-1.04875505,0.13707375

>  <Name>
ligand

>  <RI>
0

>  <Rbt.Current_Directory>
/home/itssahil/PROJECTS/Mol_Feturizer/New_Systems/rnas/1TN1

>  <Rbt.Executable>
rbdock ($Id: //depot/dev/client3/rdock/2013.1/src/exe/rbdock.cxx#4 $)

>  <Rbt.Library>
libRbt.so (2013.1, Build901 2013/11/27)

>  <Rbt.Parameter_File>
/export/apps/rDock/src/rDock_2013.1_src/data/scripts/dock_solv.prm

>  <Rbt.Receptor>
prm/pocket_docking_2.prm

>  <SCORE>
-4.53701

>  <SCORE.INTER>
-3.99538

>  <SCORE.INTER.CONST>
1

>  <SCORE.INTER.POLAR>
0

>  <SCORE.INTER.ROT>
11

>  <SCORE.INTER.SOLV>
11.9749

>  <SCORE.INTER.VDW>
-17.5886

>  <SCORE.INTER.norm>
-0.285384

>  <SCORE.INTRA>
-0.545178

>  <SCORE.INTRA.DIHEDRAL>
-2.35185

>  <SCORE.INTRA.DIHEDRAL.0>
7.79482

>  <SCORE.INTRA.POLAR>
0

>  <SCORE.INTRA.POLAR.0>
0

>  <SCORE.INTRA.REPUL>
0

>  <SCORE.INTRA.REPUL.0>
0

>  <SCORE.INTRA.SOLV>
2.06202

>  <SCORE.INTRA.SOLV.lig_0>
-49.456

>  <SCORE.INTRA.VDW>
-0.400263

>  <SCORE.INTRA.VDW.0>
-0.478406

>  <SCORE.INTRA.norm>
-0.0389413

>  <SCORE.RESTR>
0.00354434

>  <SCORE.RESTR.CAVITY>
0.00354434

>  <SCORE.RESTR.norm>
0.000253167

>  <SCORE.SYSTEM>
0

>  <SCORE.SYSTEM.CONST>
0

>  <SCORE.SYSTEM.DIHEDRAL>
0

>  <SCORE.SYSTEM.SOLV>
0

>  <SCORE.SYSTEM.norm>
0

>  <SCORE.heavy>
14

>  <SCORE.norm>
-0.324072

>  <RMSD>
1.484

$$$$
ligand
 OpenBabel11021811413D
libRbt.so/2013.1/901 2013/11/27
 14 13  0  0  0  0  0  0  0  0999 V2000
   45.4502   -0.4448   15.5718 N   0  0  0  0  0  0  0  0  0  0  0  0
   45.0111    0.1553   16.8502 C   0  0  0  0  0  0  0  0  0  0  0  0
   45.8894    1.3677   17.2282 C   0  0  0  0  0  0  0  0  0  0  0  0
   45.4698    2.0829   18.5229 C   0  0  0  0  0  0  0  0  0  0  0  0
   46.3720    3.2302   18.8162 N   0  0  0  0  0  0  0  0  0  0  0  0
   45.6487    4.2651   19.5989 C   0  0  0  0  0  0  0  0  0  0  0  0
   46.2874    5.6948   19.5832 C   0  0  0  0  0  0  0  0  0  0  0  0
   45.4754    6.7618   20.3722 C   0  0  0  0  0  0  0  0  0  0  0  0
   46.1193    8.1343   20.3922 C   0  0  0  0  0  0  0  0  0  0  0  0
   46.1546    8.6231   19.0269 N   0  0  0  0  0  0  0  0  0  0  0  0
   45.1986    9.7152   18.9703 C   0  0  0  0  0  0  0  0  0  0  0  0
   44.8402   10.0686   17.5315 C   0  0  0  0  0  0  0  0  0  0  0  0
   43.8554   11.2469   17.5739 C   0  0  0  0  0  0  0  0  0  0  0  0
   44.5055   12.4996   17.9871 N   0  0  0  0  0  0  0  0  0  0  0  0
  1  2  1  0  0  0  0
  2  3  1  0  0  0  0
  3  4  1  0  0  0  0
  4  5  1  0  0  0  0
  5  6  1  0  0  0  0
  6  7  1  0  0  0  0
  7  8  1  0  0  0  0
  8  9  1  0  0  0  0
  9 10  1  0  0  0  0
 10 11  1  0  0  0  0
 11 12  1  0  0  0  0
 12 13  1  0  0  0  0
 13 14  1  0  0  0  0
M  END
>  <CHROM.1>
177.97283281,179.63613071,152.46011155,-160.85942542,177.96421587,178.13897429
63.99285514,110.27379718,-164.04572792,-178.73001520,71.09835820,45.44832372
5.95717720,18.43061864,1.38776334,1.17341824,-2.84673437

>  <Name>
ligand

>  <RI>
0

>  <Rbt.Current_Directory>
/home/itssahil/PROJECTS/Mol_Feturizer/New_Systems/rnas/1TN1

>  <Rbt.Executable>
rbdock ($Id: //depot/dev/client3/rdock/2013.1/src/exe/rbdock.cxx#4 $)

>  <Rbt.Library>
libRbt.so (2013.1, Build901 2013/11/27)

>  <Rbt.Parameter_File>
/export/apps/rDock/src/rDock_2013.1_src/data/scripts/dock_solv.prm

>  <Rbt.Receptor>
prm/pocket_docking_6.prm

>  <SCORE>
-7.80204

>  <SCORE.INTER>
-5.29974

>  <SCORE.INTER.CONST>
1

>  <SCORE.INTER.POLAR>
0

>  <SCORE.INTER.ROT>
11

>  <SCORE.INTER.SOLV>
11.6508

>  <SCORE.INTER.VDW>
-18.3501

>  <SCORE.INTER.norm>
-0.378553

>  <SCORE.INTRA>
-2.5023

>  <SCORE.INTRA.DIHEDRAL>
-5.10819

>  <SCORE.INTRA.DIHEDRAL.0>
7.79482

>  <SCORE.INTRA.POLAR>
0

>  <SCORE.INTRA.POLAR.0>
0

>  <SCORE.INTRA.REPUL>
0

>  <SCORE.INTRA.REPUL.0>
0

>  <SCORE.INTRA.SOLV>
1.05604

>  <SCORE.INTRA.SOLV.lig_0>
-49.456

>  <SCORE.INTRA.VDW>
-0.476222

>  <SCORE.INTRA.VDW.0>
-0.478406

>  <SCORE.INTRA.norm>
-0.178736

>  <SCORE.RESTR>
0

>  <SCORE.RESTR.CAVITY>
0

>  <SCORE.RESTR.norm>
0

>  <SCORE.SYSTEM>
0

>  <SCORE.SYSTEM.CONST>
0

>  <SCORE.SYSTEM.DIHEDRAL>
0

>  <SCORE.SYSTEM.SOLV>
0

>  <SCORE.SYSTEM.norm>
0

>  <SCORE.heavy>
14

>  <SCORE.norm>
-0.557288

>  <RMSD>
1.492

$$$$
ligand
 OpenBabel11021811413D
libRbt.so/2013.1/901 2013/11/27
 14 13  0  0  0  0  0  0  0  0999 V2000
   44.6815    1.5550   16.3453 N   0  0  0  0  0  0  0  0  0  0  0  0
   46.0540    1.6753   16.8829 C   0  0  0  0  0  0  0  0  0  0  0  0
   46.0569    1.6083   18.4255 C   0  0  0  0  0  0  0  0  0  0  0  0
   45.3037    2.7564   19.1173 C   0  0  0  0  0  0  0  0  0  0  0  0
   46.0972    4.0155   19.0792 N   0  0  0  0  0  0  0  0  0  0  0  0
   45.4875    5.0337   19.9727 C   0  0  0  0  0  0  0  0  0  0  0  0
   46.2292    6.4115   20.0338 C   0  0  0  0  0  0  0  0  0  0  0  0
   46.5040    7.0472   18.6406 C   0  0  0  0  0  0  0  0  0  0  0  0
   46.9012    8.5093   18.6987 C   0  0  0  0  0  0  0  0  0  0  0  0
   45.7429    9.2620   19.1415 N   0  0  0  0  0  0  0  0  0  0  0  0
   45.3347   10.0694   18.0052 C   0  0  0  0  0  0  0  0  0  0  0  0
   43.9259   10.6210   18.1903 C   0  0  0  0  0  0  0  0  0  0  0  0
   43.6231   11.5337   16.9923 C   0  0  0  0  0  0  0  0  0  0  0  0
   42.2647   12.0942   17.0504 N   0  0  0  0  0  0  0  0  0  0  0  0
  1  2  1  0  0  0  0
  2  3  1  0  0  0  0
  3  4  1  0  0  0  0
  4  5  1  0  0  0  0
  5  6  1  0  0  0  0
  6  7  1  0  0  0  0
  7  8  1  0  0  0  0
  8  9  1  0  0  0  0
  9 10  1  0  0  0  0
 10 11  1  0  0  0  0
 11 12  1  0  0  0  0
 12 13  1  0  0  0  0
 13 14  1  0  0  0  0
M  END
>  <CHROM.1>
-63.31997302,-75.63132058,-168.89075224,179.71566918,51.94754200,165.66817884
-68.06777303,-112.41058575,164.53259795,176.16097236,178.39927021,45.30072065
6.58513514,18.32702405,1.30020930,0.82198345,-2.97110274

>  <Name>
ligand

>  <RI>
0

>  <Rbt.Current_Directory>
/home/itssahil/PROJECTS/Mol_Feturizer/New_Systems/rnas/1TN1

>  <Rbt.Executable>
rbdock ($Id: //depot/dev/client3/rdock/2013.1/src/exe/rbdock.cxx#4 $)

>  <Rbt.Library>
libRbt.so (2013.1, Build901 2013/11/27)

>  <Rbt.Parameter_File>
/export/apps/rDock/src/rDock_2013.1_src/data/scripts/dock_solv.prm

>  <Rbt.Receptor>
prm/pocket_docking_2.prm

>  <SCORE>
-4.7915

>  <SCORE.INTER>
-3.14566

>  <SCORE.INTER.CONST>
1

>  <SCORE.INTER.POLAR>
0

>  <SCORE.INTER.ROT>
11

>  <SCORE.INTER.SOLV>
14.5775

>  <SCORE.INTER.VDW>
-17.8896

>  <SCORE.INTER.norm>
-0.22469

>  <SCORE.INTRA>
-1.65741

>  <SCORE.INTRA.DIHEDRAL>
-4.06956

>  <SCORE.INTRA.DIHEDRAL.0>
7.79482

>  <SCORE.INTRA.POLAR>
0

>  <SCORE.INTRA.POLAR.0>
0

>  <SCORE.INTRA.REPUL>
0

>  <SCORE.INTRA.REPUL.0>
0

>  <SCORE.INTRA.SOLV>
2.14788

>  <SCORE.INTRA.SOLV.lig_0>
-49.456

>  <SCORE.INTRA.VDW>
-0.696571

>  <SCORE.INTRA.VDW.0>
-0.478406

>  <SCORE.INTRA.norm>
-0.118387

>  <SCORE.RESTR>
0.0115739

>  <SCORE.RESTR.CAVITY>
0.0115739

>  <SCORE.RESTR.norm>
0.000826704

>  <SCORE.SYSTEM>
0

>  <SCORE.SYSTEM.CONST>
0

>  <SCORE.SYSTEM.DIHEDRAL>
0

>  <SCORE.SYSTEM.SOLV>
0

>  <SCORE.SYSTEM.norm>
0

>  <SCORE.heavy>
14

>  <SCORE.norm>
-0.34225

>  <RMSD>
1.497

$$$$
ligand
 OpenBabel11021811413D
libRbt.so/2013.1/901 2013/11/27
 14 13  0  0  0  0  0  0  0  0999 V2000
   42.4624   11.2169   17.7717 N   0  0  0  0  0  0  0  0  0  0  0  0
   43.1130   10.3002   18.7328 C   0  0  0  0  0  0  0  0  0  0  0  0
   44.4558    9.7745   18.1810 C   0  0  0  0  0  0  0  0  0  0  0  0
   45.2339    8.8674   19.1483 C   0  0  0  0  0  0  0  0  0  0  0  0
   46.3271    8.1453   18.4413 N   0  0  0  0  0  0  0  0  0  0  0  0
   46.7129    6.9279   19.2001 C   0  0  0  0  0  0  0  0  0  0  0  0
   45.5266    6.0246   19.6786 C   0  0  0  0  0  0  0  0  0  0  0  0
   45.9049    4.5275   19.8688 C   0  0  0  0  0  0  0  0  0  0  0  0
   46.0377    3.7564   18.5701 C   0  0  0  0  0  0  0  0  0  0  0  0
   46.2731    2.3653   18.9072 N   0  0  0  0  0  0  0  0  0  0  0  0
   44.9671    1.7297   18.9091 C   0  0  0  0  0  0  0  0  0  0  0  0
   44.5898    1.2264   17.5207 C   0  0  0  0  0  0  0  0  0  0  0  0
   45.5574    0.0890   17.1599 C   0  0  0  0  0  0  0  0  0  0  0  0
   45.3604   -0.3925   15.7844 N   0  0  0  0  0  0  0  0  0  0  0  0
  1  2  1  0  0  0  0
  2  3  1  0  0  0  0
  3  4  1  0  0  0  0
  4  5  1  0  0  0  0
  5  6  1  0  0  0  0
  6  7  1  0  0  0  0
  7  8  1  0  0  0  0
  8  9  1  0  0  0  0
  9 10  1  0  0  0  0
 10 11  1  0  0  0  0
 11 12  1  0  0  0  0
 12 13  1  0  0  0  0
 13 14  1  0  0  0  0
M  END
>  <CHROM.1>
177.10895948,166.17318526,-158.03141861,47.56622999,153.66467586,-76.09491429
-175.03762365,93.73199830,87.73385299,66.52146130,-174.85928318,45.18019150
5.32561795,18.41986352,1.75850429,-0.69840177,0.23137130

>  <Name>
ligand

>  <RI>
0

>  <Rbt.Current_Directory>
/home/itssahil/PROJECTS/Mol_Feturizer/New_Systems/rnas/1TN1

>  <Rbt.Executable>
rbdock ($Id: //depot/dev/client3/rdock/2013.1/src/exe/rbdock.cxx#4 $)

>  <Rbt.Library>
libRbt.so (2013.1, Build901 2013/11/27)

>  <Rbt.Parameter_File>
/export/apps/rDock/src/rDock_2013.1_src/data/scripts/dock_solv.prm

>  <Rbt.Receptor>
prm/pocket_docking_2.prm

>  <SCORE>
-4.01793

>  <SCORE.INTER>
-5.51662

>  <SCORE.INTER.CONST>
1

>  <SCORE.INTER.POLAR>
0

>  <SCORE.INTER.ROT>
11

>  <SCORE.INTER.SOLV>
16.1945

>  <SCORE.INTER.VDW>
-20.0092

>  <SCORE.INTER.norm>
-0.394044

>  <SCORE.INTRA>
1.49869

>  <SCORE.INTRA.DIHEDRAL>
-1.73894

>  <SCORE.INTRA.DIHEDRAL.0>
7.79482

>  <SCORE.INTRA.POLAR>
0

>  <SCORE.INTRA.POLAR.0>
0

>  <SCORE.INTRA.REPUL>
0

>  <SCORE.INTRA.REPUL.0>
0

>  <SCORE.INTRA.SOLV>
0.58403

>  <SCORE.INTRA.SOLV.lig_0>
-49.456

>  <SCORE.INTRA.VDW>
2.07615

>  <SCORE.INTRA.VDW.0>
-0.478406

>  <SCORE.INTRA.norm>
0.107049

>  <SCORE.RESTR>
0

>  <SCORE.RESTR.CAVITY>
0

>  <SCORE.RESTR.norm>
0

>  <SCORE.SYSTEM>
0

>  <SCORE.SYSTEM.CONST>
0

>  <SCORE.SYSTEM.DIHEDRAL>
0

>  <SCORE.SYSTEM.SOLV>
0

>  <SCORE.SYSTEM.norm>
0

>  <SCORE.heavy>
14

>  <SCORE.norm>
-0.286995

>  <RMSD>
1.501

$$$$
ligand
 OpenBabel11021811413D
libRbt.so/2013.1/901 2013/11/27
 14 13  0  0  0  0  0  0  0  0999 V2000
   41.7326   12.2055   17.6540 N   0  0  0  0  0  0  0  0  0  0  0  0
   42.2779   11.1242   18.5028 C   0  0  0  0  0  0  0  0  0  0  0  0
   43.6269   10.6109   17.9545 C   0  0  0  0  0  0  0  0  0  0  0  0
   44.2781    9.5000   18.7946 C   0  0  0  0  0  0  0  0  0  0  0  0
   45.4325    8.8937   18.0762 N   0  0  0  0  0  0  0  0  0  0  0  0
   46.5084    8.5418   19.0382 C   0  0  0  0  0  0  0  0  0  0  0  0
   46.8363    7.0152   19.1581 C   0  0  0  0  0  0  0  0  0  0  0  0
   45.7673    6.1953   19.9362 C   0  0  0  0  0  0  0  0  0  0  0  0
   46.1178    4.7297   20.1041 C   0  0  0  0  0  0  0  0  0  0  0  0
   45.9459    4.0864   18.8153 N   0  0  0  0  0  0  0  0  0  0  0  0
   45.0921    2.9362   19.0554 C   0  0  0  0  0  0  0  0  0  0  0  0
   44.6812    2.2645   17.7503 C   0  0  0  0  0  0  0  0  0  0  0  0
   45.9399    1.6330   17.1364 C   0  0  0  0  0  0  0  0  0  0  0  0
   45.6566    0.9560   15.8619 N   0  0  0  0  0  0  0  0  0  0  0  0
  1  2  1  0  0  0  0
  2  3  1  0  0  0  0
  3  4  1  0  0  0  0
  4  5  1  0  0  0  0
  5  6  1  0  0  0  0
  6  7  1  0  0  0  0
  7  8  1  0  0  0  0
  8  9  1  0  0  0  0
  9 10  1  0  0  0  0
 10 11  1  0  0  0  0
 11 12  1  0  0  0  0
 12 13  1  0  0  0  0
 13 14  1  0  0  0  0
M  END
>  <CHROM.1>
178.91930563,169.64349015,143.90282752,116.15792229,-74.11512110,-177.40815598
-73.17337225,-128.04408035,172.71700056,67.96144688,-179.83694002,44.99253286
6.47799215,18.41732181,1.91294291,-0.67603978,0.28064752

>  <Name>
ligand

>  <RI>
0

>  <Rbt.Current_Directory>
/home/itssahil/PROJECTS/Mol_Feturizer/New_Systems/rnas/1TN1

>  <Rbt.Executable>
rbdock ($Id: //depot/dev/client3/rdock/2013.1/src/exe/rbdock.cxx#4 $)

>  <Rbt.Library>
libRbt.so (2013.1, Build901 2013/11/27)

>  <Rbt.Parameter_File>
/export/apps/rDock/src/rDock_2013.1_src/data/scripts/dock_solv.prm

>  <Rbt.Receptor>
prm/pocket_docking_2.prm

>  <SCORE>
-6.5981

>  <SCORE.INTER>
-5.00681

>  <SCORE.INTER.CONST>
1

>  <SCORE.INTER.POLAR>
0

>  <SCORE.INTER.ROT>
11

>  <SCORE.INTER.SOLV>
15.3366

>  <SCORE.INTER.VDW>
-19.3834

>  <SCORE.INTER.norm>
-0.357629

>  <SCORE.INTRA>
-1.59537

>  <SCORE.INTRA.DIHEDRAL>
-2.61197

>  <SCORE.INTRA.DIHEDRAL.0>
7.79482

>  <SCORE.INTRA.POLAR>
0

>  <SCORE.INTRA.POLAR.0>
0

>  <SCORE.INTRA.REPUL>
0

>  <SCORE.INTRA.REPUL.0>
0

>  <SCORE.INTRA.SOLV>
0.929323

>  <SCORE.INTRA.SOLV.lig_0>
-49.456

>  <SCORE.INTRA.VDW>
-0.754042

>  <SCORE.INTRA.VDW.0>
-0.478406

>  <SCORE.INTRA.norm>
-0.113955

>  <SCORE.RESTR>
0.00406817

>  <SCORE.RESTR.CAVITY>
0.00406817

>  <SCORE.RESTR.norm>
0.000290584

>  <SCORE.SYSTEM>
0

>  <SCORE.SYSTEM.CONST>
0

>  <SCORE.SYSTEM.DIHEDRAL>
0

>  <SCORE.SYSTEM.SOLV>
0

>  <SCORE.SYSTEM.norm>
0

>  <SCORE.heavy>
14

>  <SCORE.norm>
-0.471293

>  <RMSD>
1.527

$$$$
ligand
 OpenBabel11021811413D
libRbt.so/2013.1/901 2013/11/27
 14 13  0  0  0  0  0  0  0  0999 V2000
   45.3726   -0.5247   15.4291 N   0  0  0  0  0  0  0  0  0  0  0  0
   45.3457   -0.2210   16.8762 C   0  0  0  0  0  0  0  0  0  0  0  0
   45.1244    1.2866   17.1259 C   0  0  0  0  0  0  0  0  0  0  0  0
   45.0221    1.6813   18.6084 C   0  0  0  0  0  0  0  0  0  0  0  0
   44.8053    3.1466   18.7575 N   0  0  0  0  0  0  0  0  0  0  0  0
   46.1028    3.8669   18.6908 C   0  0  0  0  0  0  0  0  0  0  0  0
   46.4576    4.7393   19.9419 C   0  0  0  0  0  0  0  0  0  0  0  0
   45.6488    6.0645   20.0422 C   0  0  0  0  0  0  0  0  0  0  0  0
   46.0622    7.1160   19.0312 C   0  0  0  0  0  0  0  0  0  0  0  0
   45.3645    8.3436   19.3637 N   0  0  0  0  0  0  0  0  0  0  0  0
   45.3258    9.1236   18.1391 C   0  0  0  0  0  0  0  0  0  0  0  0
   44.3900   10.3198   18.2691 C   0  0  0  0  0  0  0  0  0  0  0  0
   44.4133   11.0756   16.9319 C   0  0  0  0  0  0  0  0  0  0  0  0
   43.5947   12.2967   16.9697 N   0  0  0  0  0  0  0  0  0  0  0  0
  1  2  1  0  0  0  0
  2  3  1  0  0  0  0
  3  4  1  0  0  0  0
  4  5  1  0  0  0  0
  5  6  1  0  0  0  0
  6  7  1  0  0  0  0
  7  8  1  0  0  0  0
  8  9  1  0  0  0  0
  9 10  1  0  0  0  0
 10 11  1  0  0  0  0
 11 12  1  0  0  0  0
 12 13  1  0  0  0  0
 13 14  1  0  0  0  0
M  END
>  <CHROM.1>
177.47333682,-179.81345667,-83.37740909,-121.80544559,-74.47345541,-72.53990047
-172.09989174,-157.11262354,169.02108778,-179.85342183,-176.93710606,45.21660361
5.59382783,18.15568313,1.35692100,1.18108967,-2.87947160

>  <Name>
ligand

>  <RI>
0

>  <Rbt.Current_Directory>
/home/itssahil/PROJECTS/Mol_Feturizer/New_Systems/rnas/1TN1

>  <Rbt.Executable>
rbdock ($Id: //depot/dev/client3/rdock/2013.1/src/exe/rbdock.cxx#4 $)

>  <Rbt.Library>
libRbt.so (2013.1, Build901 2013/11/27)

>  <Rbt.Parameter_File>
/export/apps/rDock/src/rDock_2013.1_src/data/scripts/dock_solv.prm

>  <Rbt.Receptor>
prm/pocket_docking_2.prm

>  <SCORE>
-5.62967

>  <SCORE.INTER>
-3.75923

>  <SCORE.INTER.CONST>
1

>  <SCORE.INTER.POLAR>
0

>  <SCORE.INTER.ROT>
11

>  <SCORE.INTER.SOLV>
11.9914

>  <SCORE.INTER.VDW>
-17.4366

>  <SCORE.INTER.norm>
-0.268516

>  <SCORE.INTRA>
-2.13414

>  <SCORE.INTRA.DIHEDRAL>
-4.0392

>  <SCORE.INTRA.DIHEDRAL.0>
7.79482

>  <SCORE.INTRA.POLAR>
0

>  <SCORE.INTRA.POLAR.0>
0

>  <SCORE.INTRA.REPUL>
0

>  <SCORE.INTRA.REPUL.0>
0

>  <SCORE.INTRA.SOLV>
0.437133

>  <SCORE.INTRA.SOLV.lig_0>
-49.456

>  <SCORE.INTRA.VDW>
-0.33311

>  <SCORE.INTRA.VDW.0>
-0.478406

>  <SCORE.INTRA.norm>
-0.152439

>  <SCORE.RESTR>
0.263702

>  <SCORE.RESTR.CAVITY>
0.263702

>  <SCORE.RESTR.norm>
0.0188359

>  <SCORE.SYSTEM>
0

>  <SCORE.SYSTEM.CONST>
0

>  <SCORE.SYSTEM.DIHEDRAL>
0

>  <SCORE.SYSTEM.SOLV>
0

>  <SCORE.SYSTEM.norm>
0

>  <SCORE.heavy>
14

>  <SCORE.norm>
-0.402119

>  <RMSD>
1.555

$$$$
ligand
 OpenBabel11021811413D
libRbt.so/2013.1/901 2013/11/27
 14 13  0  0  0  0  0  0  0  0999 V2000
   43.1972   10.7827   18.6267 N   0  0  0  0  0  0  0  0  0  0  0  0
   43.4439   11.2231   17.2366 C   0  0  0  0  0  0  0  0  0  0  0  0
   44.9528   11.2181   16.9091 C   0  0  0  0  0  0  0  0  0  0  0  0
   45.6425    9.8561   17.0908 C   0  0  0  0  0  0  0  0  0  0  0  0
   46.0428    9.6447   18.5091 N   0  0  0  0  0  0  0  0  0  0  0  0
   45.3160    8.4817   19.0799 C   0  0  0  0  0  0  0  0  0  0  0  0
   46.1075    7.1306   19.0960 C   0  0  0  0  0  0  0  0  0  0  0  0
   45.4327    6.0093   19.9372 C   0  0  0  0  0  0  0  0  0  0  0  0
   46.2262    4.7184   19.9914 C   0  0  0  0  0  0  0  0  0  0  0  0
   46.1203    4.0827   18.6918 N   0  0  0  0  0  0  0  0  0  0  0  0
   45.7466    2.7035   18.9526 C   0  0  0  0  0  0  0  0  0  0  0  0
   46.1977    1.7810   17.8263 C   0  0  0  0  0  0  0  0  0  0  0  0
   45.3262    2.0860   16.5985 C   0  0  0  0  0  0  0  0  0  0  0  0
   45.4989    1.0875   15.5328 N   0  0  0  0  0  0  0  0  0  0  0  0
  1  2  1  0  0  0  0
  2  3  1  0  0  0  0
  3  4  1  0  0  0  0
  4  5  1  0  0  0  0
  5  6  1  0  0  0  0
  6  7  1  0  0  0  0
  7  8  1  0  0  0  0
  8  9  1  0  0  0  0
  9 10  1  0  0  0  0
 10 11  1  0  0  0  0
 11 12  1  0  0  0  0
 12 13  1  0  0  0  0
 13 14  1  0  0  0  0
M  END
>  <CHROM.1>
57.90793484,-84.03500215,116.83931359,98.07685836,168.91386466,-177.92866165
-72.64525869,-130.65662948,-154.14265276,-70.45088962,-169.22725699,45.37514583
6.48613736,18.14861442,2.05640098,-1.25045467,0.49680436

>  <Name>
ligand

>  <RI>
0

>  <Rbt.Current_Directory>
/home/itssahil/PROJECTS/Mol_Feturizer/New_Systems/rnas/1TN1

>  <Rbt.Executable>
rbdock ($Id: //depot/dev/client3/rdock/2013.1/src/exe/rbdock.cxx#4 $)

>  <Rbt.Library>
libRbt.so (2013.1, Build901 2013/11/27)

>  <Rbt.Parameter_File>
/export/apps/rDock/src/rDock_2013.1_src/data/scripts/dock_solv.prm

>  <Rbt.Receptor>
prm/pocket_docking_2.prm

>  <SCORE>
-1.63345

>  <SCORE.INTER>
-2.75824

>  <SCORE.INTER.CONST>
1

>  <SCORE.INTER.POLAR>
0

>  <SCORE.INTER.ROT>
11

>  <SCORE.INTER.SOLV>
11.8502

>  <SCORE.INTER.VDW>
-16.7222

>  <SCORE.INTER.norm>
-0.197017

>  <SCORE.INTRA>
1.12479

>  <SCORE.INTRA.DIHEDRAL>
-0.364636

>  <SCORE.INTRA.DIHEDRAL.0>
7.79482

>  <SCORE.INTRA.POLAR>
0

>  <SCORE.INTRA.POLAR.0>
0

>  <SCORE.INTRA.REPUL>
0

>  <SCORE.INTRA.REPUL.0>
0

>  <SCORE.INTRA.SOLV>
4.078

>  <SCORE.INTRA.SOLV.lig_0>
-49.456

>  <SCORE.INTRA.VDW>
-0.731894

>  <SCORE.INTRA.VDW.0>
-0.478406

>  <SCORE.INTRA.norm>
0.0803421

>  <SCORE.RESTR>
0

>  <SCORE.RESTR.CAVITY>
0

>  <SCORE.RESTR.norm>
0

>  <SCORE.SYSTEM>
0

>  <SCORE.SYSTEM.CONST>
0

>  <SCORE.SYSTEM.DIHEDRAL>
0

>  <SCORE.SYSTEM.SOLV>
0

>  <SCORE.SYSTEM.norm>
0

>  <SCORE.heavy>
14

>  <SCORE.norm>
-0.116675

>  <RMSD>
1.561

$$$$
ligand
 OpenBabel11021811413D
libRbt.so/2013.1/901 2013/11/27
 14 13  0  0  0  0  0  0  0  0999 V2000
   42.4988   11.2802   17.7308 N   0  0  0  0  0  0  0  0  0  0  0  0
   43.0025   10.2218   18.6325 C   0  0  0  0  0  0  0  0  0  0  0  0
   44.4083    9.7472   18.2053 C   0  0  0  0  0  0  0  0  0  0  0  0
   45.0062    8.6406   19.0896 C   0  0  0  0  0  0  0  0  0  0  0  0
   46.3521    8.2341   18.6001 N   0  0  0  0  0  0  0  0  0  0  0  0
   46.7764    6.9700   19.2550 C   0  0  0  0  0  0  0  0  0  0  0  0
   46.0054    5.6832   18.8057 C   0  0  0  0  0  0  0  0  0  0  0  0
   46.3403    4.4167   19.6449 C   0  0  0  0  0  0  0  0  0  0  0  0
   45.5742    3.1783   19.2226 C   0  0  0  0  0  0  0  0  0  0  0  0
   46.1594    2.7007   17.9842 N   0  0  0  0  0  0  0  0  0  0  0  0
   45.1675    2.9506   16.9529 C   0  0  0  0  0  0  0  0  0  0  0  0
   44.1533    1.8159   16.8681 C   0  0  0  0  0  0  0  0  0  0  0  0
   44.8926    0.5687   16.3602 C   0  0  0  0  0  0  0  0  0  0  0  0
   45.7988    0.0088   17.3741 N   0  0  0  0  0  0  0  0  0  0  0  0
  1  2  1  0  0  0  0
  2  3  1  0  0  0  0
  3  4  1  0  0  0  0
  4  5  1  0  0  0  0
  5  6  1  0  0  0  0
  6  7  1  0  0  0  0
  7  8  1  0  0  0  0
  8  9  1  0  0  0  0
  9 10  1  0  0  0  0
 10 11  1  0  0  0  0
 11 12  1  0  0  0  0
 12 13  1  0  0  0  0
 13 14  1  0  0  0  0
M  END
>  <CHROM.1>
-179.79862466,179.41536395,-166.88305562,70.98376804,-172.17308060,178.99911615
74.77876262,-110.38327455,-85.12504818,-67.16182939,71.55194055,45.15255893
5.45830318,18.19483144,1.75768962,-0.60542705,0.23339974

>  <Name>
ligand

>  <RI>
0

>  <Rbt.Current_Directory>
/home/itssahil/PROJECTS/Mol_Feturizer/New_Systems/rnas/1TN1

>  <Rbt.Executable>
rbdock ($Id: //depot/dev/client3/rdock/2013.1/src/exe/rbdock.cxx#4 $)

>  <Rbt.Library>
libRbt.so (2013.1, Build901 2013/11/27)

>  <Rbt.Parameter_File>
/export/apps/rDock/src/rDock_2013.1_src/data/scripts/dock_solv.prm

>  <Rbt.Receptor>
prm/pocket_docking_2.prm

>  <SCORE>
-2.37121

>  <SCORE.INTER>
-2.62109

>  <SCORE.INTER.CONST>
1

>  <SCORE.INTER.POLAR>
0

>  <SCORE.INTER.ROT>
11

>  <SCORE.INTER.SOLV>
16.941

>  <SCORE.INTER.VDW>
-18.3277

>  <SCORE.INTER.norm>
-0.187221

>  <SCORE.INTRA>
0.242059

>  <SCORE.INTRA.DIHEDRAL>
-4.28666

>  <SCORE.INTRA.DIHEDRAL.0>
7.79482

>  <SCORE.INTRA.POLAR>
0

>  <SCORE.INTRA.POLAR.0>
0

>  <SCORE.INTRA.REPUL>
0

>  <SCORE.INTRA.REPUL.0>
0

>  <SCORE.INTRA.SOLV>
3.56936

>  <SCORE.INTRA.SOLV.lig_0>
-49.456

>  <SCORE.INTRA.VDW>
0.600712

>  <SCORE.INTRA.VDW.0>
-0.478406

>  <SCORE.INTRA.norm>
0.0172899

>  <SCORE.RESTR>
0.00782619

>  <SCORE.RESTR.CAVITY>
0.00782619

>  <SCORE.RESTR.norm>
0.000559014

>  <SCORE.SYSTEM>
0

>  <SCORE.SYSTEM.CONST>
0

>  <SCORE.SYSTEM.DIHEDRAL>
0

>  <SCORE.SYSTEM.SOLV>
0

>  <SCORE.SYSTEM.norm>
0

>  <SCORE.heavy>
14

>  <SCORE.norm>
-0.169372

>  <RMSD>
1.573

$$$$
ligand
 OpenBabel11021811413D
libRbt.so/2013.1/901 2013/11/27
 14 13  0  0  0  0  0  0  0  0999 V2000
   44.3439   -0.0307   15.5857 N   0  0  0  0  0  0  0  0  0  0  0  0
   45.4457   -0.4576   16.4751 C   0  0  0  0  0  0  0  0  0  0  0  0
   45.7489    0.6158   17.5427 C   0  0  0  0  0  0  0  0  0  0  0  0
   45.9927    2.0261   16.9809 C   0  0  0  0  0  0  0  0  0  0  0  0
   46.7781    2.8538   17.9371 N   0  0  0  0  0  0  0  0  0  0  0  0
   45.9131    3.3030   19.0582 C   0  0  0  0  0  0  0  0  0  0  0  0
   46.3437    4.6393   19.7517 C   0  0  0  0  0  0  0  0  0  0  0  0
   46.2755    5.8867   18.8245 C   0  0  0  0  0  0  0  0  0  0  0  0
   46.8818    7.1376   19.4299 C   0  0  0  0  0  0  0  0  0  0  0  0
   46.4057    8.2725   18.6621 N   0  0  0  0  0  0  0  0  0  0  0  0
   45.5065    8.9990   19.5416 C   0  0  0  0  0  0  0  0  0  0  0  0
   44.2629    9.4738   18.7990 C   0  0  0  0  0  0  0  0  0  0  0  0
   44.7025   10.5548   17.8000 C   0  0  0  0  0  0  0  0  0  0  0  0
   43.5604   11.1622   17.1005 N   0  0  0  0  0  0  0  0  0  0  0  0
  1  2  1  0  0  0  0
  2  3  1  0  0  0  0
  3  4  1  0  0  0  0
  4  5  1  0  0  0  0
  5  6  1  0  0  0  0
  6  7  1  0  0  0  0
  7  8  1  0  0  0  0
  8  9  1  0  0  0  0
  9 10  1  0  0  0  0
 10 11  1  0  0  0  0
 11 12  1  0  0  0  0
 12 13  1  0  0  0  0
 13 14  1  0  0  0  0
M  END
>  <CHROM.1>
-52.44160142,-157.63638314,-75.80057170,-153.09364952,64.20306625,-171.50162022
-163.29209633,110.69042917,-138.37489371,-68.18334059,-175.43539496,45.58309261
5.31678057,18.10667211,1.46328545,0.85292169,-2.90261807

>  <Name>
ligand

>  <RI>
0

>  <Rbt.Current_Directory>
/home/itssahil/PROJECTS/Mol_Feturizer/New_Systems/rnas/1TN1

>  <Rbt.Executable>
rbdock ($Id: //depot/dev/client3/rdock/2013.1/src/exe/rbdock.cxx#4 $)

>  <Rbt.Library>
libRbt.so (2013.1, Build901 2013/11/27)

>  <Rbt.Parameter_File>
/export/apps/rDock/src/rDock_2013.1_src/data/scripts/dock_solv.prm

>  <Rbt.Receptor>
prm/pocket_docking_2.prm

>  <SCORE>
-3.58487

>  <SCORE.INTER>
-3.78889

>  <SCORE.INTER.CONST>
1

>  <SCORE.INTER.POLAR>
0

>  <SCORE.INTER.ROT>
11

>  <SCORE.INTER.SOLV>
15.736

>  <SCORE.INTER.VDW>
-18.7046

>  <SCORE.INTER.norm>
-0.270635

>  <SCORE.INTRA>
0.106025

>  <SCORE.INTRA.DIHEDRAL>
-1.44258

>  <SCORE.INTRA.DIHEDRAL.0>
7.79482

>  <SCORE.INTRA.POLAR>
0

>  <SCORE.INTRA.POLAR.0>
0

>  <SCORE.INTRA.REPUL>
0

>  <SCORE.INTRA.REPUL.0>
0

>  <SCORE.INTRA.SOLV>
1.46296

>  <SCORE.INTRA.SOLV.lig_0>
-49.456

>  <SCORE.INTRA.VDW>
0.0958315

>  <SCORE.INTRA.VDW.0>
-0.478406

>  <SCORE.INTRA.norm>
0.00757323

>  <SCORE.RESTR>
0.0979933

>  <SCORE.RESTR.CAVITY>
0.0979933

>  <SCORE.RESTR.norm>
0.00699952

>  <SCORE.SYSTEM>
0

>  <SCORE.SYSTEM.CONST>
0

>  <SCORE.SYSTEM.DIHEDRAL>
0

>  <SCORE.SYSTEM.SOLV>
0

>  <SCORE.SYSTEM.norm>
0

>  <SCORE.heavy>
14

>  <SCORE.norm>
-0.256062

>  <RMSD>
1.602

$$$$
ligand
 OpenBabel11021811413D
libRbt.so/2013.1/901 2013/11/27
 14 13  0  0  0  0  0  0  0  0999 V2000
   43.3352   11.0615   17.8571 N   0  0  0  0  0  0  0  0  0  0  0  0
   44.6912   10.4778   17.7690 C   0  0  0  0  0  0  0  0  0  0  0  0
   45.0586    9.7220   19.0642 C   0  0  0  0  0  0  0  0  0  0  0  0
   46.4858    9.1506   19.0887 C   0  0  0  0  0  0  0  0  0  0  0  0
   46.6351    8.0432   18.1049 N   0  0  0  0  0  0  0  0  0  0  0  0
   46.9388    6.7700   18.8072 C   0  0  0  0  0  0  0  0  0  0  0  0
   45.7192    6.0693   19.4955 C   0  0  0  0  0  0  0  0  0  0  0  0
   46.0450    4.6706   20.0939 C   0  0  0  0  0  0  0  0  0  0  0  0
   46.3296    3.6065   19.0521 C   0  0  0  0  0  0  0  0  0  0  0  0
   45.0573    3.1791   18.5016 N   0  0  0  0  0  0  0  0  0  0  0  0
   44.9071    1.7854   18.8821 C   0  0  0  0  0  0  0  0  0  0  0  0
   44.4507    0.9319   17.7046 C   0  0  0  0  0  0  0  0  0  0  0  0
   45.6145    0.8595   16.7045 C   0  0  0  0  0  0  0  0  0  0  0  0
   45.2845    0.0437   15.5263 N   0  0  0  0  0  0  0  0  0  0  0  0
  1  2  1  0  0  0  0
  2  3  1  0  0  0  0
  3  4  1  0  0  0  0
  4  5  1  0  0  0  0
  5  6  1  0  0  0  0
  6  7  1  0  0  0  0
  7  8  1  0  0  0  0
  8  9  1  0  0  0  0
  9 10  1  0  0  0  0
 10 11  1  0  0  0  0
 11 12  1  0  0  0  0
 12 13  1  0  0  0  0
 13 14  1  0  0  0  0
M  END
>  <CHROM.1>
-176.69193859,-68.15554301,-116.57071499,77.36734836,174.05426580,-68.92955451
-77.55427666,-115.25053569,-133.88547382,69.24199468,179.47999222,45.46819845
5.45502544,18.33260594,1.59144274,-0.92459198,0.13845066

>  <Name>
ligand

>  <RI>
0

>  <Rbt.Current_Directory>
/home/itssahil/PROJECTS/Mol_Feturizer/New_Systems/rnas/1TN1

>  <Rbt.Executable>
rbdock ($Id: //depot/dev/client3/rdock/2013.1/src/exe/rbdock.cxx#4 $)

>  <Rbt.Library>
libRbt.so (2013.1, Build901 2013/11/27)

>  <Rbt.Parameter_File>
/export/apps/rDock/src/rDock_2013.1_src/data/scripts/dock_solv.prm

>  <Rbt.Receptor>
prm/pocket_docking_2.prm

>  <SCORE>
-4.60314

>  <SCORE.INTER>
-3.99784

>  <SCORE.INTER.CONST>
1

>  <SCORE.INTER.POLAR>
0

>  <SCORE.INTER.ROT>
11

>  <SCORE.INTER.SOLV>
13.3885

>  <SCORE.INTER.VDW>
-18.0614

>  <SCORE.INTER.norm>
-0.28556

>  <SCORE.INTRA>
-0.605295

>  <SCORE.INTRA.DIHEDRAL>
-1.989

>  <SCORE.INTRA.DIHEDRAL.0>
7.79482

>  <SCORE.INTRA.POLAR>
0

>  <SCORE.INTRA.POLAR.0>
0

>  <SCORE.INTRA.REPUL>
0

>  <SCORE.INTRA.REPUL.0>
0

>  <SCORE.INTRA.SOLV>
1.14553

>  <SCORE.INTRA.SOLV.lig_0>
-49.456

>  <SCORE.INTRA.VDW>
-0.183562

>  <SCORE.INTRA.VDW.0>
-0.478406

>  <SCORE.INTRA.norm>
-0.0432354

>  <SCORE.RESTR>
0

>  <SCORE.RESTR.CAVITY>
0

>  <SCORE.RESTR.norm>
0

>  <SCORE.SYSTEM>
0

>  <SCORE.SYSTEM.CONST>
0

>  <SCORE.SYSTEM.DIHEDRAL>
0

>  <SCORE.SYSTEM.SOLV>
0

>  <SCORE.SYSTEM.norm>
0

>  <SCORE.heavy>
14

>  <SCORE.norm>
-0.328796

>  <RMSD>
1.616

$$$$
ligand
 OpenBabel11021811413D
libRbt.so/2013.1/901 2013/11/27
 14 13  0  0  0  0  0  0  0  0999 V2000
   44.0333    2.1507   16.6494 N   0  0  0  0  0  0  0  0  0  0  0  0
   45.0582    1.0906   16.5365 C   0  0  0  0  0  0  0  0  0  0  0  0
   45.6824    0.7691   17.9116 C   0  0  0  0  0  0  0  0  0  0  0  0
   46.5073    1.9135   18.5232 C   0  0  0  0  0  0  0  0  0  0  0  0
   45.6343    3.0585   18.9016 N   0  0  0  0  0  0  0  0  0  0  0  0
   46.1089    4.3044   18.2465 C   0  0  0  0  0  0  0  0  0  0  0  0
   46.1612    5.5732   19.1628 C   0  0  0  0  0  0  0  0  0  0  0  0
   46.8071    6.8175   18.4884 C   0  0  0  0  0  0  0  0  0  0  0  0
   46.4210    8.1356   19.1307 C   0  0  0  0  0  0  0  0  0  0  0  0
   44.9760    8.2475   19.0699 N   0  0  0  0  0  0  0  0  0  0  0  0
   44.7012    9.5748   18.5481 C   0  0  0  0  0  0  0  0  0  0  0  0
   43.2266    9.9345   18.6874 C   0  0  0  0  0  0  0  0  0  0  0  0
   43.0071   11.2792   17.9777 C   0  0  0  0  0  0  0  0  0  0  0  0
   41.6479   11.8012   18.1845 N   0  0  0  0  0  0  0  0  0  0  0  0
  1  2  1  0  0  0  0
  2  3  1  0  0  0  0
  3  4  1  0  0  0  0
  4  5  1  0  0  0  0
  5  6  1  0  0  0  0
  6  7  1  0  0  0  0
  7  8  1  0  0  0  0
  8  9  1  0  0  0  0
  9 10  1  0  0  0  0
 10 11  1  0  0  0  0
 11 12  1  0  0  0  0
 12 13  1  0  0  0  0
 13 14  1  0  0  0  0
M  END
>  <CHROM.1>
-66.17345395,67.83849538,-124.50885706,-135.44419738,173.67339623,158.83929167
-58.37697053,-131.50845244,-168.74213117,-174.01525207,-173.30681250,44.99840859
6.04635498,18.28706550,1.30121377,0.45524222,-2.93699960

>  <Name>
ligand

>  <RI>
0

>  <Rbt.Current_Directory>
/home/itssahil/PROJECTS/Mol_Feturizer/New_Systems/rnas/1TN1

>  <Rbt.Executable>
rbdock ($Id: //depot/dev/client3/rdock/2013.1/src/exe/rbdock.cxx#4 $)

>  <Rbt.Library>
libRbt.so (2013.1, Build901 2013/11/27)

>  <Rbt.Parameter_File>
/export/apps/rDock/src/rDock_2013.1_src/data/scripts/dock_solv.prm

>  <Rbt.Receptor>
prm/pocket_docking_2.prm

>  <SCORE>
-2.94714

>  <SCORE.INTER>
-3.22

>  <SCORE.INTER.CONST>
1

>  <SCORE.INTER.POLAR>
0

>  <SCORE.INTER.ROT>
11

>  <SCORE.INTER.SOLV>
18.5416

>  <SCORE.INTER.VDW>
-19.2605

>  <SCORE.INTER.norm>
-0.23

>  <SCORE.INTRA>
0.228463

>  <SCORE.INTRA.DIHEDRAL>
-1.87349

>  <SCORE.INTRA.DIHEDRAL.0>
7.79482

>  <SCORE.INTRA.POLAR>
0

>  <SCORE.INTRA.POLAR.0>
0

>  <SCORE.INTRA.REPUL>
0

>  <SCORE.INTRA.REPUL.0>
0

>  <SCORE.INTRA.SOLV>
3.91512

>  <SCORE.INTRA.SOLV.lig_0>
-49.456

>  <SCORE.INTRA.VDW>
-0.79235

>  <SCORE.INTRA.VDW.0>
-0.478406

>  <SCORE.INTRA.norm>
0.0163188

>  <SCORE.RESTR>
0.0444008

>  <SCORE.RESTR.CAVITY>
0.0444008

>  <SCORE.RESTR.norm>
0.00317148

>  <SCORE.SYSTEM>
0

>  <SCORE.SYSTEM.CONST>
0

>  <SCORE.SYSTEM.DIHEDRAL>
0

>  <SCORE.SYSTEM.SOLV>
0

>  <SCORE.SYSTEM.norm>
0

>  <SCORE.heavy>
14

>  <SCORE.norm>
-0.21051

>  <RMSD>
1.620

$$$$
ligand
 OpenBabel11021811413D
libRbt.so/2013.1/901 2013/11/27
 14 13  0  0  0  0  0  0  0  0999 V2000
   46.0016    1.0313   15.9556 N   0  0  0  0  0  0  0  0  0  0  0  0
   44.5610    0.8545   16.2392 C   0  0  0  0  0  0  0  0  0  0  0  0
   44.3031    0.7215   17.7557 C   0  0  0  0  0  0  0  0  0  0  0  0
   44.4758    2.0261   18.5509 C   0  0  0  0  0  0  0  0  0  0  0  0
   45.8904    2.4888   18.5179 N   0  0  0  0  0  0  0  0  0  0  0  0
   45.9459    3.9730   18.5444 C   0  0  0  0  0  0  0  0  0  0  0  0
   46.1611    4.6170   19.9555 C   0  0  0  0  0  0  0  0  0  0  0  0
   45.7759    6.1224   20.0320 C   0  0  0  0  0  0  0  0  0  0  0  0
   46.5691    7.0093   19.0922 C   0  0  0  0  0  0  0  0  0  0  0  0
   45.9725    8.3311   19.1272 N   0  0  0  0  0  0  0  0  0  0  0  0
   46.4256    9.0043   17.9226 C   0  0  0  0  0  0  0  0  0  0  0  0
   46.0170   10.4727   17.9171 C   0  0  0  0  0  0  0  0  0  0  0  0
   44.4836   10.5281   17.8438 C   0  0  0  0  0  0  0  0  0  0  0  0
   43.9796   11.9086   17.7874 N   0  0  0  0  0  0  0  0  0  0  0  0
  1  2  1  0  0  0  0
  2  3  1  0  0  0  0
  3  4  1  0  0  0  0
  4  5  1  0  0  0  0
  5  6  1  0  0  0  0
  6  7  1  0  0  0  0
  7  8  1  0  0  0  0
  8  9  1  0  0  0  0
  9 10  1  0  0  0  0
 10 11  1  0  0  0  0
 11 12  1  0  0  0  0
 12 13  1  0  0  0  0
 13 14  1  0  0  0  0
M  END
>  <CHROM.1>
71.99330895,-65.14818347,147.31086960,96.04459190,-161.79054312,-60.42067947
171.65467148,-160.77087174,-172.67890742,-65.64416183,-178.09091225,45.46873556
5.64907048,18.23168734,1.61035677,1.09388024,-3.09441739

>  <Name>
ligand

>  <RI>
0

>  <Rbt.Current_Directory>
/home/itssahil/PROJECTS/Mol_Feturizer/New_Systems/rnas/1TN1

>  <Rbt.Executable>
rbdock ($Id: //depot/dev/client3/rdock/2013.1/src/exe/rbdock.cxx#4 $)

>  <Rbt.Library>
libRbt.so (2013.1, Build901 2013/11/27)

>  <Rbt.Parameter_File>
/export/apps/rDock/src/rDock_2013.1_src/data/scripts/dock_solv.prm

>  <Rbt.Receptor>
prm/pocket_docking_2.prm

>  <SCORE>
-4.16563

>  <SCORE.INTER>
-3.67395

>  <SCORE.INTER.CONST>
1

>  <SCORE.INTER.POLAR>
0

>  <SCORE.INTER.ROT>
11

>  <SCORE.INTER.SOLV>
10.577

>  <SCORE.INTER.VDW>
-16.9083

>  <SCORE.INTER.norm>
-0.262425

>  <SCORE.INTRA>
-0.518851

>  <SCORE.INTRA.DIHEDRAL>
-3.81905

>  <SCORE.INTRA.DIHEDRAL.0>
7.79482

>  <SCORE.INTRA.POLAR>
0

>  <SCORE.INTRA.POLAR.0>
0

>  <SCORE.INTRA.REPUL>
0

>  <SCORE.INTRA.REPUL.0>
0

>  <SCORE.INTRA.SOLV>
3.51104

>  <SCORE.INTRA.SOLV.lig_0>
-49.456

>  <SCORE.INTRA.VDW>
-0.364846

>  <SCORE.INTRA.VDW.0>
-0.478406

>  <SCORE.INTRA.norm>
-0.0370608

>  <SCORE.RESTR>
0.0271747

>  <SCORE.RESTR.CAVITY>
0.0271747

>  <SCORE.RESTR.norm>
0.00194105

>  <SCORE.SYSTEM>
0

>  <SCORE.SYSTEM.CONST>
0

>  <SCORE.SYSTEM.DIHEDRAL>
0

>  <SCORE.SYSTEM.SOLV>
0

>  <SCORE.SYSTEM.norm>
0

>  <SCORE.heavy>
14

>  <SCORE.norm>
-0.297545

>  <RMSD>
1.620

$$$$
ligand
 OpenBabel11021811413D
libRbt.so/2013.1/901 2013/11/27
 14 13  0  0  0  0  0  0  0  0999 V2000
   42.7635   12.4340   18.1196 N   0  0  0  0  0  0  0  0  0  0  0  0
   41.9700   11.1862   18.0975 C   0  0  0  0  0  0  0  0  0  0  0  0
   42.6699   10.0656   18.8964 C   0  0  0  0  0  0  0  0  0  0  0  0
   44.0887    9.7246   18.4117 C   0  0  0  0  0  0  0  0  0  0  0  0
   44.6108    8.5113   19.0985 N   0  0  0  0  0  0  0  0  0  0  0  0
   46.0210    8.2640   18.7024 C   0  0  0  0  0  0  0  0  0  0  0  0
   46.6614    6.9502   19.2644 C   0  0  0  0  0  0  0  0  0  0  0  0
   45.8682    5.6578   18.9165 C   0  0  0  0  0  0  0  0  0  0  0  0
   46.3335    4.4280   19.6715 C   0  0  0  0  0  0  0  0  0  0  0  0
   45.5975    3.2901   19.1539 N   0  0  0  0  0  0  0  0  0  0  0  0
   46.5107    2.5981   18.2611 C   0  0  0  0  0  0  0  0  0  0  0  0
   45.8725    2.3394   16.9014 C   0  0  0  0  0  0  0  0  0  0  0  0
   44.8196    1.2359   17.0847 C   0  0  0  0  0  0  0  0  0  0  0  0
   45.4284   -0.0681   17.3874 N   0  0  0  0  0  0  0  0  0  0  0  0
  1  2  1  0  0  0  0
  2  3  1  0  0  0  0
  3  4  1  0  0  0  0
  4  5  1  0  0  0  0
  5  6  1  0  0  0  0
  6  7  1  0  0  0  0
  7  8  1  0  0  0  0
  8  9  1  0  0  0  0
  9 10  1  0  0  0  0
 10 11  1  0  0  0  0
 11 12  1  0  0  0  0
 12 13  1  0  0  0  0
 13 14  1  0  0  0  0
M  END
>  <CHROM.1>
-57.65371248,-171.70221300,-175.28284801,-175.32766684,55.81847741,-169.02641535
-174.60278936,101.98453499,-129.03182558,-72.09566414,-68.68700061,44.94411365
6.18699220,18.42619908,1.88689752,-0.51377307,0.23118839

>  <Name>
ligand

>  <RI>
0

>  <Rbt.Current_Directory>
/home/itssahil/PROJECTS/Mol_Feturizer/New_Systems/rnas/1TN1

>  <Rbt.Executable>
rbdock ($Id: //depot/dev/client3/rdock/2013.1/src/exe/rbdock.cxx#4 $)

>  <Rbt.Library>
libRbt.so (2013.1, Build901 2013/11/27)

>  <Rbt.Parameter_File>
/export/apps/rDock/src/rDock_2013.1_src/data/scripts/dock_solv.prm

>  <Rbt.Receptor>
prm/pocket_docking_2.prm

>  <SCORE>
-5.75055

>  <SCORE.INTER>
-4.89219

>  <SCORE.INTER.CONST>
1

>  <SCORE.INTER.POLAR>
0

>  <SCORE.INTER.ROT>
11

>  <SCORE.INTER.SOLV>
16.9624

>  <SCORE.INTER.VDW>
-19.8489

>  <SCORE.INTER.norm>
-0.349442

>  <SCORE.INTRA>
-0.92147

>  <SCORE.INTRA.DIHEDRAL>
-3.91248

>  <SCORE.INTRA.DIHEDRAL.0>
7.79482

>  <SCORE.INTRA.POLAR>
0

>  <SCORE.INTRA.POLAR.0>
0

>  <SCORE.INTRA.REPUL>
0

>  <SCORE.INTRA.REPUL.0>
0

>  <SCORE.INTRA.SOLV>
2.66147

>  <SCORE.INTRA.SOLV.lig_0>
-49.456

>  <SCORE.INTRA.VDW>
-0.295969

>  <SCORE.INTRA.VDW.0>
-0.478406

>  <SCORE.INTRA.norm>
-0.0658193

>  <SCORE.RESTR>
0.0631165

>  <SCORE.RESTR.CAVITY>
0.0631165

>  <SCORE.RESTR.norm>
0.00450832

>  <SCORE.SYSTEM>
0

>  <SCORE.SYSTEM.CONST>
0

>  <SCORE.SYSTEM.DIHEDRAL>
0

>  <SCORE.SYSTEM.SOLV>
0

>  <SCORE.SYSTEM.norm>
0

>  <SCORE.heavy>
14

>  <SCORE.norm>
-0.410753

>  <RMSD>
1.621

$$$$
ligand
 OpenBabel11021811413D
libRbt.so/2013.1/901 2013/11/27
 14 13  0  0  0  0  0  0  0  0999 V2000
   44.3828   11.4826   16.8988 N   0  0  0  0  0  0  0  0  0  0  0  0
   45.4888   11.5886   17.8749 C   0  0  0  0  0  0  0  0  0  0  0  0
   45.5253   10.3622   18.8122 C   0  0  0  0  0  0  0  0  0  0  0  0
   45.8730    9.0357   18.1171 C   0  0  0  0  0  0  0  0  0  0  0  0
   45.5480    7.8739   18.9895 N   0  0  0  0  0  0  0  0  0  0  0  0
   46.7541    7.0306   19.1919 C   0  0  0  0  0  0  0  0  0  0  0  0
   46.4829    5.5685   19.6825 C   0  0  0  0  0  0  0  0  0  0  0  0
   45.7496    4.6749   18.6412 C   0  0  0  0  0  0  0  0  0  0  0  0
   45.4338    3.2790   19.1417 C   0  0  0  0  0  0  0  0  0  0  0  0
   46.5659    2.4306   18.8210 N   0  0  0  0  0  0  0  0  0  0  0  0
   46.0035    1.1942   18.3064 C   0  0  0  0  0  0  0  0  0  0  0  0
   45.7599    1.2752   16.8040 C   0  0  0  0  0  0  0  0  0  0  0  0
   45.0370   -0.0124   16.3803 C   0  0  0  0  0  0  0  0  0  0  0  0
   45.8582   -1.2110   16.6076 N   0  0  0  0  0  0  0  0  0  0  0  0
  1  2  1  0  0  0  0
  2  3  1  0  0  0  0
  3  4  1  0  0  0  0
  4  5  1  0  0  0  0
  5  6  1  0  0  0  0
  6  7  1  0  0  0  0
  7  8  1  0  0  0  0
  8  9  1  0  0  0  0
  9 10  1  0  0  0  0
 10 11  1  0  0  0  0
 11 12  1  0  0  0  0
 12 13  1  0  0  0  0
 13 14  1  0  0  0  0
M  END
>  <CHROM.1>
66.24367005,-165.33440603,-123.84060833,-161.11074663,66.80434617,-177.42518209
-89.54475786,-136.45761716,87.55880141,-174.30232259,-63.10570869,45.74741375
5.32670787,18.16221865,1.65400086,-1.12406981,0.15296084

>  <Name>
ligand

>  <RI>
0

>  <Rbt.Current_Directory>
/home/itssahil/PROJECTS/Mol_Feturizer/New_Systems/rnas/1TN1

>  <Rbt.Executable>
rbdock ($Id: //depot/dev/client3/rdock/2013.1/src/exe/rbdock.cxx#4 $)

>  <Rbt.Library>
libRbt.so (2013.1, Build901 2013/11/27)

>  <Rbt.Parameter_File>
/export/apps/rDock/src/rDock_2013.1_src/data/scripts/dock_solv.prm

>  <Rbt.Receptor>
prm/pocket_docking_2.prm

>  <SCORE>
-0.129487

>  <SCORE.INTER>
-0.599959

>  <SCORE.INTER.CONST>
1

>  <SCORE.INTER.POLAR>
0

>  <SCORE.INTER.ROT>
11

>  <SCORE.INTER.SOLV>
16.6067

>  <SCORE.INTER.VDW>
-16.8689

>  <SCORE.INTER.norm>
-0.0428542

>  <SCORE.INTRA>
0.44797

>  <SCORE.INTRA.DIHEDRAL>
-0.848085

>  <SCORE.INTRA.DIHEDRAL.0>
7.79482

>  <SCORE.INTRA.POLAR>
0

>  <SCORE.INTRA.POLAR.0>
0

>  <SCORE.INTRA.REPUL>
0

>  <SCORE.INTRA.REPUL.0>
0

>  <SCORE.INTRA.SOLV>
2.0532

>  <SCORE.INTRA.SOLV.lig_0>
-49.456

>  <SCORE.INTRA.VDW>
-0.154588

>  <SCORE.INTRA.VDW.0>
-0.478406

>  <SCORE.INTRA.norm>
0.0319979

>  <SCORE.RESTR>
0.0225016

>  <SCORE.RESTR.CAVITY>
0.0225016

>  <SCORE.RESTR.norm>
0.00160726

>  <SCORE.SYSTEM>
0

>  <SCORE.SYSTEM.CONST>
0

>  <SCORE.SYSTEM.DIHEDRAL>
0

>  <SCORE.SYSTEM.SOLV>
0

>  <SCORE.SYSTEM.norm>
0

>  <SCORE.heavy>
14

>  <SCORE.norm>
-0.00924907

>  <RMSD>
1.647

$$$$
ligand
 OpenBabel11021811413D
libRbt.so/2013.1/901 2013/11/27
 14 13  0  0  0  0  0  0  0  0999 V2000
   44.9822    0.1414   15.1711 N   0  0  0  0  0  0  0  0  0  0  0  0
   45.5042   -0.4664   16.4141 C   0  0  0  0  0  0  0  0  0  0  0  0
   45.4518    0.5338   17.5892 C   0  0  0  0  0  0  0  0  0  0  0  0
   46.2789    1.8127   17.3783 C   0  0  0  0  0  0  0  0  0  0  0  0
   46.5849    2.4716   18.6777 N   0  0  0  0  0  0  0  0  0  0  0  0
   45.4118    3.2537   19.1456 C   0  0  0  0  0  0  0  0  0  0  0  0
   45.7318    4.6740   19.7223 C   0  0  0  0  0  0  0  0  0  0  0  0
   46.3293    5.6627   18.6803 C   0  0  0  0  0  0  0  0  0  0  0  0
   46.7102    7.0112   19.2592 C   0  0  0  0  0  0  0  0  0  0  0  0
   47.2167    7.8285   18.1730 N   0  0  0  0  0  0  0  0  0  0  0  0
   46.9711    9.2059   18.5634 C   0  0  0  0  0  0  0  0  0  0  0  0
   45.6858    9.7407   17.9429 C   0  0  0  0  0  0  0  0  0  0  0  0
   45.5574   11.2188   18.3412 C   0  0  0  0  0  0  0  0  0  0  0  0
   44.3210   11.8272   17.8275 N   0  0  0  0  0  0  0  0  0  0  0  0
  1  2  1  0  0  0  0
  2  3  1  0  0  0  0
  3  4  1  0  0  0  0
  4  5  1  0  0  0  0
  5  6  1  0  0  0  0
  6  7  1  0  0  0  0
  7  8  1  0  0  0  0
  8  9  1  0  0  0  0
  9 10  1  0  0  0  0
 10 11  1  0  0  0  0
 11 12  1  0  0  0  0
 12 13  1  0  0  0  0
 13 14  1  0  0  0  0
M  END
>  <CHROM.1>
-60.48453422,-159.43642100,-79.86311349,-136.66450576,64.37336975,-176.74768346
-178.62051418,153.54208393,-96.92212098,-176.63055846,-178.17580389,45.90984416
5.35103385,18.06351355,1.60284016,1.07766778,-3.03911874

>  <Name>
ligand

>  <RI>
0

>  <Rbt.Current_Directory>
/home/itssahil/PROJECTS/Mol_Feturizer/New_Systems/rnas/1TN1

>  <Rbt.Executable>
rbdock ($Id: //depot/dev/client3/rdock/2013.1/src/exe/rbdock.cxx#4 $)

>  <Rbt.Library>
libRbt.so (2013.1, Build901 2013/11/27)

>  <Rbt.Parameter_File>
/export/apps/rDock/src/rDock_2013.1_src/data/scripts/dock_solv.prm

>  <Rbt.Receptor>
prm/pocket_docking_2.prm

>  <SCORE>
-4.3651

>  <SCORE.INTER>
-2.99716

>  <SCORE.INTER.CONST>
1

>  <SCORE.INTER.POLAR>
0

>  <SCORE.INTER.ROT>
11

>  <SCORE.INTER.SOLV>
12.469

>  <SCORE.INTER.VDW>
-17.0878

>  <SCORE.INTER.norm>
-0.214083

>  <SCORE.INTRA>
-1.42206

>  <SCORE.INTRA.DIHEDRAL>
-3.57978

>  <SCORE.INTRA.DIHEDRAL.0>
7.79482

>  <SCORE.INTRA.POLAR>
0

>  <SCORE.INTRA.POLAR.0>
0

>  <SCORE.INTRA.REPUL>
0

>  <SCORE.INTRA.REPUL.0>
0

>  <SCORE.INTRA.SOLV>
1.00946

>  <SCORE.INTRA.SOLV.lig_0>
-49.456

>  <SCORE.INTRA.VDW>
-0.136897

>  <SCORE.INTRA.VDW.0>
-0.478406

>  <SCORE.INTRA.norm>
-0.101576

>  <SCORE.RESTR>
0.0541174

>  <SCORE.RESTR.CAVITY>
0.0541174

>  <SCORE.RESTR.norm>
0.00386553

>  <SCORE.SYSTEM>
0

>  <SCORE.SYSTEM.CONST>
0

>  <SCORE.SYSTEM.DIHEDRAL>
0

>  <SCORE.SYSTEM.SOLV>
0

>  <SCORE.SYSTEM.norm>
0

>  <SCORE.heavy>
14

>  <SCORE.norm>
-0.311793

>  <RMSD>
1.658

$$$$
ligand
 OpenBabel11021811413D
libRbt.so/2013.1/901 2013/11/27
 14 13  0  0  0  0  0  0  0  0999 V2000
   45.6861   -0.3814   15.4230 N   0  0  0  0  0  0  0  0  0  0  0  0
   45.4415    0.8002   16.2782 C   0  0  0  0  0  0  0  0  0  0  0  0
   44.5106    0.4509   17.4594 C   0  0  0  0  0  0  0  0  0  0  0  0
   44.1503    1.6411   18.3637 C   0  0  0  0  0  0  0  0  0  0  0  0
   45.3477    2.1374   19.0962 N   0  0  0  0  0  0  0  0  0  0  0  0
   45.5721    3.5753   18.7985 C   0  0  0  0  0  0  0  0  0  0  0  0
   46.3098    4.3901   19.9139 C   0  0  0  0  0  0  0  0  0  0  0  0
   46.5681    5.8797   19.5466 C   0  0  0  0  0  0  0  0  0  0  0  0
   45.3129    6.7291   19.5018 C   0  0  0  0  0  0  0  0  0  0  0  0
   45.6983    8.0603   19.0729 N   0  0  0  0  0  0  0  0  0  0  0  0
   44.4733    8.8402   19.0466 C   0  0  0  0  0  0  0  0  0  0  0  0
   44.6363   10.1068   18.2145 C   0  0  0  0  0  0  0  0  0  0  0  0
   43.2948   10.8549   18.2391 C   0  0  0  0  0  0  0  0  0  0  0  0
   43.3495   12.1183   17.4883 N   0  0  0  0  0  0  0  0  0  0  0  0
  1  2  1  0  0  0  0
  2  3  1  0  0  0  0
  3  4  1  0  0  0  0
  4  5  1  0  0  0  0
  5  6  1  0  0  0  0
  6  7  1  0  0  0  0
  7  8  1  0  0  0  0
  8  9  1  0  0  0  0
  9 10  1  0  0  0  0
 10 11  1  0  0  0  0
 11 12  1  0  0  0  0
 12 13  1  0  0  0  0
 13 14  1  0  0  0  0
M  END
>  <CHROM.1>
-177.26448053,-66.87778221,122.61042754,152.91423487,178.08898268,70.00345569
-176.68709987,-179.85271524,-162.17379424,179.64403421,178.60917966,45.02510124
5.37158801,18.31755314,1.35468749,1.03549578,-2.83722532

>  <Name>
ligand

>  <RI>
0

>  <Rbt.Current_Directory>
/home/itssahil/PROJECTS/Mol_Feturizer/New_Systems/rnas/1TN1

>  <Rbt.Executable>
rbdock ($Id: //depot/dev/client3/rdock/2013.1/src/exe/rbdock.cxx#4 $)

>  <Rbt.Library>
libRbt.so (2013.1, Build901 2013/11/27)

>  <Rbt.Parameter_File>
/export/apps/rDock/src/rDock_2013.1_src/data/scripts/dock_solv.prm

>  <Rbt.Receptor>
prm/pocket_docking_2.prm

>  <SCORE>
-5.95774

>  <SCORE.INTER>
-3.18573

>  <SCORE.INTER.CONST>
1

>  <SCORE.INTER.POLAR>
0

>  <SCORE.INTER.ROT>
11

>  <SCORE.INTER.SOLV>
12.7422

>  <SCORE.INTER.VDW>
-17.3046

>  <SCORE.INTER.norm>
-0.227552

>  <SCORE.INTRA>
-3.0489

>  <SCORE.INTRA.DIHEDRAL>
-5.17011

>  <SCORE.INTRA.DIHEDRAL.0>
7.79482

>  <SCORE.INTRA.POLAR>
0

>  <SCORE.INTRA.POLAR.0>
0

>  <SCORE.INTRA.REPUL>
0

>  <SCORE.INTRA.REPUL.0>
0

>  <SCORE.INTRA.SOLV>
0.380536

>  <SCORE.INTRA.SOLV.lig_0>
-49.456

>  <SCORE.INTRA.VDW>
-0.654111

>  <SCORE.INTRA.VDW.0>
-0.478406

>  <SCORE.INTRA.norm>
-0.217778

>  <SCORE.RESTR>
0.276882

>  <SCORE.RESTR.CAVITY>
0.276882

>  <SCORE.RESTR.norm>
0.0197773

>  <SCORE.SYSTEM>
0

>  <SCORE.SYSTEM.CONST>
0

>  <SCORE.SYSTEM.DIHEDRAL>
0

>  <SCORE.SYSTEM.SOLV>
0

>  <SCORE.SYSTEM.norm>
0

>  <SCORE.heavy>
14

>  <SCORE.norm>
-0.425553

>  <RMSD>
1.664

$$$$
ligand
 OpenBabel11021811413D
libRbt.so/2013.1/901 2013/11/27
 14 13  0  0  0  0  0  0  0  0999 V2000
   43.0099   11.6949   17.1610 N   0  0  0  0  0  0  0  0  0  0  0  0
   43.9542   10.9317   18.0053 C   0  0  0  0  0  0  0  0  0  0  0  0
   43.2522    9.7387   18.6894 C   0  0  0  0  0  0  0  0  0  0  0  0
   44.1499    8.9251   19.6360 C   0  0  0  0  0  0  0  0  0  0  0  0
   45.3375    8.3883   18.9164 N   0  0  0  0  0  0  0  0  0  0  0  0
   46.3045    7.8077   19.8832 C   0  0  0  0  0  0  0  0  0  0  0  0
   45.9976    6.3455   20.3519 C   0  0  0  0  0  0  0  0  0  0  0  0
   46.0539    5.2881   19.2121 C   0  0  0  0  0  0  0  0  0  0  0  0
   45.6709    3.8884   19.6514 C   0  0  0  0  0  0  0  0  0  0  0  0
   45.6856    3.0393   18.4753 N   0  0  0  0  0  0  0  0  0  0  0  0
   44.9255    1.8537   18.8309 C   0  0  0  0  0  0  0  0  0  0  0  0
   44.3958    1.1389   17.5932 C   0  0  0  0  0  0  0  0  0  0  0  0
   45.5983    0.5235   16.8617 C   0  0  0  0  0  0  0  0  0  0  0  0
   45.2083   -0.1283   15.6024 N   0  0  0  0  0  0  0  0  0  0  0  0
  1  2  1  0  0  0  0
  2  3  1  0  0  0  0
  3  4  1  0  0  0  0
  4  5  1  0  0  0  0
  5  6  1  0  0  0  0
  6  7  1  0  0  0  0
  7  8  1  0  0  0  0
  8  9  1  0  0  0  0
  9 10  1  0  0  0  0
 10 11  1  0  0  0  0
 11 12  1  0  0  0  0
 12 13  1  0  0  0  0
 13 14  1  0  0  0  0
M  END
>  <CHROM.1>
-177.48899176,-58.17063774,170.37418071,82.28134939,63.75483827,-176.33833589
176.36185979,-162.40295459,157.85231806,69.55709414,-176.65878997,44.96749535
5.67392747,18.49111737,1.80949995,-0.98186648,0.32403954

>  <Name>
ligand

>  <RI>
0

>  <Rbt.Current_Directory>
/home/itssahil/PROJECTS/Mol_Feturizer/New_Systems/rnas/1TN1

>  <Rbt.Executable>
rbdock ($Id: //depot/dev/client3/rdock/2013.1/src/exe/rbdock.cxx#4 $)

>  <Rbt.Library>
libRbt.so (2013.1, Build901 2013/11/27)

>  <Rbt.Parameter_File>
/export/apps/rDock/src/rDock_2013.1_src/data/scripts/dock_solv.prm

>  <Rbt.Receptor>
prm/pocket_docking_3.prm

>  <SCORE>
-9.37281

>  <SCORE.INTER>
-6.24341

>  <SCORE.INTER.CONST>
1

>  <SCORE.INTER.POLAR>
0

>  <SCORE.INTER.ROT>
11

>  <SCORE.INTER.SOLV>
13.7261

>  <SCORE.INTER.VDW>
-19.671

>  <SCORE.INTER.norm>
-0.445958

>  <SCORE.INTRA>
-3.13075

>  <SCORE.INTRA.DIHEDRAL>
-6.18261

>  <SCORE.INTRA.DIHEDRAL.0>
7.79482

>  <SCORE.INTRA.POLAR>
0

>  <SCORE.INTRA.POLAR.0>
0

>  <SCORE.INTRA.REPUL>
0

>  <SCORE.INTRA.REPUL.0>
0

>  <SCORE.INTRA.SOLV>
1.01967

>  <SCORE.INTRA.SOLV.lig_0>
-49.456

>  <SCORE.INTRA.VDW>
-0.549281

>  <SCORE.INTRA.VDW.0>
-0.478406

>  <SCORE.INTRA.norm>
-0.223625

>  <SCORE.RESTR>
0.00135345

>  <SCORE.RESTR.CAVITY>
0.00135345

>  <SCORE.RESTR.norm>
9.66751e-05

>  <SCORE.SYSTEM>
0

>  <SCORE.SYSTEM.CONST>
0

>  <SCORE.SYSTEM.DIHEDRAL>
0

>  <SCORE.SYSTEM.SOLV>
0

>  <SCORE.SYSTEM.norm>
0

>  <SCORE.heavy>
14

>  <SCORE.norm>
-0.669486

>  <RMSD>
1.710

$$$$
ligand
 OpenBabel11021811413D
libRbt.so/2013.1/901 2013/11/27
 14 13  0  0  0  0  0  0  0  0999 V2000
   45.7258   -0.2198   15.5706 N   0  0  0  0  0  0  0  0  0  0  0  0
   45.2313    0.1184   16.9227 C   0  0  0  0  0  0  0  0  0  0  0  0
   45.8490    1.4400   17.4284 C   0  0  0  0  0  0  0  0  0  0  0  0
   45.2977    1.9289   18.7778 C   0  0  0  0  0  0  0  0  0  0  0  0
   45.9108    3.2288   19.1663 N   0  0  0  0  0  0  0  0  0  0  0  0
   44.9239    4.0634   19.8986 C   0  0  0  0  0  0  0  0  0  0  0  0
   45.5028    5.3404   20.5959 C   0  0  0  0  0  0  0  0  0  0  0  0
   46.1543    6.3587   19.6165 C   0  0  0  0  0  0  0  0  0  0  0  0
   46.6187    7.6404   20.2802 C   0  0  0  0  0  0  0  0  0  0  0  0
   47.2426    8.4621   19.2605 N   0  0  0  0  0  0  0  0  0  0  0  0
   46.4033    9.6404   19.1304 C   0  0  0  0  0  0  0  0  0  0  0  0
   45.3035    9.4303   18.0962 C   0  0  0  0  0  0  0  0  0  0  0  0
   44.5096   10.7411   17.9892 C   0  0  0  0  0  0  0  0  0  0  0  0
   45.2969   11.8186   17.3713 N   0  0  0  0  0  0  0  0  0  0  0  0
  1  2  1  0  0  0  0
  2  3  1  0  0  0  0
  3  4  1  0  0  0  0
  4  5  1  0  0  0  0
  5  6  1  0  0  0  0
  6  7  1  0  0  0  0
  7  8  1  0  0  0  0
  8  9  1  0  0  0  0
  9 10  1  0  0  0  0
 10 11  1  0  0  0  0
 11 12  1  0  0  0  0
 12 13  1  0  0  0  0
 13 14  1  0  0  0  0
M  END
>  <CHROM.1>
175.02750684,-178.02105202,145.92636099,169.14863294,61.15419273,175.58196190
177.95456996,114.94586047,-89.24916927,-177.74856068,68.98433244,45.71202406
5.71365684,18.57919753,1.66120250,1.36735576,-3.10957988

>  <Name>
ligand

>  <RI>
0

>  <Rbt.Current_Directory>
/home/itssahil/PROJECTS/Mol_Feturizer/New_Systems/rnas/1TN1

>  <Rbt.Executable>
rbdock ($Id: //depot/dev/client3/rdock/2013.1/src/exe/rbdock.cxx#4 $)

>  <Rbt.Library>
libRbt.so (2013.1, Build901 2013/11/27)

>  <Rbt.Parameter_File>
/export/apps/rDock/src/rDock_2013.1_src/data/scripts/dock_solv.prm

>  <Rbt.Receptor>
prm/pocket_docking_3.prm

>  <SCORE>
-8.42037

>  <SCORE.INTER>
-6.42561

>  <SCORE.INTER.CONST>
1

>  <SCORE.INTER.POLAR>
0

>  <SCORE.INTER.ROT>
11

>  <SCORE.INTER.SOLV>
12.0525

>  <SCORE.INTER.VDW>
-19.2346

>  <SCORE.INTER.norm>
-0.458972

>  <SCORE.INTRA>
-1.99476

>  <SCORE.INTRA.DIHEDRAL>
-4.68887

>  <SCORE.INTRA.DIHEDRAL.0>
7.79482

>  <SCORE.INTRA.POLAR>
0

>  <SCORE.INTRA.POLAR.0>
0

>  <SCORE.INTRA.REPUL>
0

>  <SCORE.INTRA.REPUL.0>
0

>  <SCORE.INTRA.SOLV>
1.04243

>  <SCORE.INTRA.SOLV.lig_0>
-49.456

>  <SCORE.INTRA.VDW>
-0.171534

>  <SCORE.INTRA.VDW.0>
-0.478406

>  <SCORE.INTRA.norm>
-0.142483

>  <SCORE.RESTR>
0

>  <SCORE.RESTR.CAVITY>
0

>  <SCORE.RESTR.norm>
0

>  <SCORE.SYSTEM>
0

>  <SCORE.SYSTEM.CONST>
0

>  <SCORE.SYSTEM.DIHEDRAL>
0

>  <SCORE.SYSTEM.SOLV>
0

>  <SCORE.SYSTEM.norm>
0

>  <SCORE.heavy>
14

>  <SCORE.norm>
-0.601455

>  <RMSD>
1.723

$$$$
ligand
 OpenBabel11021811413D
libRbt.so/2013.1/901 2013/11/27
 14 13  0  0  0  0  0  0  0  0999 V2000
   44.1451   11.3367   15.7364 N   0  0  0  0  0  0  0  0  0  0  0  0
   45.3309   10.9322   16.5221 C   0  0  0  0  0  0  0  0  0  0  0  0
   45.0600   11.0425   18.0382 C   0  0  0  0  0  0  0  0  0  0  0  0
   46.2822   10.7643   18.9285 C   0  0  0  0  0  0  0  0  0  0  0  0
   46.7866    9.3783   18.7260 N   0  0  0  0  0  0  0  0  0  0  0  0
   46.1691    8.4577   19.7149 C   0  0  0  0  0  0  0  0  0  0  0  0
   46.4649    6.9352   19.4988 C   0  0  0  0  0  0  0  0  0  0  0  0
   45.7367    5.9977   20.5044 C   0  0  0  0  0  0  0  0  0  0  0  0
   46.0292    4.5248   20.2952 C   0  0  0  0  0  0  0  0  0  0  0  0
   45.5619    4.1680   18.9691 N   0  0  0  0  0  0  0  0  0  0  0  0
   45.8088    2.7434   18.8300 C   0  0  0  0  0  0  0  0  0  0  0  0
   45.3458    2.2272   17.4726 C   0  0  0  0  0  0  0  0  0  0  0  0
   45.5943    0.7115   17.4425 C   0  0  0  0  0  0  0  0  0  0  0  0
   45.2025    0.1097   16.1591 N   0  0  0  0  0  0  0  0  0  0  0  0
  1  2  1  0  0  0  0
  2  3  1  0  0  0  0
  3  4  1  0  0  0  0
  4  5  1  0  0  0  0
  5  6  1  0  0  0  0
  6  7  1  0  0  0  0
  7  8  1  0  0  0  0
  8  9  1  0  0  0  0
  9 10  1  0  0  0  0
 10 11  1  0  0  0  0
 11 12  1  0  0  0  0
 12 13  1  0  0  0  0
 13 14  1  0  0  0  0
M  END
>  <CHROM.1>
-174.65258507,-61.20121898,-92.81683614,172.28129459,-176.71161850,-179.80099529
-61.55076235,-177.69955237,179.37889269,-177.73378629,-178.98393829,45.67997620
6.38071981,18.34595107,1.58146388,-1.23450971,0.00648705

>  <Name>
ligand

>  <RI>
0

>  <Rbt.Current_Directory>
/home/itssahil/PROJECTS/Mol_Feturizer/New_Systems/rnas/1TN1

>  <Rbt.Executable>
rbdock ($Id: //depot/dev/client3/rdock/2013.1/src/exe/rbdock.cxx#4 $)

>  <Rbt.Library>
libRbt.so (2013.1, Build901 2013/11/27)

>  <Rbt.Parameter_File>
/export/apps/rDock/src/rDock_2013.1_src/data/scripts/dock_solv.prm

>  <Rbt.Receptor>
prm/pocket_docking_3.prm

>  <SCORE>
-7.53727

>  <SCORE.INTER>
-3.95208

>  <SCORE.INTER.CONST>
1

>  <SCORE.INTER.POLAR>
0

>  <SCORE.INTER.ROT>
11

>  <SCORE.INTER.SOLV>
14.0171

>  <SCORE.INTER.VDW>
-18.2404

>  <SCORE.INTER.norm>
-0.282292

>  <SCORE.INTRA>
-3.58519

>  <SCORE.INTRA.DIHEDRAL>
-6.86732

>  <SCORE.INTRA.DIHEDRAL.0>
7.79482

>  <SCORE.INTRA.POLAR>
0

>  <SCORE.INTRA.POLAR.0>
0

>  <SCORE.INTRA.REPUL>
0

>  <SCORE.INTRA.REPUL.0>
0

>  <SCORE.INTRA.SOLV>
0.697041

>  <SCORE.INTRA.SOLV.lig_0>
-49.456

>  <SCORE.INTRA.VDW>
-0.500049

>  <SCORE.INTRA.VDW.0>
-0.478406

>  <SCORE.INTRA.norm>
-0.256085

>  <SCORE.RESTR>
0

>  <SCORE.RESTR.CAVITY>
0

>  <SCORE.RESTR.norm>
0

>  <SCORE.SYSTEM>
0

>  <SCORE.SYSTEM.CONST>
0

>  <SCORE.SYSTEM.DIHEDRAL>
0

>  <SCORE.SYSTEM.SOLV>
0

>  <SCORE.SYSTEM.norm>
0

>  <SCORE.heavy>
14

>  <SCORE.norm>
-0.538377

>  <RMSD>
1.730

$$$$
ligand
 OpenBabel11021811413D
libRbt.so/2013.1/901 2013/11/27
 14 13  0  0  0  0  0  0  0  0999 V2000
   45.7785   -1.4269   15.3228 N   0  0  0  0  0  0  0  0  0  0  0  0
   45.5596   -0.8030   16.6457 C   0  0  0  0  0  0  0  0  0  0  0  0
   44.7712    0.5182   16.5160 C   0  0  0  0  0  0  0  0  0  0  0  0
   44.4591    1.2110   17.8526 C   0  0  0  0  0  0  0  0  0  0  0  0
   45.7093    1.5162   18.6010 N   0  0  0  0  0  0  0  0  0  0  0  0
   46.2209    2.8580   18.2206 C   0  0  0  0  0  0  0  0  0  0  0  0
   45.7159    4.0497   19.1020 C   0  0  0  0  0  0  0  0  0  0  0  0
   46.2712    5.4378   18.6718 C   0  0  0  0  0  0  0  0  0  0  0  0
   45.8325    6.5805   19.5666 C   0  0  0  0  0  0  0  0  0  0  0  0
   46.4020    7.8021   19.0303 N   0  0  0  0  0  0  0  0  0  0  0  0
   45.3814    8.8225   19.1943 C   0  0  0  0  0  0  0  0  0  0  0  0
   45.1771    9.6183   17.9105 C   0  0  0  0  0  0  0  0  0  0  0  0
   44.0156   10.5951   18.1490 C   0  0  0  0  0  0  0  0  0  0  0  0
   43.7474   11.4370   16.9735 N   0  0  0  0  0  0  0  0  0  0  0  0
  1  2  1  0  0  0  0
  2  3  1  0  0  0  0
  3  4  1  0  0  0  0
  4  5  1  0  0  0  0
  5  6  1  0  0  0  0
  6  7  1  0  0  0  0
  7  8  1  0  0  0  0
  8  9  1  0  0  0  0
  9 10  1  0  0  0  0
 10 11  1  0  0  0  0
 11 12  1  0  0  0  0
 12 13  1  0  0  0  0
 13 14  1  0  0  0  0
M  END
>  <CHROM.1>
178.08575507,58.37220838,89.37084960,91.27630342,-179.91503196,-177.27552307
-178.92272351,141.41287516,-131.93869677,175.88069549,178.91853639,45.36010246
4.87262754,17.98281797,1.45221081,1.02063658,-2.90178988

>  <Name>
ligand

>  <RI>
0

>  <Rbt.Current_Directory>
/home/itssahil/PROJECTS/Mol_Feturizer/New_Systems/rnas/1TN1

>  <Rbt.Executable>
rbdock ($Id: //depot/dev/client3/rdock/2013.1/src/exe/rbdock.cxx#4 $)

>  <Rbt.Library>
libRbt.so (2013.1, Build901 2013/11/27)

>  <Rbt.Parameter_File>
/export/apps/rDock/src/rDock_2013.1_src/data/scripts/dock_solv.prm

>  <Rbt.Receptor>
prm/pocket_docking_2.prm

>  <SCORE>
-6.29768

>  <SCORE.INTER>
-3.7652

>  <SCORE.INTER.CONST>
1

>  <SCORE.INTER.POLAR>
0

>  <SCORE.INTER.ROT>
11

>  <SCORE.INTER.SOLV>
14.5431

>  <SCORE.INTER.VDW>
-18.2912

>  <SCORE.INTER.norm>
-0.268943

>  <SCORE.INTRA>
-2.53318

>  <SCORE.INTRA.DIHEDRAL>
-4.49946

>  <SCORE.INTRA.DIHEDRAL.0>
7.79482

>  <SCORE.INTRA.POLAR>
0

>  <SCORE.INTRA.POLAR.0>
0

>  <SCORE.INTRA.REPUL>
0

>  <SCORE.INTRA.REPUL.0>
0

>  <SCORE.INTRA.SOLV>
0.295389

>  <SCORE.INTRA.SOLV.lig_0>
-49.456

>  <SCORE.INTRA.VDW>
-0.431142

>  <SCORE.INTRA.VDW.0>
-0.478406

>  <SCORE.INTRA.norm>
-0.180941

>  <SCORE.RESTR>
0.00069802

>  <SCORE.RESTR.CAVITY>
0.00069802

>  <SCORE.RESTR.norm>
4.98586e-05

>  <SCORE.SYSTEM>
0

>  <SCORE.SYSTEM.CONST>
0

>  <SCORE.SYSTEM.DIHEDRAL>
0

>  <SCORE.SYSTEM.SOLV>
0

>  <SCORE.SYSTEM.norm>
0

>  <SCORE.heavy>
14

>  <SCORE.norm>
-0.449834

>  <RMSD>
1.745

$$$$
ligand
 OpenBabel11021811413D
libRbt.so/2013.1/901 2013/11/27
 14 13  0  0  0  0  0  0  0  0999 V2000
   42.0244   13.4610   18.0415 N   0  0  0  0  0  0  0  0  0  0  0  0
   43.3580   12.8659   17.8080 C   0  0  0  0  0  0  0  0  0  0  0  0
   43.2617   11.3359   17.6235 C   0  0  0  0  0  0  0  0  0  0  0  0
   44.6077   10.6355   17.3749 C   0  0  0  0  0  0  0  0  0  0  0  0
   45.4392   10.6219   18.6098 N   0  0  0  0  0  0  0  0  0  0  0  0
   46.2475    9.3771   18.6707 C   0  0  0  0  0  0  0  0  0  0  0  0
   45.4722    8.0872   19.1037 C   0  0  0  0  0  0  0  0  0  0  0  0
   46.3512    6.8045   19.1533 C   0  0  0  0  0  0  0  0  0  0  0  0
   45.6022    5.5617   19.5930 C   0  0  0  0  0  0  0  0  0  0  0  0
   46.4921    4.4290   19.4225 N   0  0  0  0  0  0  0  0  0  0  0  0
   45.6982    3.3909   18.7887 C   0  0  0  0  0  0  0  0  0  0  0  0
   46.5303    2.1448   18.5092 C   0  0  0  0  0  0  0  0  0  0  0  0
   45.6090    1.1098   17.8459 C   0  0  0  0  0  0  0  0  0  0  0  0
   45.1938    1.5200   16.4960 N   0  0  0  0  0  0  0  0  0  0  0  0
  1  2  1  0  0  0  0
  2  3  1  0  0  0  0
  3  4  1  0  0  0  0
  4  5  1  0  0  0  0
  5  6  1  0  0  0  0
  6  7  1  0  0  0  0
  7  8  1  0  0  0  0
  8  9  1  0  0  0  0
  9 10  1  0  0  0  0
 10 11  1  0  0  0  0
 11 12  1  0  0  0  0
 12 13  1  0  0  0  0
 13 14  1  0  0  0  0
M  END
>  <CHROM.1>
179.99607767,71.14848016,146.15404839,-77.09599678,179.89778082,179.12835100
172.62069661,-134.84403899,178.23927105,179.87614778,68.17591777,45.13497127
7.23882808,18.36012346,1.87200318,-0.69296497,0.17463328

>  <Name>
ligand

>  <RI>
0

>  <Rbt.Current_Directory>
/home/itssahil/PROJECTS/Mol_Feturizer/New_Systems/rnas/1TN1

>  <Rbt.Executable>
rbdock ($Id: //depot/dev/client3/rdock/2013.1/src/exe/rbdock.cxx#4 $)

>  <Rbt.Library>
libRbt.so (2013.1, Build901 2013/11/27)

>  <Rbt.Parameter_File>
/export/apps/rDock/src/rDock_2013.1_src/data/scripts/dock_solv.prm

>  <Rbt.Receptor>
prm/pocket_docking_2.prm

>  <SCORE>
-5.97224

>  <SCORE.INTER>
-3.57128

>  <SCORE.INTER.CONST>
1

>  <SCORE.INTER.POLAR>
0

>  <SCORE.INTER.ROT>
11

>  <SCORE.INTER.SOLV>
11.6816

>  <SCORE.INTER.VDW>
-17.2081

>  <SCORE.INTER.norm>
-0.255091

>  <SCORE.INTRA>
-2.40463

>  <SCORE.INTRA.DIHEDRAL>
-4.90695

>  <SCORE.INTRA.DIHEDRAL.0>
7.79482

>  <SCORE.INTRA.POLAR>
0

>  <SCORE.INTRA.POLAR.0>
0

>  <SCORE.INTRA.REPUL>
0

>  <SCORE.INTRA.REPUL.0>
0

>  <SCORE.INTRA.SOLV>
0.997134

>  <SCORE.INTRA.SOLV.lig_0>
-49.456

>  <SCORE.INTRA.VDW>
-0.449723

>  <SCORE.INTRA.VDW.0>
-0.478406

>  <SCORE.INTRA.norm>
-0.171759

>  <SCORE.RESTR>
0.00367579

>  <SCORE.RESTR.CAVITY>
0.00367579

>  <SCORE.RESTR.norm>
0.000262557

>  <SCORE.SYSTEM>
0

>  <SCORE.SYSTEM.CONST>
0

>  <SCORE.SYSTEM.DIHEDRAL>
0

>  <SCORE.SYSTEM.SOLV>
0

>  <SCORE.SYSTEM.norm>
0

>  <SCORE.heavy>
14

>  <SCORE.norm>
-0.426588

>  <RMSD>
1.747

$$$$
ligand
 OpenBabel11021811413D
libRbt.so/2013.1/901 2013/11/27
 14 13  0  0  0  0  0  0  0  0999 V2000
   45.4889    1.1958   16.2518 N   0  0  0  0  0  0  0  0  0  0  0  0
   45.6032    0.6475   17.6205 C   0  0  0  0  0  0  0  0  0  0  0  0
   45.1566    1.6828   18.6754 C   0  0  0  0  0  0  0  0  0  0  0  0
   45.9814    2.9804   18.6876 C   0  0  0  0  0  0  0  0  0  0  0  0
   45.4175    3.9629   19.6536 N   0  0  0  0  0  0  0  0  0  0  0  0
   46.1772    5.2380   19.5914 C   0  0  0  0  0  0  0  0  0  0  0  0
   45.6175    6.4030   20.4756 C   0  0  0  0  0  0  0  0  0  0  0  0
   46.4986    7.6852   20.4685 C   0  0  0  0  0  0  0  0  0  0  0  0
   46.5601    8.3824   19.1235 C   0  0  0  0  0  0  0  0  0  0  0  0
   45.2838    9.0377   18.9095 N   0  0  0  0  0  0  0  0  0  0  0  0
   45.3645    9.6460   17.5930 C   0  0  0  0  0  0  0  0  0  0  0  0
   44.5160   10.9095   17.5094 C   0  0  0  0  0  0  0  0  0  0  0  0
   44.6529   11.4678   16.0849 C   0  0  0  0  0  0  0  0  0  0  0  0
   43.9952   12.7746   15.9348 N   0  0  0  0  0  0  0  0  0  0  0  0
  1  2  1  0  0  0  0
  2  3  1  0  0  0  0
  3  4  1  0  0  0  0
  4  5  1  0  0  0  0
  5  6  1  0  0  0  0
  6  7  1  0  0  0  0
  7  8  1  0  0  0  0
  8  9  1  0  0  0  0
  9 10  1  0  0  0  0
 10 11  1  0  0  0  0
 11 12  1  0  0  0  0
 12 13  1  0  0  0  0
 13 14  1  0  0  0  0
M  END
>  <CHROM.1>
-60.73884786,175.40772978,-176.58069174,175.26454461,175.58576586,66.02050663
73.44466815,-177.78606040,-149.61746780,-179.38320808,-173.48988971,45.45113689
6.57233068,18.32738016,1.29641733,1.24599474,-2.99153961

>  <Name>
ligand

>  <RI>
0

>  <Rbt.Current_Directory>
/home/itssahil/PROJECTS/Mol_Feturizer/New_Systems/rnas/1TN1

>  <Rbt.Executable>
rbdock ($Id: //depot/dev/client3/rdock/2013.1/src/exe/rbdock.cxx#4 $)

>  <Rbt.Library>
libRbt.so (2013.1, Build901 2013/11/27)

>  <Rbt.Parameter_File>
/export/apps/rDock/src/rDock_2013.1_src/data/scripts/dock_solv.prm

>  <Rbt.Receptor>
prm/pocket_docking_3.prm

>  <SCORE>
-8.78636

>  <SCORE.INTER>
-5.90874

>  <SCORE.INTER.CONST>
1

>  <SCORE.INTER.POLAR>
0

>  <SCORE.INTER.ROT>
11

>  <SCORE.INTER.SOLV>
10.8136

>  <SCORE.INTER.VDW>
-18.477

>  <SCORE.INTER.norm>
-0.422053

>  <SCORE.INTRA>
-2.87763

>  <SCORE.INTRA.DIHEDRAL>
-6.02886

>  <SCORE.INTRA.DIHEDRAL.0>
7.79482

>  <SCORE.INTRA.POLAR>
0

>  <SCORE.INTRA.POLAR.0>
0

>  <SCORE.INTRA.REPUL>
0

>  <SCORE.INTRA.REPUL.0>
0

>  <SCORE.INTRA.SOLV>
1.23746

>  <SCORE.INTRA.SOLV.lig_0>
-49.456

>  <SCORE.INTRA.VDW>
-0.481927

>  <SCORE.INTRA.VDW.0>
-0.478406

>  <SCORE.INTRA.norm>
-0.205545

>  <SCORE.RESTR>
0

>  <SCORE.RESTR.CAVITY>
0

>  <SCORE.RESTR.norm>
0

>  <SCORE.SYSTEM>
0

>  <SCORE.SYSTEM.CONST>
0

>  <SCORE.SYSTEM.DIHEDRAL>
0

>  <SCORE.SYSTEM.SOLV>
0

>  <SCORE.SYSTEM.norm>
0

>  <SCORE.heavy>
14

>  <SCORE.norm>
-0.627597

>  <RMSD>
1.781

$$$$
ligand
 OpenBabel11021811413D
libRbt.so/2013.1/901 2013/11/27
 14 13  0  0  0  0  0  0  0  0999 V2000
   45.1527    0.5638   15.7963 N   0  0  0  0  0  0  0  0  0  0  0  0
   45.3087    0.0357   17.1689 C   0  0  0  0  0  0  0  0  0  0  0  0
   46.0528    1.0423   18.0728 C   0  0  0  0  0  0  0  0  0  0  0  0
   45.3126    2.3716   18.2946 C   0  0  0  0  0  0  0  0  0  0  0  0
   46.1375    3.3148   19.0986 N   0  0  0  0  0  0  0  0  0  0  0  0
   45.2633    4.2761   19.8186 C   0  0  0  0  0  0  0  0  0  0  0  0
   45.3699    5.7674   19.3532 C   0  0  0  0  0  0  0  0  0  0  0  0
   46.6851    6.4759   19.7879 C   0  0  0  0  0  0  0  0  0  0  0  0
   46.9240    7.8060   19.1004 C   0  0  0  0  0  0  0  0  0  0  0  0
   47.1373    7.5397   17.6904 N   0  0  0  0  0  0  0  0  0  0  0  0
   47.6381    8.7792   17.1226 C   0  0  0  0  0  0  0  0  0  0  0  0
   46.5349    9.5513   16.4083 C   0  0  0  0  0  0  0  0  0  0  0  0
   45.6076   10.1383   17.4832 C   0  0  0  0  0  0  0  0  0  0  0  0
   44.5955   11.0394   16.9119 N   0  0  0  0  0  0  0  0  0  0  0  0
  1  2  1  0  0  0  0
  2  3  1  0  0  0  0
  3  4  1  0  0  0  0
  4  5  1  0  0  0  0
  5  6  1  0  0  0  0
  6  7  1  0  0  0  0
  7  8  1  0  0  0  0
  8  9  1  0  0  0  0
  9 10  1  0  0  0  0
 10 11  1  0  0  0  0
 11 12  1  0  0  0  0
 12 13  1  0  0  0  0
 13 14  1  0  0  0  0
M  END
>  <CHROM.1>
63.67275688,-176.18252590,-154.21110712,-113.04943350,-72.77010402,167.73801580
-66.03237614,-168.21550057,-100.02822324,72.53492905,173.15889165,45.98009087
5.62153931,18.00793851,2.04352982,1.39845304,2.64928936

>  <Name>
ligand

>  <RI>
0

>  <Rbt.Current_Directory>
/home/itssahil/PROJECTS/Mol_Feturizer/New_Systems/rnas/1TN1

>  <Rbt.Executable>
rbdock ($Id: //depot/dev/client3/rdock/2013.1/src/exe/rbdock.cxx#4 $)

>  <Rbt.Library>
libRbt.so (2013.1, Build901 2013/11/27)

>  <Rbt.Parameter_File>
/export/apps/rDock/src/rDock_2013.1_src/data/scripts/dock_solv.prm

>  <Rbt.Receptor>
prm/pocket_docking_2.prm

>  <SCORE>
-1.3687

>  <SCORE.INTER>
-1.24566

>  <SCORE.INTER.CONST>
1

>  <SCORE.INTER.POLAR>
0

>  <SCORE.INTER.ROT>
11

>  <SCORE.INTER.SOLV>
11.8016

>  <SCORE.INTER.VDW>
-15.6976

>  <SCORE.INTER.norm>
-0.088976

>  <SCORE.INTRA>
-0.63551

>  <SCORE.INTRA.DIHEDRAL>
-2.95933

>  <SCORE.INTRA.DIHEDRAL.0>
7.79482

>  <SCORE.INTRA.POLAR>
0

>  <SCORE.INTRA.POLAR.0>
0

>  <SCORE.INTRA.REPUL>
0

>  <SCORE.INTRA.REPUL.0>
0

>  <SCORE.INTRA.SOLV>
1.78703

>  <SCORE.INTRA.SOLV.lig_0>
-49.456

>  <SCORE.INTRA.VDW>
-0.0493574

>  <SCORE.INTRA.VDW.0>
-0.478406

>  <SCORE.INTRA.norm>
-0.0453935

>  <SCORE.RESTR>
0.512478

>  <SCORE.RESTR.CAVITY>
0.512478

>  <SCORE.RESTR.norm>
0.0366056

>  <SCORE.SYSTEM>
0

>  <SCORE.SYSTEM.CONST>
0

>  <SCORE.SYSTEM.DIHEDRAL>
0

>  <SCORE.SYSTEM.SOLV>
0

>  <SCORE.SYSTEM.norm>
0

>  <SCORE.heavy>
14

>  <SCORE.norm>
-0.097764

>  <RMSD>
1.799

$$$$
ligand
 OpenBabel11021811413D
libRbt.so/2013.1/901 2013/11/27
 14 13  0  0  0  0  0  0  0  0999 V2000
   42.0509   12.3915   17.9531 N   0  0  0  0  0  0  0  0  0  0  0  0
   43.2056   11.5780   17.5148 C   0  0  0  0  0  0  0  0  0  0  0  0
   43.4007   10.3485   18.4281 C   0  0  0  0  0  0  0  0  0  0  0  0
   44.6662    9.5266   18.1331 C   0  0  0  0  0  0  0  0  0  0  0  0
   44.7296    8.3148   18.9956 N   0  0  0  0  0  0  0  0  0  0  0  0
   46.0488    7.6480   18.8480 C   0  0  0  0  0  0  0  0  0  0  0  0
   46.4111    6.6104   19.9634 C   0  0  0  0  0  0  0  0  0  0  0  0
   45.5196    5.3354   19.9586 C   0  0  0  0  0  0  0  0  0  0  0  0
   46.0911    4.1878   19.1491 C   0  0  0  0  0  0  0  0  0  0  0  0
   45.8889    4.4962   17.7462 N   0  0  0  0  0  0  0  0  0  0  0  0
   46.5297    3.4230   17.0064 C   0  0  0  0  0  0  0  0  0  0  0  0
   45.5104    2.4106   16.4973 C   0  0  0  0  0  0  0  0  0  0  0  0
   44.9869    1.6276   17.7109 C   0  0  0  0  0  0  0  0  0  0  0  0
   44.2027    0.4482   17.3150 N   0  0  0  0  0  0  0  0  0  0  0  0
  1  2  1  0  0  0  0
  2  3  1  0  0  0  0
  3  4  1  0  0  0  0
  4  5  1  0  0  0  0
  5  6  1  0  0  0  0
  6  7  1  0  0  0  0
  7  8  1  0  0  0  0
  8  9  1  0  0  0  0
  9 10  1  0  0  0  0
 10 11  1  0  0  0  0
 11 12  1  0  0  0  0
 12 13  1  0  0  0  0
 13 14  1  0  0  0  0
M  END
>  <CHROM.1>
-173.95842157,-176.25442942,-171.35660414,163.77434265,67.34266477,92.93733694
-75.75218857,176.14437359,101.25797713,-71.13414450,-168.54928431,44.94616948
6.31043931,18.23006185,1.87351923,-0.72905366,0.27274597

>  <Name>
ligand

>  <RI>
0

>  <Rbt.Current_Directory>
/home/itssahil/PROJECTS/Mol_Feturizer/New_Systems/rnas/1TN1

>  <Rbt.Executable>
rbdock ($Id: //depot/dev/client3/rdock/2013.1/src/exe/rbdock.cxx#4 $)

>  <Rbt.Library>
libRbt.so (2013.1, Build901 2013/11/27)

>  <Rbt.Parameter_File>
/export/apps/rDock/src/rDock_2013.1_src/data/scripts/dock_solv.prm

>  <Rbt.Receptor>
prm/pocket_docking_2.prm

>  <SCORE>
-0.491014

>  <SCORE.INTER>
-0.586583

>  <SCORE.INTER.CONST>
1

>  <SCORE.INTER.POLAR>
0

>  <SCORE.INTER.ROT>
11

>  <SCORE.INTER.SOLV>
18.0765

>  <SCORE.INTER.VDW>
-17.3499

>  <SCORE.INTER.norm>
-0.0418988

>  <SCORE.INTRA>
0.0851855

>  <SCORE.INTRA.DIHEDRAL>
-0.840746

>  <SCORE.INTRA.DIHEDRAL.0>
7.79482

>  <SCORE.INTRA.POLAR>
0

>  <SCORE.INTRA.POLAR.0>
0

>  <SCORE.INTRA.REPUL>
0

>  <SCORE.INTRA.REPUL.0>
0

>  <SCORE.INTRA.SOLV>
1.60366

>  <SCORE.INTRA.SOLV.lig_0>
-49.456

>  <SCORE.INTRA.VDW>
-0.296272

>  <SCORE.INTRA.VDW.0>
-0.478406

>  <SCORE.INTRA.norm>
0.00608468

>  <SCORE.RESTR>
0.0103838

>  <SCORE.RESTR.CAVITY>
0.0103838

>  <SCORE.RESTR.norm>
0.0007417

>  <SCORE.SYSTEM>
0

>  <SCORE.SYSTEM.CONST>
0

>  <SCORE.SYSTEM.DIHEDRAL>
0

>  <SCORE.SYSTEM.SOLV>
0

>  <SCORE.SYSTEM.norm>
0

>  <SCORE.heavy>
14

>  <SCORE.norm>
-0.0350724

>  <RMSD>
1.803

$$$$
ligand
 OpenBabel11021811413D
libRbt.so/2013.1/901 2013/11/27
 14 13  0  0  0  0  0  0  0  0999 V2000
   44.5215   10.5682   16.4843 N   0  0  0  0  0  0  0  0  0  0  0  0
   44.2842   10.7183   17.9363 C   0  0  0  0  0  0  0  0  0  0  0  0
   45.6026   10.6048   18.7319 C   0  0  0  0  0  0  0  0  0  0  0  0
   46.2901    9.2327   18.6387 C   0  0  0  0  0  0  0  0  0  0  0  0
   45.3819    8.1474   19.1009 N   0  0  0  0  0  0  0  0  0  0  0  0
   46.0631    6.8310   19.0022 C   0  0  0  0  0  0  0  0  0  0  0  0
   45.6836    5.7881   20.1069 C   0  0  0  0  0  0  0  0  0  0  0  0
   46.3143    4.3816   19.8960 C   0  0  0  0  0  0  0  0  0  0  0  0
   45.7166    3.6063   18.7382 C   0  0  0  0  0  0  0  0  0  0  0  0
   46.3322    2.2928   18.7246 N   0  0  0  0  0  0  0  0  0  0  0  0
   46.3180    1.8609   17.3379 C   0  0  0  0  0  0  0  0  0  0  0  0
   45.5798    0.5375   17.1734 C   0  0  0  0  0  0  0  0  0  0  0  0
   45.6219    0.1639   15.6839 C   0  0  0  0  0  0  0  0  0  0  0  0
   44.9931   -1.1391   15.4201 N   0  0  0  0  0  0  0  0  0  0  0  0
  1  2  1  0  0  0  0
  2  3  1  0  0  0  0
  3  4  1  0  0  0  0
  4  5  1  0  0  0  0
  5  6  1  0  0  0  0
  6  7  1  0  0  0  0
  7  8  1  0  0  0  0
  8  9  1  0  0  0  0
  9 10  1  0  0  0  0
 10 11  1  0  0  0  0
 11 12  1  0  0  0  0
 12 13  1  0  0  0  0
 13 14  1  0  0  0  0
M  END
>  <CHROM.1>
-63.95268377,-57.44358247,179.95076135,146.18211536,174.63070068,-71.23936382
-176.05965372,-151.03979979,-122.53853809,-179.82858921,177.11203358,45.62175792
5.25685347,18.06993372,1.70368215,-1.21297171,0.28479303

>  <Name>
ligand

>  <RI>
0

>  <Rbt.Current_Directory>
/home/itssahil/PROJECTS/Mol_Feturizer/New_Systems/rnas/1TN1

>  <Rbt.Executable>
rbdock ($Id: //depot/dev/client3/rdock/2013.1/src/exe/rbdock.cxx#4 $)

>  <Rbt.Library>
libRbt.so (2013.1, Build901 2013/11/27)

>  <Rbt.Parameter_File>
/export/apps/rDock/src/rDock_2013.1_src/data/scripts/dock_solv.prm

>  <Rbt.Receptor>
prm/pocket_docking_2.prm

>  <SCORE>
-4.08187

>  <SCORE.INTER>
-2.25935

>  <SCORE.INTER.CONST>
1

>  <SCORE.INTER.POLAR>
0

>  <SCORE.INTER.ROT>
11

>  <SCORE.INTER.SOLV>
14.6918

>  <SCORE.INTER.VDW>
-17.3368

>  <SCORE.INTER.norm>
-0.161382

>  <SCORE.INTRA>
-1.85528

>  <SCORE.INTRA.DIHEDRAL>
-4.51678

>  <SCORE.INTRA.DIHEDRAL.0>
7.79482

>  <SCORE.INTRA.POLAR>
0

>  <SCORE.INTRA.POLAR.0>
0

>  <SCORE.INTRA.REPUL>
0

>  <SCORE.INTRA.REPUL.0>
0

>  <SCORE.INTRA.SOLV>
1.83998

>  <SCORE.INTRA.SOLV.lig_0>
-49.456

>  <SCORE.INTRA.VDW>
-0.516881

>  <SCORE.INTRA.VDW.0>
-0.478406

>  <SCORE.INTRA.norm>
-0.13252

>  <SCORE.RESTR>
0.0327612

>  <SCORE.RESTR.CAVITY>
0.0327612

>  <SCORE.RESTR.norm>
0.00234009

>  <SCORE.SYSTEM>
0

>  <SCORE.SYSTEM.CONST>
0

>  <SCORE.SYSTEM.DIHEDRAL>
0

>  <SCORE.SYSTEM.SOLV>
0

>  <SCORE.SYSTEM.norm>
0

>  <SCORE.heavy>
14

>  <SCORE.norm>
-0.291562

>  <RMSD>
1.815

$$$$
ligand
 OpenBabel11021811413D
libRbt.so/2013.1/901 2013/11/27
 14 13  0  0  0  0  0  0  0  0999 V2000
   44.7730    1.3078   16.2618 N   0  0  0  0  0  0  0  0  0  0  0  0
   46.0037    1.3506   17.0807 C   0  0  0  0  0  0  0  0  0  0  0  0
   45.6711    1.5110   18.5799 C   0  0  0  0  0  0  0  0  0  0  0  0
   45.0240    2.8554   18.9515 C   0  0  0  0  0  0  0  0  0  0  0  0
   45.9512    3.9880   18.6796 N   0  0  0  0  0  0  0  0  0  0  0  0
   46.2839    4.6939   19.9436 C   0  0  0  0  0  0  0  0  0  0  0  0
   45.7709    6.1697   20.0497 C   0  0  0  0  0  0  0  0  0  0  0  0
   46.3765    7.1304   18.9863 C   0  0  0  0  0  0  0  0  0  0  0  0
   45.8421    8.5474   19.0617 C   0  0  0  0  0  0  0  0  0  0  0  0
   44.4021    8.4832   18.8986 N   0  0  0  0  0  0  0  0  0  0  0  0
   43.9538    9.8592   18.7747 C   0  0  0  0  0  0  0  0  0  0  0  0
   42.4330    9.9552   18.8059 C   0  0  0  0  0  0  0  0  0  0  0  0
   42.0541   11.4194   18.5365 C   0  0  0  0  0  0  0  0  0  0  0  0
   42.4338   11.8514   17.1830 N   0  0  0  0  0  0  0  0  0  0  0  0
  1  2  1  0  0  0  0
  2  3  1  0  0  0  0
  3  4  1  0  0  0  0
  4  5  1  0  0  0  0
  5  6  1  0  0  0  0
  6  7  1  0  0  0  0
  7  8  1  0  0  0  0
  8  9  1  0  0  0  0
  9 10  1  0  0  0  0
 10 11  1  0  0  0  0
 11 12  1  0  0  0  0
 12 13  1  0  0  0  0
 13 14  1  0  0  0  0
M  END
>  <CHROM.1>
-66.24449873,-63.26311707,-117.38568612,-114.52398039,-62.71879372,178.01769372
-58.13326740,-171.65409504,-171.47204649,-174.73950781,65.05343563,44.78396170
6.36587180,18.55701163,1.17621618,0.72469234,-2.82386074

>  <Name>
ligand

>  <RI>
0

>  <Rbt.Current_Directory>
/home/itssahil/PROJECTS/Mol_Feturizer/New_Systems/rnas/1TN1

>  <Rbt.Executable>
rbdock ($Id: //depot/dev/client3/rdock/2013.1/src/exe/rbdock.cxx#4 $)

>  <Rbt.Library>
libRbt.so (2013.1, Build901 2013/11/27)

>  <Rbt.Parameter_File>
/export/apps/rDock/src/rDock_2013.1_src/data/scripts/dock_solv.prm

>  <Rbt.Receptor>
prm/pocket_docking_2.prm

>  <SCORE>
-8.61623

>  <SCORE.INTER>
-7.36256

>  <SCORE.INTER.CONST>
1

>  <SCORE.INTER.POLAR>
0

>  <SCORE.INTER.ROT>
11

>  <SCORE.INTER.SOLV>
15.5328

>  <SCORE.INTER.VDW>
-21.0193

>  <SCORE.INTER.norm>
-0.525897

>  <SCORE.INTRA>
-1.2863

>  <SCORE.INTRA.DIHEDRAL>
-4.86566

>  <SCORE.INTRA.DIHEDRAL.0>
7.79482

>  <SCORE.INTRA.POLAR>
0

>  <SCORE.INTRA.POLAR.0>
0

>  <SCORE.INTRA.REPUL>
0

>  <SCORE.INTRA.REPUL.0>
0

>  <SCORE.INTRA.SOLV>
3.16986

>  <SCORE.INTRA.SOLV.lig_0>
-49.456

>  <SCORE.INTRA.VDW>
-0.438397

>  <SCORE.INTRA.VDW.0>
-0.478406

>  <SCORE.INTRA.norm>
-0.0918784

>  <SCORE.RESTR>
0.0326327

>  <SCORE.RESTR.CAVITY>
0.0326327

>  <SCORE.RESTR.norm>
0.00233091

>  <SCORE.SYSTEM>
0

>  <SCORE.SYSTEM.CONST>
0

>  <SCORE.SYSTEM.DIHEDRAL>
0

>  <SCORE.SYSTEM.SOLV>
0

>  <SCORE.SYSTEM.norm>
0

>  <SCORE.heavy>
14

>  <SCORE.norm>
-0.615445

>  <RMSD>
1.838

$$$$
ligand
 OpenBabel11021811413D
libRbt.so/2013.1/901 2013/11/27
 14 13  0  0  0  0  0  0  0  0999 V2000
   44.5789    1.2991   17.3684 N   0  0  0  0  0  0  0  0  0  0  0  0
   45.9841    1.7570   17.3129 C   0  0  0  0  0  0  0  0  0  0  0  0
   46.3918    2.4664   18.6223 C   0  0  0  0  0  0  0  0  0  0  0  0
   45.6064    3.7532   18.9243 C   0  0  0  0  0  0  0  0  0  0  0  0
   46.1216    4.4181   20.1526 N   0  0  0  0  0  0  0  0  0  0  0  0
   45.2012    5.5059   20.5722 C   0  0  0  0  0  0  0  0  0  0  0  0
   45.3161    6.8402   19.7606 C   0  0  0  0  0  0  0  0  0  0  0  0
   46.6273    7.6343   20.0262 C   0  0  0  0  0  0  0  0  0  0  0  0
   46.8508    8.7906   19.0713 C   0  0  0  0  0  0  0  0  0  0  0  0
   45.7106    9.6803   19.1842 N   0  0  0  0  0  0  0  0  0  0  0  0
   45.9317   10.7360   18.2114 C   0  0  0  0  0  0  0  0  0  0  0  0
   44.9227   10.6639   17.0712 C   0  0  0  0  0  0  0  0  0  0  0  0
   43.5671   11.1344   17.6198 C   0  0  0  0  0  0  0  0  0  0  0  0
   43.5448   12.5819   17.8788 N   0  0  0  0  0  0  0  0  0  0  0  0
  1  2  1  0  0  0  0
  2  3  1  0  0  0  0
  3  4  1  0  0  0  0
  4  5  1  0  0  0  0
  5  6  1  0  0  0  0
  6  7  1  0  0  0  0
  7  8  1  0  0  0  0
  8  9  1  0  0  0  0
  9 10  1  0  0  0  0
 10 11  1  0  0  0  0
 11 12  1  0  0  0  0
 12 13  1  0  0  0  0
 13 14  1  0  0  0  0
M  END
>  <CHROM.1>
-63.06899027,-176.28461415,-169.38612867,-78.33580603,-70.36437403,169.89092889
58.18883988,-177.32541912,111.83397050,72.84937380,71.33285676,45.45411974
6.94720769,18.69831834,1.37744393,0.98058200,-3.02145238

>  <Name>
ligand

>  <RI>
0

>  <Rbt.Current_Directory>
/home/itssahil/PROJECTS/Mol_Feturizer/New_Systems/rnas/1TN1

>  <Rbt.Executable>
rbdock ($Id: //depot/dev/client3/rdock/2013.1/src/exe/rbdock.cxx#4 $)

>  <Rbt.Library>
libRbt.so (2013.1, Build901 2013/11/27)

>  <Rbt.Parameter_File>
/export/apps/rDock/src/rDock_2013.1_src/data/scripts/dock_solv.prm

>  <Rbt.Receptor>
prm/pocket_docking_3.prm

>  <SCORE>
-5.56796

>  <SCORE.INTER>
-4.61095

>  <SCORE.INTER.CONST>
1

>  <SCORE.INTER.POLAR>
0

>  <SCORE.INTER.ROT>
11

>  <SCORE.INTER.SOLV>
12.5586

>  <SCORE.INTER.VDW>
-18.1935

>  <SCORE.INTER.norm>
-0.329354

>  <SCORE.INTRA>
-0.957008

>  <SCORE.INTRA.DIHEDRAL>
-4.30819

>  <SCORE.INTRA.DIHEDRAL.0>
7.79482

>  <SCORE.INTRA.POLAR>
0

>  <SCORE.INTRA.POLAR.0>
0

>  <SCORE.INTRA.REPUL>
0

>  <SCORE.INTRA.REPUL.0>
0

>  <SCORE.INTRA.SOLV>
2.84367

>  <SCORE.INTRA.SOLV.lig_0>
-49.456

>  <SCORE.INTRA.VDW>
-0.224749

>  <SCORE.INTRA.VDW.0>
-0.478406

>  <SCORE.INTRA.norm>
-0.0683577

>  <SCORE.RESTR>
0

>  <SCORE.RESTR.CAVITY>
0

>  <SCORE.RESTR.norm>
0

>  <SCORE.SYSTEM>
0

>  <SCORE.SYSTEM.CONST>
0

>  <SCORE.SYSTEM.DIHEDRAL>
0

>  <SCORE.SYSTEM.SOLV>
0

>  <SCORE.SYSTEM.norm>
0

>  <SCORE.heavy>
14

>  <SCORE.norm>
-0.397711

>  <RMSD>
1.843

$$$$
ligand
 OpenBabel11021811413D
libRbt.so/2013.1/901 2013/11/27
 14 13  0  0  0  0  0  0  0  0999 V2000
   45.0261   -0.5716   15.6618 N   0  0  0  0  0  0  0  0  0  0  0  0
   44.7085    0.8672   15.5349 C   0  0  0  0  0  0  0  0  0  0  0  0
   45.6110    1.7208   16.4519 C   0  0  0  0  0  0  0  0  0  0  0  0
   45.3860    1.4994   17.9567 C   0  0  0  0  0  0  0  0  0  0  0  0
   46.3336    2.3155   18.7645 N   0  0  0  0  0  0  0  0  0  0  0  0
   45.8655    3.7234   18.8374 C   0  0  0  0  0  0  0  0  0  0  0  0
   46.3445    4.5318   20.0900 C   0  0  0  0  0  0  0  0  0  0  0  0
   45.9810    6.0439   20.0472 C   0  0  0  0  0  0  0  0  0  0  0  0
   46.6109    6.7959   18.8911 C   0  0  0  0  0  0  0  0  0  0  0  0
   46.4048    8.2128   19.1242 N   0  0  0  0  0  0  0  0  0  0  0  0
   45.1066    8.5255   18.5526 C   0  0  0  0  0  0  0  0  0  0  0  0
   44.6276    9.9080   18.9796 C   0  0  0  0  0  0  0  0  0  0  0  0
   45.5948   10.9404   18.3809 C   0  0  0  0  0  0  0  0  0  0  0  0
   45.5123   10.9934   16.9135 N   0  0  0  0  0  0  0  0  0  0  0  0
  1  2  1  0  0  0  0
  2  3  1  0  0  0  0
  3  4  1  0  0  0  0
  4  5  1  0  0  0  0
  5  6  1  0  0  0  0
  6  7  1  0  0  0  0
  7  8  1  0  0  0  0
  8  9  1  0  0  0  0
  9 10  1  0  0  0  0
 10 11  1  0  0  0  0
 11 12  1  0  0  0  0
 12 13  1  0  0  0  0
 13 14  1  0  0  0  0
M  END
>  <CHROM.1>
-66.13263787,177.57965962,79.04948448,154.27681524,172.96566217,-61.93460544
-169.05664062,-87.02827455,167.95912321,64.96659810,67.09201333,45.65087220
5.39338020,18.15638233,1.62584083,1.23291403,-3.00820071

>  <Name>
ligand

>  <RI>
0

>  <Rbt.Current_Directory>
/home/itssahil/PROJECTS/Mol_Feturizer/New_Systems/rnas/1TN1

>  <Rbt.Executable>
rbdock ($Id: //depot/dev/client3/rdock/2013.1/src/exe/rbdock.cxx#4 $)

>  <Rbt.Library>
libRbt.so (2013.1, Build901 2013/11/27)

>  <Rbt.Parameter_File>
/export/apps/rDock/src/rDock_2013.1_src/data/scripts/dock_solv.prm

>  <Rbt.Receptor>
prm/pocket_docking_2.prm

>  <SCORE>
-3.75351

>  <SCORE.INTER>
-3.51854

>  <SCORE.INTER.CONST>
1

>  <SCORE.INTER.POLAR>
0

>  <SCORE.INTER.ROT>
11

>  <SCORE.INTER.SOLV>
11.7029

>  <SCORE.INTER.VDW>
-17.18

>  <SCORE.INTER.norm>
-0.251324

>  <SCORE.INTRA>
-0.259143

>  <SCORE.INTRA.DIHEDRAL>
-5.34545

>  <SCORE.INTRA.DIHEDRAL.0>
7.79482

>  <SCORE.INTRA.POLAR>
0

>  <SCORE.INTRA.POLAR.0>
0

>  <SCORE.INTRA.REPUL>
0

>  <SCORE.INTRA.REPUL.0>
0

>  <SCORE.INTRA.SOLV>
2.52534

>  <SCORE.INTRA.SOLV.lig_0>
-49.456

>  <SCORE.INTRA.VDW>
1.15091

>  <SCORE.INTRA.VDW.0>
-0.478406

>  <SCORE.INTRA.norm>
-0.0185102

>  <SCORE.RESTR>
0.024173

>  <SCORE.RESTR.CAVITY>
0.024173

>  <SCORE.RESTR.norm>
0.00172664

>  <SCORE.SYSTEM>
0

>  <SCORE.SYSTEM.CONST>
0

>  <SCORE.SYSTEM.DIHEDRAL>
0

>  <SCORE.SYSTEM.SOLV>
0

>  <SCORE.SYSTEM.norm>
0

>  <SCORE.heavy>
14

>  <SCORE.norm>
-0.268108

>  <RMSD>
1.880

$$$$
ligand
 OpenBabel11021811413D
libRbt.so/2013.1/901 2013/11/27
 14 13  0  0  0  0  0  0  0  0999 V2000
   46.0954    1.6553   16.5837 N   0  0  0  0  0  0  0  0  0  0  0  0
   45.5781    1.6181   17.9687 C   0  0  0  0  0  0  0  0  0  0  0  0
   46.2192    2.7248   18.8337 C   0  0  0  0  0  0  0  0  0  0  0  0
   45.9033    4.1582   18.3761 C   0  0  0  0  0  0  0  0  0  0  0  0
   46.3793    5.1550   19.3743 N   0  0  0  0  0  0  0  0  0  0  0  0
   46.1911    6.5334   18.8532 C   0  0  0  0  0  0  0  0  0  0  0  0
   47.5013    7.3698   18.6638 C   0  0  0  0  0  0  0  0  0  0  0  0
   47.2914    8.7184   17.9169 C   0  0  0  0  0  0  0  0  0  0  0  0
   46.2557    9.6219   18.5572 C   0  0  0  0  0  0  0  0  0  0  0  0
   44.9523    9.2079   18.0735 N   0  0  0  0  0  0  0  0  0  0  0  0
   44.0107    9.5483   19.1257 C   0  0  0  0  0  0  0  0  0  0  0  0
   42.7266   10.1391   18.5553 C   0  0  0  0  0  0  0  0  0  0  0  0
   43.0897   11.4644   17.8685 C   0  0  0  0  0  0  0  0  0  0  0  0
   41.9070   12.1540   17.3316 N   0  0  0  0  0  0  0  0  0  0  0  0
  1  2  1  0  0  0  0
  2  3  1  0  0  0  0
  3  4  1  0  0  0  0
  4  5  1  0  0  0  0
  5  6  1  0  0  0  0
  6  7  1  0  0  0  0
  7  8  1  0  0  0  0
  8  9  1  0  0  0  0
  9 10  1  0  0  0  0
 10 11  1  0  0  0  0
 11 12  1  0  0  0  0
 12 13  1  0  0  0  0
 13 14  1  0  0  0  0
M  END
>  <CHROM.1>
63.32013862,171.27535641,174.23715702,-117.80078613,171.09823315,55.71027799
-84.13189871,151.49104109,138.55350080,-64.23542072,-177.42936249,45.29312135
7.14779220,18.29177133,1.24575674,0.21864108,-3.06464913

>  <Name>
ligand

>  <RI>
0

>  <Rbt.Current_Directory>
/home/itssahil/PROJECTS/Mol_Feturizer/New_Systems/rnas/1TN1

>  <Rbt.Executable>
rbdock ($Id: //depot/dev/client3/rdock/2013.1/src/exe/rbdock.cxx#4 $)

>  <Rbt.Library>
libRbt.so (2013.1, Build901 2013/11/27)

>  <Rbt.Parameter_File>
/export/apps/rDock/src/rDock_2013.1_src/data/scripts/dock_solv.prm

>  <Rbt.Receptor>
prm/pocket_docking_2.prm

>  <SCORE>
-3.52792

>  <SCORE.INTER>
-3.09674

>  <SCORE.INTER.CONST>
1

>  <SCORE.INTER.POLAR>
0

>  <SCORE.INTER.ROT>
11

>  <SCORE.INTER.SOLV>
15.3291

>  <SCORE.INTER.VDW>
-18.1075

>  <SCORE.INTER.norm>
-0.221196

>  <SCORE.INTRA>
-0.456918

>  <SCORE.INTRA.DIHEDRAL>
-2.36632

>  <SCORE.INTRA.DIHEDRAL.0>
7.79482

>  <SCORE.INTRA.POLAR>
0

>  <SCORE.INTRA.POLAR.0>
0

>  <SCORE.INTRA.REPUL>
0

>  <SCORE.INTRA.REPUL.0>
0

>  <SCORE.INTRA.SOLV>
1.91962

>  <SCORE.INTRA.SOLV.lig_0>
-49.456

>  <SCORE.INTRA.VDW>
-0.233569

>  <SCORE.INTRA.VDW.0>
-0.478406

>  <SCORE.INTRA.norm>
-0.032637

>  <SCORE.RESTR>
0.0257431

>  <SCORE.RESTR.CAVITY>
0.0257431

>  <SCORE.RESTR.norm>
0.00183879

>  <SCORE.SYSTEM>
0

>  <SCORE.SYSTEM.CONST>
0

>  <SCORE.SYSTEM.DIHEDRAL>
0

>  <SCORE.SYSTEM.SOLV>
0

>  <SCORE.SYSTEM.norm>
0

>  <SCORE.heavy>
14

>  <SCORE.norm>
-0.251994

>  <RMSD>
1.904

$$$$
ligand
 OpenBabel11021811413D
libRbt.so/2013.1/901 2013/11/27
 14 13  0  0  0  0  0  0  0  0999 V2000
   45.8149   -0.2604   16.8956 N   0  0  0  0  0  0  0  0  0  0  0  0
   45.3724    0.9814   17.5659 C   0  0  0  0  0  0  0  0  0  0  0  0
   46.3710    2.1335   17.3219 C   0  0  0  0  0  0  0  0  0  0  0  0
   45.9944    3.4610   18.0001 C   0  0  0  0  0  0  0  0  0  0  0  0
   45.9660    3.3152   19.4814 N   0  0  0  0  0  0  0  0  0  0  0  0
   44.9199    4.1945   20.0638 C   0  0  0  0  0  0  0  0  0  0  0  0
   45.4241    5.5683   20.6212 C   0  0  0  0  0  0  0  0  0  0  0  0
   46.1614    6.4478   19.5708 C   0  0  0  0  0  0  0  0  0  0  0  0
   46.4024    7.8747   20.0230 C   0  0  0  0  0  0  0  0  0  0  0  0
   45.1093    8.4750   20.2911 N   0  0  0  0  0  0  0  0  0  0  0  0
   44.9430    9.5221   19.2982 C   0  0  0  0  0  0  0  0  0  0  0  0
   43.4794    9.6946   18.9094 C   0  0  0  0  0  0  0  0  0  0  0  0
   43.3766   10.9517   18.0324 C   0  0  0  0  0  0  0  0  0  0  0  0
   44.1458   10.8236   16.7856 N   0  0  0  0  0  0  0  0  0  0  0  0
  1  2  1  0  0  0  0
  2  3  1  0  0  0  0
  3  4  1  0  0  0  0
  4  5  1  0  0  0  0
  5  6  1  0  0  0  0
  6  7  1  0  0  0  0
  7  8  1  0  0  0  0
  8  9  1  0  0  0  0
  9 10  1  0  0  0  0
 10 11  1  0  0  0  0
 11 12  1  0  0  0  0
 12 13  1  0  0  0  0
 13 14  1  0  0  0  0
M  END
>  <CHROM.1>
-179.29878914,62.49069188,-146.74780360,-97.65340284,57.66942510,168.42114882
-59.93868495,-114.03963368,147.56570897,171.40504416,62.30601641,45.24860451
5.94178163,18.77590731,1.05497817,1.20275238,-2.56097000

>  <Name>
ligand

>  <RI>
0

>  <Rbt.Current_Directory>
/home/itssahil/PROJECTS/Mol_Feturizer/New_Systems/rnas/1TN1

>  <Rbt.Executable>
rbdock ($Id: //depot/dev/client3/rdock/2013.1/src/exe/rbdock.cxx#4 $)

>  <Rbt.Library>
libRbt.so (2013.1, Build901 2013/11/27)

>  <Rbt.Parameter_File>
/export/apps/rDock/src/rDock_2013.1_src/data/scripts/dock_solv.prm

>  <Rbt.Receptor>
prm/pocket_docking_4.prm

>  <SCORE>
-6.46818

>  <SCORE.INTER>
-5.2934

>  <SCORE.INTER.CONST>
1

>  <SCORE.INTER.POLAR>
0

>  <SCORE.INTER.ROT>
11

>  <SCORE.INTER.SOLV>
16.743

>  <SCORE.INTER.VDW>
-20.0433

>  <SCORE.INTER.norm>
-0.3781

>  <SCORE.INTRA>
-1.17478

>  <SCORE.INTRA.DIHEDRAL>
-3.52572

>  <SCORE.INTRA.DIHEDRAL.0>
7.79482

>  <SCORE.INTRA.POLAR>
0

>  <SCORE.INTRA.POLAR.0>
0

>  <SCORE.INTRA.REPUL>
0

>  <SCORE.INTRA.REPUL.0>
0

>  <SCORE.INTRA.SOLV>
1.88429

>  <SCORE.INTRA.SOLV.lig_0>
-49.456

>  <SCORE.INTRA.VDW>
-0.354068

>  <SCORE.INTRA.VDW.0>
-0.478406

>  <SCORE.INTRA.norm>
-0.0839129

>  <SCORE.RESTR>
0

>  <SCORE.RESTR.CAVITY>
0

>  <SCORE.RESTR.norm>
0

>  <SCORE.SYSTEM>
0

>  <SCORE.SYSTEM.CONST>
0

>  <SCORE.SYSTEM.DIHEDRAL>
0

>  <SCORE.SYSTEM.SOLV>
0

>  <SCORE.SYSTEM.norm>
0

>  <SCORE.heavy>
14

>  <SCORE.norm>
-0.462013

>  <RMSD>
1.912

$$$$
ligand
 OpenBabel11021811413D
libRbt.so/2013.1/901 2013/11/27
 14 13  0  0  0  0  0  0  0  0999 V2000
   45.5946   -0.0274   15.7420 N   0  0  0  0  0  0  0  0  0  0  0  0
   44.5118    0.6515   16.4862 C   0  0  0  0  0  0  0  0  0  0  0  0
   44.9783    2.0216   17.0239 C   0  0  0  0  0  0  0  0  0  0  0  0
   46.0893    1.9482   18.0843 C   0  0  0  0  0  0  0  0  0  0  0  0
   46.4841    3.3095   18.5397 N   0  0  0  0  0  0  0  0  0  0  0  0
   45.5845    3.7672   19.6298 C   0  0  0  0  0  0  0  0  0  0  0  0
   46.0020    5.1007   20.3365 C   0  0  0  0  0  0  0  0  0  0  0  0
   45.9944    6.3443   19.4017 C   0  0  0  0  0  0  0  0  0  0  0  0
   46.1761    7.6622   20.1290 C   0  0  0  0  0  0  0  0  0  0  0  0
   45.9362    8.7277   19.1743 N   0  0  0  0  0  0  0  0  0  0  0  0
   44.7256    9.3957   19.6194 C   0  0  0  0  0  0  0  0  0  0  0  0
   43.4773    8.6449   19.1707 C   0  0  0  0  0  0  0  0  0  0  0  0
   42.2629    9.5304   19.4889 C   0  0  0  0  0  0  0  0  0  0  0  0
   42.2486   10.7628   18.6866 N   0  0  0  0  0  0  0  0  0  0  0  0
  1  2  1  0  0  0  0
  2  3  1  0  0  0  0
  3  4  1  0  0  0  0
  4  5  1  0  0  0  0
  5  6  1  0  0  0  0
  6  7  1  0  0  0  0
  7  8  1  0  0  0  0
  8  9  1  0  0  0  0
  9 10  1  0  0  0  0
 10 11  1  0  0  0  0
 11 12  1  0  0  0  0
 12 13  1  0  0  0  0
 13 14  1  0  0  0  0
M  END
>  <CHROM.1>
-65.30052241,179.61289488,85.40137733,172.04989937,63.44275134,170.55427595
-171.07360474,113.38599869,-81.46528040,-171.22765827,66.03453823,45.00466483
5.55990488,18.67976494,1.33581065,0.57528722,-2.74002186

>  <Name>
ligand

>  <RI>
0

>  <Rbt.Current_Directory>
/home/itssahil/PROJECTS/Mol_Feturizer/New_Systems/rnas/1TN1

>  <Rbt.Executable>
rbdock ($Id: //depot/dev/client3/rdock/2013.1/src/exe/rbdock.cxx#4 $)

>  <Rbt.Library>
libRbt.so (2013.1, Build901 2013/11/27)

>  <Rbt.Parameter_File>
/export/apps/rDock/src/rDock_2013.1_src/data/scripts/dock_solv.prm

>  <Rbt.Receptor>
prm/pocket_docking_8.prm

>  <SCORE>
-8.2692

>  <SCORE.INTER>
-7.45294

>  <SCORE.INTER.CONST>
1

>  <SCORE.INTER.POLAR>
0

>  <SCORE.INTER.ROT>
11

>  <SCORE.INTER.SOLV>
16.2254

>  <SCORE.INTER.VDW>
-21.3104

>  <SCORE.INTER.norm>
-0.532353

>  <SCORE.INTRA>
-0.816261

>  <SCORE.INTRA.DIHEDRAL>
-4.54528

>  <SCORE.INTRA.DIHEDRAL.0>
7.79482

>  <SCORE.INTRA.POLAR>
0

>  <SCORE.INTRA.POLAR.0>
0

>  <SCORE.INTRA.REPUL>
0

>  <SCORE.INTRA.REPUL.0>
0

>  <SCORE.INTRA.SOLV>
1.80486

>  <SCORE.INTRA.SOLV.lig_0>
-49.456

>  <SCORE.INTRA.VDW>
0.553953

>  <SCORE.INTRA.VDW.0>
-0.478406

>  <SCORE.INTRA.norm>
-0.0583043

>  <SCORE.RESTR>
0

>  <SCORE.RESTR.CAVITY>
0

>  <SCORE.RESTR.norm>
0

>  <SCORE.SYSTEM>
0

>  <SCORE.SYSTEM.CONST>
0

>  <SCORE.SYSTEM.DIHEDRAL>
0

>  <SCORE.SYSTEM.SOLV>
0

>  <SCORE.SYSTEM.norm>
0

>  <SCORE.heavy>
14

>  <SCORE.norm>
-0.590657

>  <RMSD>
1.912

$$$$
ligand
 OpenBabel11021811413D
libRbt.so/2013.1/901 2013/11/27
 14 13  0  0  0  0  0  0  0  0999 V2000
   45.4151    0.1414   15.5076 N   0  0  0  0  0  0  0  0  0  0  0  0
   45.3858   -0.1215   16.9627 C   0  0  0  0  0  0  0  0  0  0  0  0
   44.9287    1.1279   17.7464 C   0  0  0  0  0  0  0  0  0  0  0  0
   45.8744    2.3350   17.6342 C   0  0  0  0  0  0  0  0  0  0  0  0
   45.3377    3.5055   18.3814 N   0  0  0  0  0  0  0  0  0  0  0  0
   46.2881    3.9135   19.4477 C   0  0  0  0  0  0  0  0  0  0  0  0
   45.6779    4.7739   20.6051 C   0  0  0  0  0  0  0  0  0  0  0  0
   45.1844    6.1802   20.1588 C   0  0  0  0  0  0  0  0  0  0  0  0
   46.3030    7.1472   19.8233 C   0  0  0  0  0  0  0  0  0  0  0  0
   45.6941    8.4013   19.4222 N   0  0  0  0  0  0  0  0  0  0  0  0
   46.7849    9.2462   18.9684 C   0  0  0  0  0  0  0  0  0  0  0  0
   46.2981   10.6493   18.6257 C   0  0  0  0  0  0  0  0  0  0  0  0
   45.3677   10.5341   17.4087 C   0  0  0  0  0  0  0  0  0  0  0  0
   44.9978   11.8498   16.8657 N   0  0  0  0  0  0  0  0  0  0  0  0
  1  2  1  0  0  0  0
  2  3  1  0  0  0  0
  3  4  1  0  0  0  0
  4  5  1  0  0  0  0
  5  6  1  0  0  0  0
  6  7  1  0  0  0  0
  7  8  1  0  0  0  0
  8  9  1  0  0  0  0
  9 10  1  0  0  0  0
 10 11  1  0  0  0  0
 11 12  1  0  0  0  0
 12 13  1  0  0  0  0
 13 14  1  0  0  0  0
M  END
>  <CHROM.1>
-63.82811010,178.18089280,119.60914241,-159.77352245,-65.83629098,-71.38494524
179.74959876,-173.79837732,-175.12564820,-65.93856469,-171.43066446,45.68140226
5.69158937,18.39734198,1.80779901,1.40885799,3.01752535

>  <Name>
ligand

>  <RI>
0

>  <Rbt.Current_Directory>
/home/itssahil/PROJECTS/Mol_Feturizer/New_Systems/rnas/1TN1

>  <Rbt.Executable>
rbdock ($Id: //depot/dev/client3/rdock/2013.1/src/exe/rbdock.cxx#4 $)

>  <Rbt.Library>
libRbt.so (2013.1, Build901 2013/11/27)

>  <Rbt.Parameter_File>
/export/apps/rDock/src/rDock_2013.1_src/data/scripts/dock_solv.prm

>  <Rbt.Receptor>
prm/pocket_docking_3.prm

>  <SCORE>
-7.83877

>  <SCORE.INTER>
-5.57979

>  <SCORE.INTER.CONST>
1

>  <SCORE.INTER.POLAR>
0

>  <SCORE.INTER.ROT>
11

>  <SCORE.INTER.SOLV>
9.99512

>  <SCORE.INTER.VDW>
-17.9849

>  <SCORE.INTER.norm>
-0.398557

>  <SCORE.INTRA>
-2.26406

>  <SCORE.INTRA.DIHEDRAL>
-5.10877

>  <SCORE.INTRA.DIHEDRAL.0>
7.79482

>  <SCORE.INTRA.POLAR>
0

>  <SCORE.INTRA.POLAR.0>
0

>  <SCORE.INTRA.REPUL>
0

>  <SCORE.INTRA.REPUL.0>
0

>  <SCORE.INTRA.SOLV>
1.59368

>  <SCORE.INTRA.SOLV.lig_0>
-49.456

>  <SCORE.INTRA.VDW>
-0.506511

>  <SCORE.INTRA.VDW.0>
-0.478406

>  <SCORE.INTRA.norm>
-0.161718

>  <SCORE.RESTR>
0.00508022

>  <SCORE.RESTR.CAVITY>
0.00508022

>  <SCORE.RESTR.norm>
0.000362873

>  <SCORE.SYSTEM>
0

>  <SCORE.SYSTEM.CONST>
0

>  <SCORE.SYSTEM.DIHEDRAL>
0

>  <SCORE.SYSTEM.SOLV>
0

>  <SCORE.SYSTEM.norm>
0

>  <SCORE.heavy>
14

>  <SCORE.norm>
-0.559912

>  <RMSD>
1.927

$$$$
ligand
 OpenBabel11021811413D
libRbt.so/2013.1/901 2013/11/27
 14 13  0  0  0  0  0  0  0  0999 V2000
   45.3047    0.0151   15.2436 N   0  0  0  0  0  0  0  0  0  0  0  0
   44.9850    0.9930   16.3060 C   0  0  0  0  0  0  0  0  0  0  0  0
   45.7440    0.6676   17.6107 C   0  0  0  0  0  0  0  0  0  0  0  0
   45.4733    1.6425   18.7684 C   0  0  0  0  0  0  0  0  0  0  0  0
   45.9862    3.0038   18.4518 N   0  0  0  0  0  0  0  0  0  0  0  0
   45.6038    3.9586   19.5237 C   0  0  0  0  0  0  0  0  0  0  0  0
   46.1857    5.4053   19.3803 C   0  0  0  0  0  0  0  0  0  0  0  0
   45.8083    6.3604   20.5490 C   0  0  0  0  0  0  0  0  0  0  0  0
   46.4246    7.7413   20.4390 C   0  0  0  0  0  0  0  0  0  0  0  0
   45.8265    8.3993   19.2928 N   0  0  0  0  0  0  0  0  0  0  0  0
   46.3063    9.7699   19.3257 C   0  0  0  0  0  0  0  0  0  0  0  0
   45.6892   10.6036   18.2088 C   0  0  0  0  0  0  0  0  0  0  0  0
   46.2696   12.0222   18.3128 C   0  0  0  0  0  0  0  0  0  0  0  0
   45.7871   12.9001   17.2363 N   0  0  0  0  0  0  0  0  0  0  0  0
  1  2  1  0  0  0  0
  2  3  1  0  0  0  0
  3  4  1  0  0  0  0
  4  5  1  0  0  0  0
  5  6  1  0  0  0  0
  6  7  1  0  0  0  0
  7  8  1  0  0  0  0
  8  9  1  0  0  0  0
  9 10  1  0  0  0  0
 10 11  1  0  0  0  0
 11 12  1  0  0  0  0
 12 13  1  0  0  0  0
 13 14  1  0  0  0  0
M  END
>  <CHROM.1>
179.71663192,-65.45901323,174.70257270,174.90894113,-177.77775673,177.37875426
67.16209922,172.65840805,-176.87554529,-179.17731970,177.28231221,45.81391000
5.96299349,18.47529300,1.96855955,1.42497409,2.87895074

>  <Name>
ligand

>  <RI>
0

>  <Rbt.Current_Directory>
/home/itssahil/PROJECTS/Mol_Feturizer/New_Systems/rnas/1TN1

>  <Rbt.Executable>
rbdock ($Id: //depot/dev/client3/rdock/2013.1/src/exe/rbdock.cxx#4 $)

>  <Rbt.Library>
libRbt.so (2013.1, Build901 2013/11/27)

>  <Rbt.Parameter_File>
/export/apps/rDock/src/rDock_2013.1_src/data/scripts/dock_solv.prm

>  <Rbt.Receptor>
prm/pocket_docking_5.prm

>  <SCORE>
-10.1523

>  <SCORE.INTER>
-6.06827

>  <SCORE.INTER.CONST>
1

>  <SCORE.INTER.POLAR>
0

>  <SCORE.INTER.ROT>
11

>  <SCORE.INTER.SOLV>
9.26111

>  <SCORE.INTER.VDW>
-18.0659

>  <SCORE.INTER.norm>
-0.433448

>  <SCORE.INTRA>
-4.08399

>  <SCORE.INTRA.DIHEDRAL>
-7.31691

>  <SCORE.INTRA.DIHEDRAL.0>
7.79482

>  <SCORE.INTRA.POLAR>
0

>  <SCORE.INTRA.POLAR.0>
0

>  <SCORE.INTRA.REPUL>
0

>  <SCORE.INTRA.REPUL.0>
0

>  <SCORE.INTRA.SOLV>
0.634785

>  <SCORE.INTRA.SOLV.lig_0>
-49.456

>  <SCORE.INTRA.VDW>
-0.742923

>  <SCORE.INTRA.VDW.0>
-0.478406

>  <SCORE.INTRA.norm>
-0.291713

>  <SCORE.RESTR>
0

>  <SCORE.RESTR.CAVITY>
0

>  <SCORE.RESTR.norm>
0

>  <SCORE.SYSTEM>
0

>  <SCORE.SYSTEM.CONST>
0

>  <SCORE.SYSTEM.DIHEDRAL>
0

>  <SCORE.SYSTEM.SOLV>
0

>  <SCORE.SYSTEM.norm>
0

>  <SCORE.heavy>
14

>  <SCORE.norm>
-0.725161

>  <RMSD>
1.957

$$$$
ligand
 OpenBabel11021811413D
libRbt.so/2013.1/901 2013/11/27
 14 13  0  0  0  0  0  0  0  0999 V2000
   42.8758   10.3451   18.5429 N   0  0  0  0  0  0  0  0  0  0  0  0
   44.2347   10.7196   18.0954 C   0  0  0  0  0  0  0  0  0  0  0  0
   45.1084    9.4690   17.8575 C   0  0  0  0  0  0  0  0  0  0  0  0
   45.3641    8.6189   19.1128 C   0  0  0  0  0  0  0  0  0  0  0  0
   46.1346    7.3898   18.7781 N   0  0  0  0  0  0  0  0  0  0  0  0
   46.3713    6.5828   20.0026 C   0  0  0  0  0  0  0  0  0  0  0  0
   45.6642    5.1861   20.0397 C   0  0  0  0  0  0  0  0  0  0  0  0
   45.9821    4.2806   18.8152 C   0  0  0  0  0  0  0  0  0  0  0  0
   45.3327    2.9118   18.8767 C   0  0  0  0  0  0  0  0  0  0  0  0
   45.3305    2.3657   17.5328 N   0  0  0  0  0  0  0  0  0  0  0  0
   45.5986    0.9458   17.6797 C   0  0  0  0  0  0  0  0  0  0  0  0
   45.3051    0.1865   16.3911 C   0  0  0  0  0  0  0  0  0  0  0  0
   45.6470   -1.2913   16.6342 C   0  0  0  0  0  0  0  0  0  0  0  0
   45.3439   -2.1311   15.4656 N   0  0  0  0  0  0  0  0  0  0  0  0
  1  2  1  0  0  0  0
  2  3  1  0  0  0  0
  3  4  1  0  0  0  0
  4  5  1  0  0  0  0
  5  6  1  0  0  0  0
  6  7  1  0  0  0  0
  7  8  1  0  0  0  0
  8  9  1  0  0  0  0
  9 10  1  0  0  0  0
 10 11  1  0  0  0  0
 11 12  1  0  0  0  0
 12 13  1  0  0  0  0
 13 14  1  0  0  0  0
M  END
>  <CHROM.1>
-63.02120542,176.19916132,-179.99759340,114.28173126,54.63582162,178.07815544
161.30647334,142.23515164,166.63641387,178.74317117,177.49125249,45.30680474
4.68430299,18.13052510,1.71113563,-0.96920148,0.31684175

>  <Name>
ligand

>  <RI>
0

>  <Rbt.Current_Directory>
/home/itssahil/PROJECTS/Mol_Feturizer/New_Systems/rnas/1TN1

>  <Rbt.Executable>
rbdock ($Id: //depot/dev/client3/rdock/2013.1/src/exe/rbdock.cxx#4 $)

>  <Rbt.Library>
libRbt.so (2013.1, Build901 2013/11/27)

>  <Rbt.Parameter_File>
/export/apps/rDock/src/rDock_2013.1_src/data/scripts/dock_solv.prm

>  <Rbt.Receptor>
prm/pocket_docking_2.prm

>  <SCORE>
-5.85466

>  <SCORE.INTER>
-3.53398

>  <SCORE.INTER.CONST>
1

>  <SCORE.INTER.POLAR>
0

>  <SCORE.INTER.ROT>
11

>  <SCORE.INTER.SOLV>
17.964

>  <SCORE.INTER.VDW>
-19.2773

>  <SCORE.INTER.norm>
-0.252427

>  <SCORE.INTRA>
-2.32068

>  <SCORE.INTRA.DIHEDRAL>
-4.18109

>  <SCORE.INTRA.DIHEDRAL.0>
7.79482

>  <SCORE.INTRA.POLAR>
0

>  <SCORE.INTRA.POLAR.0>
0

>  <SCORE.INTRA.REPUL>
0

>  <SCORE.INTRA.REPUL.0>
0

>  <SCORE.INTRA.SOLV>
1.01999

>  <SCORE.INTRA.SOLV.lig_0>
-49.456

>  <SCORE.INTRA.VDW>
-0.740133

>  <SCORE.INTRA.VDW.0>
-0.478406

>  <SCORE.INTRA.norm>
-0.165763

>  <SCORE.RESTR>
0

>  <SCORE.RESTR.CAVITY>
0

>  <SCORE.RESTR.norm>
0

>  <SCORE.SYSTEM>
0

>  <SCORE.SYSTEM.CONST>
0

>  <SCORE.SYSTEM.DIHEDRAL>
0

>  <SCORE.SYSTEM.SOLV>
0

>  <SCORE.SYSTEM.norm>
0

>  <SCORE.heavy>
14

>  <SCORE.norm>
-0.41819

>  <RMSD>
1.994

$$$$
ligand
 OpenBabel11021811413D
libRbt.so/2013.1/901 2013/11/27
 14 13  0  0  0  0  0  0  0  0999 V2000
   44.9765    0.3997   16.7835 N   0  0  0  0  0  0  0  0  0  0  0  0
   45.8327    1.4136   17.4362 C   0  0  0  0  0  0  0  0  0  0  0  0
   45.0511    2.1923   18.5163 C   0  0  0  0  0  0  0  0  0  0  0  0
   45.8180    3.3725   19.1352 C   0  0  0  0  0  0  0  0  0  0  0  0
   45.0010    4.0533   20.1769 N   0  0  0  0  0  0  0  0  0  0  0  0
   45.7504    5.2020   20.7477 C   0  0  0  0  0  0  0  0  0  0  0  0
   45.5119    6.5814   20.0460 C   0  0  0  0  0  0  0  0  0  0  0  0
   46.5104    7.6941   20.4765 C   0  0  0  0  0  0  0  0  0  0  0  0
   46.2354    9.0454   19.8464 C   0  0  0  0  0  0  0  0  0  0  0  0
   46.3030    8.8808   18.4067 N   0  0  0  0  0  0  0  0  0  0  0  0
   47.0254   10.0377   17.9073 C   0  0  0  0  0  0  0  0  0  0  0  0
   46.3469   10.6309   16.6781 C   0  0  0  0  0  0  0  0  0  0  0  0
   45.0230   11.2609   17.1367 C   0  0  0  0  0  0  0  0  0  0  0  0
   44.2656   11.8392   16.0165 N   0  0  0  0  0  0  0  0  0  0  0  0
  1  2  1  0  0  0  0
  2  3  1  0  0  0  0
  3  4  1  0  0  0  0
  4  5  1  0  0  0  0
  5  6  1  0  0  0  0
  6  7  1  0  0  0  0
  7  8  1  0  0  0  0
  8  9  1  0  0  0  0
  9 10  1  0  0  0  0
 10 11  1  0  0  0  0
 11 12  1  0  0  0  0
 12 13  1  0  0  0  0
 13 14  1  0  0  0  0
M  END
>  <CHROM.1>
-173.43833707,-179.19923446,-179.14275460,91.59458412,-168.49703328,-177.19224699
-58.97627756,-137.85379871,-135.20860099,69.17523644,-178.63112968,45.68958965
6.61468474,18.52241317,1.75454687,1.34915154,2.86006942

>  <Name>
ligand

>  <RI>
0

>  <Rbt.Current_Directory>
/home/itssahil/PROJECTS/Mol_Feturizer/New_Systems/rnas/1TN1

>  <Rbt.Executable>
rbdock ($Id: //depot/dev/client3/rdock/2013.1/src/exe/rbdock.cxx#4 $)

>  <Rbt.Library>
libRbt.so (2013.1, Build901 2013/11/27)

>  <Rbt.Parameter_File>
/export/apps/rDock/src/rDock_2013.1_src/data/scripts/dock_solv.prm

>  <Rbt.Receptor>
prm/pocket_docking_8.prm

>  <SCORE>
-6.36812

>  <SCORE.INTER>
-4.23174

>  <SCORE.INTER.CONST>
1

>  <SCORE.INTER.POLAR>
0

>  <SCORE.INTER.ROT>
11

>  <SCORE.INTER.SOLV>
12.4242

>  <SCORE.INTER.VDW>
-17.8959

>  <SCORE.INTER.norm>
-0.302267

>  <SCORE.INTRA>
-2.13753

>  <SCORE.INTRA.DIHEDRAL>
-4.16234

>  <SCORE.INTRA.DIHEDRAL.0>
7.79482

>  <SCORE.INTRA.POLAR>
0

>  <SCORE.INTRA.POLAR.0>
0

>  <SCORE.INTRA.REPUL>
0

>  <SCORE.INTRA.REPUL.0>
0

>  <SCORE.INTRA.SOLV>
0.758942

>  <SCORE.INTRA.SOLV.lig_0>
-49.456

>  <SCORE.INTRA.VDW>
-0.435829

>  <SCORE.INTRA.VDW.0>
-0.478406

>  <SCORE.INTRA.norm>
-0.15268

>  <SCORE.RESTR>
0.00115124

>  <SCORE.RESTR.CAVITY>
0.00115124

>  <SCORE.RESTR.norm>
8.22312e-05

>  <SCORE.SYSTEM>
0

>  <SCORE.SYSTEM.CONST>
0

>  <SCORE.SYSTEM.DIHEDRAL>
0

>  <SCORE.SYSTEM.SOLV>
0

>  <SCORE.SYSTEM.norm>
0

>  <SCORE.heavy>
14

>  <SCORE.norm>
-0.454865

>  <RMSD>
1.997

$$$$
ligand
 OpenBabel11021811413D
libRbt.so/2013.1/901 2013/11/27
 14 13  0  0  0  0  0  0  0  0999 V2000
   41.8038   13.5878   17.4001 N   0  0  0  0  0  0  0  0  0  0  0  0
   43.0502   12.8726   17.7496 C   0  0  0  0  0  0  0  0  0  0  0  0
   43.3752   11.7776   16.7108 C   0  0  0  0  0  0  0  0  0  0  0  0
   44.6808   11.0104   16.9770 C   0  0  0  0  0  0  0  0  0  0  0  0
   44.6172   10.2811   18.2733 N   0  0  0  0  0  0  0  0  0  0  0  0
   45.7670    9.3483   18.3945 C   0  0  0  0  0  0  0  0  0  0  0  0
   45.4356    7.9399   18.9935 C   0  0  0  0  0  0  0  0  0  0  0  0
   46.6701    7.0039   19.1362 C   0  0  0  0  0  0  0  0  0  0  0  0
   46.3346    5.6160   19.6462 C   0  0  0  0  0  0  0  0  0  0  0  0
   45.7147    4.8856   18.5569 N   0  0  0  0  0  0  0  0  0  0  0  0
   45.4285    3.5605   19.0782 C   0  0  0  0  0  0  0  0  0  0  0  0
   46.4767    2.5475   18.6328 C   0  0  0  0  0  0  0  0  0  0  0  0
   46.4278    2.4720   17.0992 C   0  0  0  0  0  0  0  0  0  0  0  0
   45.2789    1.6903   16.6179 N   0  0  0  0  0  0  0  0  0  0  0  0
  1  2  1  0  0  0  0
  2  3  1  0  0  0  0
  3  4  1  0  0  0  0
  4  5  1  0  0  0  0
  5  6  1  0  0  0  0
  6  7  1  0  0  0  0
  7  8  1  0  0  0  0
  8  9  1  0  0  0  0
  9 10  1  0  0  0  0
 10 11  1  0  0  0  0
 11 12  1  0  0  0  0
 12 13  1  0  0  0  0
 13 14  1  0  0  0  0
M  END
>  <CHROM.1>
178.31251722,62.12663331,169.29980789,-138.45304965,-178.61151647,-176.88103941
74.82216320,179.15872487,-100.29510621,-61.89409146,-76.72857608,45.07608770
7.47091505,18.09059421,2.01074409,-0.85319945,0.27416162

>  <Name>
ligand

>  <RI>
0

>  <Rbt.Current_Directory>
/home/itssahil/PROJECTS/Mol_Feturizer/New_Systems/rnas/1TN1

>  <Rbt.Executable>
rbdock ($Id: //depot/dev/client3/rdock/2013.1/src/exe/rbdock.cxx#4 $)

>  <Rbt.Library>
libRbt.so (2013.1, Build901 2013/11/27)

>  <Rbt.Parameter_File>
/export/apps/rDock/src/rDock_2013.1_src/data/scripts/dock_solv.prm

>  <Rbt.Receptor>
prm/pocket_docking_2.prm

>  <SCORE>
-3.34473

>  <SCORE.INTER>
-2.12743

>  <SCORE.INTER.CONST>
1

>  <SCORE.INTER.POLAR>
0

>  <SCORE.INTER.ROT>
11

>  <SCORE.INTER.SOLV>
11.9602

>  <SCORE.INTER.VDW>
-16.3384

>  <SCORE.INTER.norm>
-0.15196

>  <SCORE.INTRA>
-1.2173

>  <SCORE.INTRA.DIHEDRAL>
-3.98096

>  <SCORE.INTRA.DIHEDRAL.0>
7.79482

>  <SCORE.INTRA.POLAR>
0

>  <SCORE.INTRA.POLAR.0>
0

>  <SCORE.INTRA.REPUL>
0

>  <SCORE.INTRA.REPUL.0>
0

>  <SCORE.INTRA.SOLV>
2.17726

>  <SCORE.INTRA.SOLV.lig_0>
-49.456

>  <SCORE.INTRA.VDW>
-0.315443

>  <SCORE.INTRA.VDW.0>
-0.478406

>  <SCORE.INTRA.norm>
-0.0869497

>  <SCORE.RESTR>
0

>  <SCORE.RESTR.CAVITY>
0

>  <SCORE.RESTR.norm>
0

>  <SCORE.SYSTEM>
0

>  <SCORE.SYSTEM.CONST>
0

>  <SCORE.SYSTEM.DIHEDRAL>
0

>  <SCORE.SYSTEM.SOLV>
0

>  <SCORE.SYSTEM.norm>
0

>  <SCORE.heavy>
14

>  <SCORE.norm>
-0.238909

>  <RMSD>
2.010

$$$$
ligand
 OpenBabel11021811413D
libRbt.so/2013.1/901 2013/11/27
 14 13  0  0  0  0  0  0  0  0999 V2000
   45.9863    0.5703   15.5930 N   0  0  0  0  0  0  0  0  0  0  0  0
   45.1897    0.2466   16.7962 C   0  0  0  0  0  0  0  0  0  0  0  0
   45.7470    0.9649   18.0442 C   0  0  0  0  0  0  0  0  0  0  0  0
   45.7544    2.4994   17.9494 C   0  0  0  0  0  0  0  0  0  0  0  0
   46.1731    3.1126   19.2398 N   0  0  0  0  0  0  0  0  0  0  0  0
   45.9991    4.5870   19.1880 C   0  0  0  0  0  0  0  0  0  0  0  0
   46.0056    5.3182   20.5728 C   0  0  0  0  0  0  0  0  0  0  0  0
   45.8719    6.8651   20.4747 C   0  0  0  0  0  0  0  0  0  0  0  0
   44.5319    7.3346   19.9428 C   0  0  0  0  0  0  0  0  0  0  0  0
   44.6026    8.7747   19.7834 N   0  0  0  0  0  0  0  0  0  0  0  0
   43.2627    9.2010   19.4193 C   0  0  0  0  0  0  0  0  0  0  0  0
   43.2929   10.4489   18.5445 C   0  0  0  0  0  0  0  0  0  0  0  0
   41.8490   10.9552   18.4072 C   0  0  0  0  0  0  0  0  0  0  0  0
   41.7575   12.1471   17.5506 N   0  0  0  0  0  0  0  0  0  0  0  0
  1  2  1  0  0  0  0
  2  3  1  0  0  0  0
  3  4  1  0  0  0  0
  4  5  1  0  0  0  0
  5  6  1  0  0  0  0
  6  7  1  0  0  0  0
  7  8  1  0  0  0  0
  8  9  1  0  0  0  0
  9 10  1  0  0  0  0
 10 11  1  0  0  0  0
 11 12  1  0  0  0  0
 12 13  1  0  0  0  0
 13 14  1  0  0  0  0
M  END
>  <CHROM.1>
60.18133863,174.17487880,-172.39642995,163.30890434,177.93484307,66.32396748
-174.44205827,-173.75300902,-150.17720076,-170.74750311,-178.66461645,44.71601724
5.93030563,18.67926217,1.02725598,0.93261205,-2.55652251

>  <Name>
ligand

>  <RI>
0

>  <Rbt.Current_Directory>
/home/itssahil/PROJECTS/Mol_Feturizer/New_Systems/rnas/1TN1

>  <Rbt.Executable>
rbdock ($Id: //depot/dev/client3/rdock/2013.1/src/exe/rbdock.cxx#4 $)

>  <Rbt.Library>
libRbt.so (2013.1, Build901 2013/11/27)

>  <Rbt.Parameter_File>
/export/apps/rDock/src/rDock_2013.1_src/data/scripts/dock_solv.prm

>  <Rbt.Receptor>
prm/pocket_docking_3.prm

>  <SCORE>
-11.7366

>  <SCORE.INTER>
-8.60274

>  <SCORE.INTER.CONST>
1

>  <SCORE.INTER.POLAR>
0

>  <SCORE.INTER.ROT>
11

>  <SCORE.INTER.SOLV>
17.0629

>  <SCORE.INTER.VDW>
-22.3561

>  <SCORE.INTER.norm>
-0.614481

>  <SCORE.INTRA>
-3.13542

>  <SCORE.INTRA.DIHEDRAL>
-6.15648

>  <SCORE.INTRA.DIHEDRAL.0>
7.79482

>  <SCORE.INTRA.POLAR>
0

>  <SCORE.INTRA.POLAR.0>
0

>  <SCORE.INTRA.REPUL>
0

>  <SCORE.INTRA.REPUL.0>
0

>  <SCORE.INTRA.SOLV>
0.800622

>  <SCORE.INTRA.SOLV.lig_0>
-49.456

>  <SCORE.INTRA.VDW>
-0.457491

>  <SCORE.INTRA.VDW.0>
-0.478406

>  <SCORE.INTRA.norm>
-0.223959

>  <SCORE.RESTR>
0.00151066

>  <SCORE.RESTR.CAVITY>
0.00151066

>  <SCORE.RESTR.norm>
0.000107905

>  <SCORE.SYSTEM>
0

>  <SCORE.SYSTEM.CONST>
0

>  <SCORE.SYSTEM.DIHEDRAL>
0

>  <SCORE.SYSTEM.SOLV>
0

>  <SCORE.SYSTEM.norm>
0

>  <SCORE.heavy>
14

>  <SCORE.norm>
-0.838332

>  <RMSD>
2.010

$$$$
ligand
 OpenBabel11021811413D
libRbt.so/2013.1/901 2013/11/27
 14 13  0  0  0  0  0  0  0  0999 V2000
   45.9326    0.0935   15.6076 N   0  0  0  0  0  0  0  0  0  0  0  0
   45.2772   -0.2522   16.8875 C   0  0  0  0  0  0  0  0  0  0  0  0
   44.7376    1.0088   17.5965 C   0  0  0  0  0  0  0  0  0  0  0  0
   45.8230    1.9809   18.0872 C   0  0  0  0  0  0  0  0  0  0  0  0
   45.2162    3.1889   18.7108 N   0  0  0  0  0  0  0  0  0  0  0  0
   46.2360    3.9264   19.5001 C   0  0  0  0  0  0  0  0  0  0  0  0
   45.6747    4.8764   20.6112 C   0  0  0  0  0  0  0  0  0  0  0  0
   45.1349    6.2329   20.0738 C   0  0  0  0  0  0  0  0  0  0  0  0
   46.2194    7.1922   19.6238 C   0  0  0  0  0  0  0  0  0  0  0  0
   45.5791    8.4453   19.2713 N   0  0  0  0  0  0  0  0  0  0  0  0
   46.6453    9.4285   19.1918 C   0  0  0  0  0  0  0  0  0  0  0  0
   46.1613   10.7256   18.5544 C   0  0  0  0  0  0  0  0  0  0  0  0
   45.8682   10.4352   17.0746 C   0  0  0  0  0  0  0  0  0  0  0  0
   45.5445   11.6566   16.3222 N   0  0  0  0  0  0  0  0  0  0  0  0
  1  2  1  0  0  0  0
  2  3  1  0  0  0  0
  3  4  1  0  0  0  0
  4  5  1  0  0  0  0
  5  6  1  0  0  0  0
  6  7  1  0  0  0  0
  7  8  1  0  0  0  0
  8  9  1  0  0  0  0
  9 10  1  0  0  0  0
 10 11  1  0  0  0  0
 11 12  1  0  0  0  0
 12 13  1  0  0  0  0
 13 14  1  0  0  0  0
M  END
>  <CHROM.1>
-66.73810596,177.86836873,164.51107234,-158.29273939,-78.41788066,-72.64671858
-174.74674132,165.30319789,168.36156354,-68.44043280,-173.25408777,45.71792422
5.63842995,18.36555795,2.64082410,1.51064011,2.15138102

>  <Name>
ligand

>  <RI>
0

>  <Rbt.Current_Directory>
/home/itssahil/PROJECTS/Mol_Feturizer/New_Systems/rnas/1TN1

>  <Rbt.Executable>
rbdock ($Id: //depot/dev/client3/rdock/2013.1/src/exe/rbdock.cxx#4 $)

>  <Rbt.Library>
libRbt.so (2013.1, Build901 2013/11/27)

>  <Rbt.Parameter_File>
/export/apps/rDock/src/rDock_2013.1_src/data/scripts/dock_solv.prm

>  <Rbt.Receptor>
prm/pocket_docking_3.prm

>  <SCORE>
-8.23881

>  <SCORE.INTER>
-6.17232

>  <SCORE.INTER.CONST>
1

>  <SCORE.INTER.POLAR>
0

>  <SCORE.INTER.ROT>
11

>  <SCORE.INTER.SOLV>
10.2408

>  <SCORE.INTER.VDW>
-18.4618

>  <SCORE.INTER.norm>
-0.44088

>  <SCORE.INTRA>
-2.07769

>  <SCORE.INTRA.DIHEDRAL>
-4.42329

>  <SCORE.INTRA.DIHEDRAL.0>
7.79482

>  <SCORE.INTRA.POLAR>
0

>  <SCORE.INTRA.POLAR.0>
0

>  <SCORE.INTRA.REPUL>
0

>  <SCORE.INTRA.REPUL.0>
0

>  <SCORE.INTRA.SOLV>
1.41692

>  <SCORE.INTRA.SOLV.lig_0>
-49.456

>  <SCORE.INTRA.VDW>
-0.574508

>  <SCORE.INTRA.VDW.0>
-0.478406

>  <SCORE.INTRA.norm>
-0.148406

>  <SCORE.RESTR>
0.0112031

>  <SCORE.RESTR.CAVITY>
0.0112031

>  <SCORE.RESTR.norm>
0.000800222

>  <SCORE.SYSTEM>
0

>  <SCORE.SYSTEM.CONST>
0

>  <SCORE.SYSTEM.DIHEDRAL>
0

>  <SCORE.SYSTEM.SOLV>
0

>  <SCORE.SYSTEM.norm>
0

>  <SCORE.heavy>
14

>  <SCORE.norm>
-0.588486

>  <RMSD>
2.021

$$$$
ligand
 OpenBabel11021811413D
libRbt.so/2013.1/901 2013/11/27
 14 13  0  0  0  0  0  0  0  0999 V2000
   43.1585   11.8309   17.0571 N   0  0  0  0  0  0  0  0  0  0  0  0
   44.3317   11.4301   16.2508 C   0  0  0  0  0  0  0  0  0  0  0  0
   45.1457   10.3264   16.9602 C   0  0  0  0  0  0  0  0  0  0  0  0
   45.6880   10.7205   18.3438 C   0  0  0  0  0  0  0  0  0  0  0  0
   46.5207    9.6302   18.9219 N   0  0  0  0  0  0  0  0  0  0  0  0
   45.6576    8.6307   19.6021 C   0  0  0  0  0  0  0  0  0  0  0  0
   46.3168    7.2349   19.8654 C   0  0  0  0  0  0  0  0  0  0  0  0
   45.3533    6.1851   20.4900 C   0  0  0  0  0  0  0  0  0  0  0  0
   45.9473    4.7947   20.6025 C   0  0  0  0  0  0  0  0  0  0  0  0
   46.2678    4.3440   19.2614 N   0  0  0  0  0  0  0  0  0  0  0  0
   45.5362    3.1035   19.0729 C   0  0  0  0  0  0  0  0  0  0  0  0
   46.4143    2.0283   18.4436 C   0  0  0  0  0  0  0  0  0  0  0  0
   46.7704    2.4918   17.0229 C   0  0  0  0  0  0  0  0  0  0  0  0
   45.6066    2.4721   16.1241 N   0  0  0  0  0  0  0  0  0  0  0  0
  1  2  1  0  0  0  0
  2  3  1  0  0  0  0
  3  4  1  0  0  0  0
  4  5  1  0  0  0  0
  5  6  1  0  0  0  0
  6  7  1  0  0  0  0
  7  8  1  0  0  0  0
  8  9  1  0  0  0  0
  9 10  1  0  0  0  0
 10 11  1  0  0  0  0
 11 12  1  0  0  0  0
 12 13  1  0  0  0  0
 13 14  1  0  0  0  0
M  END
>  <CHROM.1>
-59.47195218,-176.85493336,-84.13808654,161.87272856,-176.02573292,173.61578851
-61.06817868,-122.55973518,-134.55086710,-65.69705394,-69.54429602,45.62259119
6.80153588,18.43013650,2.24671463,-1.30017835,0.56450805

>  <Name>
ligand

>  <RI>
0

>  <Rbt.Current_Directory>
/home/itssahil/PROJECTS/Mol_Feturizer/New_Systems/rnas/1TN1

>  <Rbt.Executable>
rbdock ($Id: //depot/dev/client3/rdock/2013.1/src/exe/rbdock.cxx#4 $)

>  <Rbt.Library>
libRbt.so (2013.1, Build901 2013/11/27)

>  <Rbt.Parameter_File>
/export/apps/rDock/src/rDock_2013.1_src/data/scripts/dock_solv.prm

>  <Rbt.Receptor>
prm/pocket_docking_3.prm

>  <SCORE>
-6.39867

>  <SCORE.INTER>
-5.71642

>  <SCORE.INTER.CONST>
1

>  <SCORE.INTER.POLAR>
0

>  <SCORE.INTER.ROT>
11

>  <SCORE.INTER.SOLV>
12.3031

>  <SCORE.INTER.VDW>
-18.8453

>  <SCORE.INTER.norm>
-0.408316

>  <SCORE.INTRA>
-0.684757

>  <SCORE.INTRA.DIHEDRAL>
-4.16574

>  <SCORE.INTRA.DIHEDRAL.0>
7.79482

>  <SCORE.INTRA.POLAR>
0

>  <SCORE.INTRA.POLAR.0>
0

>  <SCORE.INTRA.REPUL>
0

>  <SCORE.INTRA.REPUL.0>
0

>  <SCORE.INTRA.SOLV>
2.7607

>  <SCORE.INTRA.SOLV.lig_0>
-49.456

>  <SCORE.INTRA.VDW>
0.0177638

>  <SCORE.INTRA.VDW.0>
-0.478406

>  <SCORE.INTRA.norm>
-0.0489112

>  <SCORE.RESTR>
0.00251197

>  <SCORE.RESTR.CAVITY>
0.00251197

>  <SCORE.RESTR.norm>
0.000179426

>  <SCORE.SYSTEM>
0

>  <SCORE.SYSTEM.CONST>
0

>  <SCORE.SYSTEM.DIHEDRAL>
0

>  <SCORE.SYSTEM.SOLV>
0

>  <SCORE.SYSTEM.norm>
0

>  <SCORE.heavy>
14

>  <SCORE.norm>
-0.457048

>  <RMSD>
2.027

$$$$
ligand
 OpenBabel11021811413D
libRbt.so/2013.1/901 2013/11/27
 14 13  0  0  0  0  0  0  0  0999 V2000
   45.3194   -0.2263   15.3456 N   0  0  0  0  0  0  0  0  0  0  0  0
   45.2502    0.9546   16.2330 C   0  0  0  0  0  0  0  0  0  0  0  0
   45.6775    0.5965   17.6729 C   0  0  0  0  0  0  0  0  0  0  0  0
   45.5719    1.7547   18.6785 C   0  0  0  0  0  0  0  0  0  0  0  0
   46.5036    2.8595   18.3208 N   0  0  0  0  0  0  0  0  0  0  0  0
   45.9400    4.1654   18.7497 C   0  0  0  0  0  0  0  0  0  0  0  0
   46.1495    4.5302   20.2581 C   0  0  0  0  0  0  0  0  0  0  0  0
   45.5792    5.9206   20.6604 C   0  0  0  0  0  0  0  0  0  0  0  0
   46.2952    7.0902   20.0135 C   0  0  0  0  0  0  0  0  0  0  0  0
   45.7244    8.3088   20.5552 N   0  0  0  0  0  0  0  0  0  0  0  0
   44.9410    8.8933   19.4808 C   0  0  0  0  0  0  0  0  0  0  0  0
   45.7174    9.9861   18.7553 C   0  0  0  0  0  0  0  0  0  0  0  0
   44.8048   10.5539   17.6577 C   0  0  0  0  0  0  0  0  0  0  0  0
   45.4766   11.5882   16.8567 N   0  0  0  0  0  0  0  0  0  0  0  0
  1  2  1  0  0  0  0
  2  3  1  0  0  0  0
  3  4  1  0  0  0  0
  4  5  1  0  0  0  0
  5  6  1  0  0  0  0
  6  7  1  0  0  0  0
  7  8  1  0  0  0  0
  8  9  1  0  0  0  0
  9 10  1  0  0  0  0
 10 11  1  0  0  0  0
 11 12  1  0  0  0  0
 12 13  1  0  0  0  0
 13 14  1  0  0  0  0
M  END
>  <CHROM.1>
-177.28805816,-63.97682998,149.29346510,81.56515117,178.46182987,-66.41668684
-175.82000971,-108.33222392,-97.95995418,-179.18196104,-177.83277261,45.63930139
5.49821513,18.51732278,1.43969222,1.39526854,-2.84745217

>  <Name>
ligand

>  <RI>
0

>  <Rbt.Current_Directory>
/home/itssahil/PROJECTS/Mol_Feturizer/New_Systems/rnas/1TN1

>  <Rbt.Executable>
rbdock ($Id: //depot/dev/client3/rdock/2013.1/src/exe/rbdock.cxx#4 $)

>  <Rbt.Library>
libRbt.so (2013.1, Build901 2013/11/27)

>  <Rbt.Parameter_File>
/export/apps/rDock/src/rDock_2013.1_src/data/scripts/dock_solv.prm

>  <Rbt.Receptor>
prm/pocket_docking_5.prm

>  <SCORE>
-8.82229

>  <SCORE.INTER>
-6.86903

>  <SCORE.INTER.CONST>
1

>  <SCORE.INTER.POLAR>
0

>  <SCORE.INTER.ROT>
11

>  <SCORE.INTER.SOLV>
11.4131

>  <SCORE.INTER.VDW>
-19.317

>  <SCORE.INTER.norm>
-0.490645

>  <SCORE.INTRA>
-1.95326

>  <SCORE.INTRA.DIHEDRAL>
-4.54117

>  <SCORE.INTRA.DIHEDRAL.0>
7.79482

>  <SCORE.INTRA.POLAR>
0

>  <SCORE.INTRA.POLAR.0>
0

>  <SCORE.INTRA.REPUL>
0

>  <SCORE.INTRA.REPUL.0>
0

>  <SCORE.INTRA.SOLV>
0.402228

>  <SCORE.INTRA.SOLV.lig_0>
-49.456

>  <SCORE.INTRA.VDW>
0.116207

>  <SCORE.INTRA.VDW.0>
-0.478406

>  <SCORE.INTRA.norm>
-0.139519

>  <SCORE.RESTR>
0

>  <SCORE.RESTR.CAVITY>
0

>  <SCORE.RESTR.norm>
0

>  <SCORE.SYSTEM>
0

>  <SCORE.SYSTEM.CONST>
0

>  <SCORE.SYSTEM.DIHEDRAL>
0

>  <SCORE.SYSTEM.SOLV>
0

>  <SCORE.SYSTEM.norm>
0

>  <SCORE.heavy>
14

>  <SCORE.norm>
-0.630163

>  <RMSD>
2.033

$$$$
ligand
 OpenBabel11021811413D
libRbt.so/2013.1/901 2013/11/27
 14 13  0  0  0  0  0  0  0  0999 V2000
   45.0332    0.2194   17.2975 N   0  0  0  0  0  0  0  0  0  0  0  0
   45.8804    1.3270   17.7902 C   0  0  0  0  0  0  0  0  0  0  0  0
   45.1265    2.1875   18.8271 C   0  0  0  0  0  0  0  0  0  0  0  0
   45.8716    3.4585   19.2669 C   0  0  0  0  0  0  0  0  0  0  0  0
   45.1249    4.1716   20.3394 N   0  0  0  0  0  0  0  0  0  0  0  0
   45.8901    5.3610   20.7940 C   0  0  0  0  0  0  0  0  0  0  0  0
   45.7635    6.6332   19.8898 C   0  0  0  0  0  0  0  0  0  0  0  0
   46.5578    7.8649   20.4116 C   0  0  0  0  0  0  0  0  0  0  0  0
   46.4212    9.0991   19.5416 C   0  0  0  0  0  0  0  0  0  0  0  0
   45.0234    9.4872   19.5461 N   0  0  0  0  0  0  0  0  0  0  0  0
   44.6666    9.7058   18.1552 C   0  0  0  0  0  0  0  0  0  0  0  0
   44.7223   11.1848   17.7909 C   0  0  0  0  0  0  0  0  0  0  0  0
   44.3319   11.3139   16.3108 C   0  0  0  0  0  0  0  0  0  0  0  0
   44.3894   12.7061   15.8405 N   0  0  0  0  0  0  0  0  0  0  0  0
  1  2  1  0  0  0  0
  2  3  1  0  0  0  0
  3  4  1  0  0  0  0
  4  5  1  0  0  0  0
  5  6  1  0  0  0  0
  6  7  1  0  0  0  0
  7  8  1  0  0  0  0
  8  9  1  0  0  0  0
  9 10  1  0  0  0  0
 10 11  1  0  0  0  0
 11 12  1  0  0  0  0
 12 13  1  0  0  0  0
 13 14  1  0  0  0  0
M  END
>  <CHROM.1>
-173.03636104,-175.66799922,177.40184544,80.77385041,178.95766518,-179.38499606
62.50419617,-131.81624071,-97.92533067,179.99225903,-178.39324109,45.34323396
6.76575021,18.70029552,1.34598685,1.24011368,-3.05682067

>  <Name>
ligand

>  <RI>
0

>  <Rbt.Current_Directory>
/home/itssahil/PROJECTS/Mol_Feturizer/New_Systems/rnas/1TN1

>  <Rbt.Executable>
rbdock ($Id: //depot/dev/client3/rdock/2013.1/src/exe/rbdock.cxx#4 $)

>  <Rbt.Library>
libRbt.so (2013.1, Build901 2013/11/27)

>  <Rbt.Parameter_File>
/export/apps/rDock/src/rDock_2013.1_src/data/scripts/dock_solv.prm

>  <Rbt.Receptor>
prm/pocket_docking_6.prm

>  <SCORE>
-8.27958

>  <SCORE.INTER>
-5.66925

>  <SCORE.INTER.CONST>
1

>  <SCORE.INTER.POLAR>
0

>  <SCORE.INTER.ROT>
11

>  <SCORE.INTER.SOLV>
14.2221

>  <SCORE.INTER.VDW>
-19.4535

>  <SCORE.INTER.norm>
-0.404947

>  <SCORE.INTRA>
-2.61032

>  <SCORE.INTRA.DIHEDRAL>
-5.24602

>  <SCORE.INTRA.DIHEDRAL.0>
7.79482

>  <SCORE.INTRA.POLAR>
0

>  <SCORE.INTRA.POLAR.0>
0

>  <SCORE.INTRA.REPUL>
0

>  <SCORE.INTRA.REPUL.0>
0

>  <SCORE.INTRA.SOLV>
0.362461

>  <SCORE.INTRA.SOLV.lig_0>
-49.456

>  <SCORE.INTRA.VDW>
-0.168545

>  <SCORE.INTRA.VDW.0>
-0.478406

>  <SCORE.INTRA.norm>
-0.186452

>  <SCORE.RESTR>
0

>  <SCORE.RESTR.CAVITY>
0

>  <SCORE.RESTR.norm>
0

>  <SCORE.SYSTEM>
0

>  <SCORE.SYSTEM.CONST>
0

>  <SCORE.SYSTEM.DIHEDRAL>
0

>  <SCORE.SYSTEM.SOLV>
0

>  <SCORE.SYSTEM.norm>
0

>  <SCORE.heavy>
14

>  <SCORE.norm>
-0.591398

>  <RMSD>
2.036

$$$$
ligand
 OpenBabel11021811413D
libRbt.so/2013.1/901 2013/11/27
 14 13  0  0  0  0  0  0  0  0999 V2000
   45.4822   -0.2514   15.5804 N   0  0  0  0  0  0  0  0  0  0  0  0
   45.2312    0.1260   16.9881 C   0  0  0  0  0  0  0  0  0  0  0  0
   45.4836    1.6322   17.2155 C   0  0  0  0  0  0  0  0  0  0  0  0
   45.2510    2.1093   18.6585 C   0  0  0  0  0  0  0  0  0  0  0  0
   45.4013    3.5867   18.7637 N   0  0  0  0  0  0  0  0  0  0  0  0
   44.7847    4.0771   20.0231 C   0  0  0  0  0  0  0  0  0  0  0  0
   44.7999    5.6300   20.2240 C   0  0  0  0  0  0  0  0  0  0  0  0
   46.2258    6.2503   20.2717 C   0  0  0  0  0  0  0  0  0  0  0  0
   46.2376    7.7497   20.4968 C   0  0  0  0  0  0  0  0  0  0  0  0
   45.7316    8.3789   19.2916 N   0  0  0  0  0  0  0  0  0  0  0  0
   46.0366    9.7929   19.4227 C   0  0  0  0  0  0  0  0  0  0  0  0
   45.7729   10.5432   18.1224 C   0  0  0  0  0  0  0  0  0  0  0  0
   46.1879   12.0066   18.3379 C   0  0  0  0  0  0  0  0  0  0  0  0
   45.9445   12.8341   17.1468 N   0  0  0  0  0  0  0  0  0  0  0  0
  1  2  1  0  0  0  0
  2  3  1  0  0  0  0
  3  4  1  0  0  0  0
  4  5  1  0  0  0  0
  5  6  1  0  0  0  0
  6  7  1  0  0  0  0
  7  8  1  0  0  0  0
  8  9  1  0  0  0  0
  9 10  1  0  0  0  0
 10 11  1  0  0  0  0
 11 12  1  0  0  0  0
 12 13  1  0  0  0  0
 13 14  1  0  0  0  0
M  END
>  <CHROM.1>
-179.74753447,-175.10108277,162.83189432,-176.68550041,-60.98791389,-178.72843424
-70.19381273,-167.47748145,170.33434766,-177.25478342,-178.65129126,45.61219541
6.03321804,18.61061505,-2.43675494,1.47992076,0.97846590

>  <Name>
ligand

>  <RI>
0

>  <Rbt.Current_Directory>
/home/itssahil/PROJECTS/Mol_Feturizer/New_Systems/rnas/1TN1

>  <Rbt.Executable>
rbdock ($Id: //depot/dev/client3/rdock/2013.1/src/exe/rbdock.cxx#4 $)

>  <Rbt.Library>
libRbt.so (2013.1, Build901 2013/11/27)

>  <Rbt.Parameter_File>
/export/apps/rDock/src/rDock_2013.1_src/data/scripts/dock_solv.prm

>  <Rbt.Receptor>
prm/pocket_docking_4.prm

>  <SCORE>
-8.5251

>  <SCORE.INTER>
-4.62984

>  <SCORE.INTER.CONST>
1

>  <SCORE.INTER.POLAR>
0

>  <SCORE.INTER.ROT>
11

>  <SCORE.INTER.SOLV>
9.82202

>  <SCORE.INTER.VDW>
-17.2939

>  <SCORE.INTER.norm>
-0.330703

>  <SCORE.INTRA>
-3.89525

>  <SCORE.INTRA.DIHEDRAL>
-6.83939

>  <SCORE.INTRA.DIHEDRAL.0>
7.79482

>  <SCORE.INTRA.POLAR>
0

>  <SCORE.INTRA.POLAR.0>
0

>  <SCORE.INTRA.REPUL>
0

>  <SCORE.INTRA.REPUL.0>
0

>  <SCORE.INTRA.SOLV>
0.639785

>  <SCORE.INTRA.SOLV.lig_0>
-49.456

>  <SCORE.INTRA.VDW>
-0.79545

>  <SCORE.INTRA.VDW.0>
-0.478406

>  <SCORE.INTRA.norm>
-0.278232

>  <SCORE.RESTR>
0

>  <SCORE.RESTR.CAVITY>
0

>  <SCORE.RESTR.norm>
0

>  <SCORE.SYSTEM>
0

>  <SCORE.SYSTEM.CONST>
0

>  <SCORE.SYSTEM.DIHEDRAL>
0

>  <SCORE.SYSTEM.SOLV>
0

>  <SCORE.SYSTEM.norm>
0

>  <SCORE.heavy>
14

>  <SCORE.norm>
-0.608936

>  <RMSD>
2.046

$$$$
ligand
 OpenBabel11021811413D
libRbt.so/2013.1/901 2013/11/27
 14 13  0  0  0  0  0  0  0  0999 V2000
   45.5738    0.4043   16.1738 N   0  0  0  0  0  0  0  0  0  0  0  0
   45.5843    0.9210   17.5594 C   0  0  0  0  0  0  0  0  0  0  0  0
   44.1709    1.3561   18.0034 C   0  0  0  0  0  0  0  0  0  0  0  0
   44.1029    1.9685   19.4121 C   0  0  0  0  0  0  0  0  0  0  0  0
   44.9137    3.2145   19.4929 N   0  0  0  0  0  0  0  0  0  0  0  0
   44.4326    4.0686   20.6090 C   0  0  0  0  0  0  0  0  0  0  0  0
   45.3184    5.3180   20.9354 C   0  0  0  0  0  0  0  0  0  0  0  0
   45.4090    6.3525   19.7769 C   0  0  0  0  0  0  0  0  0  0  0  0
   46.2160    7.5898   20.1183 C   0  0  0  0  0  0  0  0  0  0  0  0
   46.1961    8.4612   18.9587 N   0  0  0  0  0  0  0  0  0  0  0  0
   46.2505    9.8165   19.4782 C   0  0  0  0  0  0  0  0  0  0  0  0
   46.2069   10.8463   18.3553 C   0  0  0  0  0  0  0  0  0  0  0  0
   44.8323   10.7374   17.6780 C   0  0  0  0  0  0  0  0  0  0  0  0
   44.6915   11.6742   16.5532 N   0  0  0  0  0  0  0  0  0  0  0  0
  1  2  1  0  0  0  0
  2  3  1  0  0  0  0
  3  4  1  0  0  0  0
  4  5  1  0  0  0  0
  5  6  1  0  0  0  0
  6  7  1  0  0  0  0
  7  8  1  0  0  0  0
  8  9  1  0  0  0  0
  9 10  1  0  0  0  0
 10 11  1  0  0  0  0
 11 12  1  0  0  0  0
 12 13  1  0  0  0  0
 13 14  1  0  0  0  0
M  END
>  <CHROM.1>
-177.27484384,62.15229885,157.23816843,171.89124691,63.10276670,177.39340023
-179.25034720,148.20062265,-178.82037097,65.48827262,-178.79264892,45.27846782
5.90919626,18.79358379,2.67420475,1.48280001,2.04309012

>  <Name>
ligand

>  <RI>
0

>  <Rbt.Current_Directory>
/home/itssahil/PROJECTS/Mol_Feturizer/New_Systems/rnas/1TN1

>  <Rbt.Executable>
rbdock ($Id: //depot/dev/client3/rdock/2013.1/src/exe/rbdock.cxx#4 $)

>  <Rbt.Library>
libRbt.so (2013.1, Build901 2013/11/27)

>  <Rbt.Parameter_File>
/export/apps/rDock/src/rDock_2013.1_src/data/scripts/dock_solv.prm

>  <Rbt.Receptor>
prm/pocket_docking_5.prm

>  <SCORE>
-9.03979

>  <SCORE.INTER>
-5.62436

>  <SCORE.INTER.CONST>
1

>  <SCORE.INTER.POLAR>
0

>  <SCORE.INTER.ROT>
11

>  <SCORE.INTER.SOLV>
11.4938

>  <SCORE.INTER.VDW>
-18.5142

>  <SCORE.INTER.norm>
-0.40174

>  <SCORE.INTRA>
-3.41543

>  <SCORE.INTRA.DIHEDRAL>
-6.47478

>  <SCORE.INTRA.DIHEDRAL.0>
7.79482

>  <SCORE.INTRA.POLAR>
0

>  <SCORE.INTRA.POLAR.0>
0

>  <SCORE.INTRA.REPUL>
0

>  <SCORE.INTRA.REPUL.0>
0

>  <SCORE.INTRA.SOLV>
1.02848

>  <SCORE.INTRA.SOLV.lig_0>
-49.456

>  <SCORE.INTRA.VDW>
-0.692275

>  <SCORE.INTRA.VDW.0>
-0.478406

>  <SCORE.INTRA.norm>
-0.243959

>  <SCORE.RESTR>
0

>  <SCORE.RESTR.CAVITY>
0

>  <SCORE.RESTR.norm>
0

>  <SCORE.SYSTEM>
0

>  <SCORE.SYSTEM.CONST>
0

>  <SCORE.SYSTEM.DIHEDRAL>
0

>  <SCORE.SYSTEM.SOLV>
0

>  <SCORE.SYSTEM.norm>
0

>  <SCORE.heavy>
14

>  <SCORE.norm>
-0.645699

>  <RMSD>
2.067

$$$$
ligand
 OpenBabel11021811413D
libRbt.so/2013.1/901 2013/11/27
 14 13  0  0  0  0  0  0  0  0999 V2000
   45.9940    0.1505   15.2493 N   0  0  0  0  0  0  0  0  0  0  0  0
   45.0524    0.0716   16.3870 C   0  0  0  0  0  0  0  0  0  0  0  0
   45.6607    0.7000   17.6594 C   0  0  0  0  0  0  0  0  0  0  0  0
   46.0067    2.1928   17.5332 C   0  0  0  0  0  0  0  0  0  0  0  0
   46.5056    2.7369   18.8260 N   0  0  0  0  0  0  0  0  0  0  0  0
   46.0068    4.1217   19.0269 C   0  0  0  0  0  0  0  0  0  0  0  0
   46.1189    4.6762   20.4870 C   0  0  0  0  0  0  0  0  0  0  0  0
   45.5660    6.1198   20.6624 C   0  0  0  0  0  0  0  0  0  0  0  0
   46.3493    7.1751   19.9062 C   0  0  0  0  0  0  0  0  0  0  0  0
   45.7337    8.4597   20.1802 N   0  0  0  0  0  0  0  0  0  0  0  0
   46.4306    9.4214   19.3441 C   0  0  0  0  0  0  0  0  0  0  0  0
   45.4685   10.1550   18.4170 C   0  0  0  0  0  0  0  0  0  0  0  0
   46.3078   11.0337   17.4772 C   0  0  0  0  0  0  0  0  0  0  0  0
   45.4717   11.8184   16.5563 N   0  0  0  0  0  0  0  0  0  0  0  0
  1  2  1  0  0  0  0
  2  3  1  0  0  0  0
  3  4  1  0  0  0  0
  4  5  1  0  0  0  0
  5  6  1  0  0  0  0
  6  7  1  0  0  0  0
  7  8  1  0  0  0  0
  8  9  1  0  0  0  0
  9 10  1  0  0  0  0
 10 11  1  0  0  0  0
 11 12  1  0  0  0  0
 12 13  1  0  0  0  0
 13 14  1  0  0  0  0
M  END
>  <CHROM.1>
61.18415373,176.42598316,-142.44571613,164.08888936,-179.07069468,-65.39985352
-179.14758594,-174.81170125,122.35363197,-174.12072456,-178.50544741,45.90516135
5.63086246,18.40827989,1.73292797,1.48914559,3.11992421

>  <Name>
ligand

>  <RI>
0

>  <Rbt.Current_Directory>
/home/itssahil/PROJECTS/Mol_Feturizer/New_Systems/rnas/1TN1

>  <Rbt.Executable>
rbdock ($Id: //depot/dev/client3/rdock/2013.1/src/exe/rbdock.cxx#4 $)

>  <Rbt.Library>
libRbt.so (2013.1, Build901 2013/11/27)

>  <Rbt.Parameter_File>
/export/apps/rDock/src/rDock_2013.1_src/data/scripts/dock_solv.prm

>  <Rbt.Receptor>
prm/pocket_docking_3.prm

>  <SCORE>
-9.23669

>  <SCORE.INTER>
-6.59855

>  <SCORE.INTER.CONST>
1

>  <SCORE.INTER.POLAR>
0

>  <SCORE.INTER.ROT>
11

>  <SCORE.INTER.SOLV>
10.803

>  <SCORE.INTER.VDW>
-18.9334

>  <SCORE.INTER.norm>
-0.471325

>  <SCORE.INTRA>
-2.63814

>  <SCORE.INTRA.DIHEDRAL>
-5.23054

>  <SCORE.INTRA.DIHEDRAL.0>
7.79482

>  <SCORE.INTRA.POLAR>
0

>  <SCORE.INTRA.POLAR.0>
0

>  <SCORE.INTRA.REPUL>
0

>  <SCORE.INTRA.REPUL.0>
0

>  <SCORE.INTRA.SOLV>
0.782432

>  <SCORE.INTRA.SOLV.lig_0>
-49.456

>  <SCORE.INTRA.VDW>
-0.414091

>  <SCORE.INTRA.VDW.0>
-0.478406

>  <SCORE.INTRA.norm>
-0.188439

>  <SCORE.RESTR>
0

>  <SCORE.RESTR.CAVITY>
0

>  <SCORE.RESTR.norm>
0

>  <SCORE.SYSTEM>
0

>  <SCORE.SYSTEM.CONST>
0

>  <SCORE.SYSTEM.DIHEDRAL>
0

>  <SCORE.SYSTEM.SOLV>
0

>  <SCORE.SYSTEM.norm>
0

>  <SCORE.heavy>
14

>  <SCORE.norm>
-0.659764

>  <RMSD>
2.073

$$$$
ligand
 OpenBabel11021811413D
libRbt.so/2013.1/901 2013/11/27
 14 13  0  0  0  0  0  0  0  0999 V2000
   45.4694    0.4377   15.5012 N   0  0  0  0  0  0  0  0  0  0  0  0
   45.2305   -0.1070   16.8552 C   0  0  0  0  0  0  0  0  0  0  0  0
   45.9976    0.7002   17.9247 C   0  0  0  0  0  0  0  0  0  0  0  0
   45.6142    2.1872   18.0012 C   0  0  0  0  0  0  0  0  0  0  0  0
   46.3328    2.8678   19.1134 N   0  0  0  0  0  0  0  0  0  0  0  0
   45.9042    4.2869   19.2091 C   0  0  0  0  0  0  0  0  0  0  0  0
   45.7902    4.8630   20.6607 C   0  0  0  0  0  0  0  0  0  0  0  0
   45.2508    6.3208   20.7249 C   0  0  0  0  0  0  0  0  0  0  0  0
   46.1528    7.3408   20.0579 C   0  0  0  0  0  0  0  0  0  0  0  0
   45.4675    8.6190   20.0870 N   0  0  0  0  0  0  0  0  0  0  0  0
   46.4825    9.6211   19.8128 C   0  0  0  0  0  0  0  0  0  0  0  0
   46.5139    9.9933   18.3350 C   0  0  0  0  0  0  0  0  0  0  0  0
   45.2272   10.7732   18.0248 C   0  0  0  0  0  0  0  0  0  0  0  0
   45.1568   11.1912   16.6166 N   0  0  0  0  0  0  0  0  0  0  0  0
  1  2  1  0  0  0  0
  2  3  1  0  0  0  0
  3  4  1  0  0  0  0
  4  5  1  0  0  0  0
  5  6  1  0  0  0  0
  6  7  1  0  0  0  0
  7  8  1  0  0  0  0
  8  9  1  0  0  0  0
  9 10  1  0  0  0  0
 10 11  1  0  0  0  0
 11 12  1  0  0  0  0
 12 13  1  0  0  0  0
 13 14  1  0  0  0  0
M  END
>  <CHROM.1>
60.24510582,176.26384933,-177.48751464,143.04459742,-176.23273676,-63.72117237
174.77670651,163.74721999,95.49938559,69.70896130,179.67612493,45.75651614
5.64959244,18.63779662,1.65387693,1.45213342,-3.08283648

>  <Name>
ligand

>  <RI>
0

>  <Rbt.Current_Directory>
/home/itssahil/PROJECTS/Mol_Feturizer/New_Systems/rnas/1TN1

>  <Rbt.Executable>
rbdock ($Id: //depot/dev/client3/rdock/2013.1/src/exe/rbdock.cxx#4 $)

>  <Rbt.Library>
libRbt.so (2013.1, Build901 2013/11/27)

>  <Rbt.Parameter_File>
/export/apps/rDock/src/rDock_2013.1_src/data/scripts/dock_solv.prm

>  <Rbt.Receptor>
prm/pocket_docking_4.prm

>  <SCORE>
-8.75668

>  <SCORE.INTER>
-6.65966

>  <SCORE.INTER.CONST>
1

>  <SCORE.INTER.POLAR>
0

>  <SCORE.INTER.ROT>
11

>  <SCORE.INTER.SOLV>
12.0533

>  <SCORE.INTER.VDW>
-19.3909

>  <SCORE.INTER.norm>
-0.47569

>  <SCORE.INTRA>
-2.09702

>  <SCORE.INTRA.DIHEDRAL>
-5.38479

>  <SCORE.INTRA.DIHEDRAL.0>
7.79482

>  <SCORE.INTRA.POLAR>
0

>  <SCORE.INTRA.POLAR.0>
0

>  <SCORE.INTRA.REPUL>
0

>  <SCORE.INTRA.REPUL.0>
0

>  <SCORE.INTRA.SOLV>
1.18107

>  <SCORE.INTRA.SOLV.lig_0>
-49.456

>  <SCORE.INTRA.VDW>
0.00484084

>  <SCORE.INTRA.VDW.0>
-0.478406

>  <SCORE.INTRA.norm>
-0.149787

>  <SCORE.RESTR>
0

>  <SCORE.RESTR.CAVITY>
0

>  <SCORE.RESTR.norm>
0

>  <SCORE.SYSTEM>
0

>  <SCORE.SYSTEM.CONST>
0

>  <SCORE.SYSTEM.DIHEDRAL>
0

>  <SCORE.SYSTEM.SOLV>
0

>  <SCORE.SYSTEM.norm>
0

>  <SCORE.heavy>
14

>  <SCORE.norm>
-0.625477

>  <RMSD>
2.078

$$$$
ligand
 OpenBabel11021811413D
libRbt.so/2013.1/901 2013/11/27
 14 13  0  0  0  0  0  0  0  0999 V2000
   44.3573   12.6905   16.0276 N   0  0  0  0  0  0  0  0  0  0  0  0
   43.8036   11.4387   16.5874 C   0  0  0  0  0  0  0  0  0  0  0  0
   44.5270   11.0432   17.8928 C   0  0  0  0  0  0  0  0  0  0  0  0
   44.0602    9.7125   18.5053 C   0  0  0  0  0  0  0  0  0  0  0  0
   44.7598    9.4413   19.7911 N   0  0  0  0  0  0  0  0  0  0  0  0
   46.1321    8.9349   19.5320 C   0  0  0  0  0  0  0  0  0  0  0  0
   46.5098    7.6008   20.2598 C   0  0  0  0  0  0  0  0  0  0  0  0
   45.6089    6.3916   19.8771 C   0  0  0  0  0  0  0  0  0  0  0  0
   45.9499    5.1119   20.6154 C   0  0  0  0  0  0  0  0  0  0  0  0
   45.0084    4.0942   20.1887 N   0  0  0  0  0  0  0  0  0  0  0  0
   45.7125    3.2866   19.2080 C   0  0  0  0  0  0  0  0  0  0  0  0
   44.9889    1.9710   18.9458 C   0  0  0  0  0  0  0  0  0  0  0  0
   45.8616    1.1430   17.9904 C   0  0  0  0  0  0  0  0  0  0  0  0
   46.0114    1.7864   16.6765 N   0  0  0  0  0  0  0  0  0  0  0  0
  1  2  1  0  0  0  0
  2  3  1  0  0  0  0
  3  4  1  0  0  0  0
  4  5  1  0  0  0  0
  5  6  1  0  0  0  0
  6  7  1  0  0  0  0
  7  8  1  0  0  0  0
  8  9  1  0  0  0  0
  9 10  1  0  0  0  0
 10 11  1  0  0  0  0
 11 12  1  0  0  0  0
 12 13  1  0  0  0  0
 13 14  1  0  0  0  0
M  END
>  <CHROM.1>
-177.06263469,-177.25205053,-78.20670973,-127.96412955,60.65078935,-178.20896828
178.27678378,100.46479489,164.87462817,-175.47252590,-64.02073441,45.23518629
6.76038019,18.72148102,2.10998513,-1.30967483,0.40331092

>  <Name>
ligand

>  <RI>
0

>  <Rbt.Current_Directory>
/home/itssahil/PROJECTS/Mol_Feturizer/New_Systems/rnas/1TN1

>  <Rbt.Executable>
rbdock ($Id: //depot/dev/client3/rdock/2013.1/src/exe/rbdock.cxx#4 $)

>  <Rbt.Library>
libRbt.so (2013.1, Build901 2013/11/27)

>  <Rbt.Parameter_File>
/export/apps/rDock/src/rDock_2013.1_src/data/scripts/dock_solv.prm

>  <Rbt.Receptor>
prm/pocket_docking_6.prm

>  <SCORE>
-8.83358

>  <SCORE.INTER>
-6.94837

>  <SCORE.INTER.CONST>
1

>  <SCORE.INTER.POLAR>
0

>  <SCORE.INTER.ROT>
11

>  <SCORE.INTER.SOLV>
10.8767

>  <SCORE.INTER.VDW>
-19.1911

>  <SCORE.INTER.norm>
-0.496312

>  <SCORE.INTRA>
-1.8852

>  <SCORE.INTRA.DIHEDRAL>
-5.07705

>  <SCORE.INTRA.DIHEDRAL.0>
7.79482

>  <SCORE.INTRA.POLAR>
0

>  <SCORE.INTRA.POLAR.0>
0

>  <SCORE.INTRA.REPUL>
0

>  <SCORE.INTRA.REPUL.0>
0

>  <SCORE.INTRA.SOLV>
1.11166

>  <SCORE.INTRA.SOLV.lig_0>
-49.456

>  <SCORE.INTRA.VDW>
0.0974901

>  <SCORE.INTRA.VDW.0>
-0.478406

>  <SCORE.INTRA.norm>
-0.134657

>  <SCORE.RESTR>
0

>  <SCORE.RESTR.CAVITY>
0

>  <SCORE.RESTR.norm>
0

>  <SCORE.SYSTEM>
0

>  <SCORE.SYSTEM.CONST>
0

>  <SCORE.SYSTEM.DIHEDRAL>
0

>  <SCORE.SYSTEM.SOLV>
0

>  <SCORE.SYSTEM.norm>
0

>  <SCORE.heavy>
14

>  <SCORE.norm>
-0.63097

>  <RMSD>
2.090

$$$$
ligand
 OpenBabel11021811413D
libRbt.so/2013.1/901 2013/11/27
 14 13  0  0  0  0  0  0  0  0999 V2000
   44.4657   12.6261   16.0256 N   0  0  0  0  0  0  0  0  0  0  0  0
   44.4216   11.2225   15.5619 C   0  0  0  0  0  0  0  0  0  0  0  0
   45.5028   10.3698   16.2604 C   0  0  0  0  0  0  0  0  0  0  0  0
   45.3292   10.2379   17.7824 C   0  0  0  0  0  0  0  0  0  0  0  0
   46.4323    9.4353   18.3786 N   0  0  0  0  0  0  0  0  0  0  0  0
   46.2140    9.2672   19.8383 C   0  0  0  0  0  0  0  0  0  0  0  0
   45.5050    7.9386   20.2679 C   0  0  0  0  0  0  0  0  0  0  0  0
   46.2977    6.6499   19.9057 C   0  0  0  0  0  0  0  0  0  0  0  0
   45.6252    5.3671   20.3543 C   0  0  0  0  0  0  0  0  0  0  0  0
   46.5002    4.2655   20.0008 N   0  0  0  0  0  0  0  0  0  0  0  0
   45.8807    3.6157   18.8590 C   0  0  0  0  0  0  0  0  0  0  0  0
   46.5016    2.2500   18.5898 C   0  0  0  0  0  0  0  0  0  0  0  0
   45.8048    1.6577   17.3555 C   0  0  0  0  0  0  0  0  0  0  0  0
   44.3756    1.4044   17.5925 N   0  0  0  0  0  0  0  0  0  0  0  0
  1  2  1  0  0  0  0
  2  3  1  0  0  0  0
  3  4  1  0  0  0  0
  4  5  1  0  0  0  0
  5  6  1  0  0  0  0
  6  7  1  0  0  0  0
  7  8  1  0  0  0  0
  8  9  1  0  0  0  0
  9 10  1  0  0  0  0
 10 11  1  0  0  0  0
 11 12  1  0  0  0  0
 12 13  1  0  0  0  0
 13 14  1  0  0  0  0
M  END
>  <CHROM.1>
63.67161396,-178.37146071,-177.42951827,95.58651779,62.01650614,178.53082233
-177.63177657,-105.96272609,-166.14552335,-178.88235267,-64.18589390,45.63266529
6.87909303,18.34103799,1.79249374,-1.24245064,0.01824599

>  <Name>
ligand

>  <RI>
0

>  <Rbt.Current_Directory>
/home/itssahil/PROJECTS/Mol_Feturizer/New_Systems/rnas/1TN1

>  <Rbt.Executable>
rbdock ($Id: //depot/dev/client3/rdock/2013.1/src/exe/rbdock.cxx#4 $)

>  <Rbt.Library>
libRbt.so (2013.1, Build901 2013/11/27)

>  <Rbt.Parameter_File>
/export/apps/rDock/src/rDock_2013.1_src/data/scripts/dock_solv.prm

>  <Rbt.Receptor>
prm/pocket_docking_5.prm

>  <SCORE>
-8.41011

>  <SCORE.INTER>
-6.12161

>  <SCORE.INTER.CONST>
1

>  <SCORE.INTER.POLAR>
0

>  <SCORE.INTER.ROT>
11

>  <SCORE.INTER.SOLV>
13.4415

>  <SCORE.INTER.VDW>
-19.4949

>  <SCORE.INTER.norm>
-0.437258

>  <SCORE.INTRA>
-2.2885

>  <SCORE.INTRA.DIHEDRAL>
-5.64297

>  <SCORE.INTRA.DIHEDRAL.0>
7.79482

>  <SCORE.INTRA.POLAR>
0

>  <SCORE.INTRA.POLAR.0>
0

>  <SCORE.INTRA.REPUL>
0

>  <SCORE.INTRA.REPUL.0>
0

>  <SCORE.INTRA.SOLV>
1.79107

>  <SCORE.INTRA.SOLV.lig_0>
-49.456

>  <SCORE.INTRA.VDW>
-0.36255

>  <SCORE.INTRA.VDW.0>
-0.478406

>  <SCORE.INTRA.norm>
-0.163464

>  <SCORE.RESTR>
0

>  <SCORE.RESTR.CAVITY>
0

>  <SCORE.RESTR.norm>
0

>  <SCORE.SYSTEM>
0

>  <SCORE.SYSTEM.CONST>
0

>  <SCORE.SYSTEM.DIHEDRAL>
0

>  <SCORE.SYSTEM.SOLV>
0

>  <SCORE.SYSTEM.norm>
0

>  <SCORE.heavy>
14

>  <SCORE.norm>
-0.600722

>  <RMSD>
2.092

$$$$
ligand
 OpenBabel11021811413D
libRbt.so/2013.1/901 2013/11/27
 14 13  0  0  0  0  0  0  0  0999 V2000
   42.1996   13.0996   17.0035 N   0  0  0  0  0  0  0  0  0  0  0  0
   41.9867   11.8564   17.7757 C   0  0  0  0  0  0  0  0  0  0  0  0
   43.3125   11.0914   17.9784 C   0  0  0  0  0  0  0  0  0  0  0  0
   43.1951    9.8260   18.8438 C   0  0  0  0  0  0  0  0  0  0  0  0
   44.5246    9.1834   19.0339 N   0  0  0  0  0  0  0  0  0  0  0  0
   44.3993    7.9962   19.9179 C   0  0  0  0  0  0  0  0  0  0  0  0
   45.5348    6.9268   19.7799 C   0  0  0  0  0  0  0  0  0  0  0  0
   45.2741    5.6170   20.5778 C   0  0  0  0  0  0  0  0  0  0  0  0
   46.3133    4.5376   20.3457 C   0  0  0  0  0  0  0  0  0  0  0  0
   46.3287    4.2406   18.9258 N   0  0  0  0  0  0  0  0  0  0  0  0
   45.6507    2.9645   18.7788 C   0  0  0  0  0  0  0  0  0  0  0  0
   46.4710    1.9904   17.9412 C   0  0  0  0  0  0  0  0  0  0  0  0
   45.6162    0.7331   17.7206 C   0  0  0  0  0  0  0  0  0  0  0  0
   44.4528    0.9963   16.8604 N   0  0  0  0  0  0  0  0  0  0  0  0
  1  2  1  0  0  0  0
  2  3  1  0  0  0  0
  3  4  1  0  0  0  0
  4  5  1  0  0  0  0
  5  6  1  0  0  0  0
  6  7  1  0  0  0  0
  7  8  1  0  0  0  0
  8  9  1  0  0  0  0
  9 10  1  0  0  0  0
 10 11  1  0  0  0  0
 11 12  1  0  0  0  0
 12 13  1  0  0  0  0
 13 14  1  0  0  0  0
M  END
>  <CHROM.1>
176.58658507,-177.65898592,177.64864775,157.47691077,-172.30842626,174.88866715
-58.55509668,-105.04960670,-129.89922265,-174.24998206,67.83408134,44.66149554
6.50407711,18.67767623,2.11242342,-0.95622197,0.43205478

>  <Name>
ligand

>  <RI>
0

>  <Rbt.Current_Directory>
/home/itssahil/PROJECTS/Mol_Feturizer/New_Systems/rnas/1TN1

>  <Rbt.Executable>
rbdock ($Id: //depot/dev/client3/rdock/2013.1/src/exe/rbdock.cxx#4 $)

>  <Rbt.Library>
libRbt.so (2013.1, Build901 2013/11/27)

>  <Rbt.Parameter_File>
/export/apps/rDock/src/rDock_2013.1_src/data/scripts/dock_solv.prm

>  <Rbt.Receptor>
prm/pocket_docking_3.prm

>  <SCORE>
-9.4459

>  <SCORE.INTER>
-7.56631

>  <SCORE.INTER.CONST>
1

>  <SCORE.INTER.POLAR>
0

>  <SCORE.INTER.ROT>
11

>  <SCORE.INTER.SOLV>
17.3062

>  <SCORE.INTER.VDW>
-21.7463

>  <SCORE.INTER.norm>
-0.540451

>  <SCORE.INTRA>
-1.88033

>  <SCORE.INTRA.DIHEDRAL>
-4.51724

>  <SCORE.INTRA.DIHEDRAL.0>
7.79482

>  <SCORE.INTRA.POLAR>
0

>  <SCORE.INTRA.POLAR.0>
0

>  <SCORE.INTRA.REPUL>
0

>  <SCORE.INTRA.REPUL.0>
0

>  <SCORE.INTRA.SOLV>
1.20415

>  <SCORE.INTRA.SOLV.lig_0>
-49.456

>  <SCORE.INTRA.VDW>
-0.223782

>  <SCORE.INTRA.VDW.0>
-0.478406

>  <SCORE.INTRA.norm>
-0.134309

>  <SCORE.RESTR>
0.000741982

>  <SCORE.RESTR.CAVITY>
0.000741982

>  <SCORE.RESTR.norm>
5.29987e-05

>  <SCORE.SYSTEM>
0

>  <SCORE.SYSTEM.CONST>
0

>  <SCORE.SYSTEM.DIHEDRAL>
0

>  <SCORE.SYSTEM.SOLV>
0

>  <SCORE.SYSTEM.norm>
0

>  <SCORE.heavy>
14

>  <SCORE.norm>
-0.674707

>  <RMSD>
2.097

$$$$
ligand
 OpenBabel11021811413D
libRbt.so/2013.1/901 2013/11/27
 14 13  0  0  0  0  0  0  0  0999 V2000
   40.9792   10.5468   18.5604 N   0  0  0  0  0  0  0  0  0  0  0  0
   42.2049   11.3519   18.3692 C   0  0  0  0  0  0  0  0  0  0  0  0
   43.4405   10.4482   18.1679 C   0  0  0  0  0  0  0  0  0  0  0  0
   43.6411    9.3858   19.2611 C   0  0  0  0  0  0  0  0  0  0  0  0
   44.8187    8.5258   18.9608 N   0  0  0  0  0  0  0  0  0  0  0  0
   44.8556    7.3644   19.8864 C   0  0  0  0  0  0  0  0  0  0  0  0
   46.0303    6.3544   19.6583 C   0  0  0  0  0  0  0  0  0  0  0  0
   45.9984    5.1192   20.6036 C   0  0  0  0  0  0  0  0  0  0  0  0
   44.8580    4.1598   20.3246 C   0  0  0  0  0  0  0  0  0  0  0  0
   45.2144    3.3827   19.1527 N   0  0  0  0  0  0  0  0  0  0  0  0
   44.4047    2.1783   19.2124 C   0  0  0  0  0  0  0  0  0  0  0  0
   44.2622    1.5334   17.8387 C   0  0  0  0  0  0  0  0  0  0  0  0
   45.6503    1.0297   17.4154 C   0  0  0  0  0  0  0  0  0  0  0  0
   45.6548    0.5009   16.0432 N   0  0  0  0  0  0  0  0  0  0  0  0
  1  2  1  0  0  0  0
  2  3  1  0  0  0  0
  3  4  1  0  0  0  0
  4  5  1  0  0  0  0
  5  6  1  0  0  0  0
  6  7  1  0  0  0  0
  7  8  1  0  0  0  0
  8  9  1  0  0  0  0
  9 10  1  0  0  0  0
 10 11  1  0  0  0  0
 11 12  1  0  0  0  0
 12 13  1  0  0  0  0
 13 14  1  0  0  0  0
M  END
>  <CHROM.1>
-52.98988132,177.69303950,-169.93760181,178.59016177,-177.36285043,69.29297523
77.15820254,158.60877515,158.28205493,66.49010878,-174.55040087,44.42961756
5.84870436,18.81844437,1.97993714,-0.84515854,0.40132416

>  <Name>
ligand

>  <RI>
0

>  <Rbt.Current_Directory>
/home/itssahil/PROJECTS/Mol_Feturizer/New_Systems/rnas/1TN1

>  <Rbt.Executable>
rbdock ($Id: //depot/dev/client3/rdock/2013.1/src/exe/rbdock.cxx#4 $)

>  <Rbt.Library>
libRbt.so (2013.1, Build901 2013/11/27)

>  <Rbt.Parameter_File>
/export/apps/rDock/src/rDock_2013.1_src/data/scripts/dock_solv.prm

>  <Rbt.Receptor>
prm/pocket_docking_3.prm

>  <SCORE>
-7.39764

>  <SCORE.INTER>
-5.37344

>  <SCORE.INTER.CONST>
1

>  <SCORE.INTER.POLAR>
0

>  <SCORE.INTER.ROT>
11

>  <SCORE.INTER.SOLV>
19.7631

>  <SCORE.INTER.VDW>
-21.1033

>  <SCORE.INTER.norm>
-0.383817

>  <SCORE.INTRA>
-2.02784

>  <SCORE.INTRA.DIHEDRAL>
-5.12961

>  <SCORE.INTRA.DIHEDRAL.0>
7.79482

>  <SCORE.INTRA.POLAR>
0

>  <SCORE.INTRA.POLAR.0>
0

>  <SCORE.INTRA.REPUL>
0

>  <SCORE.INTRA.REPUL.0>
0

>  <SCORE.INTRA.SOLV>
1.72401

>  <SCORE.INTRA.SOLV.lig_0>
-49.456

>  <SCORE.INTRA.VDW>
-0.325045

>  <SCORE.INTRA.VDW.0>
-0.478406

>  <SCORE.INTRA.norm>
-0.144846

>  <SCORE.RESTR>
0.0036472

>  <SCORE.RESTR.CAVITY>
0.0036472

>  <SCORE.RESTR.norm>
0.000260515

>  <SCORE.SYSTEM>
0

>  <SCORE.SYSTEM.CONST>
0

>  <SCORE.SYSTEM.DIHEDRAL>
0

>  <SCORE.SYSTEM.SOLV>
0

>  <SCORE.SYSTEM.norm>
0

>  <SCORE.heavy>
14

>  <SCORE.norm>
-0.528403

>  <RMSD>
2.104

$$$$
ligand
 OpenBabel11021811413D
libRbt.so/2013.1/901 2013/11/27
 14 13  0  0  0  0  0  0  0  0999 V2000
   44.5204   12.6060   16.1380 N   0  0  0  0  0  0  0  0  0  0  0  0
   44.5416   11.2488   15.5508 C   0  0  0  0  0  0  0  0  0  0  0  0
   45.3587   10.2746   16.4267 C   0  0  0  0  0  0  0  0  0  0  0  0
   44.7840   10.0436   17.8340 C   0  0  0  0  0  0  0  0  0  0  0  0
   45.5545    8.9975   18.5608 N   0  0  0  0  0  0  0  0  0  0  0  0
   44.7788    8.5072   19.7290 C   0  0  0  0  0  0  0  0  0  0  0  0
   44.7464    6.9528   19.9157 C   0  0  0  0  0  0  0  0  0  0  0  0
   46.1490    6.3063   20.1032 C   0  0  0  0  0  0  0  0  0  0  0  0
   46.1256    4.7915   20.1629 C   0  0  0  0  0  0  0  0  0  0  0  0
   45.7577    4.3055   18.8465 N   0  0  0  0  0  0  0  0  0  0  0  0
   46.2461    2.9395   18.7757 C   0  0  0  0  0  0  0  0  0  0  0  0
   45.0995    1.9355   18.7968 C   0  0  0  0  0  0  0  0  0  0  0  0
   44.4082    1.9905   17.4260 C   0  0  0  0  0  0  0  0  0  0  0  0
   45.2583    1.4527   16.3532 N   0  0  0  0  0  0  0  0  0  0  0  0
  1  2  1  0  0  0  0
  2  3  1  0  0  0  0
  3  4  1  0  0  0  0
  4  5  1  0  0  0  0
  5  6  1  0  0  0  0
  6  7  1  0  0  0  0
  7  8  1  0  0  0  0
  8  9  1  0  0  0  0
  9 10  1  0  0  0  0
 10 11  1  0  0  0  0
 11 12  1  0  0  0  0
 12 13  1  0  0  0  0
 13 14  1  0  0  0  0
M  END
>  <CHROM.1>
63.27049758,174.54965952,-163.65657992,134.74340621,59.70998599,-174.96474716
68.31607425,157.95726040,109.48612823,73.48366792,68.85695155,45.23777081
6.59646395,18.18738520,1.90750740,-1.36718415,0.16583916

>  <Name>
ligand

>  <RI>
0

>  <Rbt.Current_Directory>
/home/itssahil/PROJECTS/Mol_Feturizer/New_Systems/rnas/1TN1

>  <Rbt.Executable>
rbdock ($Id: //depot/dev/client3/rdock/2013.1/src/exe/rbdock.cxx#4 $)

>  <Rbt.Library>
libRbt.so (2013.1, Build901 2013/11/27)

>  <Rbt.Parameter_File>
/export/apps/rDock/src/rDock_2013.1_src/data/scripts/dock_solv.prm

>  <Rbt.Receptor>
prm/pocket_docking_6.prm

>  <SCORE>
-6.70846

>  <SCORE.INTER>
-5.87957

>  <SCORE.INTER.CONST>
1

>  <SCORE.INTER.POLAR>
0

>  <SCORE.INTER.ROT>
11

>  <SCORE.INTER.SOLV>
10.6811

>  <SCORE.INTER.VDW>
-18.4134

>  <SCORE.INTER.norm>
-0.419969

>  <SCORE.INTRA>
-0.828884

>  <SCORE.INTRA.DIHEDRAL>
-3.62291

>  <SCORE.INTRA.DIHEDRAL.0>
7.79482

>  <SCORE.INTRA.POLAR>
0

>  <SCORE.INTRA.POLAR.0>
0

>  <SCORE.INTRA.REPUL>
0

>  <SCORE.INTRA.REPUL.0>
0

>  <SCORE.INTRA.SOLV>
2.91058

>  <SCORE.INTRA.SOLV.lig_0>
-49.456

>  <SCORE.INTRA.VDW>
-0.472718

>  <SCORE.INTRA.VDW.0>
-0.478406

>  <SCORE.INTRA.norm>
-0.059206

>  <SCORE.RESTR>
0

>  <SCORE.RESTR.CAVITY>
0

>  <SCORE.RESTR.norm>
0

>  <SCORE.SYSTEM>
0

>  <SCORE.SYSTEM.CONST>
0

>  <SCORE.SYSTEM.DIHEDRAL>
0

>  <SCORE.SYSTEM.SOLV>
0

>  <SCORE.SYSTEM.norm>
0

>  <SCORE.heavy>
14

>  <SCORE.norm>
-0.479175

>  <RMSD>
2.110

$$$$
ligand
 OpenBabel11021811413D
libRbt.so/2013.1/901 2013/11/27
 14 13  0  0  0  0  0  0  0  0999 V2000
   45.2771    1.6201   16.4233 N   0  0  0  0  0  0  0  0  0  0  0  0
   45.7080    1.0943   17.7367 C   0  0  0  0  0  0  0  0  0  0  0  0
   46.4908    2.1594   18.5346 C   0  0  0  0  0  0  0  0  0  0  0  0
   45.6502    3.3633   18.9904 C   0  0  0  0  0  0  0  0  0  0  0  0
   46.4286    4.2430   19.9051 N   0  0  0  0  0  0  0  0  0  0  0  0
   45.5089    5.0378   20.7590 C   0  0  0  0  0  0  0  0  0  0  0  0
   45.1834    6.4801   20.2431 C   0  0  0  0  0  0  0  0  0  0  0  0
   46.3999    7.4498   20.2589 C   0  0  0  0  0  0  0  0  0  0  0  0
   46.0876    8.8375   19.7339 C   0  0  0  0  0  0  0  0  0  0  0  0
   45.7117    8.7053   18.3390 N   0  0  0  0  0  0  0  0  0  0  0  0
   45.7103   10.0531   17.7977 C   0  0  0  0  0  0  0  0  0  0  0  0
   45.5307   10.0460   16.2841 C   0  0  0  0  0  0  0  0  0  0  0  0
   45.6813   11.4932   15.7914 C   0  0  0  0  0  0  0  0  0  0  0  0
   44.5936   12.3592   16.2706 N   0  0  0  0  0  0  0  0  0  0  0  0
  1  2  1  0  0  0  0
  2  3  1  0  0  0  0
  3  4  1  0  0  0  0
  4  5  1  0  0  0  0
  5  6  1  0  0  0  0
  6  7  1  0  0  0  0
  7  8  1  0  0  0  0
  8  9  1  0  0  0  0
  9 10  1  0  0  0  0
 10 11  1  0  0  0  0
 11 12  1  0  0  0  0
 12 13  1  0  0  0  0
 13 14  1  0  0  0  0
M  END
>  <CHROM.1>
67.46851075,172.19396156,-156.60485014,-95.68078632,-67.03704493,178.88644280
-63.23691920,-167.71748674,171.63527054,-174.49465465,-66.38978004,45.71165294
6.63868453,18.36224629,1.19455713,1.43960740,-2.94190639

>  <Name>
ligand

>  <RI>
0

>  <Rbt.Current_Directory>
/home/itssahil/PROJECTS/Mol_Feturizer/New_Systems/rnas/1TN1

>  <Rbt.Executable>
rbdock ($Id: //depot/dev/client3/rdock/2013.1/src/exe/rbdock.cxx#4 $)

>  <Rbt.Library>
libRbt.so (2013.1, Build901 2013/11/27)

>  <Rbt.Parameter_File>
/export/apps/rDock/src/rDock_2013.1_src/data/scripts/dock_solv.prm

>  <Rbt.Receptor>
prm/pocket_docking_6.prm

>  <SCORE>
-9.12963

>  <SCORE.INTER>
-6.8836

>  <SCORE.INTER.CONST>
1

>  <SCORE.INTER.POLAR>
0

>  <SCORE.INTER.ROT>
11

>  <SCORE.INTER.SOLV>
10.8024

>  <SCORE.INTER.VDW>
-19.1232

>  <SCORE.INTER.norm>
-0.491686

>  <SCORE.INTRA>
-2.24603

>  <SCORE.INTRA.DIHEDRAL>
-5.51327

>  <SCORE.INTRA.DIHEDRAL.0>
7.79482

>  <SCORE.INTRA.POLAR>
0

>  <SCORE.INTRA.POLAR.0>
0

>  <SCORE.INTRA.REPUL>
0

>  <SCORE.INTRA.REPUL.0>
0

>  <SCORE.INTRA.SOLV>
2.07889

>  <SCORE.INTRA.SOLV.lig_0>
-49.456

>  <SCORE.INTRA.VDW>
-0.52884

>  <SCORE.INTRA.VDW.0>
-0.478406

>  <SCORE.INTRA.norm>
-0.160431

>  <SCORE.RESTR>
0

>  <SCORE.RESTR.CAVITY>
0

>  <SCORE.RESTR.norm>
0

>  <SCORE.SYSTEM>
0

>  <SCORE.SYSTEM.CONST>
0

>  <SCORE.SYSTEM.DIHEDRAL>
0

>  <SCORE.SYSTEM.SOLV>
0

>  <SCORE.SYSTEM.norm>
0

>  <SCORE.heavy>
14

>  <SCORE.norm>
-0.652116

>  <RMSD>
2.117

$$$$
ligand
 OpenBabel11021811413D
libRbt.so/2013.1/901 2013/11/27
 14 13  0  0  0  0  0  0  0  0999 V2000
   45.9868   -1.1351   15.3624 N   0  0  0  0  0  0  0  0  0  0  0  0
   44.8585   -0.1808   15.4206 C   0  0  0  0  0  0  0  0  0  0  0  0
   44.7258    0.4411   16.8276 C   0  0  0  0  0  0  0  0  0  0  0  0
   45.8531    1.4160   17.2053 C   0  0  0  0  0  0  0  0  0  0  0  0
   45.8737    1.6665   18.6726 N   0  0  0  0  0  0  0  0  0  0  0  0
   45.1740    2.9389   18.9861 C   0  0  0  0  0  0  0  0  0  0  0  0
   46.0930    4.1983   19.1322 C   0  0  0  0  0  0  0  0  0  0  0  0
   45.4193    5.3946   19.8640 C   0  0  0  0  0  0  0  0  0  0  0  0
   46.3141    6.6100   20.0095 C   0  0  0  0  0  0  0  0  0  0  0  0
   46.5225    7.1632   18.6848 N   0  0  0  0  0  0  0  0  0  0  0  0
   45.8553    8.4534   18.6828 C   0  0  0  0  0  0  0  0  0  0  0  0
   46.0641    9.1872   17.3633 C   0  0  0  0  0  0  0  0  0  0  0  0
   45.1651   10.4328   17.3769 C   0  0  0  0  0  0  0  0  0  0  0  0
   45.5983   11.4197   18.3775 N   0  0  0  0  0  0  0  0  0  0  0  0
  1  2  1  0  0  0  0
  2  3  1  0  0  0  0
  3  4  1  0  0  0  0
  4  5  1  0  0  0  0
  5  6  1  0  0  0  0
  6  7  1  0  0  0  0
  7  8  1  0  0  0  0
  8  9  1  0  0  0  0
  9 10  1  0  0  0  0
 10 11  1  0  0  0  0
 11 12  1  0  0  0  0
 12 13  1  0  0  0  0
 13 14  1  0  0  0  0
M  END
>  <CHROM.1>
69.92659039,-163.89331973,-98.23541667,-95.84041994,-162.55673296,179.72880444
68.34088103,112.97934447,176.73656080,171.96386434,67.34715896,45.67868726
4.85758687,17.99763242,1.83837310,1.42926614,3.05823196

>  <Name>
ligand

>  <RI>
0

>  <Rbt.Current_Directory>
/home/itssahil/PROJECTS/Mol_Feturizer/New_Systems/rnas/1TN1

>  <Rbt.Executable>
rbdock ($Id: //depot/dev/client3/rdock/2013.1/src/exe/rbdock.cxx#4 $)

>  <Rbt.Library>
libRbt.so (2013.1, Build901 2013/11/27)

>  <Rbt.Parameter_File>
/export/apps/rDock/src/rDock_2013.1_src/data/scripts/dock_solv.prm

>  <Rbt.Receptor>
prm/pocket_docking_2.prm

>  <SCORE>
-3.37869

>  <SCORE.INTER>
-3.0407

>  <SCORE.INTER.CONST>
1

>  <SCORE.INTER.POLAR>
0

>  <SCORE.INTER.ROT>
11

>  <SCORE.INTER.SOLV>
12.9833

>  <SCORE.INTER.VDW>
-17.2882

>  <SCORE.INTER.norm>
-0.217193

>  <SCORE.INTRA>
-0.372797

>  <SCORE.INTRA.DIHEDRAL>
-1.93043

>  <SCORE.INTRA.DIHEDRAL.0>
7.79482

>  <SCORE.INTRA.POLAR>
0

>  <SCORE.INTRA.POLAR.0>
0

>  <SCORE.INTRA.REPUL>
0

>  <SCORE.INTRA.REPUL.0>
0

>  <SCORE.INTRA.SOLV>
1.76248

>  <SCORE.INTRA.SOLV.lig_0>
-49.456

>  <SCORE.INTRA.VDW>
-0.28882

>  <SCORE.INTRA.VDW.0>
-0.478406

>  <SCORE.INTRA.norm>
-0.0266283

>  <SCORE.RESTR>
0.0348023

>  <SCORE.RESTR.CAVITY>
0.0348023

>  <SCORE.RESTR.norm>
0.00248588

>  <SCORE.SYSTEM>
0

>  <SCORE.SYSTEM.CONST>
0

>  <SCORE.SYSTEM.DIHEDRAL>
0

>  <SCORE.SYSTEM.SOLV>
0

>  <SCORE.SYSTEM.norm>
0

>  <SCORE.heavy>
14

>  <SCORE.norm>
-0.241335

>  <RMSD>
2.124

$$$$
ligand
 OpenBabel11021811413D
libRbt.so/2013.1/901 2013/11/27
 14 13  0  0  0  0  0  0  0  0999 V2000
   46.7564   13.7171   19.2101 N   0  0  0  0  0  0  0  0  0  0  0  0
   46.3260   13.1481   17.9147 C   0  0  0  0  0  0  0  0  0  0  0  0
   46.7602   11.6724   17.7814 C   0  0  0  0  0  0  0  0  0  0  0  0
   46.0809   10.7135   18.7730 C   0  0  0  0  0  0  0  0  0  0  0  0
   46.4665    9.3017   18.5003 N   0  0  0  0  0  0  0  0  0  0  0  0
   45.9970    8.4198   19.5998 C   0  0  0  0  0  0  0  0  0  0  0  0
   46.4438    6.9221   19.5036 C   0  0  0  0  0  0  0  0  0  0  0  0
   45.7525    5.9856   20.5358 C   0  0  0  0  0  0  0  0  0  0  0  0
   46.0387    4.5125   20.3188 C   0  0  0  0  0  0  0  0  0  0  0  0
   45.5660    4.1638   18.9924 N   0  0  0  0  0  0  0  0  0  0  0  0
   45.8270    2.7434   18.8375 C   0  0  0  0  0  0  0  0  0  0  0  0
   45.3622    2.2361   17.4774 C   0  0  0  0  0  0  0  0  0  0  0  0
   45.6329    0.7247   17.4278 C   0  0  0  0  0  0  0  0  0  0  0  0
   45.2718    0.1380   16.1286 N   0  0  0  0  0  0  0  0  0  0  0  0
  1  2  1  0  0  0  0
  2  3  1  0  0  0  0
  3  4  1  0  0  0  0
  4  5  1  0  0  0  0
  5  6  1  0  0  0  0
  6  7  1  0  0  0  0
  7  8  1  0  0  0  0
  8  9  1  0  0  0  0
  9 10  1  0  0  0  0
 10 11  1  0  0  0  0
 11 12  1  0  0  0  0
 12 13  1  0  0  0  0
 13 14  1  0  0  0  0
M  END
>  <CHROM.1>
65.85765760,175.15273868,170.19542154,-174.88616312,-170.68579386,172.00556269
-59.64708174,-178.60025996,179.47738421,-178.01835026,-177.57991920,46.02012226
6.74274321,18.64311312,-0.25361107,1.47627495,1.90254166

>  <Name>
ligand

>  <RI>
0

>  <Rbt.Current_Directory>
/home/itssahil/PROJECTS/Mol_Feturizer/New_Systems/rnas/1TN1

>  <Rbt.Executable>
rbdock ($Id: //depot/dev/client3/rdock/2013.1/src/exe/rbdock.cxx#4 $)

>  <Rbt.Library>
libRbt.so (2013.1, Build901 2013/11/27)

>  <Rbt.Parameter_File>
/export/apps/rDock/src/rDock_2013.1_src/data/scripts/dock_solv.prm

>  <Rbt.Receptor>
prm/pocket_docking_5.prm

>  <SCORE>
-6.99015

>  <SCORE.INTER>
-3.49413

>  <SCORE.INTER.CONST>
1

>  <SCORE.INTER.POLAR>
0

>  <SCORE.INTER.ROT>
11

>  <SCORE.INTER.SOLV>
11.5144

>  <SCORE.INTER.VDW>
-17.1009

>  <SCORE.INTER.norm>
-0.249581

>  <SCORE.INTRA>
-3.49602

>  <SCORE.INTRA.DIHEDRAL>
-6.85364

>  <SCORE.INTRA.DIHEDRAL.0>
7.79482

>  <SCORE.INTRA.POLAR>
0

>  <SCORE.INTRA.POLAR.0>
0

>  <SCORE.INTRA.REPUL>
0

>  <SCORE.INTRA.REPUL.0>
0

>  <SCORE.INTRA.SOLV>
1.05889

>  <SCORE.INTRA.SOLV.lig_0>
-49.456

>  <SCORE.INTRA.VDW>
-0.598644

>  <SCORE.INTRA.VDW.0>
-0.478406

>  <SCORE.INTRA.norm>
-0.249716

>  <SCORE.RESTR>
0

>  <SCORE.RESTR.CAVITY>
0

>  <SCORE.RESTR.norm>
0

>  <SCORE.SYSTEM>
0

>  <SCORE.SYSTEM.CONST>
0

>  <SCORE.SYSTEM.DIHEDRAL>
0

>  <SCORE.SYSTEM.SOLV>
0

>  <SCORE.SYSTEM.norm>
0

>  <SCORE.heavy>
14

>  <SCORE.norm>
-0.499296

>  <RMSD>
2.130

$$$$
ligand
 OpenBabel11021811413D
libRbt.so/2013.1/901 2013/11/27
 14 13  0  0  0  0  0  0  0  0999 V2000
   46.2486   13.3991   17.2256 N   0  0  0  0  0  0  0  0  0  0  0  0
   46.1279   12.4917   18.3870 C   0  0  0  0  0  0  0  0  0  0  0  0
   46.4174   11.0293   17.9851 C   0  0  0  0  0  0  0  0  0  0  0  0
   46.3464   10.0211   19.1438 C   0  0  0  0  0  0  0  0  0  0  0  0
   46.7105    8.6526   18.6845 N   0  0  0  0  0  0  0  0  0  0  0  0
   46.5892    7.6856   19.8056 C   0  0  0  0  0  0  0  0  0  0  0  0
   45.1723    7.0470   19.9981 C   0  0  0  0  0  0  0  0  0  0  0  0
   45.1558    5.8111   20.9429 C   0  0  0  0  0  0  0  0  0  0  0  0
   45.9540    4.6303   20.4258 C   0  0  0  0  0  0  0  0  0  0  0  0
   45.3819    4.2373   19.1519 N   0  0  0  0  0  0  0  0  0  0  0  0
   45.8766    2.8970   18.8900 C   0  0  0  0  0  0  0  0  0  0  0  0
   45.2546    2.3096   17.6285 C   0  0  0  0  0  0  0  0  0  0  0  0
   45.7004    0.8428   17.5302 C   0  0  0  0  0  0  0  0  0  0  0  0
   45.2652    0.2129   16.2746 N   0  0  0  0  0  0  0  0  0  0  0  0
  1  2  1  0  0  0  0
  2  3  1  0  0  0  0
  3  4  1  0  0  0  0
  4  5  1  0  0  0  0
  5  6  1  0  0  0  0
  6  7  1  0  0  0  0
  7  8  1  0  0  0  0
  8  9  1  0  0  0  0
  9 10  1  0  0  0  0
 10 11  1  0  0  0  0
 11 12  1  0  0  0  0
 12 13  1  0  0  0  0
 13 14  1  0  0  0  0
M  END
>  <CHROM.1>
178.60523815,-176.89097773,-177.98832471,87.71670578,166.32597584,-63.94893235
-59.89698043,-162.99074439,175.13573224,-173.17151333,-174.30574083,45.87147169
6.51906512,18.71989165,-0.55674505,-1.47280818,-2.09168877

>  <Name>
ligand

>  <RI>
0

>  <Rbt.Current_Directory>
/home/itssahil/PROJECTS/Mol_Feturizer/New_Systems/rnas/1TN1

>  <Rbt.Executable>
rbdock ($Id: //depot/dev/client3/rdock/2013.1/src/exe/rbdock.cxx#4 $)

>  <Rbt.Library>
libRbt.so (2013.1, Build901 2013/11/27)

>  <Rbt.Parameter_File>
/export/apps/rDock/src/rDock_2013.1_src/data/scripts/dock_solv.prm

>  <Rbt.Receptor>
prm/pocket_docking_4.prm

>  <SCORE>
-7.99608

>  <SCORE.INTER>
-5.13586

>  <SCORE.INTER.CONST>
1

>  <SCORE.INTER.POLAR>
0

>  <SCORE.INTER.ROT>
11

>  <SCORE.INTER.SOLV>
10.6441

>  <SCORE.INTER.VDW>
-17.9053

>  <SCORE.INTER.norm>
-0.366847

>  <SCORE.INTRA>
-2.86022

>  <SCORE.INTRA.DIHEDRAL>
-5.93799

>  <SCORE.INTRA.DIHEDRAL.0>
7.79482

>  <SCORE.INTRA.POLAR>
0

>  <SCORE.INTRA.POLAR.0>
0

>  <SCORE.INTRA.REPUL>
0

>  <SCORE.INTRA.REPUL.0>
0

>  <SCORE.INTRA.SOLV>
0.702478

>  <SCORE.INTRA.SOLV.lig_0>
-49.456

>  <SCORE.INTRA.VDW>
-0.242461

>  <SCORE.INTRA.VDW.0>
-0.478406

>  <SCORE.INTRA.norm>
-0.204301

>  <SCORE.RESTR>
0

>  <SCORE.RESTR.CAVITY>
0

>  <SCORE.RESTR.norm>
0

>  <SCORE.SYSTEM>
0

>  <SCORE.SYSTEM.CONST>
0

>  <SCORE.SYSTEM.DIHEDRAL>
0

>  <SCORE.SYSTEM.SOLV>
0

>  <SCORE.SYSTEM.norm>
0

>  <SCORE.heavy>
14

>  <SCORE.norm>
-0.571149

>  <RMSD>
2.134

$$$$
ligand
 OpenBabel11021811413D
libRbt.so/2013.1/901 2013/11/27
 14 13  0  0  0  0  0  0  0  0999 V2000
   45.1649   11.0079   16.7407 N   0  0  0  0  0  0  0  0  0  0  0  0
   45.1031   10.5184   18.1349 C   0  0  0  0  0  0  0  0  0  0  0  0
   46.4462    9.8903   18.5658 C   0  0  0  0  0  0  0  0  0  0  0  0
   46.4443    9.2822   19.9780 C   0  0  0  0  0  0  0  0  0  0  0  0
   45.4575    8.1721   20.0805 N   0  0  0  0  0  0  0  0  0  0  0  0
   46.0837    6.8890   19.6702 C   0  0  0  0  0  0  0  0  0  0  0  0
   45.6622    5.6329   20.5049 C   0  0  0  0  0  0  0  0  0  0  0  0
   46.2924    4.2999   20.0086 C   0  0  0  0  0  0  0  0  0  0  0  0
   45.7886    3.8485   18.6517 C   0  0  0  0  0  0  0  0  0  0  0  0
   46.4425    2.5928   18.3357 N   0  0  0  0  0  0  0  0  0  0  0  0
   45.5663    1.5499   18.8401 C   0  0  0  0  0  0  0  0  0  0  0  0
   44.5244    1.1470   17.8031 C   0  0  0  0  0  0  0  0  0  0  0  0
   45.2545    0.4004   16.6764 C   0  0  0  0  0  0  0  0  0  0  0  0
   46.0486    1.3064   15.8332 N   0  0  0  0  0  0  0  0  0  0  0  0
  1  2  1  0  0  0  0
  2  3  1  0  0  0  0
  3  4  1  0  0  0  0
  4  5  1  0  0  0  0
  5  6  1  0  0  0  0
  6  7  1  0  0  0  0
  7  8  1  0  0  0  0
  8  9  1  0  0  0  0
  9 10  1  0  0  0  0
 10 11  1  0  0  0  0
 11 12  1  0  0  0  0
 12 13  1  0  0  0  0
 13 14  1  0  0  0  0
M  END
>  <CHROM.1>
-176.66729047,61.62247399,87.60308009,141.67264905,177.59202024,-67.85216867
-179.04763765,91.27506342,87.98889219,70.02067618,-73.12489188,45.73422219
5.46685913,18.55918333,1.44020974,-1.40844504,-0.00135966

>  <Name>
ligand

>  <RI>
0

>  <Rbt.Current_Directory>
/home/itssahil/PROJECTS/Mol_Feturizer/New_Systems/rnas/1TN1

>  <Rbt.Executable>
rbdock ($Id: //depot/dev/client3/rdock/2013.1/src/exe/rbdock.cxx#4 $)

>  <Rbt.Library>
libRbt.so (2013.1, Build901 2013/11/27)

>  <Rbt.Parameter_File>
/export/apps/rDock/src/rDock_2013.1_src/data/scripts/dock_solv.prm

>  <Rbt.Receptor>
prm/pocket_docking_3.prm

>  <SCORE>
-6.10393

>  <SCORE.INTER>
-6.87134

>  <SCORE.INTER.CONST>
1

>  <SCORE.INTER.POLAR>
0

>  <SCORE.INTER.ROT>
11

>  <SCORE.INTER.SOLV>
11.2458

>  <SCORE.INTER.VDW>
-19.2628

>  <SCORE.INTER.norm>
-0.49081

>  <SCORE.INTRA>
0.767405

>  <SCORE.INTRA.DIHEDRAL>
-3.9096

>  <SCORE.INTRA.DIHEDRAL.0>
7.79482

>  <SCORE.INTRA.POLAR>
0

>  <SCORE.INTRA.POLAR.0>
0

>  <SCORE.INTRA.REPUL>
0

>  <SCORE.INTRA.REPUL.0>
0

>  <SCORE.INTRA.SOLV>
3.56588

>  <SCORE.INTRA.SOLV.lig_0>
-49.456

>  <SCORE.INTRA.VDW>
0.939268

>  <SCORE.INTRA.VDW.0>
-0.478406

>  <SCORE.INTRA.norm>
0.0548147

>  <SCORE.RESTR>
0

>  <SCORE.RESTR.CAVITY>
0

>  <SCORE.RESTR.norm>
0

>  <SCORE.SYSTEM>
0

>  <SCORE.SYSTEM.CONST>
0

>  <SCORE.SYSTEM.DIHEDRAL>
0

>  <SCORE.SYSTEM.SOLV>
0

>  <SCORE.SYSTEM.norm>
0

>  <SCORE.heavy>
14

>  <SCORE.norm>
-0.435995

>  <RMSD>
2.165

$$$$
ligand
 OpenBabel11021811413D
libRbt.so/2013.1/901 2013/11/27
 14 13  0  0  0  0  0  0  0  0999 V2000
   43.6104    1.3725   18.4889 N   0  0  0  0  0  0  0  0  0  0  0  0
   44.5901    0.8377   17.5187 C   0  0  0  0  0  0  0  0  0  0  0  0
   46.0350    0.9970   18.0394 C   0  0  0  0  0  0  0  0  0  0  0  0
   46.4659    2.4504   18.2965 C   0  0  0  0  0  0  0  0  0  0  0  0
   45.7300    3.0292   19.4540 N   0  0  0  0  0  0  0  0  0  0  0  0
   45.8089    4.5123   19.4229 C   0  0  0  0  0  0  0  0  0  0  0  0
   45.4956    5.2351   20.7762 C   0  0  0  0  0  0  0  0  0  0  0  0
   45.2463    6.7644   20.6366 C   0  0  0  0  0  0  0  0  0  0  0  0
   46.4351    7.5351   20.0965 C   0  0  0  0  0  0  0  0  0  0  0  0
   46.0554    8.9331   20.0220 N   0  0  0  0  0  0  0  0  0  0  0  0
   45.6151    9.1537   18.6556 C   0  0  0  0  0  0  0  0  0  0  0  0
   45.6624   10.6317   18.2862 C   0  0  0  0  0  0  0  0  0  0  0  0
   45.0654   10.7782   16.8783 C   0  0  0  0  0  0  0  0  0  0  0  0
   45.1059   12.1682   16.3996 N   0  0  0  0  0  0  0  0  0  0  0  0
  1  2  1  0  0  0  0
  2  3  1  0  0  0  0
  3  4  1  0  0  0  0
  4  5  1  0  0  0  0
  5  6  1  0  0  0  0
  6  7  1  0  0  0  0
  7  8  1  0  0  0  0
  8  9  1  0  0  0  0
  9 10  1  0  0  0  0
 10 11  1  0  0  0  0
 11 12  1  0  0  0  0
 12 13  1  0  0  0  0
 13 14  1  0  0  0  0
M  END
>  <CHROM.1>
-60.59936107,68.60308543,-161.59360293,-161.17206632,-165.87221100,-61.67904000
179.96070674,-95.73551922,-159.54628046,-175.06677073,-177.95177018,45.49453751
6.02832896,18.78375776,1.67614721,1.30329000,2.98146894

>  <Name>
ligand

>  <RI>
0

>  <Rbt.Current_Directory>
/home/itssahil/PROJECTS/Mol_Feturizer/New_Systems/rnas/1TN1

>  <Rbt.Executable>
rbdock ($Id: //depot/dev/client3/rdock/2013.1/src/exe/rbdock.cxx#4 $)

>  <Rbt.Library>
libRbt.so (2013.1, Build901 2013/11/27)

>  <Rbt.Parameter_File>
/export/apps/rDock/src/rDock_2013.1_src/data/scripts/dock_solv.prm

>  <Rbt.Receptor>
prm/pocket_docking_5.prm

>  <SCORE>
-7.47985

>  <SCORE.INTER>
-6.47522

>  <SCORE.INTER.CONST>
1

>  <SCORE.INTER.POLAR>
0

>  <SCORE.INTER.ROT>
11

>  <SCORE.INTER.SOLV>
15.0155

>  <SCORE.INTER.VDW>
-20.2553

>  <SCORE.INTER.norm>
-0.462515

>  <SCORE.INTRA>
-1.00463

>  <SCORE.INTRA.DIHEDRAL>
-5.06123

>  <SCORE.INTRA.DIHEDRAL.0>
7.79482

>  <SCORE.INTRA.POLAR>
0

>  <SCORE.INTRA.POLAR.0>
0

>  <SCORE.INTRA.REPUL>
0

>  <SCORE.INTRA.REPUL.0>
0

>  <SCORE.INTRA.SOLV>
3.21914

>  <SCORE.INTRA.SOLV.lig_0>
-49.456

>  <SCORE.INTRA.VDW>
-0.083591

>  <SCORE.INTRA.VDW.0>
-0.478406

>  <SCORE.INTRA.norm>
-0.0717595

>  <SCORE.RESTR>
0

>  <SCORE.RESTR.CAVITY>
0

>  <SCORE.RESTR.norm>
0

>  <SCORE.SYSTEM>
0

>  <SCORE.SYSTEM.CONST>
0

>  <SCORE.SYSTEM.DIHEDRAL>
0

>  <SCORE.SYSTEM.SOLV>
0

>  <SCORE.SYSTEM.norm>
0

>  <SCORE.heavy>
14

>  <SCORE.norm>
-0.534275

>  <RMSD>
2.171

$$$$
ligand
 OpenBabel11021811413D
libRbt.so/2013.1/901 2013/11/27
 14 13  0  0  0  0  0  0  0  0999 V2000
   45.3656   -2.1596   15.4349 N   0  0  0  0  0  0  0  0  0  0  0  0
   45.7432   -1.3828   16.6354 C   0  0  0  0  0  0  0  0  0  0  0  0
   45.2244    0.0687   16.5468 C   0  0  0  0  0  0  0  0  0  0  0  0
   45.5911    0.9538   17.7494 C   0  0  0  0  0  0  0  0  0  0  0  0
   44.9980    2.3125   17.6135 N   0  0  0  0  0  0  0  0  0  0  0  0
   45.0888    3.0437   18.9034 C   0  0  0  0  0  0  0  0  0  0  0  0
   45.9563    4.3473   18.8827 C   0  0  0  0  0  0  0  0  0  0  0  0
   45.7145    5.2904   20.0962 C   0  0  0  0  0  0  0  0  0  0  0  0
   46.4688    6.6031   20.0154 C   0  0  0  0  0  0  0  0  0  0  0  0
   46.0481    7.2777   18.8020 N   0  0  0  0  0  0  0  0  0  0  0  0
   44.9417    8.1363   19.1871 C   0  0  0  0  0  0  0  0  0  0  0  0
   45.2625    9.6052   18.9371 C   0  0  0  0  0  0  0  0  0  0  0  0
   45.1824    9.8471   17.4221 C   0  0  0  0  0  0  0  0  0  0  0  0
   45.2149   11.2784   17.0856 N   0  0  0  0  0  0  0  0  0  0  0  0
  1  2  1  0  0  0  0
  2  3  1  0  0  0  0
  3  4  1  0  0  0  0
  4  5  1  0  0  0  0
  5  6  1  0  0  0  0
  6  7  1  0  0  0  0
  7  8  1  0  0  0  0
  8  9  1  0  0  0  0
  9 10  1  0  0  0  0
 10 11  1  0  0  0  0
 11 12  1  0  0  0  0
 12 13  1  0  0  0  0
 13 14  1  0  0  0  0
M  END
>  <CHROM.1>
-179.18770248,-177.25956570,166.89015008,117.51303174,163.59843067,-175.17944334
59.00971827,92.23514147,118.27686373,74.34637463,168.83712822,45.48576568
4.65869490,18.09403358,1.55877992,1.37316147,-2.95687497

>  <Name>
ligand

>  <RI>
0

>  <Rbt.Current_Directory>
/home/itssahil/PROJECTS/Mol_Feturizer/New_Systems/rnas/1TN1

>  <Rbt.Executable>
rbdock ($Id: //depot/dev/client3/rdock/2013.1/src/exe/rbdock.cxx#4 $)

>  <Rbt.Library>
libRbt.so (2013.1, Build901 2013/11/27)

>  <Rbt.Parameter_File>
/export/apps/rDock/src/rDock_2013.1_src/data/scripts/dock_solv.prm

>  <Rbt.Receptor>
prm/pocket_docking_2.prm

>  <SCORE>
-4.58079

>  <SCORE.INTER>
-3.99053

>  <SCORE.INTER.CONST>
1

>  <SCORE.INTER.POLAR>
0

>  <SCORE.INTER.ROT>
11

>  <SCORE.INTER.SOLV>
14.4707

>  <SCORE.INTER.VDW>
-18.4173

>  <SCORE.INTER.norm>
-0.285038

>  <SCORE.INTRA>
-0.731851

>  <SCORE.INTRA.DIHEDRAL>
-2.30721

>  <SCORE.INTRA.DIHEDRAL.0>
7.79482

>  <SCORE.INTRA.POLAR>
0

>  <SCORE.INTRA.POLAR.0>
0

>  <SCORE.INTRA.REPUL>
0

>  <SCORE.INTRA.REPUL.0>
0

>  <SCORE.INTRA.SOLV>
0.667658

>  <SCORE.INTRA.SOLV.lig_0>
-49.456

>  <SCORE.INTRA.VDW>
0.0879242

>  <SCORE.INTRA.VDW.0>
-0.478406

>  <SCORE.INTRA.norm>
-0.0522751

>  <SCORE.RESTR>
0.141586

>  <SCORE.RESTR.CAVITY>
0.141586

>  <SCORE.RESTR.norm>
0.0101133

>  <SCORE.SYSTEM>
0

>  <SCORE.SYSTEM.CONST>
0

>  <SCORE.SYSTEM.DIHEDRAL>
0

>  <SCORE.SYSTEM.SOLV>
0

>  <SCORE.SYSTEM.norm>
0

>  <SCORE.heavy>
14

>  <SCORE.norm>
-0.327199

>  <RMSD>
2.180

$$$$
ligand
 OpenBabel11021811413D
libRbt.so/2013.1/901 2013/11/27
 14 13  0  0  0  0  0  0  0  0999 V2000
   41.6633   11.2773   18.1803 N   0  0  0  0  0  0  0  0  0  0  0  0
   42.0686   10.1271   19.0168 C   0  0  0  0  0  0  0  0  0  0  0  0
   43.5224    9.7029   18.7157 C   0  0  0  0  0  0  0  0  0  0  0  0
   44.0509    8.5594   19.5971 C   0  0  0  0  0  0  0  0  0  0  0  0
   45.4369    8.1808   19.2071 N   0  0  0  0  0  0  0  0  0  0  0  0
   46.1166    7.4903   20.3332 C   0  0  0  0  0  0  0  0  0  0  0  0
   45.5189    6.0996   20.7339 C   0  0  0  0  0  0  0  0  0  0  0  0
   45.4547    5.0752   19.5647 C   0  0  0  0  0  0  0  0  0  0  0  0
   44.7263    3.7912   19.9106 C   0  0  0  0  0  0  0  0  0  0  0  0
   44.5454    3.0437   18.6806 N   0  0  0  0  0  0  0  0  0  0  0  0
   45.2944    1.8108   18.8503 C   0  0  0  0  0  0  0  0  0  0  0  0
   46.6860    1.9149   18.2373 C   0  0  0  0  0  0  0  0  0  0  0  0
   46.5129    2.1692   16.7321 C   0  0  0  0  0  0  0  0  0  0  0  0
   45.8604    1.0417   16.0497 N   0  0  0  0  0  0  0  0  0  0  0  0
  1  2  1  0  0  0  0
  2  3  1  0  0  0  0
  3  4  1  0  0  0  0
  4  5  1  0  0  0  0
  5  6  1  0  0  0  0
  6  7  1  0  0  0  0
  7  8  1  0  0  0  0
  8  9  1  0  0  0  0
  9 10  1  0  0  0  0
 10 11  1  0  0  0  0
 11 12  1  0  0  0  0
 12 13  1  0  0  0  0
 13 14  1  0  0  0  0
M  END
>  <CHROM.1>
176.86587958,177.88184357,158.25327200,65.87037110,56.12667308,-173.06201151
170.36196773,116.89706682,-95.88260929,-61.46411603,-64.13159810,44.81859264
5.73452052,18.84386170,2.12886566,-0.90585192,0.60942436

>  <Name>
ligand

>  <RI>
0

>  <Rbt.Current_Directory>
/home/itssahil/PROJECTS/Mol_Feturizer/New_Systems/rnas/1TN1

>  <Rbt.Executable>
rbdock ($Id: //depot/dev/client3/rdock/2013.1/src/exe/rbdock.cxx#4 $)

>  <Rbt.Library>
libRbt.so (2013.1, Build901 2013/11/27)

>  <Rbt.Parameter_File>
/export/apps/rDock/src/rDock_2013.1_src/data/scripts/dock_solv.prm

>  <Rbt.Receptor>
prm/pocket_docking_3.prm

>  <SCORE>
-8.4004

>  <SCORE.INTER>
-7.56475

>  <SCORE.INTER.CONST>
1

>  <SCORE.INTER.POLAR>
0

>  <SCORE.INTER.ROT>
11

>  <SCORE.INTER.SOLV>
16.3444

>  <SCORE.INTER.VDW>
-21.4246

>  <SCORE.INTER.norm>
-0.540339

>  <SCORE.INTRA>
-0.835648

>  <SCORE.INTRA.DIHEDRAL>
-4.7172

>  <SCORE.INTRA.DIHEDRAL.0>
7.79482

>  <SCORE.INTRA.POLAR>
0

>  <SCORE.INTRA.POLAR.0>
0

>  <SCORE.INTRA.REPUL>
0

>  <SCORE.INTRA.REPUL.0>
0

>  <SCORE.INTRA.SOLV>
2.24741

>  <SCORE.INTRA.SOLV.lig_0>
-49.456

>  <SCORE.INTRA.VDW>
0.399251

>  <SCORE.INTRA.VDW.0>
-0.478406

>  <SCORE.INTRA.norm>
-0.0596891

>  <SCORE.RESTR>
0

>  <SCORE.RESTR.CAVITY>
0

>  <SCORE.RESTR.norm>
0

>  <SCORE.SYSTEM>
0

>  <SCORE.SYSTEM.CONST>
0

>  <SCORE.SYSTEM.DIHEDRAL>
0

>  <SCORE.SYSTEM.SOLV>
0

>  <SCORE.SYSTEM.norm>
0

>  <SCORE.heavy>
14

>  <SCORE.norm>
-0.600029

>  <RMSD>
2.195

$$$$
ligand
 OpenBabel11021811413D
libRbt.so/2013.1/901 2013/11/27
 14 13  0  0  0  0  0  0  0  0999 V2000
   46.8425    2.2847   15.5369 N   0  0  0  0  0  0  0  0  0  0  0  0
   46.1332    3.0488   16.5858 C   0  0  0  0  0  0  0  0  0  0  0  0
   46.4300    2.4778   17.9893 C   0  0  0  0  0  0  0  0  0  0  0  0
   45.6934    3.1870   19.1376 C   0  0  0  0  0  0  0  0  0  0  0  0
   46.0982    4.6168   19.2296 N   0  0  0  0  0  0  0  0  0  0  0  0
   45.5763    5.2183   20.4837 C   0  0  0  0  0  0  0  0  0  0  0  0
   45.3435    6.7664   20.4458 C   0  0  0  0  0  0  0  0  0  0  0  0
   46.6186    7.5924   20.1106 C   0  0  0  0  0  0  0  0  0  0  0  0
   46.3742    9.0848   20.0019 C   0  0  0  0  0  0  0  0  0  0  0  0
   45.4929    9.3045   18.8708 N   0  0  0  0  0  0  0  0  0  0  0  0
   46.3561    9.6497   17.7549 C   0  0  0  0  0  0  0  0  0  0  0  0
   45.5555   10.1976   16.5792 C   0  0  0  0  0  0  0  0  0  0  0  0
   44.9803   11.5578   17.0023 C   0  0  0  0  0  0  0  0  0  0  0  0
   44.2110   12.1955   15.9233 N   0  0  0  0  0  0  0  0  0  0  0  0
  1  2  1  0  0  0  0
  2  3  1  0  0  0  0
  3  4  1  0  0  0  0
  4  5  1  0  0  0  0
  5  6  1  0  0  0  0
  6  7  1  0  0  0  0
  7  8  1  0  0  0  0
  8  9  1  0  0  0  0
  9 10  1  0  0  0  0
 10 11  1  0  0  0  0
 11 12  1  0  0  0  0
 12 13  1  0  0  0  0
 13 14  1  0  0  0  0
M  END
>  <CHROM.1>
-178.08499369,-62.18433263,-169.60328019,-153.62109978,-58.41316632,176.91201844
-64.67951573,-96.90758261,-167.75973402,67.85379094,178.60962834,45.83620666
6.94151184,18.26119510,0.23827723,1.44184991,-1.87864403

>  <Name>
ligand

>  <RI>
0

>  <Rbt.Current_Directory>
/home/itssahil/PROJECTS/Mol_Feturizer/New_Systems/rnas/1TN1

>  <Rbt.Executable>
rbdock ($Id: //depot/dev/client3/rdock/2013.1/src/exe/rbdock.cxx#4 $)

>  <Rbt.Library>
libRbt.so (2013.1, Build901 2013/11/27)

>  <Rbt.Parameter_File>
/export/apps/rDock/src/rDock_2013.1_src/data/scripts/dock_solv.prm

>  <Rbt.Receptor>
prm/pocket_docking_4.prm

>  <SCORE>
-7.17738

>  <SCORE.INTER>
-4.71972

>  <SCORE.INTER.CONST>
1

>  <SCORE.INTER.POLAR>
0

>  <SCORE.INTER.ROT>
11

>  <SCORE.INTER.SOLV>
10.5402

>  <SCORE.INTER.VDW>
-17.5932

>  <SCORE.INTER.norm>
-0.337123

>  <SCORE.INTRA>
-2.45766

>  <SCORE.INTRA.DIHEDRAL>
-5.88863

>  <SCORE.INTRA.DIHEDRAL.0>
7.79482

>  <SCORE.INTRA.POLAR>
0

>  <SCORE.INTRA.POLAR.0>
0

>  <SCORE.INTRA.REPUL>
0

>  <SCORE.INTRA.REPUL.0>
0

>  <SCORE.INTRA.SOLV>
1.40446

>  <SCORE.INTRA.SOLV.lig_0>
-49.456

>  <SCORE.INTRA.VDW>
-0.215571

>  <SCORE.INTRA.VDW.0>
-0.478406

>  <SCORE.INTRA.norm>
-0.175547

>  <SCORE.RESTR>
0

>  <SCORE.RESTR.CAVITY>
0

>  <SCORE.RESTR.norm>
0

>  <SCORE.SYSTEM>
0

>  <SCORE.SYSTEM.CONST>
0

>  <SCORE.SYSTEM.DIHEDRAL>
0

>  <SCORE.SYSTEM.SOLV>
0

>  <SCORE.SYSTEM.norm>
0

>  <SCORE.heavy>
14

>  <SCORE.norm>
-0.51267

>  <RMSD>
2.196

$$$$
ligand
 OpenBabel11021811413D
libRbt.so/2013.1/901 2013/11/27
 14 13  0  0  0  0  0  0  0  0999 V2000
   45.8689    1.2070   16.1696 N   0  0  0  0  0  0  0  0  0  0  0  0
   45.7095    0.5800   17.4995 C   0  0  0  0  0  0  0  0  0  0  0  0
   45.0474    1.5527   18.4993 C   0  0  0  0  0  0  0  0  0  0  0  0
   45.8871    2.7965   18.8335 C   0  0  0  0  0  0  0  0  0  0  0  0
   45.1532    3.7043   19.7574 N   0  0  0  0  0  0  0  0  0  0  0  0
   46.0804    4.7151   20.3279 C   0  0  0  0  0  0  0  0  0  0  0  0
   45.4110    6.0358   20.8378 C   0  0  0  0  0  0  0  0  0  0  0  0
   44.7332    6.8774   19.7185 C   0  0  0  0  0  0  0  0  0  0  0  0
   43.9703    8.0831   20.2315 C   0  0  0  0  0  0  0  0  0  0  0  0
   43.4125    8.7714   19.0829 N   0  0  0  0  0  0  0  0  0  0  0  0
   44.2933    9.8977   18.8274 C   0  0  0  0  0  0  0  0  0  0  0  0
   43.7283   10.8140   17.7484 C   0  0  0  0  0  0  0  0  0  0  0  0
   42.4107   11.3992   18.2788 C   0  0  0  0  0  0  0  0  0  0  0  0
   41.8205   12.3727   17.3479 N   0  0  0  0  0  0  0  0  0  0  0  0
  1  2  1  0  0  0  0
  2  3  1  0  0  0  0
  3  4  1  0  0  0  0
  4  5  1  0  0  0  0
  5  6  1  0  0  0  0
  6  7  1  0  0  0  0
  7  8  1  0  0  0  0
  8  9  1  0  0  0  0
  9 10  1  0  0  0  0
 10 11  1  0  0  0  0
 11 12  1  0  0  0  0
 12 13  1  0  0  0  0
 13 14  1  0  0  0  0
M  END
>  <CHROM.1>
-65.11686173,177.67847807,166.25489713,156.78129623,-64.33942761,174.31140544
179.33363180,-100.62081709,-172.85904327,63.46961768,176.22446921,44.53778489
6.34326960,18.79745337,0.76513505,1.16558182,-2.36338888

>  <Name>
ligand

>  <RI>
0

>  <Rbt.Current_Directory>
/home/itssahil/PROJECTS/Mol_Feturizer/New_Systems/rnas/1TN1

>  <Rbt.Executable>
rbdock ($Id: //depot/dev/client3/rdock/2013.1/src/exe/rbdock.cxx#4 $)

>  <Rbt.Library>
libRbt.so (2013.1, Build901 2013/11/27)

>  <Rbt.Parameter_File>
/export/apps/rDock/src/rDock_2013.1_src/data/scripts/dock_solv.prm

>  <Rbt.Receptor>
prm/pocket_docking_5.prm

>  <SCORE>
-8.44818

>  <SCORE.INTER>
-5.8865

>  <SCORE.INTER.CONST>
1

>  <SCORE.INTER.POLAR>
0

>  <SCORE.INTER.ROT>
11

>  <SCORE.INTER.SOLV>
16.3538

>  <SCORE.INTER.VDW>
-20.3089

>  <SCORE.INTER.norm>
-0.420464

>  <SCORE.INTRA>
-2.56168

>  <SCORE.INTRA.DIHEDRAL>
-5.87107

>  <SCORE.INTRA.DIHEDRAL.0>
7.79482

>  <SCORE.INTRA.POLAR>
0

>  <SCORE.INTRA.POLAR.0>
0

>  <SCORE.INTRA.REPUL>
0

>  <SCORE.INTRA.REPUL.0>
0

>  <SCORE.INTRA.SOLV>
1.39038

>  <SCORE.INTRA.SOLV.lig_0>
-49.456

>  <SCORE.INTRA.VDW>
-0.321334

>  <SCORE.INTRA.VDW.0>
-0.478406

>  <SCORE.INTRA.norm>
-0.182977

>  <SCORE.RESTR>
0

>  <SCORE.RESTR.CAVITY>
0

>  <SCORE.RESTR.norm>
0

>  <SCORE.SYSTEM>
0

>  <SCORE.SYSTEM.CONST>
0

>  <SCORE.SYSTEM.DIHEDRAL>
0

>  <SCORE.SYSTEM.SOLV>
0

>  <SCORE.SYSTEM.norm>
0

>  <SCORE.heavy>
14

>  <SCORE.norm>
-0.603441

>  <RMSD>
2.211

$$$$
ligand
 OpenBabel11021811413D
libRbt.so/2013.1/901 2013/11/27
 14 13  0  0  0  0  0  0  0  0999 V2000
   44.9709    1.0537   16.1451 N   0  0  0  0  0  0  0  0  0  0  0  0
   44.6168    1.0380   17.5809 C   0  0  0  0  0  0  0  0  0  0  0  0
   45.8523    1.3186   18.4634 C   0  0  0  0  0  0  0  0  0  0  0  0
   46.4558    2.7223   18.2917 C   0  0  0  0  0  0  0  0  0  0  0  0
   45.5853    3.7579   18.9129 N   0  0  0  0  0  0  0  0  0  0  0  0
   46.2430    4.3262   20.1176 C   0  0  0  0  0  0  0  0  0  0  0  0
   45.3071    5.1244   21.0866 C   0  0  0  0  0  0  0  0  0  0  0  0
   44.8130    6.4845   20.5153 C   0  0  0  0  0  0  0  0  0  0  0  0
   45.9212    7.4919   20.2791 C   0  0  0  0  0  0  0  0  0  0  0  0
   45.3169    8.6877   19.7232 N   0  0  0  0  0  0  0  0  0  0  0  0
   46.3858    9.6665   19.6277 C   0  0  0  0  0  0  0  0  0  0  0  0
   46.5239   10.2049   18.2085 C   0  0  0  0  0  0  0  0  0  0  0  0
   45.2559   11.0125   17.8923 C   0  0  0  0  0  0  0  0  0  0  0  0
   45.2926   11.5991   16.5443 N   0  0  0  0  0  0  0  0  0  0  0  0
  1  2  1  0  0  0  0
  2  3  1  0  0  0  0
  3  4  1  0  0  0  0
  4  5  1  0  0  0  0
  5  6  1  0  0  0  0
  6  7  1  0  0  0  0
  7  8  1  0  0  0  0
  8  9  1  0  0  0  0
  9 10  1  0  0  0  0
 10 11  1  0  0  0  0
 11 12  1  0  0  0  0
 12 13  1  0  0  0  0
 13 14  1  0  0  0  0
M  END
>  <CHROM.1>
64.68295162,72.70514513,110.61581143,-163.88423984,-70.08656672,-64.40987454
178.76381792,174.87571310,124.73681260,66.73427172,179.12576194,45.61017662
6.03476080,18.81386087,1.90603384,1.47142963,2.85132696

>  <Name>
ligand

>  <RI>
0

>  <Rbt.Current_Directory>
/home/itssahil/PROJECTS/Mol_Feturizer/New_Systems/rnas/1TN1

>  <Rbt.Executable>
rbdock ($Id: //depot/dev/client3/rdock/2013.1/src/exe/rbdock.cxx#4 $)

>  <Rbt.Library>
libRbt.so (2013.1, Build901 2013/11/27)

>  <Rbt.Parameter_File>
/export/apps/rDock/src/rDock_2013.1_src/data/scripts/dock_solv.prm

>  <Rbt.Receptor>
prm/pocket_docking_5.prm

>  <SCORE>
-8.91954

>  <SCORE.INTER>
-7.75185

>  <SCORE.INTER.CONST>
1

>  <SCORE.INTER.POLAR>
0

>  <SCORE.INTER.ROT>
11

>  <SCORE.INTER.SOLV>
10.9267

>  <SCORE.INTER.VDW>
-19.7435

>  <SCORE.INTER.norm>
-0.553704

>  <SCORE.INTRA>
-1.16769

>  <SCORE.INTRA.DIHEDRAL>
-3.95465

>  <SCORE.INTRA.DIHEDRAL.0>
7.79482

>  <SCORE.INTRA.POLAR>
0

>  <SCORE.INTRA.POLAR.0>
0

>  <SCORE.INTRA.REPUL>
0

>  <SCORE.INTRA.REPUL.0>
0

>  <SCORE.INTRA.SOLV>
2.38806

>  <SCORE.INTRA.SOLV.lig_0>
-49.456

>  <SCORE.INTRA.VDW>
-0.384393

>  <SCORE.INTRA.VDW.0>
-0.478406

>  <SCORE.INTRA.norm>
-0.0834063

>  <SCORE.RESTR>
0

>  <SCORE.RESTR.CAVITY>
0

>  <SCORE.RESTR.norm>
0

>  <SCORE.SYSTEM>
0

>  <SCORE.SYSTEM.CONST>
0

>  <SCORE.SYSTEM.DIHEDRAL>
0

>  <SCORE.SYSTEM.SOLV>
0

>  <SCORE.SYSTEM.norm>
0

>  <SCORE.heavy>
14

>  <SCORE.norm>
-0.63711

>  <RMSD>
2.245

$$$$
ligand
 OpenBabel11021811413D
libRbt.so/2013.1/901 2013/11/27
 14 13  0  0  0  0  0  0  0  0999 V2000
   45.2120    0.1184   15.7501 N   0  0  0  0  0  0  0  0  0  0  0  0
   45.4276    0.4938   17.1642 C   0  0  0  0  0  0  0  0  0  0  0  0
   45.5290    2.0260   17.3255 C   0  0  0  0  0  0  0  0  0  0  0  0
   45.8569    2.4989   18.7513 C   0  0  0  0  0  0  0  0  0  0  0  0
   45.9096    3.9851   18.8225 N   0  0  0  0  0  0  0  0  0  0  0  0
   45.9479    4.4302   20.2392 C   0  0  0  0  0  0  0  0  0  0  0  0
   45.8894    5.9788   20.4638 C   0  0  0  0  0  0  0  0  0  0  0  0
   44.5657    6.6406   19.9840 C   0  0  0  0  0  0  0  0  0  0  0  0
   44.5397    8.1485   20.1397 C   0  0  0  0  0  0  0  0  0  0  0  0
   43.2591    8.6192   19.6468 N   0  0  0  0  0  0  0  0  0  0  0  0
   43.5550    9.7544   18.7905 C   0  0  0  0  0  0  0  0  0  0  0  0
   42.3076   10.5863   18.5163 C   0  0  0  0  0  0  0  0  0  0  0  0
   42.7136   11.7405   17.5874 C   0  0  0  0  0  0  0  0  0  0  0  0
   41.5863   12.6369   17.2898 N   0  0  0  0  0  0  0  0  0  0  0  0
  1  2  1  0  0  0  0
  2  3  1  0  0  0  0
  3  4  1  0  0  0  0
  4  5  1  0  0  0  0
  5  6  1  0  0  0  0
  6  7  1  0  0  0  0
  7  8  1  0  0  0  0
  8  9  1  0  0  0  0
  9 10  1  0  0  0  0
 10 11  1  0  0  0  0
 11 12  1  0  0  0  0
 12 13  1  0  0  0  0
 13 14  1  0  0  0  0
M  END
>  <CHROM.1>
-175.71459620,-178.90660769,168.40910303,-175.29634757,63.67988029,-177.12693276
179.62382916,-133.44996270,-164.00565302,-178.96306336,-178.20533359,44.45014940
6.26120747,18.60538023,0.95025720,1.02416168,-2.51540836

>  <Name>
ligand

>  <RI>
0

>  <Rbt.Current_Directory>
/home/itssahil/PROJECTS/Mol_Feturizer/New_Systems/rnas/1TN1

>  <Rbt.Executable>
rbdock ($Id: //depot/dev/client3/rdock/2013.1/src/exe/rbdock.cxx#4 $)

>  <Rbt.Library>
libRbt.so (2013.1, Build901 2013/11/27)

>  <Rbt.Parameter_File>
/export/apps/rDock/src/rDock_2013.1_src/data/scripts/dock_solv.prm

>  <Rbt.Receptor>
prm/pocket_docking_5.prm

>  <SCORE>
-10.819

>  <SCORE.INTER>
-7.02809

>  <SCORE.INTER.CONST>
1

>  <SCORE.INTER.POLAR>
0

>  <SCORE.INTER.ROT>
11

>  <SCORE.INTER.SOLV>
17.6509

>  <SCORE.INTER.VDW>
-21.5023

>  <SCORE.INTER.norm>
-0.502006

>  <SCORE.INTRA>
-3.79087

>  <SCORE.INTRA.DIHEDRAL>
-6.23779

>  <SCORE.INTRA.DIHEDRAL.0>
7.79482

>  <SCORE.INTRA.POLAR>
0

>  <SCORE.INTRA.POLAR.0>
0

>  <SCORE.INTRA.REPUL>
0

>  <SCORE.INTRA.REPUL.0>
0

>  <SCORE.INTRA.SOLV>
0.276322

>  <SCORE.INTRA.SOLV.lig_0>
-49.456

>  <SCORE.INTRA.VDW>
-0.810139

>  <SCORE.INTRA.VDW.0>
-0.478406

>  <SCORE.INTRA.norm>
-0.270777

>  <SCORE.RESTR>
0

>  <SCORE.RESTR.CAVITY>
0

>  <SCORE.RESTR.norm>
0

>  <SCORE.SYSTEM>
0

>  <SCORE.SYSTEM.CONST>
0

>  <SCORE.SYSTEM.DIHEDRAL>
0

>  <SCORE.SYSTEM.SOLV>
0

>  <SCORE.SYSTEM.norm>
0

>  <SCORE.heavy>
14

>  <SCORE.norm>
-0.772783

>  <RMSD>
2.246

$$$$
ligand
 OpenBabel11021811413D
libRbt.so/2013.1/901 2013/11/27
 14 13  0  0  0  0  0  0  0  0999 V2000
   46.2332   11.9942   18.5560 N   0  0  0  0  0  0  0  0  0  0  0  0
   46.1465   10.9579   17.5045 C   0  0  0  0  0  0  0  0  0  0  0  0
   45.2975    9.7566   17.9737 C   0  0  0  0  0  0  0  0  0  0  0  0
   45.8802    8.9908   19.1729 C   0  0  0  0  0  0  0  0  0  0  0  0
   45.0433    7.8061   19.5081 N   0  0  0  0  0  0  0  0  0  0  0  0
   45.6861    7.0121   20.5866 C   0  0  0  0  0  0  0  0  0  0  0  0
   45.4756    5.4626   20.5035 C   0  0  0  0  0  0  0  0  0  0  0  0
   46.1526    4.7948   19.2722 C   0  0  0  0  0  0  0  0  0  0  0  0
   45.8456    3.3171   19.1271 C   0  0  0  0  0  0  0  0  0  0  0  0
   46.5833    2.8258   17.9787 N   0  0  0  0  0  0  0  0  0  0  0  0
   45.8978    1.6183   17.5522 C   0  0  0  0  0  0  0  0  0  0  0  0
   45.0016    1.8817   16.3477 C   0  0  0  0  0  0  0  0  0  0  0  0
   44.3851    0.5397   15.9248 C   0  0  0  0  0  0  0  0  0  0  0  0
   45.3959   -0.4011   15.4188 N   0  0  0  0  0  0  0  0  0  0  0  0
  1  2  1  0  0  0  0
  2  3  1  0  0  0  0
  3  4  1  0  0  0  0
  4  5  1  0  0  0  0
  5  6  1  0  0  0  0
  6  7  1  0  0  0  0
  7  8  1  0  0  0  0
  8  9  1  0  0  0  0
  9 10  1  0  0  0  0
 10 11  1  0  0  0  0
 11 12  1  0  0  0  0
 12 13  1  0  0  0  0
 13 14  1  0  0  0  0
M  END
>  <CHROM.1>
-63.50839217,-176.70316524,174.90480057,-146.02156559,66.11828064,-174.88003583
-177.68458460,-158.17223868,100.80708738,176.89914092,-66.14213845,45.64451942
5.46829463,18.24493068,1.05850816,-1.46643810,-0.28660769

>  <Name>
ligand

>  <RI>
0

>  <Rbt.Current_Directory>
/home/itssahil/PROJECTS/Mol_Feturizer/New_Systems/rnas/1TN1

>  <Rbt.Executable>
rbdock ($Id: //depot/dev/client3/rdock/2013.1/src/exe/rbdock.cxx#4 $)

>  <Rbt.Library>
libRbt.so (2013.1, Build901 2013/11/27)

>  <Rbt.Parameter_File>
/export/apps/rDock/src/rDock_2013.1_src/data/scripts/dock_solv.prm

>  <Rbt.Receptor>
prm/pocket_docking_3.prm

>  <SCORE>
-6.44699

>  <SCORE.INTER>
-4.19972

>  <SCORE.INTER.CONST>
1

>  <SCORE.INTER.POLAR>
0

>  <SCORE.INTER.ROT>
11

>  <SCORE.INTER.SOLV>
11.7492

>  <SCORE.INTER.VDW>
-17.6496

>  <SCORE.INTER.norm>
-0.29998

>  <SCORE.INTRA>
-2.24727

>  <SCORE.INTRA.DIHEDRAL>
-5.24156

>  <SCORE.INTRA.DIHEDRAL.0>
7.79482

>  <SCORE.INTRA.POLAR>
0

>  <SCORE.INTRA.POLAR.0>
0

>  <SCORE.INTRA.REPUL>
0

>  <SCORE.INTRA.REPUL.0>
0

>  <SCORE.INTRA.SOLV>
1.78362

>  <SCORE.INTRA.SOLV.lig_0>
-49.456

>  <SCORE.INTRA.VDW>
-0.518293

>  <SCORE.INTRA.VDW.0>
-0.478406

>  <SCORE.INTRA.norm>
-0.160519

>  <SCORE.RESTR>
0

>  <SCORE.RESTR.CAVITY>
0

>  <SCORE.RESTR.norm>
0

>  <SCORE.SYSTEM>
0

>  <SCORE.SYSTEM.CONST>
0

>  <SCORE.SYSTEM.DIHEDRAL>
0

>  <SCORE.SYSTEM.SOLV>
0

>  <SCORE.SYSTEM.norm>
0

>  <SCORE.heavy>
14

>  <SCORE.norm>
-0.460499

>  <RMSD>
2.251

$$$$
ligand
 OpenBabel11021811413D
libRbt.so/2013.1/901 2013/11/27
 14 13  0  0  0  0  0  0  0  0999 V2000
   46.1141   -1.2198   15.3196 N   0  0  0  0  0  0  0  0  0  0  0  0
   45.2821    0.0026   15.3443 C   0  0  0  0  0  0  0  0  0  0  0  0
   44.7057    0.2569   16.7539 C   0  0  0  0  0  0  0  0  0  0  0  0
   45.7554    0.6104   17.8202 C   0  0  0  0  0  0  0  0  0  0  0  0
   46.2198    2.0166   17.6675 N   0  0  0  0  0  0  0  0  0  0  0  0
   45.5269    2.8951   18.6447 C   0  0  0  0  0  0  0  0  0  0  0  0
   46.1550    4.3160   18.8413 C   0  0  0  0  0  0  0  0  0  0  0  0
   45.4201    5.1951   19.8936 C   0  0  0  0  0  0  0  0  0  0  0  0
   46.0832    6.5348   20.1476 C   0  0  0  0  0  0  0  0  0  0  0  0
   46.0271    7.2940   18.9127 N   0  0  0  0  0  0  0  0  0  0  0  0
   47.0128    8.3518   19.0507 C   0  0  0  0  0  0  0  0  0  0  0  0
   46.8458    9.4140   17.9705 C   0  0  0  0  0  0  0  0  0  0  0  0
   45.5221   10.1459   18.2390 C   0  0  0  0  0  0  0  0  0  0  0  0
   45.2765   11.2236   17.2690 N   0  0  0  0  0  0  0  0  0  0  0  0
  1  2  1  0  0  0  0
  2  3  1  0  0  0  0
  3  4  1  0  0  0  0
  4  5  1  0  0  0  0
  5  6  1  0  0  0  0
  6  7  1  0  0  0  0
  7  8  1  0  0  0  0
  8  9  1  0  0  0  0
  9 10  1  0  0  0  0
 10 11  1  0  0  0  0
 11 12  1  0  0  0  0
 12 13  1  0  0  0  0
 13 14  1  0  0  0  0
M  END
>  <CHROM.1>
66.88022389,76.09497541,99.84224530,165.68358115,-178.77536611,176.21393705
63.78516824,-162.31026007,-166.97357525,68.02452333,178.49712577,45.85330826
4.78832436,17.99132667,2.02331997,1.46292628,2.89349039

>  <Name>
ligand

>  <RI>
0

>  <Rbt.Current_Directory>
/home/itssahil/PROJECTS/Mol_Feturizer/New_Systems/rnas/1TN1

>  <Rbt.Executable>
rbdock ($Id: //depot/dev/client3/rdock/2013.1/src/exe/rbdock.cxx#4 $)

>  <Rbt.Library>
libRbt.so (2013.1, Build901 2013/11/27)

>  <Rbt.Parameter_File>
/export/apps/rDock/src/rDock_2013.1_src/data/scripts/dock_solv.prm

>  <Rbt.Receptor>
prm/pocket_docking_2.prm

>  <SCORE>
-5.50073

>  <SCORE.INTER>
-3.63879

>  <SCORE.INTER.CONST>
1

>  <SCORE.INTER.POLAR>
0

>  <SCORE.INTER.ROT>
11

>  <SCORE.INTER.SOLV>
11.7088

>  <SCORE.INTER.VDW>
-17.2621

>  <SCORE.INTER.norm>
-0.259913

>  <SCORE.INTRA>
-1.95751

>  <SCORE.INTRA.DIHEDRAL>
-4.89575

>  <SCORE.INTRA.DIHEDRAL.0>
7.79482

>  <SCORE.INTRA.POLAR>
0

>  <SCORE.INTRA.POLAR.0>
0

>  <SCORE.INTRA.REPUL>
0

>  <SCORE.INTRA.REPUL.0>
0

>  <SCORE.INTRA.SOLV>
2.05907

>  <SCORE.INTRA.SOLV.lig_0>
-49.456

>  <SCORE.INTRA.VDW>
-0.539169

>  <SCORE.INTRA.VDW.0>
-0.478406

>  <SCORE.INTRA.norm>
-0.139822

>  <SCORE.RESTR>
0.0955713

>  <SCORE.RESTR.CAVITY>
0.0955713

>  <SCORE.RESTR.norm>
0.00682652

>  <SCORE.SYSTEM>
0

>  <SCORE.SYSTEM.CONST>
0

>  <SCORE.SYSTEM.DIHEDRAL>
0

>  <SCORE.SYSTEM.SOLV>
0

>  <SCORE.SYSTEM.norm>
0

>  <SCORE.heavy>
14

>  <SCORE.norm>
-0.392909

>  <RMSD>
2.254

$$$$
ligand
 OpenBabel11021811413D
libRbt.so/2013.1/901 2013/11/27
 14 13  0  0  0  0  0  0  0  0999 V2000
   45.1765    0.0215   15.7710 N   0  0  0  0  0  0  0  0  0  0  0  0
   45.4403    0.4171   17.1713 C   0  0  0  0  0  0  0  0  0  0  0  0
   45.5042    1.9532   17.3146 C   0  0  0  0  0  0  0  0  0  0  0  0
   45.7880    2.4515   18.7412 C   0  0  0  0  0  0  0  0  0  0  0  0
   45.7613    3.9387   18.8029 N   0  0  0  0  0  0  0  0  0  0  0  0
   46.1393    4.4030   20.1625 C   0  0  0  0  0  0  0  0  0  0  0  0
   45.8227    5.9039   20.4774 C   0  0  0  0  0  0  0  0  0  0  0  0
   46.4748    6.9117   19.4876 C   0  0  0  0  0  0  0  0  0  0  0  0
   46.1461    8.3625   19.7808 C   0  0  0  0  0  0  0  0  0  0  0  0
   46.6447    9.1581   18.6750 N   0  0  0  0  0  0  0  0  0  0  0  0
   46.0722   10.4818   18.8471 C   0  0  0  0  0  0  0  0  0  0  0  0
   46.0799   11.2670   17.5407 C   0  0  0  0  0  0  0  0  0  0  0  0
   47.5461   11.4745   17.1318 C   0  0  0  0  0  0  0  0  0  0  0  0
   47.6710   12.2245   15.8730 N   0  0  0  0  0  0  0  0  0  0  0  0
  1  2  1  0  0  0  0
  2  3  1  0  0  0  0
  3  4  1  0  0  0  0
  4  5  1  0  0  0  0
  5  6  1  0  0  0  0
  6  7  1  0  0  0  0
  7  8  1  0  0  0  0
  8  9  1  0  0  0  0
  9 10  1  0  0  0  0
 10 11  1  0  0  0  0
 11 12  1  0  0  0  0
 12 13  1  0  0  0  0
 13 14  1  0  0  0  0
M  END
>  <CHROM.1>
-179.48736605,-177.00691982,-175.68471510,-165.73150132,-56.90364904,178.96833563
-171.45820299,168.28096966,-159.31918775,-63.53485558,179.87554247,46.16188073
6.35493379,18.27018666,-2.60147314,1.40714798,1.03531275

>  <Name>
ligand

>  <RI>
0

>  <Rbt.Current_Directory>
/home/itssahil/PROJECTS/Mol_Feturizer/New_Systems/rnas/1TN1

>  <Rbt.Executable>
rbdock ($Id: //depot/dev/client3/rdock/2013.1/src/exe/rbdock.cxx#4 $)

>  <Rbt.Library>
libRbt.so (2013.1, Build901 2013/11/27)

>  <Rbt.Parameter_File>
/export/apps/rDock/src/rDock_2013.1_src/data/scripts/dock_solv.prm

>  <Rbt.Receptor>
prm/pocket_docking_6.prm

>  <SCORE>
-8.02343

>  <SCORE.INTER>
-4.38307

>  <SCORE.INTER.CONST>
1

>  <SCORE.INTER.POLAR>
0

>  <SCORE.INTER.ROT>
11

>  <SCORE.INTER.SOLV>
9.7834

>  <SCORE.INTER.VDW>
-17.1165

>  <SCORE.INTER.norm>
-0.313076

>  <SCORE.INTRA>
-3.64036

>  <SCORE.INTRA.DIHEDRAL>
-6.79746

>  <SCORE.INTRA.DIHEDRAL.0>
7.79482

>  <SCORE.INTRA.POLAR>
0

>  <SCORE.INTRA.POLAR.0>
0

>  <SCORE.INTRA.REPUL>
0

>  <SCORE.INTRA.REPUL.0>
0

>  <SCORE.INTRA.SOLV>
0.76655

>  <SCORE.INTRA.SOLV.lig_0>
-49.456

>  <SCORE.INTRA.VDW>
-0.624904

>  <SCORE.INTRA.VDW.0>
-0.478406

>  <SCORE.INTRA.norm>
-0.260026

>  <SCORE.RESTR>
0

>  <SCORE.RESTR.CAVITY>
0

>  <SCORE.RESTR.norm>
0

>  <SCORE.SYSTEM>
0

>  <SCORE.SYSTEM.CONST>
0

>  <SCORE.SYSTEM.DIHEDRAL>
0

>  <SCORE.SYSTEM.SOLV>
0

>  <SCORE.SYSTEM.norm>
0

>  <SCORE.heavy>
14

>  <SCORE.norm>
-0.573102

>  <RMSD>
2.259

$$$$
ligand
 OpenBabel11021811413D
libRbt.so/2013.1/901 2013/11/27
 14 13  0  0  0  0  0  0  0  0999 V2000
   45.1908   -0.1374   15.7585 N   0  0  0  0  0  0  0  0  0  0  0  0
   44.7269    1.2667   15.7793 C   0  0  0  0  0  0  0  0  0  0  0  0
   45.6644    2.1516   16.6291 C   0  0  0  0  0  0  0  0  0  0  0  0
   45.6454    1.8420   18.1350 C   0  0  0  0  0  0  0  0  0  0  0  0
   46.5728    2.7398   18.8768 N   0  0  0  0  0  0  0  0  0  0  0  0
   45.9420    4.0681   19.0881 C   0  0  0  0  0  0  0  0  0  0  0  0
   46.0225    4.6310   20.5471 C   0  0  0  0  0  0  0  0  0  0  0  0
   45.4096    6.0512   20.7146 C   0  0  0  0  0  0  0  0  0  0  0  0
   46.2068    7.1493   20.0382 C   0  0  0  0  0  0  0  0  0  0  0  0
   45.5331    8.4068   20.3008 N   0  0  0  0  0  0  0  0  0  0  0  0
   46.2185    9.4016   19.4945 C   0  0  0  0  0  0  0  0  0  0  0  0
   45.3230    9.9294   18.3797 C   0  0  0  0  0  0  0  0  0  0  0  0
   46.1595   10.8991   17.5313 C   0  0  0  0  0  0  0  0  0  0  0  0
   46.5413   12.1055   18.2807 N   0  0  0  0  0  0  0  0  0  0  0  0
  1  2  1  0  0  0  0
  2  3  1  0  0  0  0
  3  4  1  0  0  0  0
  4  5  1  0  0  0  0
  5  6  1  0  0  0  0
  6  7  1  0  0  0  0
  7  8  1  0  0  0  0
  8  9  1  0  0  0  0
  9 10  1  0  0  0  0
 10 11  1  0  0  0  0
 11 12  1  0  0  0  0
 12 13  1  0  0  0  0
 13 14  1  0  0  0  0
M  END
>  <CHROM.1>
-67.53727092,-179.90401696,79.50256554,131.77243248,177.32881049,-69.36680318
-178.91305759,-172.56053810,112.35082239,-176.32940986,-66.24805615,45.79682620
5.75031881,18.53963537,2.18621288,1.46011990,2.73533200

>  <Name>
ligand

>  <RI>
0

>  <Rbt.Current_Directory>
/home/itssahil/PROJECTS/Mol_Feturizer/New_Systems/rnas/1TN1

>  <Rbt.Executable>
rbdock ($Id: //depot/dev/client3/rdock/2013.1/src/exe/rbdock.cxx#4 $)

>  <Rbt.Library>
libRbt.so (2013.1, Build901 2013/11/27)

>  <Rbt.Parameter_File>
/export/apps/rDock/src/rDock_2013.1_src/data/scripts/dock_solv.prm

>  <Rbt.Receptor>
prm/pocket_docking_8.prm

>  <SCORE>
-6.85615

>  <SCORE.INTER>
-5.53865

>  <SCORE.INTER.CONST>
1

>  <SCORE.INTER.POLAR>
0

>  <SCORE.INTER.ROT>
11

>  <SCORE.INTER.SOLV>
13.0459

>  <SCORE.INTER.VDW>
-18.9744

>  <SCORE.INTER.norm>
-0.395618

>  <SCORE.INTRA>
-1.3175

>  <SCORE.INTRA.DIHEDRAL>
-4.41969

>  <SCORE.INTRA.DIHEDRAL.0>
7.79482

>  <SCORE.INTRA.POLAR>
0

>  <SCORE.INTRA.POLAR.0>
0

>  <SCORE.INTRA.REPUL>
0

>  <SCORE.INTRA.REPUL.0>
0

>  <SCORE.INTRA.SOLV>
1.49884

>  <SCORE.INTRA.SOLV.lig_0>
-49.456

>  <SCORE.INTRA.VDW>
0.142922

>  <SCORE.INTRA.VDW.0>
-0.478406

>  <SCORE.INTRA.norm>
-0.0941074

>  <SCORE.RESTR>
0

>  <SCORE.RESTR.CAVITY>
0

>  <SCORE.RESTR.norm>
0

>  <SCORE.SYSTEM>
0

>  <SCORE.SYSTEM.CONST>
0

>  <SCORE.SYSTEM.DIHEDRAL>
0

>  <SCORE.SYSTEM.SOLV>
0

>  <SCORE.SYSTEM.norm>
0

>  <SCORE.heavy>
14

>  <SCORE.norm>
-0.489725

>  <RMSD>
2.262

$$$$
ligand
 OpenBabel11021811413D
libRbt.so/2013.1/901 2013/11/27
 14 13  0  0  0  0  0  0  0  0999 V2000
   45.0298    1.2181   16.1291 N   0  0  0  0  0  0  0  0  0  0  0  0
   44.7662    0.9035   17.5499 C   0  0  0  0  0  0  0  0  0  0  0  0
   46.0373    1.0868   18.4070 C   0  0  0  0  0  0  0  0  0  0  0  0
   46.5173    2.5417   18.5367 C   0  0  0  0  0  0  0  0  0  0  0  0
   45.6143    3.3253   19.4237 N   0  0  0  0  0  0  0  0  0  0  0  0
   46.2316    4.6347   19.7571 C   0  0  0  0  0  0  0  0  0  0  0  0
   45.2428    5.8455   19.8483 C   0  0  0  0  0  0  0  0  0  0  0  0
   45.9429    7.2296   19.9687 C   0  0  0  0  0  0  0  0  0  0  0  0
   44.9946    8.4091   19.8763 C   0  0  0  0  0  0  0  0  0  0  0  0
   45.7965    9.6179   19.8689 N   0  0  0  0  0  0  0  0  0  0  0  0
   45.5793   10.2317   18.5705 C   0  0  0  0  0  0  0  0  0  0  0  0
   46.3359   11.5487   18.4426 C   0  0  0  0  0  0  0  0  0  0  0  0
   46.1563   12.0498   17.0016 C   0  0  0  0  0  0  0  0  0  0  0  0
   46.7970   11.1611   16.0205 N   0  0  0  0  0  0  0  0  0  0  0  0
  1  2  1  0  0  0  0
  2  3  1  0  0  0  0
  3  4  1  0  0  0  0
  4  5  1  0  0  0  0
  5  6  1  0  0  0  0
  6  7  1  0  0  0  0
  7  8  1  0  0  0  0
  8  9  1  0  0  0  0
  9 10  1  0  0  0  0
 10 11  1  0  0  0  0
 11 12  1  0  0  0  0
 12 13  1  0  0  0  0
 13 14  1  0  0  0  0
M  END
>  <CHROM.1>
67.36160110,72.47807246,168.63959234,142.95340847,-170.58148924,172.50559287
-174.37896804,115.43533483,178.15057706,174.63592267,-65.62762021,45.78867847
6.41456862,18.52892328,-2.25463732,1.47778002,0.68196391

>  <Name>
ligand

>  <RI>
0

>  <Rbt.Current_Directory>
/home/itssahil/PROJECTS/Mol_Feturizer/New_Systems/rnas/1TN1

>  <Rbt.Executable>
rbdock ($Id: //depot/dev/client3/rdock/2013.1/src/exe/rbdock.cxx#4 $)

>  <Rbt.Library>
libRbt.so (2013.1, Build901 2013/11/27)

>  <Rbt.Parameter_File>
/export/apps/rDock/src/rDock_2013.1_src/data/scripts/dock_solv.prm

>  <Rbt.Receptor>
prm/pocket_docking_5.prm

>  <SCORE>
-6.51751

>  <SCORE.INTER>
-5.0193

>  <SCORE.INTER.CONST>
1

>  <SCORE.INTER.POLAR>
0

>  <SCORE.INTER.ROT>
11

>  <SCORE.INTER.SOLV>
10.8386

>  <SCORE.INTER.VDW>
-17.8924

>  <SCORE.INTER.norm>
-0.358521

>  <SCORE.INTRA>
-1.49821

>  <SCORE.INTRA.DIHEDRAL>
-4.01147

>  <SCORE.INTRA.DIHEDRAL.0>
7.79482

>  <SCORE.INTRA.POLAR>
0

>  <SCORE.INTRA.POLAR.0>
0

>  <SCORE.INTRA.REPUL>
0

>  <SCORE.INTRA.REPUL.0>
0

>  <SCORE.INTRA.SOLV>
2.19825

>  <SCORE.INTRA.SOLV.lig_0>
-49.456

>  <SCORE.INTRA.VDW>
-0.591603

>  <SCORE.INTRA.VDW.0>
-0.478406

>  <SCORE.INTRA.norm>
-0.107015

>  <SCORE.RESTR>
0

>  <SCORE.RESTR.CAVITY>
0

>  <SCORE.RESTR.norm>
0

>  <SCORE.SYSTEM>
0

>  <SCORE.SYSTEM.CONST>
0

>  <SCORE.SYSTEM.DIHEDRAL>
0

>  <SCORE.SYSTEM.SOLV>
0

>  <SCORE.SYSTEM.norm>
0

>  <SCORE.heavy>
14

>  <SCORE.norm>
-0.465537

>  <RMSD>
2.274

$$$$
ligand
 OpenBabel11021811413D
libRbt.so/2013.1/901 2013/11/27
 14 13  0  0  0  0  0  0  0  0999 V2000
   43.7695   11.3691   18.2221 N   0  0  0  0  0  0  0  0  0  0  0  0
   42.6468   10.4356   18.4575 C   0  0  0  0  0  0  0  0  0  0  0  0
   43.0320    9.3468   19.4822 C   0  0  0  0  0  0  0  0  0  0  0  0
   44.2839    8.5343   19.1124 C   0  0  0  0  0  0  0  0  0  0  0  0
   44.4299    7.3455   19.9966 N   0  0  0  0  0  0  0  0  0  0  0  0
   45.7477    6.6976   19.7723 C   0  0  0  0  0  0  0  0  0  0  0  0
   45.9955    5.3736   20.5710 C   0  0  0  0  0  0  0  0  0  0  0  0
   45.1116    4.1791   20.1104 C   0  0  0  0  0  0  0  0  0  0  0  0
   45.6683    3.4250   18.9187 C   0  0  0  0  0  0  0  0  0  0  0  0
   44.7363    2.3608   18.5976 N   0  0  0  0  0  0  0  0  0  0  0  0
   45.5361    1.2883   18.0321 C   0  0  0  0  0  0  0  0  0  0  0  0
   44.7787    0.5452   16.9378 C   0  0  0  0  0  0  0  0  0  0  0  0
   45.6311   -0.6629   16.5209 C   0  0  0  0  0  0  0  0  0  0  0  0
   45.1159   -1.3139   15.3070 N   0  0  0  0  0  0  0  0  0  0  0  0
  1  2  1  0  0  0  0
  2  3  1  0  0  0  0
  3  4  1  0  0  0  0
  4  5  1  0  0  0  0
  5  6  1  0  0  0  0
  6  7  1  0  0  0  0
  7  8  1  0  0  0  0
  8  9  1  0  0  0  0
  9 10  1  0  0  0  0
 10 11  1  0  0  0  0
 11 12  1  0  0  0  0
 12 13  1  0  0  0  0
 13 14  1  0  0  0  0
M  END
>  <CHROM.1>
-56.07273817,-168.74672207,-170.98478424,-176.04176482,68.56610073,83.94478287
-179.29720866,-149.84164296,-145.26780953,-173.40759899,-169.65863193,44.74889247
4.92313197,18.57440485,1.88844998,-1.04094850,0.50112163

>  <Name>
ligand

>  <RI>
0

>  <Rbt.Current_Directory>
/home/itssahil/PROJECTS/Mol_Feturizer/New_Systems/rnas/1TN1

>  <Rbt.Executable>
rbdock ($Id: //depot/dev/client3/rdock/2013.1/src/exe/rbdock.cxx#4 $)

>  <Rbt.Library>
libRbt.so (2013.1, Build901 2013/11/27)

>  <Rbt.Parameter_File>
/export/apps/rDock/src/rDock_2013.1_src/data/scripts/dock_solv.prm

>  <Rbt.Receptor>
prm/pocket_docking_3.prm

>  <SCORE>
-9.18339

>  <SCORE.INTER>
-7.62641

>  <SCORE.INTER.CONST>
1

>  <SCORE.INTER.POLAR>
0

>  <SCORE.INTER.ROT>
11

>  <SCORE.INTER.SOLV>
14.8541

>  <SCORE.INTER.VDW>
-20.969

>  <SCORE.INTER.norm>
-0.544743

>  <SCORE.INTRA>
-1.55699

>  <SCORE.INTRA.DIHEDRAL>
-2.90221

>  <SCORE.INTRA.DIHEDRAL.0>
7.79482

>  <SCORE.INTRA.POLAR>
0

>  <SCORE.INTRA.POLAR.0>
0

>  <SCORE.INTRA.REPUL>
0

>  <SCORE.INTRA.REPUL.0>
0

>  <SCORE.INTRA.SOLV>
1.17897

>  <SCORE.INTRA.SOLV.lig_0>
-49.456

>  <SCORE.INTRA.VDW>
-0.695367

>  <SCORE.INTRA.VDW.0>
-0.478406

>  <SCORE.INTRA.norm>
-0.111213

>  <SCORE.RESTR>
0

>  <SCORE.RESTR.CAVITY>
0

>  <SCORE.RESTR.norm>
0

>  <SCORE.SYSTEM>
0

>  <SCORE.SYSTEM.CONST>
0

>  <SCORE.SYSTEM.DIHEDRAL>
0

>  <SCORE.SYSTEM.SOLV>
0

>  <SCORE.SYSTEM.norm>
0

>  <SCORE.heavy>
14

>  <SCORE.norm>
-0.655957

>  <RMSD>
2.280

$$$$
ligand
 OpenBabel11021811413D
libRbt.so/2013.1/901 2013/11/27
 14 13  0  0  0  0  0  0  0  0999 V2000
   45.0445   11.4511   16.9494 N   0  0  0  0  0  0  0  0  0  0  0  0
   44.6876   10.5697   18.0820 C   0  0  0  0  0  0  0  0  0  0  0  0
   45.4948    9.2541   18.0411 C   0  0  0  0  0  0  0  0  0  0  0  0
   45.1575    8.2612   19.1656 C   0  0  0  0  0  0  0  0  0  0  0  0
   45.9731    7.0215   19.0463 N   0  0  0  0  0  0  0  0  0  0  0  0
   45.5446    6.0254   20.0617 C   0  0  0  0  0  0  0  0  0  0  0  0
   46.2017    4.6092   19.9397 C   0  0  0  0  0  0  0  0  0  0  0  0
   45.8946    3.8798   18.6003 C   0  0  0  0  0  0  0  0  0  0  0  0
   46.3472    2.4330   18.5694 C   0  0  0  0  0  0  0  0  0  0  0  0
   46.0829    1.9183   17.2392 N   0  0  0  0  0  0  0  0  0  0  0  0
   44.8386    1.1757   17.3397 C   0  0  0  0  0  0  0  0  0  0  0  0
   44.6646    0.2178   16.1669 C   0  0  0  0  0  0  0  0  0  0  0  0
   45.7684   -0.8458   16.2678 C   0  0  0  0  0  0  0  0  0  0  0  0
   45.9549   -1.5745   15.0041 N   0  0  0  0  0  0  0  0  0  0  0  0
  1  2  1  0  0  0  0
  2  3  1  0  0  0  0
  3  4  1  0  0  0  0
  4  5  1  0  0  0  0
  5  6  1  0  0  0  0
  6  7  1  0  0  0  0
  7  8  1  0  0  0  0
  8  9  1  0  0  0  0
  9 10  1  0  0  0  0
 10 11  1  0  0  0  0
 11 12  1  0  0  0  0
 12 13  1  0  0  0  0
 13 14  1  0  0  0  0
M  END
>  <CHROM.1>
-178.46347989,179.67665083,-174.70227688,172.96340895,-61.44418802,-171.01886291
-176.01633867,-99.27444788,-161.56742773,65.50940009,-162.96302051,45.54669761
4.59969448,17.89128156,1.73260641,-1.32594038,0.34740147

>  <Name>
ligand

>  <RI>
0

>  <Rbt.Current_Directory>
/home/itssahil/PROJECTS/Mol_Feturizer/New_Systems/rnas/1TN1

>  <Rbt.Executable>
rbdock ($Id: //depot/dev/client3/rdock/2013.1/src/exe/rbdock.cxx#4 $)

>  <Rbt.Library>
libRbt.so (2013.1, Build901 2013/11/27)

>  <Rbt.Parameter_File>
/export/apps/rDock/src/rDock_2013.1_src/data/scripts/dock_solv.prm

>  <Rbt.Receptor>
prm/pocket_docking_2.prm

>  <SCORE>
-7.53403

>  <SCORE.INTER>
-5.18049

>  <SCORE.INTER.CONST>
1

>  <SCORE.INTER.POLAR>
0

>  <SCORE.INTER.ROT>
11

>  <SCORE.INTER.SOLV>
11.5298

>  <SCORE.INTER.VDW>
-18.2303

>  <SCORE.INTER.norm>
-0.370035

>  <SCORE.INTRA>
-2.43108

>  <SCORE.INTRA.DIHEDRAL>
-5.0427

>  <SCORE.INTRA.DIHEDRAL.0>
7.79482

>  <SCORE.INTRA.POLAR>
0

>  <SCORE.INTRA.POLAR.0>
0

>  <SCORE.INTRA.REPUL>
0

>  <SCORE.INTRA.REPUL.0>
0

>  <SCORE.INTRA.SOLV>
0.872077

>  <SCORE.INTRA.SOLV.lig_0>
-49.456

>  <SCORE.INTRA.VDW>
-0.345766

>  <SCORE.INTRA.VDW.0>
-0.478406

>  <SCORE.INTRA.norm>
-0.173648

>  <SCORE.RESTR>
0.0775357

>  <SCORE.RESTR.CAVITY>
0.0775357

>  <SCORE.RESTR.norm>
0.00553827

>  <SCORE.SYSTEM>
0

>  <SCORE.SYSTEM.CONST>
0

>  <SCORE.SYSTEM.DIHEDRAL>
0

>  <SCORE.SYSTEM.SOLV>
0

>  <SCORE.SYSTEM.norm>
0

>  <SCORE.heavy>
14

>  <SCORE.norm>
-0.538145

>  <RMSD>
2.281

$$$$
ligand
 OpenBabel11021811413D
libRbt.so/2013.1/901 2013/11/27
 14 13  0  0  0  0  0  0  0  0999 V2000
   41.8923   11.3944   17.9027 N   0  0  0  0  0  0  0  0  0  0  0  0
   41.2156   10.6311   18.9735 C   0  0  0  0  0  0  0  0  0  0  0  0
   41.8880    9.2583   19.1906 C   0  0  0  0  0  0  0  0  0  0  0  0
   43.3948    9.3241   19.4897 C   0  0  0  0  0  0  0  0  0  0  0  0
   43.9488    7.9659   19.7442 N   0  0  0  0  0  0  0  0  0  0  0  0
   45.3818    8.0590   20.1248 C   0  0  0  0  0  0  0  0  0  0  0  0
   46.2485    6.7927   19.8125 C   0  0  0  0  0  0  0  0  0  0  0  0
   45.7412    5.4912   20.4973 C   0  0  0  0  0  0  0  0  0  0  0  0
   46.3811    4.2248   19.9628 C   0  0  0  0  0  0  0  0  0  0  0  0
   46.0085    4.0998   18.5664 N   0  0  0  0  0  0  0  0  0  0  0  0
   46.3055    2.7270   18.1966 C   0  0  0  0  0  0  0  0  0  0  0  0
   45.0424    1.8750   18.1544 C   0  0  0  0  0  0  0  0  0  0  0  0
   45.4156    0.5209   17.5323 C   0  0  0  0  0  0  0  0  0  0  0  0
   45.7408    0.6371   16.1028 N   0  0  0  0  0  0  0  0  0  0  0  0
  1  2  1  0  0  0  0
  2  3  1  0  0  0  0
  3  4  1  0  0  0  0
  4  5  1  0  0  0  0
  5  6  1  0  0  0  0
  6  7  1  0  0  0  0
  7  8  1  0  0  0  0
  8  9  1  0  0  0  0
  9 10  1  0  0  0  0
 10 11  1  0  0  0  0
 11 12  1  0  0  0  0
 12 13  1  0  0  0  0
 13 14  1  0  0  0  0
M  END
>  <CHROM.1>
55.51309029,177.50106794,-176.01592238,-153.95183638,-58.45884133,167.20563959
-63.33927344,-164.33510991,102.08302341,170.63815347,-69.10130516,44.61472297
5.92862305,18.87536031,2.06096760,-0.66072965,0.46783571

>  <Name>
ligand

>  <RI>
0

>  <Rbt.Current_Directory>
/home/itssahil/PROJECTS/Mol_Feturizer/New_Systems/rnas/1TN1

>  <Rbt.Executable>
rbdock ($Id: //depot/dev/client3/rdock/2013.1/src/exe/rbdock.cxx#4 $)

>  <Rbt.Library>
libRbt.so (2013.1, Build901 2013/11/27)

>  <Rbt.Parameter_File>
/export/apps/rDock/src/rDock_2013.1_src/data/scripts/dock_solv.prm

>  <Rbt.Receptor>
prm/pocket_docking_7.prm

>  <SCORE>
-12.4602

>  <SCORE.INTER>
-10.978

>  <SCORE.INTER.CONST>
1

>  <SCORE.INTER.POLAR>
0

>  <SCORE.INTER.ROT>
11

>  <SCORE.INTER.SOLV>
17.6521

>  <SCORE.INTER.VDW>
-24.136

>  <SCORE.INTER.norm>
-0.784143

>  <SCORE.INTRA>
-1.48216

>  <SCORE.INTRA.DIHEDRAL>
-4.71523

>  <SCORE.INTRA.DIHEDRAL.0>
7.79482

>  <SCORE.INTRA.POLAR>
0

>  <SCORE.INTRA.POLAR.0>
0

>  <SCORE.INTRA.REPUL>
0

>  <SCORE.INTRA.REPUL.0>
0

>  <SCORE.INTRA.SOLV>
2.35445

>  <SCORE.INTRA.SOLV.lig_0>
-49.456

>  <SCORE.INTRA.VDW>
-0.301769

>  <SCORE.INTRA.VDW.0>
-0.478406

>  <SCORE.INTRA.norm>
-0.105868

>  <SCORE.RESTR>
0

>  <SCORE.RESTR.CAVITY>
0

>  <SCORE.RESTR.norm>
0

>  <SCORE.SYSTEM>
0

>  <SCORE.SYSTEM.CONST>
0

>  <SCORE.SYSTEM.DIHEDRAL>
0

>  <SCORE.SYSTEM.SOLV>
0

>  <SCORE.SYSTEM.norm>
0

>  <SCORE.heavy>
14

>  <SCORE.norm>
-0.890011

>  <RMSD>
2.288

$$$$
ligand
 OpenBabel11021811413D
libRbt.so/2013.1/901 2013/11/27
 14 13  0  0  0  0  0  0  0  0999 V2000
   45.8411   -1.2335   16.7347 N   0  0  0  0  0  0  0  0  0  0  0  0
   45.1507   -0.0423   16.1950 C   0  0  0  0  0  0  0  0  0  0  0  0
   44.6021    0.8474   17.3314 C   0  0  0  0  0  0  0  0  0  0  0  0
   45.6804    1.4756   18.2295 C   0  0  0  0  0  0  0  0  0  0  0  0
   45.0812    2.4500   19.1823 N   0  0  0  0  0  0  0  0  0  0  0  0
   45.9750    3.6254   19.3447 C   0  0  0  0  0  0  0  0  0  0  0  0
   45.2971    4.9177   19.9126 C   0  0  0  0  0  0  0  0  0  0  0  0
   46.2732    6.1133   20.1081 C   0  0  0  0  0  0  0  0  0  0  0  0
   45.5862    7.4163   20.4677 C   0  0  0  0  0  0  0  0  0  0  0  0
   44.8640    7.8705   19.2945 N   0  0  0  0  0  0  0  0  0  0  0  0
   43.6969    8.5762   19.7940 C   0  0  0  0  0  0  0  0  0  0  0  0
   43.1900    9.6000   18.7849 C   0  0  0  0  0  0  0  0  0  0  0  0
   41.8205   10.0955   19.2737 C   0  0  0  0  0  0  0  0  0  0  0  0
   40.8456    9.0014   19.3972 N   0  0  0  0  0  0  0  0  0  0  0  0
  1  2  1  0  0  0  0
  2  3  1  0  0  0  0
  3  4  1  0  0  0  0
  4  5  1  0  0  0  0
  5  6  1  0  0  0  0
  6  7  1  0  0  0  0
  7  8  1  0  0  0  0
  8  9  1  0  0  0  0
  9 10  1  0  0  0  0
 10 11  1  0  0  0  0
 11 12  1  0  0  0  0
 12 13  1  0  0  0  0
 13 14  1  0  0  0  0
M  END
>  <CHROM.1>
64.73340936,172.70983838,-141.46137767,160.39032291,178.27317761,171.73509042
-70.11098802,148.34022614,154.98100487,169.34979937,-59.41301708,44.56474793
5.05117756,18.86081273,1.26590222,0.49898139,-2.75253135

>  <Name>
ligand

>  <RI>
0

>  <Rbt.Current_Directory>
/home/itssahil/PROJECTS/Mol_Feturizer/New_Systems/rnas/1TN1

>  <Rbt.Executable>
rbdock ($Id: //depot/dev/client3/rdock/2013.1/src/exe/rbdock.cxx#4 $)

>  <Rbt.Library>
libRbt.so (2013.1, Build901 2013/11/27)

>  <Rbt.Parameter_File>
/export/apps/rDock/src/rDock_2013.1_src/data/scripts/dock_solv.prm

>  <Rbt.Receptor>
prm/pocket_docking_4.prm

>  <SCORE>
-9.3994

>  <SCORE.INTER>
-7.82396

>  <SCORE.INTER.CONST>
1

>  <SCORE.INTER.POLAR>
0

>  <SCORE.INTER.ROT>
11

>  <SCORE.INTER.SOLV>
22.9614

>  <SCORE.INTER.VDW>
-23.8031

>  <SCORE.INTER.norm>
-0.558854

>  <SCORE.INTRA>
-1.59777

>  <SCORE.INTRA.DIHEDRAL>
-4.17502

>  <SCORE.INTRA.DIHEDRAL.0>
7.79482

>  <SCORE.INTRA.POLAR>
0

>  <SCORE.INTRA.POLAR.0>
0

>  <SCORE.INTRA.REPUL>
0

>  <SCORE.INTRA.REPUL.0>
0

>  <SCORE.INTRA.SOLV>
2.0047

>  <SCORE.INTRA.SOLV.lig_0>
-49.456

>  <SCORE.INTRA.VDW>
-0.512607

>  <SCORE.INTRA.VDW.0>
-0.478406

>  <SCORE.INTRA.norm>
-0.114126

>  <SCORE.RESTR>
0.0223238

>  <SCORE.RESTR.CAVITY>
0.0223238

>  <SCORE.RESTR.norm>
0.00159455

>  <SCORE.SYSTEM>
0

>  <SCORE.SYSTEM.CONST>
0

>  <SCORE.SYSTEM.DIHEDRAL>
0

>  <SCORE.SYSTEM.SOLV>
0

>  <SCORE.SYSTEM.norm>
0

>  <SCORE.heavy>
14

>  <SCORE.norm>
-0.671386

>  <RMSD>
2.324

$$$$
ligand
 OpenBabel11021811413D
libRbt.so/2013.1/901 2013/11/27
 14 13  0  0  0  0  0  0  0  0999 V2000
   45.5420   -0.7998   15.4504 N   0  0  0  0  0  0  0  0  0  0  0  0
   44.5435    0.2681   15.6735 C   0  0  0  0  0  0  0  0  0  0  0  0
   44.5270    0.7169   17.1508 C   0  0  0  0  0  0  0  0  0  0  0  0
   45.8404    1.3470   17.6428 C   0  0  0  0  0  0  0  0  0  0  0  0
   45.7340    1.7587   19.0695 N   0  0  0  0  0  0  0  0  0  0  0  0
   45.0802    3.0886   19.1727 C   0  0  0  0  0  0  0  0  0  0  0  0
   45.9693    4.2359   19.7604 C   0  0  0  0  0  0  0  0  0  0  0  0
   45.2534    5.6147   19.8438 C   0  0  0  0  0  0  0  0  0  0  0  0
   46.1350    6.7359   20.3582 C   0  0  0  0  0  0  0  0  0  0  0  0
   45.3649    7.9637   20.2972 N   0  0  0  0  0  0  0  0  0  0  0  0
   46.3312    9.0302   20.1007 C   0  0  0  0  0  0  0  0  0  0  0  0
   46.6502    9.2286   18.6235 C   0  0  0  0  0  0  0  0  0  0  0  0
   45.3627    9.6975   17.9289 C   0  0  0  0  0  0  0  0  0  0  0  0
   44.9966   11.0710   18.3059 N   0  0  0  0  0  0  0  0  0  0  0  0
  1  2  1  0  0  0  0
  2  3  1  0  0  0  0
  3  4  1  0  0  0  0
  4  5  1  0  0  0  0
  5  6  1  0  0  0  0
  6  7  1  0  0  0  0
  7  8  1  0  0  0  0
  8  9  1  0  0  0  0
  9 10  1  0  0  0  0
 10 11  1  0  0  0  0
 11 12  1  0  0  0  0
 12 13  1  0  0  0  0
 13 14  1  0  0  0  0
M  END
>  <CHROM.1>
63.15419055,179.58158705,-82.72817301,-116.10229253,179.60833796,-177.55429750
176.31651701,-150.90241316,86.13067217,64.42316353,70.59197273,45.52364617
4.99691371,18.52712347,1.90518791,1.38417151,3.06718119

>  <Name>
ligand

>  <RI>
0

>  <Rbt.Current_Directory>
/home/itssahil/PROJECTS/Mol_Feturizer/New_Systems/rnas/1TN1

>  <Rbt.Executable>
rbdock ($Id: //depot/dev/client3/rdock/2013.1/src/exe/rbdock.cxx#4 $)

>  <Rbt.Library>
libRbt.so (2013.1, Build901 2013/11/27)

>  <Rbt.Parameter_File>
/export/apps/rDock/src/rDock_2013.1_src/data/scripts/dock_solv.prm

>  <Rbt.Receptor>
prm/pocket_docking_8.prm

>  <SCORE>
-6.45515

>  <SCORE.INTER>
-5.75248

>  <SCORE.INTER.CONST>
1

>  <SCORE.INTER.POLAR>
0

>  <SCORE.INTER.ROT>
11

>  <SCORE.INTER.SOLV>
13.5745

>  <SCORE.INTER.VDW>
-19.2932

>  <SCORE.INTER.norm>
-0.410891

>  <SCORE.INTRA>
-0.702671

>  <SCORE.INTRA.DIHEDRAL>
-4.57691

>  <SCORE.INTRA.DIHEDRAL.0>
7.79482

>  <SCORE.INTRA.POLAR>
0

>  <SCORE.INTRA.POLAR.0>
0

>  <SCORE.INTRA.REPUL>
0

>  <SCORE.INTRA.REPUL.0>
0

>  <SCORE.INTRA.SOLV>
2.33302

>  <SCORE.INTRA.SOLV.lig_0>
-49.456

>  <SCORE.INTRA.VDW>
0.419274

>  <SCORE.INTRA.VDW.0>
-0.478406

>  <SCORE.INTRA.norm>
-0.0501908

>  <SCORE.RESTR>
0

>  <SCORE.RESTR.CAVITY>
0

>  <SCORE.RESTR.norm>
0

>  <SCORE.SYSTEM>
0

>  <SCORE.SYSTEM.CONST>
0

>  <SCORE.SYSTEM.DIHEDRAL>
0

>  <SCORE.SYSTEM.SOLV>
0

>  <SCORE.SYSTEM.norm>
0

>  <SCORE.heavy>
14

>  <SCORE.norm>
-0.461082

>  <RMSD>
2.324

$$$$
ligand
 OpenBabel11021811413D
libRbt.so/2013.1/901 2013/11/27
 14 13  0  0  0  0  0  0  0  0999 V2000
   45.3690    1.1576   16.1126 N   0  0  0  0  0  0  0  0  0  0  0  0
   45.1264    2.3598   16.9389 C   0  0  0  0  0  0  0  0  0  0  0  0
   46.1806    2.4886   18.0597 C   0  0  0  0  0  0  0  0  0  0  0  0
   45.8734    3.5729   19.1055 C   0  0  0  0  0  0  0  0  0  0  0  0
   45.9168    4.9306   18.4962 N   0  0  0  0  0  0  0  0  0  0  0  0
   46.5443    5.8952   19.4358 C   0  0  0  0  0  0  0  0  0  0  0  0
   46.4399    7.4032   19.0272 C   0  0  0  0  0  0  0  0  0  0  0  0
   45.0006    7.9872   19.1164 C   0  0  0  0  0  0  0  0  0  0  0  0
   44.8852    9.4174   18.6262 C   0  0  0  0  0  0  0  0  0  0  0  0
   43.5192    9.8503   18.8520 N   0  0  0  0  0  0  0  0  0  0  0  0
   43.3113   10.9870   17.9720 C   0  0  0  0  0  0  0  0  0  0  0  0
   41.8659   11.4688   18.0152 C   0  0  0  0  0  0  0  0  0  0  0  0
   41.7535   12.6855   17.0841 C   0  0  0  0  0  0  0  0  0  0  0  0
   42.5566   13.8231   17.5571 N   0  0  0  0  0  0  0  0  0  0  0  0
  1  2  1  0  0  0  0
  2  3  1  0  0  0  0
  3  4  1  0  0  0  0
  4  5  1  0  0  0  0
  5  6  1  0  0  0  0
  6  7  1  0  0  0  0
  7  8  1  0  0  0  0
  8  9  1  0  0  0  0
  9 10  1  0  0  0  0
 10 11  1  0  0  0  0
 11 12  1  0  0  0  0
 12 13  1  0  0  0  0
 13 14  1  0  0  0  0
M  END
>  <CHROM.1>
-170.32991081,-65.60558305,-140.89709093,-170.14428998,69.58332124,-175.85288944
-176.26706883,-160.12178550,174.87842996,178.69441776,-64.60369451,44.59601209
7.43051050,18.17151080,1.11472456,0.73793023,-2.81147315

>  <Name>
ligand

>  <RI>
0

>  <Rbt.Current_Directory>
/home/itssahil/PROJECTS/Mol_Feturizer/New_Systems/rnas/1TN1

>  <Rbt.Executable>
rbdock ($Id: //depot/dev/client3/rdock/2013.1/src/exe/rbdock.cxx#4 $)

>  <Rbt.Library>
libRbt.so (2013.1, Build901 2013/11/27)

>  <Rbt.Parameter_File>
/export/apps/rDock/src/rDock_2013.1_src/data/scripts/dock_solv.prm

>  <Rbt.Receptor>
prm/pocket_docking_2.prm

>  <SCORE>
-6.95405

>  <SCORE.INTER>
-4.24575

>  <SCORE.INTER.CONST>
1

>  <SCORE.INTER.POLAR>
0

>  <SCORE.INTER.ROT>
11

>  <SCORE.INTER.SOLV>
13.2369

>  <SCORE.INTER.VDW>
-18.1761

>  <SCORE.INTER.norm>
-0.303268

>  <SCORE.INTRA>
-2.74259

>  <SCORE.INTRA.DIHEDRAL>
-5.50807

>  <SCORE.INTRA.DIHEDRAL.0>
7.79482

>  <SCORE.INTRA.POLAR>
0

>  <SCORE.INTRA.POLAR.0>
0

>  <SCORE.INTRA.REPUL>
0

>  <SCORE.INTRA.REPUL.0>
0

>  <SCORE.INTRA.SOLV>
1.39257

>  <SCORE.INTRA.SOLV.lig_0>
-49.456

>  <SCORE.INTRA.VDW>
-0.68484

>  <SCORE.INTRA.VDW.0>
-0.478406

>  <SCORE.INTRA.norm>
-0.195899

>  <SCORE.RESTR>
0.0342902

>  <SCORE.RESTR.CAVITY>
0.0342902

>  <SCORE.RESTR.norm>
0.0024493

>  <SCORE.SYSTEM>
0

>  <SCORE.SYSTEM.CONST>
0

>  <SCORE.SYSTEM.DIHEDRAL>
0

>  <SCORE.SYSTEM.SOLV>
0

>  <SCORE.SYSTEM.norm>
0

>  <SCORE.heavy>
14

>  <SCORE.norm>
-0.496718

>  <RMSD>
2.330

$$$$
ligand
 OpenBabel11021811413D
libRbt.so/2013.1/901 2013/11/27
 14 13  0  0  0  0  0  0  0  0999 V2000
   44.4701   11.5420   18.1355 N   0  0  0  0  0  0  0  0  0  0  0  0
   45.5723   10.5570   18.1815 C   0  0  0  0  0  0  0  0  0  0  0  0
   45.0549    9.1591   18.5846 C   0  0  0  0  0  0  0  0  0  0  0  0
   46.1410    8.0739   18.6662 C   0  0  0  0  0  0  0  0  0  0  0  0
   45.5475    6.7471   18.9884 N   0  0  0  0  0  0  0  0  0  0  0  0
   46.6092    5.7998   19.4153 C   0  0  0  0  0  0  0  0  0  0  0  0
   46.1055    4.4650   20.0608 C   0  0  0  0  0  0  0  0  0  0  0  0
   45.3469    3.5299   19.0757 C   0  0  0  0  0  0  0  0  0  0  0  0
   46.2061    3.0010   17.9439 C   0  0  0  0  0  0  0  0  0  0  0  0
   45.3474    2.2334   17.0620 N   0  0  0  0  0  0  0  0  0  0  0  0
   45.8218    0.8627   17.1383 C   0  0  0  0  0  0  0  0  0  0  0  0
   44.9389   -0.0790   16.3277 C   0  0  0  0  0  0  0  0  0  0  0  0
   45.5864   -1.4715   16.3664 C   0  0  0  0  0  0  0  0  0  0  0  0
   46.7576   -1.5644   15.4818 N   0  0  0  0  0  0  0  0  0  0  0  0
  1  2  1  0  0  0  0
  2  3  1  0  0  0  0
  3  4  1  0  0  0  0
  4  5  1  0  0  0  0
  5  6  1  0  0  0  0
  6  7  1  0  0  0  0
  7  8  1  0  0  0  0
  8  9  1  0  0  0  0
  9 10  1  0  0  0  0
 10 11  1  0  0  0  0
 11 12  1  0  0  0  0
 12 13  1  0  0  0  0
 13 14  1  0  0  0  0
M  END
>  <CHROM.1>
-179.60369715,-176.96968229,-165.03459733,168.01256926,66.85340430,64.56419223
-175.86083705,-115.32582054,175.97245514,175.05400536,-75.78700556,45.67903739
4.48961324,17.95937241,1.72642543,-1.25292140,0.35372589

>  <Name>
ligand

>  <RI>
0

>  <Rbt.Current_Directory>
/home/itssahil/PROJECTS/Mol_Feturizer/New_Systems/rnas/1TN1

>  <Rbt.Executable>
rbdock ($Id: //depot/dev/client3/rdock/2013.1/src/exe/rbdock.cxx#4 $)

>  <Rbt.Library>
libRbt.so (2013.1, Build901 2013/11/27)

>  <Rbt.Parameter_File>
/export/apps/rDock/src/rDock_2013.1_src/data/scripts/dock_solv.prm

>  <Rbt.Receptor>
prm/pocket_docking_2.prm

>  <SCORE>
-3.61592

>  <SCORE.INTER>
-1.45242

>  <SCORE.INTER.CONST>
1

>  <SCORE.INTER.POLAR>
0

>  <SCORE.INTER.ROT>
11

>  <SCORE.INTER.SOLV>
15.468

>  <SCORE.INTER.VDW>
-17.0576

>  <SCORE.INTER.norm>
-0.103744

>  <SCORE.INTRA>
-2.28712

>  <SCORE.INTRA.DIHEDRAL>
-4.96501

>  <SCORE.INTRA.DIHEDRAL.0>
7.79482

>  <SCORE.INTRA.POLAR>
0

>  <SCORE.INTRA.POLAR.0>
0

>  <SCORE.INTRA.REPUL>
0

>  <SCORE.INTRA.REPUL.0>
0

>  <SCORE.INTRA.SOLV>
1.25242

>  <SCORE.INTRA.SOLV.lig_0>
-49.456

>  <SCORE.INTRA.VDW>
-0.430822

>  <SCORE.INTRA.VDW.0>
-0.478406

>  <SCORE.INTRA.norm>
-0.163366

>  <SCORE.RESTR>
0.123616

>  <SCORE.RESTR.CAVITY>
0.123616

>  <SCORE.RESTR.norm>
0.00882971

>  <SCORE.SYSTEM>
0

>  <SCORE.SYSTEM.CONST>
0

>  <SCORE.SYSTEM.DIHEDRAL>
0

>  <SCORE.SYSTEM.SOLV>
0

>  <SCORE.SYSTEM.norm>
0

>  <SCORE.heavy>
14

>  <SCORE.norm>
-0.25828

>  <RMSD>
2.330

$$$$
ligand
 OpenBabel11021811413D
libRbt.so/2013.1/901 2013/11/27
 14 13  0  0  0  0  0  0  0  0999 V2000
   45.7633   -1.1759   16.5474 N   0  0  0  0  0  0  0  0  0  0  0  0
   45.1150    0.1161   16.8598 C   0  0  0  0  0  0  0  0  0  0  0  0
   45.9332    0.9144   17.8977 C   0  0  0  0  0  0  0  0  0  0  0  0
   45.3622    2.3021   18.2324 C   0  0  0  0  0  0  0  0  0  0  0  0
   46.2583    3.0377   19.1663 N   0  0  0  0  0  0  0  0  0  0  0  0
   45.8145    4.4492   19.2989 C   0  0  0  0  0  0  0  0  0  0  0  0
   45.6694    4.9780   20.7656 C   0  0  0  0  0  0  0  0  0  0  0  0
   45.1568    6.4436   20.8646 C   0  0  0  0  0  0  0  0  0  0  0  0
   46.1596    7.4794   20.3952 C   0  0  0  0  0  0  0  0  0  0  0  0
   46.3674    7.2774   18.9738 N   0  0  0  0  0  0  0  0  0  0  0  0
   47.1617    8.4068   18.5231 C   0  0  0  0  0  0  0  0  0  0  0  0
   46.3058    9.4340   17.7914 C   0  0  0  0  0  0  0  0  0  0  0  0
   47.2295   10.5797   17.3510 C   0  0  0  0  0  0  0  0  0  0  0  0
   46.5007   11.6365   16.6337 N   0  0  0  0  0  0  0  0  0  0  0  0
  1  2  1  0  0  0  0
  2  3  1  0  0  0  0
  3  4  1  0  0  0  0
  4  5  1  0  0  0  0
  5  6  1  0  0  0  0
  6  7  1  0  0  0  0
  7  8  1  0  0  0  0
  8  9  1  0  0  0  0
  9 10  1  0  0  0  0
 10 11  1  0  0  0  0
 11 12  1  0  0  0  0
 12 13  1  0  0  0  0
 13 14  1  0  0  0  0
M  END
>  <CHROM.1>
177.33958319,-176.12642282,170.53753205,130.47868727,-178.03170128,-69.93477124
65.31848053,171.29439737,-102.63769577,-179.75387394,-179.81456659,46.05690178
5.42003368,18.52176736,-2.20859322,1.38708749,0.67553797

>  <Name>
ligand

>  <RI>
0

>  <Rbt.Current_Directory>
/home/itssahil/PROJECTS/Mol_Feturizer/New_Systems/rnas/1TN1

>  <Rbt.Executable>
rbdock ($Id: //depot/dev/client3/rdock/2013.1/src/exe/rbdock.cxx#4 $)

>  <Rbt.Library>
libRbt.so (2013.1, Build901 2013/11/27)

>  <Rbt.Parameter_File>
/export/apps/rDock/src/rDock_2013.1_src/data/scripts/dock_solv.prm

>  <Rbt.Receptor>
prm/pocket_docking_6.prm

>  <SCORE>
-8.01656

>  <SCORE.INTER>
-5.88747

>  <SCORE.INTER.CONST>
1

>  <SCORE.INTER.POLAR>
0

>  <SCORE.INTER.ROT>
11

>  <SCORE.INTER.SOLV>
15.1625

>  <SCORE.INTER.VDW>
-19.9125

>  <SCORE.INTER.norm>
-0.420534

>  <SCORE.INTRA>
-2.12909

>  <SCORE.INTRA.DIHEDRAL>
-4.97141

>  <SCORE.INTRA.DIHEDRAL.0>
7.79482

>  <SCORE.INTRA.POLAR>
0

>  <SCORE.INTRA.POLAR.0>
0

>  <SCORE.INTRA.REPUL>
0

>  <SCORE.INTRA.REPUL.0>
0

>  <SCORE.INTRA.SOLV>
1.00524

>  <SCORE.INTRA.SOLV.lig_0>
-49.456

>  <SCORE.INTRA.VDW>
-0.146012

>  <SCORE.INTRA.VDW.0>
-0.478406

>  <SCORE.INTRA.norm>
-0.152078

>  <SCORE.RESTR>
0

>  <SCORE.RESTR.CAVITY>
0

>  <SCORE.RESTR.norm>
0

>  <SCORE.SYSTEM>
0

>  <SCORE.SYSTEM.CONST>
0

>  <SCORE.SYSTEM.DIHEDRAL>
0

>  <SCORE.SYSTEM.SOLV>
0

>  <SCORE.SYSTEM.norm>
0

>  <SCORE.heavy>
14

>  <SCORE.norm>
-0.572612

>  <RMSD>
2.339

$$$$
ligand
 OpenBabel11021811413D
libRbt.so/2013.1/901 2013/11/27
 14 13  0  0  0  0  0  0  0  0999 V2000
   44.6889    1.8340   15.8842 N   0  0  0  0  0  0  0  0  0  0  0  0
   45.9360    1.3846   16.5400 C   0  0  0  0  0  0  0  0  0  0  0  0
   45.6979    1.0636   18.0313 C   0  0  0  0  0  0  0  0  0  0  0  0
   45.2737    2.2695   18.8857 C   0  0  0  0  0  0  0  0  0  0  0  0
   46.3349    3.3136   18.9005 N   0  0  0  0  0  0  0  0  0  0  0  0
   45.9950    4.3771   19.8803 C   0  0  0  0  0  0  0  0  0  0  0  0
   46.2650    5.8451   19.4065 C   0  0  0  0  0  0  0  0  0  0  0  0
   45.9053    6.9295   20.4624 C   0  0  0  0  0  0  0  0  0  0  0  0
   46.2128    8.3464   20.0189 C   0  0  0  0  0  0  0  0  0  0  0  0
   45.3788    8.6373   18.8681 N   0  0  0  0  0  0  0  0  0  0  0  0
   45.9808    9.7903   18.2216 C   0  0  0  0  0  0  0  0  0  0  0  0
   45.4235    9.9968   16.8180 C   0  0  0  0  0  0  0  0  0  0  0  0
   46.1176   11.2294   16.2190 C   0  0  0  0  0  0  0  0  0  0  0  0
   47.5435   10.9887   15.9514 N   0  0  0  0  0  0  0  0  0  0  0  0
  1  2  1  0  0  0  0
  2  3  1  0  0  0  0
  3  4  1  0  0  0  0
  4  5  1  0  0  0  0
  5  6  1  0  0  0  0
  6  7  1  0  0  0  0
  7  8  1  0  0  0  0
  8  9  1  0  0  0  0
  9 10  1  0  0  0  0
 10 11  1  0  0  0  0
 11 12  1  0  0  0  0
 12 13  1  0  0  0  0
 13 14  1  0  0  0  0
M  END
>  <CHROM.1>
-63.74956235,-62.22677907,-171.89933463,-137.90366852,-179.62872052,177.99028676
63.49786346,-162.28116628,165.77616752,-179.91556800,68.49952546,45.91094842
6.14326635,18.14945243,2.80526419,1.48847770,1.85522427

>  <Name>
ligand

>  <RI>
0

>  <Rbt.Current_Directory>
/home/itssahil/PROJECTS/Mol_Feturizer/New_Systems/rnas/1TN1

>  <Rbt.Executable>
rbdock ($Id: //depot/dev/client3/rdock/2013.1/src/exe/rbdock.cxx#4 $)

>  <Rbt.Library>
libRbt.so (2013.1, Build901 2013/11/27)

>  <Rbt.Parameter_File>
/export/apps/rDock/src/rDock_2013.1_src/data/scripts/dock_solv.prm

>  <Rbt.Receptor>
prm/pocket_docking_3.prm

>  <SCORE>
-6.75176

>  <SCORE.INTER>
-4.54062

>  <SCORE.INTER.CONST>
1

>  <SCORE.INTER.POLAR>
0

>  <SCORE.INTER.ROT>
11

>  <SCORE.INTER.SOLV>
11.0654

>  <SCORE.INTER.VDW>
-17.6489

>  <SCORE.INTER.norm>
-0.32433

>  <SCORE.INTRA>
-2.21114

>  <SCORE.INTRA.DIHEDRAL>
-5.98324

>  <SCORE.INTRA.DIHEDRAL.0>
7.79482

>  <SCORE.INTRA.POLAR>
0

>  <SCORE.INTRA.POLAR.0>
0

>  <SCORE.INTRA.REPUL>
0

>  <SCORE.INTRA.REPUL.0>
0

>  <SCORE.INTRA.SOLV>
2.7944

>  <SCORE.INTRA.SOLV.lig_0>
-49.456

>  <SCORE.INTRA.VDW>
-0.616719

>  <SCORE.INTRA.VDW.0>
-0.478406

>  <SCORE.INTRA.norm>
-0.157938

>  <SCORE.RESTR>
0

>  <SCORE.RESTR.CAVITY>
0

>  <SCORE.RESTR.norm>
0

>  <SCORE.SYSTEM>
0

>  <SCORE.SYSTEM.CONST>
0

>  <SCORE.SYSTEM.DIHEDRAL>
0

>  <SCORE.SYSTEM.SOLV>
0

>  <SCORE.SYSTEM.norm>
0

>  <SCORE.heavy>
14

>  <SCORE.norm>
-0.482269

>  <RMSD>
2.341

$$$$
ligand
 OpenBabel11021811413D
libRbt.so/2013.1/901 2013/11/27
 14 13  0  0  0  0  0  0  0  0999 V2000
   45.1399    1.4896   16.4760 N   0  0  0  0  0  0  0  0  0  0  0  0
   45.6117    0.9598   17.7736 C   0  0  0  0  0  0  0  0  0  0  0  0
   46.4594    2.0064   18.5287 C   0  0  0  0  0  0  0  0  0  0  0  0
   45.6716    3.2292   19.0266 C   0  0  0  0  0  0  0  0  0  0  0  0
   46.5652    4.1909   19.7288 N   0  0  0  0  0  0  0  0  0  0  0  0
   45.8428    4.8332   20.8568 C   0  0  0  0  0  0  0  0  0  0  0  0
   45.1854    6.2183   20.5384 C   0  0  0  0  0  0  0  0  0  0  0  0
   46.1895    7.2993   20.0446 C   0  0  0  0  0  0  0  0  0  0  0  0
   45.5426    8.6239   19.6898 C   0  0  0  0  0  0  0  0  0  0  0  0
   46.5687    9.4746   19.1173 N   0  0  0  0  0  0  0  0  0  0  0  0
   45.8647   10.5740   18.4806 C   0  0  0  0  0  0  0  0  0  0  0  0
   46.7436   11.2790   17.4541 C   0  0  0  0  0  0  0  0  0  0  0  0
   45.9120   12.4090   16.8282 C   0  0  0  0  0  0  0  0  0  0  0  0
   46.6514   13.1273   15.7793 N   0  0  0  0  0  0  0  0  0  0  0  0
  1  2  1  0  0  0  0
  2  3  1  0  0  0  0
  3  4  1  0  0  0  0
  4  5  1  0  0  0  0
  5  6  1  0  0  0  0
  6  7  1  0  0  0  0
  7  8  1  0  0  0  0
  8  9  1  0  0  0  0
  9 10  1  0  0  0  0
 10 11  1  0  0  0  0
 11 12  1  0  0  0  0
 12 13  1  0  0  0  0
 13 14  1  0  0  0  0
M  END
>  <CHROM.1>
68.21311599,-179.41759284,-144.70764650,-95.02313141,-58.44740262,177.91932208
-174.04111228,165.57314954,-160.67876176,179.39432802,-177.79842960,45.99623640
6.83664950,18.59481405,-2.91073897,1.51399123,1.22381723

>  <Name>
ligand

>  <RI>
0

>  <Rbt.Current_Directory>
/home/itssahil/PROJECTS/Mol_Feturizer/New_Systems/rnas/1TN1

>  <Rbt.Executable>
rbdock ($Id: //depot/dev/client3/rdock/2013.1/src/exe/rbdock.cxx#4 $)

>  <Rbt.Library>
libRbt.so (2013.1, Build901 2013/11/27)

>  <Rbt.Parameter_File>
/export/apps/rDock/src/rDock_2013.1_src/data/scripts/dock_solv.prm

>  <Rbt.Receptor>
prm/pocket_docking_5.prm

>  <SCORE>
-8.95082

>  <SCORE.INTER>
-5.97434

>  <SCORE.INTER.CONST>
1

>  <SCORE.INTER.POLAR>
0

>  <SCORE.INTER.ROT>
11

>  <SCORE.INTER.SOLV>
10.6475

>  <SCORE.INTER.VDW>
-18.4654

>  <SCORE.INTER.norm>
-0.426738

>  <SCORE.INTRA>
-2.97648

>  <SCORE.INTRA.DIHEDRAL>
-5.39696

>  <SCORE.INTRA.DIHEDRAL.0>
7.79482

>  <SCORE.INTRA.POLAR>
0

>  <SCORE.INTRA.POLAR.0>
0

>  <SCORE.INTRA.REPUL>
0

>  <SCORE.INTRA.REPUL.0>
0

>  <SCORE.INTRA.SOLV>
0.954639

>  <SCORE.INTRA.SOLV.lig_0>
-49.456

>  <SCORE.INTRA.VDW>
-0.755319

>  <SCORE.INTRA.VDW.0>
-0.478406

>  <SCORE.INTRA.norm>
-0.212606

>  <SCORE.RESTR>
0

>  <SCORE.RESTR.CAVITY>
0

>  <SCORE.RESTR.norm>
0

>  <SCORE.SYSTEM>
0

>  <SCORE.SYSTEM.CONST>
0

>  <SCORE.SYSTEM.DIHEDRAL>
0

>  <SCORE.SYSTEM.SOLV>
0

>  <SCORE.SYSTEM.norm>
0

>  <SCORE.heavy>
14

>  <SCORE.norm>
-0.639344

>  <RMSD>
2.348

$$$$
ligand
 OpenBabel11021811413D
libRbt.so/2013.1/901 2013/11/27
 14 13  0  0  0  0  0  0  0  0999 V2000
   47.1411    9.6565   16.6890 N   0  0  0  0  0  0  0  0  0  0  0  0
   45.9168   10.2563   17.2622 C   0  0  0  0  0  0  0  0  0  0  0  0
   46.1214   10.6322   18.7457 C   0  0  0  0  0  0  0  0  0  0  0  0
   46.3805    9.4377   19.6785 C   0  0  0  0  0  0  0  0  0  0  0  0
   45.1594    8.5986   19.8239 N   0  0  0  0  0  0  0  0  0  0  0  0
   45.4969    7.3108   20.4832 C   0  0  0  0  0  0  0  0  0  0  0  0
   45.6771    6.0863   19.5239 C   0  0  0  0  0  0  0  0  0  0  0  0
   46.1286    4.7805   20.2389 C   0  0  0  0  0  0  0  0  0  0  0  0
   46.2795    3.5911   19.3107 C   0  0  0  0  0  0  0  0  0  0  0  0
   44.9490    3.1773   18.9070 N   0  0  0  0  0  0  0  0  0  0  0  0
   45.0424    1.7552   18.6267 C   0  0  0  0  0  0  0  0  0  0  0  0
   45.2989    1.4940   17.1471 C   0  0  0  0  0  0  0  0  0  0  0  0
   45.3011   -0.0278   16.9373 C   0  0  0  0  0  0  0  0  0  0  0  0
   45.5452   -0.3948   15.5343 N   0  0  0  0  0  0  0  0  0  0  0  0
  1  2  1  0  0  0  0
  2  3  1  0  0  0  0
  3  4  1  0  0  0  0
  4  5  1  0  0  0  0
  5  6  1  0  0  0  0
  6  7  1  0  0  0  0
  7  8  1  0  0  0  0
  8  9  1  0  0  0  0
  9 10  1  0  0  0  0
 10 11  1  0  0  0  0
 11 12  1  0  0  0  0
 12 13  1  0  0  0  0
 13 14  1  0  0  0  0
M  END
>  <CHROM.1>
-64.13846061,-69.19709745,168.06172559,-99.33067612,175.86637299,179.02244701
-71.41015060,-152.03923082,-94.12685246,-176.81127559,-179.84807807,45.74558989
5.45393909,18.49375939,-1.05487231,-1.39871665,-2.47398724

>  <Name>
ligand

>  <RI>
0

>  <Rbt.Current_Directory>
/home/itssahil/PROJECTS/Mol_Feturizer/New_Systems/rnas/1TN1

>  <Rbt.Executable>
rbdock ($Id: //depot/dev/client3/rdock/2013.1/src/exe/rbdock.cxx#4 $)

>  <Rbt.Library>
libRbt.so (2013.1, Build901 2013/11/27)

>  <Rbt.Parameter_File>
/export/apps/rDock/src/rDock_2013.1_src/data/scripts/dock_solv.prm

>  <Rbt.Receptor>
prm/pocket_docking_3.prm

>  <SCORE>
-7.16896

>  <SCORE.INTER>
-5.3852

>  <SCORE.INTER.CONST>
1

>  <SCORE.INTER.POLAR>
0

>  <SCORE.INTER.ROT>
11

>  <SCORE.INTER.SOLV>
11.4038

>  <SCORE.INTER.VDW>
-18.3248

>  <SCORE.INTER.norm>
-0.384657

>  <SCORE.INTRA>
-1.78376

>  <SCORE.INTRA.DIHEDRAL>
-4.57168

>  <SCORE.INTRA.DIHEDRAL.0>
7.79482

>  <SCORE.INTRA.POLAR>
0

>  <SCORE.INTRA.POLAR.0>
0

>  <SCORE.INTRA.REPUL>
0

>  <SCORE.INTRA.REPUL.0>
0

>  <SCORE.INTRA.SOLV>
1.85038

>  <SCORE.INTRA.SOLV.lig_0>
-49.456

>  <SCORE.INTRA.VDW>
-0.423109

>  <SCORE.INTRA.VDW.0>
-0.478406

>  <SCORE.INTRA.norm>
-0.127411

>  <SCORE.RESTR>
0

>  <SCORE.RESTR.CAVITY>
0

>  <SCORE.RESTR.norm>
0

>  <SCORE.SYSTEM>
0

>  <SCORE.SYSTEM.CONST>
0

>  <SCORE.SYSTEM.DIHEDRAL>
0

>  <SCORE.SYSTEM.SOLV>
0

>  <SCORE.SYSTEM.norm>
0

>  <SCORE.heavy>
14

>  <SCORE.norm>
-0.512068

>  <RMSD>
2.355

$$$$
ligand
 OpenBabel11021811413D
libRbt.so/2013.1/901 2013/11/27
 14 13  0  0  0  0  0  0  0  0999 V2000
   45.1082    0.5020   15.6978 N   0  0  0  0  0  0  0  0  0  0  0  0
   45.4156   -0.1317   16.9982 C   0  0  0  0  0  0  0  0  0  0  0  0
   45.9098    0.9111   18.0241 C   0  0  0  0  0  0  0  0  0  0  0  0
   44.8701    1.9785   18.4030 C   0  0  0  0  0  0  0  0  0  0  0  0
   45.4404    2.9629   19.3634 N   0  0  0  0  0  0  0  0  0  0  0  0
   44.3514    3.7379   20.0115 C   0  0  0  0  0  0  0  0  0  0  0  0
   44.7918    4.6638   21.1951 C   0  0  0  0  0  0  0  0  0  0  0  0
   45.8172    5.7630   20.7941 C   0  0  0  0  0  0  0  0  0  0  0  0
   45.2374    6.8546   19.9158 C   0  0  0  0  0  0  0  0  0  0  0  0
   46.2899    7.8202   19.6627 N   0  0  0  0  0  0  0  0  0  0  0  0
   45.6429    8.9586   19.0342 C   0  0  0  0  0  0  0  0  0  0  0  0
   46.6351   10.0827   18.7600 C   0  0  0  0  0  0  0  0  0  0  0  0
   45.8531   11.2529   18.1442 C   0  0  0  0  0  0  0  0  0  0  0  0
   45.3636   10.9437   16.7924 N   0  0  0  0  0  0  0  0  0  0  0  0
  1  2  1  0  0  0  0
  2  3  1  0  0  0  0
  3  4  1  0  0  0  0
  4  5  1  0  0  0  0
  5  6  1  0  0  0  0
  6  7  1  0  0  0  0
  7  8  1  0  0  0  0
  8  9  1  0  0  0  0
  9 10  1  0  0  0  0
 10 11  1  0  0  0  0
 11 12  1  0  0  0  0
 12 13  1  0  0  0  0
 13 14  1  0  0  0  0
M  END
>  <CHROM.1>
63.99311063,-178.36139937,-163.88431029,171.47115022,60.65703958,69.99738356
178.18847858,-169.86126959,177.77497712,-178.05887892,-68.69278447,45.48044669
5.44997170,18.77155773,-2.32231704,1.46909643,0.83454259

>  <Name>
ligand

>  <RI>
0

>  <Rbt.Current_Directory>
/home/itssahil/PROJECTS/Mol_Feturizer/New_Systems/rnas/1TN1

>  <Rbt.Executable>
rbdock ($Id: //depot/dev/client3/rdock/2013.1/src/exe/rbdock.cxx#4 $)

>  <Rbt.Library>
libRbt.so (2013.1, Build901 2013/11/27)

>  <Rbt.Parameter_File>
/export/apps/rDock/src/rDock_2013.1_src/data/scripts/dock_solv.prm

>  <Rbt.Receptor>
prm/pocket_docking_7.prm

>  <SCORE>
-8.77235

>  <SCORE.INTER>
-5.92584

>  <SCORE.INTER.CONST>
1

>  <SCORE.INTER.POLAR>
0

>  <SCORE.INTER.ROT>
11

>  <SCORE.INTER.SOLV>
11.1034

>  <SCORE.INTER.VDW>
-18.585

>  <SCORE.INTER.norm>
-0.423274

>  <SCORE.INTRA>
-2.84652

>  <SCORE.INTRA.DIHEDRAL>
-6.65883

>  <SCORE.INTRA.DIHEDRAL.0>
7.79482

>  <SCORE.INTRA.POLAR>
0

>  <SCORE.INTRA.POLAR.0>
0

>  <SCORE.INTRA.REPUL>
0

>  <SCORE.INTRA.REPUL.0>
0

>  <SCORE.INTRA.SOLV>
2.00913

>  <SCORE.INTRA.SOLV.lig_0>
-49.456

>  <SCORE.INTRA.VDW>
-0.521671

>  <SCORE.INTRA.VDW.0>
-0.478406

>  <SCORE.INTRA.norm>
-0.203323

>  <SCORE.RESTR>
0

>  <SCORE.RESTR.CAVITY>
0

>  <SCORE.RESTR.norm>
0

>  <SCORE.SYSTEM>
0

>  <SCORE.SYSTEM.CONST>
0

>  <SCORE.SYSTEM.DIHEDRAL>
0

>  <SCORE.SYSTEM.SOLV>
0

>  <SCORE.SYSTEM.norm>
0

>  <SCORE.heavy>
14

>  <SCORE.norm>
-0.626597

>  <RMSD>
2.357

$$$$
ligand
 OpenBabel11021811413D
libRbt.so/2013.1/901 2013/11/27
 14 13  0  0  0  0  0  0  0  0999 V2000
   45.5660   11.3552   16.6176 N   0  0  0  0  0  0  0  0  0  0  0  0
   45.9318   11.2040   18.0426 C   0  0  0  0  0  0  0  0  0  0  0  0
   45.9949    9.7154   18.4476 C   0  0  0  0  0  0  0  0  0  0  0  0
   46.3602    9.4680   19.9205 C   0  0  0  0  0  0  0  0  0  0  0  0
   46.4242    8.0106   20.2176 N   0  0  0  0  0  0  0  0  0  0  0  0
   45.0756    7.4996   20.5739 C   0  0  0  0  0  0  0  0  0  0  0  0
   44.9791    5.9554   20.8157 C   0  0  0  0  0  0  0  0  0  0  0  0
   45.4610    5.0931   19.6138 C   0  0  0  0  0  0  0  0  0  0  0  0
   45.0938    3.6260   19.7224 C   0  0  0  0  0  0  0  0  0  0  0  0
   45.6482    2.9476   18.5663 N   0  0  0  0  0  0  0  0  0  0  0  0
   45.1984    1.5696   18.6599 C   0  0  0  0  0  0  0  0  0  0  0  0
   45.6332    0.7574   17.4456 C   0  0  0  0  0  0  0  0  0  0  0  0
   44.9073    1.3305   16.2190 C   0  0  0  0  0  0  0  0  0  0  0  0
   45.2317    0.5948   14.9876 N   0  0  0  0  0  0  0  0  0  0  0  0
  1  2  1  0  0  0  0
  2  3  1  0  0  0  0
  3  4  1  0  0  0  0
  4  5  1  0  0  0  0
  5  6  1  0  0  0  0
  6  7  1  0  0  0  0
  7  8  1  0  0  0  0
  8  9  1  0  0  0  0
  9 10  1  0  0  0  0
 10 11  1  0  0  0  0
 11 12  1  0  0  0  0
 12 13  1  0  0  0  0
 13 14  1  0  0  0  0
M  END
>  <CHROM.1>
-179.59488453,-178.90895595,-86.42548557,175.96371396,-56.67842404,-167.45896909
-177.88268391,-176.19012793,176.05334611,-65.37156794,-178.62942090,45.53603110
5.65192111,18.56110779,-0.25570425,-1.49782194,-1.65184453

>  <Name>
ligand

>  <RI>
0

>  <Rbt.Current_Directory>
/home/itssahil/PROJECTS/Mol_Feturizer/New_Systems/rnas/1TN1

>  <Rbt.Executable>
rbdock ($Id: //depot/dev/client3/rdock/2013.1/src/exe/rbdock.cxx#4 $)

>  <Rbt.Library>
libRbt.so (2013.1, Build901 2013/11/27)

>  <Rbt.Parameter_File>
/export/apps/rDock/src/rDock_2013.1_src/data/scripts/dock_solv.prm

>  <Rbt.Receptor>
prm/pocket_docking_8.prm

>  <SCORE>
-8.07228

>  <SCORE.INTER>
-4.79362

>  <SCORE.INTER.CONST>
1

>  <SCORE.INTER.POLAR>
0

>  <SCORE.INTER.ROT>
11

>  <SCORE.INTER.SOLV>
10.5478

>  <SCORE.INTER.VDW>
-17.645

>  <SCORE.INTER.norm>
-0.342402

>  <SCORE.INTRA>
-3.27866

>  <SCORE.INTRA.DIHEDRAL>
-6.45285

>  <SCORE.INTRA.DIHEDRAL.0>
7.79482

>  <SCORE.INTRA.POLAR>
0

>  <SCORE.INTRA.POLAR.0>
0

>  <SCORE.INTRA.REPUL>
0

>  <SCORE.INTRA.REPUL.0>
0

>  <SCORE.INTRA.SOLV>
0.718181

>  <SCORE.INTRA.SOLV.lig_0>
-49.456

>  <SCORE.INTRA.VDW>
-0.411329

>  <SCORE.INTRA.VDW.0>
-0.478406

>  <SCORE.INTRA.norm>
-0.23419

>  <SCORE.RESTR>
0

>  <SCORE.RESTR.CAVITY>
0

>  <SCORE.RESTR.norm>
0

>  <SCORE.SYSTEM>
0

>  <SCORE.SYSTEM.CONST>
0

>  <SCORE.SYSTEM.DIHEDRAL>
0

>  <SCORE.SYSTEM.SOLV>
0

>  <SCORE.SYSTEM.norm>
0

>  <SCORE.heavy>
14

>  <SCORE.norm>
-0.576592

>  <RMSD>
2.360

$$$$
ligand
 OpenBabel11021811413D
libRbt.so/2013.1/901 2013/11/27
 14 13  0  0  0  0  0  0  0  0999 V2000
   46.8526   12.0944   17.5156 N   0  0  0  0  0  0  0  0  0  0  0  0
   45.3737   12.1023   17.5203 C   0  0  0  0  0  0  0  0  0  0  0  0
   44.8081   10.6656   17.5336 C   0  0  0  0  0  0  0  0  0  0  0  0
   45.1388    9.8594   18.8004 C   0  0  0  0  0  0  0  0  0  0  0  0
   44.6740    8.4507   18.6737 N   0  0  0  0  0  0  0  0  0  0  0  0
   44.4276    7.8687   20.0181 C   0  0  0  0  0  0  0  0  0  0  0  0
   44.6513    6.3234   20.1378 C   0  0  0  0  0  0  0  0  0  0  0  0
   46.1322    5.8805   19.9612 C   0  0  0  0  0  0  0  0  0  0  0  0
   46.3338    4.3782   19.9973 C   0  0  0  0  0  0  0  0  0  0  0  0
   45.7838    3.8314   18.7714 N   0  0  0  0  0  0  0  0  0  0  0  0
   46.1500    2.4259   18.7630 C   0  0  0  0  0  0  0  0  0  0  0  0
   45.7079    1.7421   17.4745 C   0  0  0  0  0  0  0  0  0  0  0  0
   46.5365    2.3359   16.3252 C   0  0  0  0  0  0  0  0  0  0  0  0
   46.2531    1.6803   15.0397 N   0  0  0  0  0  0  0  0  0  0  0  0
  1  2  1  0  0  0  0
  2  3  1  0  0  0  0
  3  4  1  0  0  0  0
  4  5  1  0  0  0  0
  5  6  1  0  0  0  0
  6  7  1  0  0  0  0
  7  8  1  0  0  0  0
  8  9  1  0  0  0  0
  9 10  1  0  0  0  0
 10 11  1  0  0  0  0
 11 12  1  0  0  0  0
 12 13  1  0  0  0  0
 13 14  1  0  0  0  0
M  END
>  <CHROM.1>
64.45185966,-174.40124769,-154.61957928,-150.05720226,66.71085560,-176.63694868
71.20426823,172.73691757,-176.32997261,67.15352617,176.17357179,45.63012820
6.40273120,18.32403729,-1.94146273,-1.34393045,2.86076837

>  <Name>
ligand

>  <RI>
0

>  <Rbt.Current_Directory>
/home/itssahil/PROJECTS/Mol_Feturizer/New_Systems/rnas/1TN1

>  <Rbt.Executable>
rbdock ($Id: //depot/dev/client3/rdock/2013.1/src/exe/rbdock.cxx#4 $)

>  <Rbt.Library>
libRbt.so (2013.1, Build901 2013/11/27)

>  <Rbt.Parameter_File>
/export/apps/rDock/src/rDock_2013.1_src/data/scripts/dock_solv.prm

>  <Rbt.Receptor>
prm/pocket_docking_3.prm

>  <SCORE>
-5.68328

>  <SCORE.INTER>
-3.03478

>  <SCORE.INTER.CONST>
1

>  <SCORE.INTER.POLAR>
0

>  <SCORE.INTER.ROT>
11

>  <SCORE.INTER.SOLV>
10.0653

>  <SCORE.INTER.VDW>
-16.3116

>  <SCORE.INTER.norm>
-0.21677

>  <SCORE.INTRA>
-2.6485

>  <SCORE.INTRA.DIHEDRAL>
-5.57003

>  <SCORE.INTRA.DIHEDRAL.0>
7.79482

>  <SCORE.INTRA.POLAR>
0

>  <SCORE.INTRA.POLAR.0>
0

>  <SCORE.INTRA.REPUL>
0

>  <SCORE.INTRA.REPUL.0>
0

>  <SCORE.INTRA.SOLV>
1.67762

>  <SCORE.INTRA.SOLV.lig_0>
-49.456

>  <SCORE.INTRA.VDW>
-0.702292

>  <SCORE.INTRA.VDW.0>
-0.478406

>  <SCORE.INTRA.norm>
-0.189179

>  <SCORE.RESTR>
0

>  <SCORE.RESTR.CAVITY>
0

>  <SCORE.RESTR.norm>
0

>  <SCORE.SYSTEM>
0

>  <SCORE.SYSTEM.CONST>
0

>  <SCORE.SYSTEM.DIHEDRAL>
0

>  <SCORE.SYSTEM.SOLV>
0

>  <SCORE.SYSTEM.norm>
0

>  <SCORE.heavy>
14

>  <SCORE.norm>
-0.405949

>  <RMSD>
2.365

$$$$
ligand
 OpenBabel11021811413D
libRbt.so/2013.1/901 2013/11/27
 14 13  0  0  0  0  0  0  0  0999 V2000
   45.0731    2.0343   15.9990 N   0  0  0  0  0  0  0  0  0  0  0  0
   46.1974    1.9090   16.9517 C   0  0  0  0  0  0  0  0  0  0  0  0
   45.7213    1.3371   18.3046 C   0  0  0  0  0  0  0  0  0  0  0  0
   44.8013    2.2723   19.1064 C   0  0  0  0  0  0  0  0  0  0  0  0
   45.5232    3.5072   19.5192 N   0  0  0  0  0  0  0  0  0  0  0  0
   44.6873    4.3018   20.4555 C   0  0  0  0  0  0  0  0  0  0  0  0
   45.2760    5.6907   20.8760 C   0  0  0  0  0  0  0  0  0  0  0  0
   45.5355    6.6573   19.6849 C   0  0  0  0  0  0  0  0  0  0  0  0
   46.0393    8.0255   20.1011 C   0  0  0  0  0  0  0  0  0  0  0  0
   46.3255    8.7747   18.8923 N   0  0  0  0  0  0  0  0  0  0  0  0
   46.2418   10.1764   19.2636 C   0  0  0  0  0  0  0  0  0  0  0  0
   46.4801   11.0862   18.0642 C   0  0  0  0  0  0  0  0  0  0  0  0
   46.3924   12.5384   18.5577 C   0  0  0  0  0  0  0  0  0  0  0  0
   46.5343   13.5075   17.4607 N   0  0  0  0  0  0  0  0  0  0  0  0
  1  2  1  0  0  0  0
  2  3  1  0  0  0  0
  3  4  1  0  0  0  0
  4  5  1  0  0  0  0
  5  6  1  0  0  0  0
  6  7  1  0  0  0  0
  7  8  1  0  0  0  0
  8  9  1  0  0  0  0
  9 10  1  0  0  0  0
 10 11  1  0  0  0  0
 11 12  1  0  0  0  0
 12 13  1  0  0  0  0
 13 14  1  0  0  0  0
M  END
>  <CHROM.1>
-67.76282090,-64.66498475,-171.71373045,-175.00223402,59.28972487,177.07953000
175.94580059,156.23259768,-178.18679109,-179.18932450,-176.82643777,45.77343017
6.55829388,18.80298348,-2.13537218,1.36574498,0.57554974

>  <Name>
ligand

>  <RI>
0

>  <Rbt.Current_Directory>
/home/itssahil/PROJECTS/Mol_Feturizer/New_Systems/rnas/1TN1

>  <Rbt.Executable>
rbdock ($Id: //depot/dev/client3/rdock/2013.1/src/exe/rbdock.cxx#4 $)

>  <Rbt.Library>
libRbt.so (2013.1, Build901 2013/11/27)

>  <Rbt.Parameter_File>
/export/apps/rDock/src/rDock_2013.1_src/data/scripts/dock_solv.prm

>  <Rbt.Receptor>
prm/pocket_docking_7.prm

>  <SCORE>
-8.17561

>  <SCORE.INTER>
-4.78808

>  <SCORE.INTER.CONST>
1

>  <SCORE.INTER.POLAR>
0

>  <SCORE.INTER.ROT>
11

>  <SCORE.INTER.SOLV>
9.2524

>  <SCORE.INTER.VDW>
-17.2095

>  <SCORE.INTER.norm>
-0.342006

>  <SCORE.INTRA>
-3.38753

>  <SCORE.INTRA.DIHEDRAL>
-6.86158

>  <SCORE.INTRA.DIHEDRAL.0>
7.79482

>  <SCORE.INTRA.POLAR>
0

>  <SCORE.INTRA.POLAR.0>
0

>  <SCORE.INTRA.REPUL>
0

>  <SCORE.INTRA.REPUL.0>
0

>  <SCORE.INTRA.SOLV>
1.8144

>  <SCORE.INTRA.SOLV.lig_0>
-49.456

>  <SCORE.INTRA.VDW>
-0.863939

>  <SCORE.INTRA.VDW.0>
-0.478406

>  <SCORE.INTRA.norm>
-0.241966

>  <SCORE.RESTR>
0

>  <SCORE.RESTR.CAVITY>
0

>  <SCORE.RESTR.norm>
0

>  <SCORE.SYSTEM>
0

>  <SCORE.SYSTEM.CONST>
0

>  <SCORE.SYSTEM.DIHEDRAL>
0

>  <SCORE.SYSTEM.SOLV>
0

>  <SCORE.SYSTEM.norm>
0

>  <SCORE.heavy>
14

>  <SCORE.norm>
-0.583972

>  <RMSD>
2.376

$$$$
ligand
 OpenBabel11021811413D
libRbt.so/2013.1/901 2013/11/27
 14 13  0  0  0  0  0  0  0  0999 V2000
   46.3715   12.8536   16.9297 N   0  0  0  0  0  0  0  0  0  0  0  0
   46.9713   11.7315   17.6835 C   0  0  0  0  0  0  0  0  0  0  0  0
   45.8850   10.8818   18.3779 C   0  0  0  0  0  0  0  0  0  0  0  0
   46.4258    9.7067   19.2089 C   0  0  0  0  0  0  0  0  0  0  0  0
   45.3131    8.8887   19.7650 N   0  0  0  0  0  0  0  0  0  0  0  0
   45.8395    7.6146   20.3184 C   0  0  0  0  0  0  0  0  0  0  0  0
   44.7712    6.5025   20.5907 C   0  0  0  0  0  0  0  0  0  0  0  0
   45.3657    5.1681   21.1259 C   0  0  0  0  0  0  0  0  0  0  0  0
   46.2896    4.4696   20.1475 C   0  0  0  0  0  0  0  0  0  0  0  0
   45.4958    4.0735   18.9998 N   0  0  0  0  0  0  0  0  0  0  0  0
   45.9447    2.7378   18.6473 C   0  0  0  0  0  0  0  0  0  0  0  0
   45.2141    2.2102   17.4180 C   0  0  0  0  0  0  0  0  0  0  0  0
   45.6593    0.7560   17.2014 C   0  0  0  0  0  0  0  0  0  0  0  0
   45.1082    0.1849   15.9632 N   0  0  0  0  0  0  0  0  0  0  0  0
  1  2  1  0  0  0  0
  2  3  1  0  0  0  0
  3  4  1  0  0  0  0
  4  5  1  0  0  0  0
  5  6  1  0  0  0  0
  6  7  1  0  0  0  0
  7  8  1  0  0  0  0
  8  9  1  0  0  0  0
  9 10  1  0  0  0  0
 10 11  1  0  0  0  0
 11 12  1  0  0  0  0
 12 13  1  0  0  0  0
 13 14  1  0  0  0  0
M  END
>  <CHROM.1>
-178.85109422,-176.12848175,168.24791522,-164.55686476,178.11518627,-63.94055389
-64.85943525,-138.41291716,-178.30812692,-174.94012962,-174.69180206,45.76113386
6.26986187,18.74155821,-0.92982230,-1.43141469,-2.43928668

>  <Name>
ligand

>  <RI>
0

>  <Rbt.Current_Directory>
/home/itssahil/PROJECTS/Mol_Feturizer/New_Systems/rnas/1TN1

>  <Rbt.Executable>
rbdock ($Id: //depot/dev/client3/rdock/2013.1/src/exe/rbdock.cxx#4 $)

>  <Rbt.Library>
libRbt.so (2013.1, Build901 2013/11/27)

>  <Rbt.Parameter_File>
/export/apps/rDock/src/rDock_2013.1_src/data/scripts/dock_solv.prm

>  <Rbt.Receptor>
prm/pocket_docking_8.prm

>  <SCORE>
-9.05861

>  <SCORE.INTER>
-5.90054

>  <SCORE.INTER.CONST>
1

>  <SCORE.INTER.POLAR>
0

>  <SCORE.INTER.ROT>
11

>  <SCORE.INTER.SOLV>
10.9186

>  <SCORE.INTER.VDW>
-18.5065

>  <SCORE.INTER.norm>
-0.421467

>  <SCORE.INTRA>
-3.15807

>  <SCORE.INTRA.DIHEDRAL>
-6.12371

>  <SCORE.INTRA.DIHEDRAL.0>
7.79482

>  <SCORE.INTRA.POLAR>
0

>  <SCORE.INTRA.POLAR.0>
0

>  <SCORE.INTRA.REPUL>
0

>  <SCORE.INTRA.REPUL.0>
0

>  <SCORE.INTRA.SOLV>
0.614747

>  <SCORE.INTRA.SOLV.lig_0>
-49.456

>  <SCORE.INTRA.VDW>
-0.403584

>  <SCORE.INTRA.VDW.0>
-0.478406

>  <SCORE.INTRA.norm>
-0.225576

>  <SCORE.RESTR>
0

>  <SCORE.RESTR.CAVITY>
0

>  <SCORE.RESTR.norm>
0

>  <SCORE.SYSTEM>
0

>  <SCORE.SYSTEM.CONST>
0

>  <SCORE.SYSTEM.DIHEDRAL>
0

>  <SCORE.SYSTEM.SOLV>
0

>  <SCORE.SYSTEM.norm>
0

>  <SCORE.heavy>
14

>  <SCORE.norm>
-0.647043

>  <RMSD>
2.388

$$$$
ligand
 OpenBabel11021811413D
libRbt.so/2013.1/901 2013/11/27
 14 13  0  0  0  0  0  0  0  0999 V2000
   42.2085   12.4762   18.7244 N   0  0  0  0  0  0  0  0  0  0  0  0
   41.8276   11.3286   17.8730 C   0  0  0  0  0  0  0  0  0  0  0  0
   41.4660   10.0950   18.7283 C   0  0  0  0  0  0  0  0  0  0  0  0
   42.6243    9.5411   19.5742 C   0  0  0  0  0  0  0  0  0  0  0  0
   43.8053    9.2282   18.7234 N   0  0  0  0  0  0  0  0  0  0  0  0
   44.8871    8.6296   19.5469 C   0  0  0  0  0  0  0  0  0  0  0  0
   44.8765    7.0668   19.6455 C   0  0  0  0  0  0  0  0  0  0  0  0
   45.9342    6.4852   20.6271 C   0  0  0  0  0  0  0  0  0  0  0  0
   45.9612    4.9700   20.6758 C   0  0  0  0  0  0  0  0  0  0  0  0
   46.4425    4.4977   19.3914 N   0  0  0  0  0  0  0  0  0  0  0  0
   45.6892    3.2895   19.1039 C   0  0  0  0  0  0  0  0  0  0  0  0
   46.1426    2.6470   17.7982 C   0  0  0  0  0  0  0  0  0  0  0  0
   45.2352    1.4353   17.5368 C   0  0  0  0  0  0  0  0  0  0  0  0
   45.6013    0.7229   16.3035 N   0  0  0  0  0  0  0  0  0  0  0  0
  1  2  1  0  0  0  0
  2  3  1  0  0  0  0
  3  4  1  0  0  0  0
  4  5  1  0  0  0  0
  5  6  1  0  0  0  0
  6  7  1  0  0  0  0
  7  8  1  0  0  0  0
  8  9  1  0  0  0  0
  9 10  1  0  0  0  0
 10 11  1  0  0  0  0
 11 12  1  0  0  0  0
 12 13  1  0  0  0  0
 13 14  1  0  0  0  0
M  END
>  <CHROM.1>
-63.25238607,-55.24565949,-177.08403985,91.28881881,-174.22495594,-177.52690373
67.42840499,-143.06527841,-177.42933579,-176.50692699,-179.06885180,44.47866473
6.60088402,18.87540969,2.14641383,-0.81784442,0.52951455

>  <Name>
ligand

>  <RI>
0

>  <Rbt.Current_Directory>
/home/itssahil/PROJECTS/Mol_Feturizer/New_Systems/rnas/1TN1

>  <Rbt.Executable>
rbdock ($Id: //depot/dev/client3/rdock/2013.1/src/exe/rbdock.cxx#4 $)

>  <Rbt.Library>
libRbt.so (2013.1, Build901 2013/11/27)

>  <Rbt.Parameter_File>
/export/apps/rDock/src/rDock_2013.1_src/data/scripts/dock_solv.prm

>  <Rbt.Receptor>
prm/pocket_docking_8.prm

>  <SCORE>
-11.0572

>  <SCORE.INTER>
-8.63297

>  <SCORE.INTER.CONST>
1

>  <SCORE.INTER.POLAR>
0

>  <SCORE.INTER.ROT>
11

>  <SCORE.INTER.SOLV>
16.7575

>  <SCORE.INTER.VDW>
-22.2745

>  <SCORE.INTER.norm>
-0.616641

>  <SCORE.INTRA>
-2.42425

>  <SCORE.INTRA.DIHEDRAL>
-5.79754

>  <SCORE.INTRA.DIHEDRAL.0>
7.79482

>  <SCORE.INTRA.POLAR>
0

>  <SCORE.INTRA.POLAR.0>
0

>  <SCORE.INTRA.REPUL>
0

>  <SCORE.INTRA.REPUL.0>
0

>  <SCORE.INTRA.SOLV>
2.17912

>  <SCORE.INTRA.SOLV.lig_0>
-49.456

>  <SCORE.INTRA.VDW>
-0.615035

>  <SCORE.INTRA.VDW.0>
-0.478406

>  <SCORE.INTRA.norm>
-0.173161

>  <SCORE.RESTR>
0

>  <SCORE.RESTR.CAVITY>
0

>  <SCORE.RESTR.norm>
0

>  <SCORE.SYSTEM>
0

>  <SCORE.SYSTEM.CONST>
0

>  <SCORE.SYSTEM.DIHEDRAL>
0

>  <SCORE.SYSTEM.SOLV>
0

>  <SCORE.SYSTEM.norm>
0

>  <SCORE.heavy>
14

>  <SCORE.norm>
-0.789802

>  <RMSD>
2.391

$$$$
ligand
 OpenBabel11021811413D
libRbt.so/2013.1/901 2013/11/27
 14 13  0  0  0  0  0  0  0  0999 V2000
   45.6892   -1.0951   15.3836 N   0  0  0  0  0  0  0  0  0  0  0  0
   45.4016   -0.3817   16.6467 C   0  0  0  0  0  0  0  0  0  0  0  0
   44.4342    0.7988   16.4130 C   0  0  0  0  0  0  0  0  0  0  0  0
   44.1443    1.6457   17.6631 C   0  0  0  0  0  0  0  0  0  0  0  0
   45.3569    2.3937   18.0948 N   0  0  0  0  0  0  0  0  0  0  0  0
   45.0212    3.3163   19.2096 C   0  0  0  0  0  0  0  0  0  0  0  0
   46.2124    4.1669   19.7661 C   0  0  0  0  0  0  0  0  0  0  0  0
   45.8538    5.0202   21.0166 C   0  0  0  0  0  0  0  0  0  0  0  0
   44.9469    6.1982   20.7185 C   0  0  0  0  0  0  0  0  0  0  0  0
   45.6999    7.1391   19.9110 N   0  0  0  0  0  0  0  0  0  0  0  0
   44.7762    8.2113   19.5841 C   0  0  0  0  0  0  0  0  0  0  0  0
   45.3763    9.1732   18.5654 C   0  0  0  0  0  0  0  0  0  0  0  0
   44.3215   10.2486   18.2639 C   0  0  0  0  0  0  0  0  0  0  0  0
   44.7923   11.2257   17.2708 N   0  0  0  0  0  0  0  0  0  0  0  0
  1  2  1  0  0  0  0
  2  3  1  0  0  0  0
  3  4  1  0  0  0  0
  4  5  1  0  0  0  0
  5  6  1  0  0  0  0
  6  7  1  0  0  0  0
  7  8  1  0  0  0  0
  8  9  1  0  0  0  0
  9 10  1  0  0  0  0
 10 11  1  0  0  0  0
 11 12  1  0  0  0  0
 12 13  1  0  0  0  0
 13 14  1  0  0  0  0
M  END
>  <CHROM.1>
-176.66920259,67.88832023,173.85980987,179.84010897,-174.55320478,-71.21908466
-67.43313498,176.81562917,-171.62636279,178.87107418,-179.19748045,45.14466608
4.86147439,18.46512576,1.46465313,1.37012937,-2.81726609

>  <Name>
ligand

>  <RI>
0

>  <Rbt.Current_Directory>
/home/itssahil/PROJECTS/Mol_Feturizer/New_Systems/rnas/1TN1

>  <Rbt.Executable>
rbdock ($Id: //depot/dev/client3/rdock/2013.1/src/exe/rbdock.cxx#4 $)

>  <Rbt.Library>
libRbt.so (2013.1, Build901 2013/11/27)

>  <Rbt.Parameter_File>
/export/apps/rDock/src/rDock_2013.1_src/data/scripts/dock_solv.prm

>  <Rbt.Receptor>
prm/pocket_docking_7.prm

>  <SCORE>
-9.88776

>  <SCORE.INTER>
-6.38491

>  <SCORE.INTER.CONST>
1

>  <SCORE.INTER.POLAR>
0

>  <SCORE.INTER.ROT>
11

>  <SCORE.INTER.SOLV>
12.7688

>  <SCORE.INTER.VDW>
-19.4462

>  <SCORE.INTER.norm>
-0.456065

>  <SCORE.INTRA>
-3.50285

>  <SCORE.INTRA.DIHEDRAL>
-6.58692

>  <SCORE.INTRA.DIHEDRAL.0>
7.79482

>  <SCORE.INTRA.POLAR>
0

>  <SCORE.INTRA.POLAR.0>
0

>  <SCORE.INTRA.REPUL>
0

>  <SCORE.INTRA.REPUL.0>
0

>  <SCORE.INTRA.SOLV>
0.826506

>  <SCORE.INTRA.SOLV.lig_0>
-49.456

>  <SCORE.INTRA.VDW>
-0.622642

>  <SCORE.INTRA.VDW.0>
-0.478406

>  <SCORE.INTRA.norm>
-0.250203

>  <SCORE.RESTR>
0

>  <SCORE.RESTR.CAVITY>
0

>  <SCORE.RESTR.norm>
0

>  <SCORE.SYSTEM>
0

>  <SCORE.SYSTEM.CONST>
0

>  <SCORE.SYSTEM.DIHEDRAL>
0

>  <SCORE.SYSTEM.SOLV>
0

>  <SCORE.SYSTEM.norm>
0

>  <SCORE.heavy>
14

>  <SCORE.norm>
-0.706268

>  <RMSD>
2.396

$$$$
ligand
 OpenBabel11021811413D
libRbt.so/2013.1/901 2013/11/27
 14 13  0  0  0  0  0  0  0  0999 V2000
   46.2179    2.9308   14.8264 N   0  0  0  0  0  0  0  0  0  0  0  0
   46.4285    3.0335   16.2866 C   0  0  0  0  0  0  0  0  0  0  0  0
   46.0784    1.7074   16.9956 C   0  0  0  0  0  0  0  0  0  0  0  0
   46.3368    1.7044   18.5113 C   0  0  0  0  0  0  0  0  0  0  0  0
   45.3850    2.6054   19.2174 N   0  0  0  0  0  0  0  0  0  0  0  0
   45.9674    3.9655   19.3496 C   0  0  0  0  0  0  0  0  0  0  0  0
   45.5984    4.7351   20.6625 C   0  0  0  0  0  0  0  0  0  0  0  0
   46.0291    6.2300   20.6649 C   0  0  0  0  0  0  0  0  0  0  0  0
   45.2399    7.0995   19.7057 C   0  0  0  0  0  0  0  0  0  0  0  0
   45.6956    8.4662   19.8752 N   0  0  0  0  0  0  0  0  0  0  0  0
   44.8114    9.2841   19.0634 C   0  0  0  0  0  0  0  0  0  0  0  0
   45.5961   10.2568   18.1909 C   0  0  0  0  0  0  0  0  0  0  0  0
   44.5829   11.0481   17.3499 C   0  0  0  0  0  0  0  0  0  0  0  0
   45.2351   12.0435   16.4859 N   0  0  0  0  0  0  0  0  0  0  0  0
  1  2  1  0  0  0  0
  2  3  1  0  0  0  0
  3  4  1  0  0  0  0
  4  5  1  0  0  0  0
  5  6  1  0  0  0  0
  6  7  1  0  0  0  0
  7  8  1  0  0  0  0
  8  9  1  0  0  0  0
  9 10  1  0  0  0  0
 10 11  1  0  0  0  0
 11 12  1  0  0  0  0
 12 13  1  0  0  0  0
 13 14  1  0  0  0  0
M  END
>  <CHROM.1>
177.06319870,68.83718139,-91.82008465,-145.38216477,-170.56383258,69.54051695
176.70631487,-173.32584393,-131.73776072,178.63809556,178.76129587,45.65734564
6.07913037,18.37069183,-0.35446557,1.44667655,-1.17201642

>  <Name>
ligand

>  <RI>
0

>  <Rbt.Current_Directory>
/home/itssahil/PROJECTS/Mol_Feturizer/New_Systems/rnas/1TN1

>  <Rbt.Executable>
rbdock ($Id: //depot/dev/client3/rdock/2013.1/src/exe/rbdock.cxx#4 $)

>  <Rbt.Library>
libRbt.so (2013.1, Build901 2013/11/27)

>  <Rbt.Parameter_File>
/export/apps/rDock/src/rDock_2013.1_src/data/scripts/dock_solv.prm

>  <Rbt.Receptor>
prm/pocket_docking_5.prm

>  <SCORE>
-7.32874

>  <SCORE.INTER>
-5.21908

>  <SCORE.INTER.CONST>
1

>  <SCORE.INTER.POLAR>
0

>  <SCORE.INTER.ROT>
11

>  <SCORE.INTER.SOLV>
8.95793

>  <SCORE.INTER.VDW>
-17.3987

>  <SCORE.INTER.norm>
-0.372791

>  <SCORE.INTRA>
-2.10967

>  <SCORE.INTRA.DIHEDRAL>
-4.18703

>  <SCORE.INTRA.DIHEDRAL.0>
7.79482

>  <SCORE.INTRA.POLAR>
0

>  <SCORE.INTRA.POLAR.0>
0

>  <SCORE.INTRA.REPUL>
0

>  <SCORE.INTRA.REPUL.0>
0

>  <SCORE.INTRA.SOLV>
0.44281

>  <SCORE.INTRA.SOLV.lig_0>
-49.456

>  <SCORE.INTRA.VDW>
-0.237555

>  <SCORE.INTRA.VDW.0>
-0.478406

>  <SCORE.INTRA.norm>
-0.150691

>  <SCORE.RESTR>
0

>  <SCORE.RESTR.CAVITY>
0

>  <SCORE.RESTR.norm>
0

>  <SCORE.SYSTEM>
0

>  <SCORE.SYSTEM.CONST>
0

>  <SCORE.SYSTEM.DIHEDRAL>
0

>  <SCORE.SYSTEM.SOLV>
0

>  <SCORE.SYSTEM.norm>
0

>  <SCORE.heavy>
14

>  <SCORE.norm>
-0.523482

>  <RMSD>
2.407

$$$$
ligand
 OpenBabel11021811413D
libRbt.so/2013.1/901 2013/11/27
 14 13  0  0  0  0  0  0  0  0999 V2000
   45.7586    0.8177   15.7552 N   0  0  0  0  0  0  0  0  0  0  0  0
   45.2141    0.3757   17.0572 C   0  0  0  0  0  0  0  0  0  0  0  0
   45.8498    1.1622   18.2239 C   0  0  0  0  0  0  0  0  0  0  0  0
   45.6380    2.6838   18.1603 C   0  0  0  0  0  0  0  0  0  0  0  0
   46.1028    3.3408   19.4128 N   0  0  0  0  0  0  0  0  0  0  0  0
   45.9247    4.8125   19.3170 C   0  0  0  0  0  0  0  0  0  0  0  0
   45.8463    5.5749   20.6826 C   0  0  0  0  0  0  0  0  0  0  0  0
   45.7401    7.1206   20.5418 C   0  0  0  0  0  0  0  0  0  0  0  0
   44.4351    7.5951   19.9330 C   0  0  0  0  0  0  0  0  0  0  0  0
   44.4967    9.0410   19.8334 N   0  0  0  0  0  0  0  0  0  0  0  0
   44.9364    9.3282   18.4792 C   0  0  0  0  0  0  0  0  0  0  0  0
   45.7051   10.6426   18.4094 C   0  0  0  0  0  0  0  0  0  0  0  0
   46.1187   10.8620   16.9462 C   0  0  0  0  0  0  0  0  0  0  0  0
   47.0637    9.8377   16.4765 N   0  0  0  0  0  0  0  0  0  0  0  0
  1  2  1  0  0  0  0
  2  3  1  0  0  0  0
  3  4  1  0  0  0  0
  4  5  1  0  0  0  0
  5  6  1  0  0  0  0
  6  7  1  0  0  0  0
  7  8  1  0  0  0  0
  8  9  1  0  0  0  0
  9 10  1  0  0  0  0
 10 11  1  0  0  0  0
 11 12  1  0  0  0  0
 12 13  1  0  0  0  0
 13 14  1  0  0  0  0
M  END
>  <CHROM.1>
59.37896119,171.64392940,178.43961794,157.80149178,176.74178772,67.41275411
-178.50640485,95.80553685,-151.13118105,-179.69163831,-64.77321326,45.63064188
5.94256352,18.51658197,-1.54766237,1.35896900,0.06255614

>  <Name>
ligand

>  <RI>
0

>  <Rbt.Current_Directory>
/home/itssahil/PROJECTS/Mol_Feturizer/New_Systems/rnas/1TN1

>  <Rbt.Executable>
rbdock ($Id: //depot/dev/client3/rdock/2013.1/src/exe/rbdock.cxx#4 $)

>  <Rbt.Library>
libRbt.so (2013.1, Build901 2013/11/27)

>  <Rbt.Parameter_File>
/export/apps/rDock/src/rDock_2013.1_src/data/scripts/dock_solv.prm

>  <Rbt.Receptor>
prm/blind_docking_60.prm

>  <SCORE>
-7.85298

>  <SCORE.INTER>
-5.96388

>  <SCORE.INTER.CONST>
1

>  <SCORE.INTER.POLAR>
0

>  <SCORE.INTER.ROT>
11

>  <SCORE.INTER.SOLV>
10.9978

>  <SCORE.INTER.VDW>
-18.5752

>  <SCORE.INTER.norm>
-0.425992

>  <SCORE.INTRA>
-1.8891

>  <SCORE.INTRA.DIHEDRAL>
-5.46341

>  <SCORE.INTRA.DIHEDRAL.0>
7.79482

>  <SCORE.INTRA.POLAR>
0

>  <SCORE.INTRA.POLAR.0>
0

>  <SCORE.INTRA.REPUL>
0

>  <SCORE.INTRA.REPUL.0>
0

>  <SCORE.INTRA.SOLV>
1.61154

>  <SCORE.INTRA.SOLV.lig_0>
-49.456

>  <SCORE.INTRA.VDW>
0.0368418

>  <SCORE.INTRA.VDW.0>
-0.478406

>  <SCORE.INTRA.norm>
-0.134935

>  <SCORE.RESTR>
0

>  <SCORE.RESTR.CAVITY>
0

>  <SCORE.RESTR.norm>
0

>  <SCORE.SYSTEM>
0

>  <SCORE.SYSTEM.CONST>
0

>  <SCORE.SYSTEM.DIHEDRAL>
0

>  <SCORE.SYSTEM.SOLV>
0

>  <SCORE.SYSTEM.norm>
0

>  <SCORE.heavy>
14

>  <SCORE.norm>
-0.560927

>  <RMSD>
2.412

$$$$
ligand
 OpenBabel11021811413D
libRbt.so/2013.1/901 2013/11/27
 14 13  0  0  0  0  0  0  0  0999 V2000
   41.7616   11.5106   18.6864 N   0  0  0  0  0  0  0  0  0  0  0  0
   41.2575   10.1301   18.8511 C   0  0  0  0  0  0  0  0  0  0  0  0
   42.2423    9.2707   19.6730 C   0  0  0  0  0  0  0  0  0  0  0  0
   43.6630    9.1919   19.0904 C   0  0  0  0  0  0  0  0  0  0  0  0
   44.5917    8.5145   20.0365 N   0  0  0  0  0  0  0  0  0  0  0  0
   44.5971    7.0496   19.7901 C   0  0  0  0  0  0  0  0  0  0  0  0
   45.3352    6.1849   20.8669 C   0  0  0  0  0  0  0  0  0  0  0  0
   45.3071    4.6557   20.5820 C   0  0  0  0  0  0  0  0  0  0  0  0
   46.0687    4.2477   19.3361 C   0  0  0  0  0  0  0  0  0  0  0  0
   45.9117    2.8146   19.1748 N   0  0  0  0  0  0  0  0  0  0  0  0
   46.5100    2.4906   17.8916 C   0  0  0  0  0  0  0  0  0  0  0  0
   45.4488    2.1540   16.8506 C   0  0  0  0  0  0  0  0  0  0  0  0
   44.7662    0.8490   17.2878 C   0  0  0  0  0  0  0  0  0  0  0  0
   45.6723   -0.3064   17.2057 N   0  0  0  0  0  0  0  0  0  0  0  0
  1  2  1  0  0  0  0
  2  3  1  0  0  0  0
  3  4  1  0  0  0  0
  4  5  1  0  0  0  0
  5  6  1  0  0  0  0
  6  7  1  0  0  0  0
  7  8  1  0  0  0  0
  8  9  1  0  0  0  0
  9 10  1  0  0  0  0
 10 11  1  0  0  0  0
 11 12  1  0  0  0  0
 12 13  1  0  0  0  0
 13 14  1  0  0  0  0
M  END
>  <CHROM.1>
-57.15786922,171.81482984,89.51768154,-169.83640727,179.41170876,65.54297099
-177.90104617,173.11814838,-107.50089950,-66.36086030,-67.92731159,44.50952585
5.62553098,18.95171358,2.08140612,-0.78128762,0.55035521

>  <Name>
ligand

>  <RI>
0

>  <Rbt.Current_Directory>
/home/itssahil/PROJECTS/Mol_Feturizer/New_Systems/rnas/1TN1

>  <Rbt.Executable>
rbdock ($Id: //depot/dev/client3/rdock/2013.1/src/exe/rbdock.cxx#4 $)

>  <Rbt.Library>
libRbt.so (2013.1, Build901 2013/11/27)

>  <Rbt.Parameter_File>
/export/apps/rDock/src/rDock_2013.1_src/data/scripts/dock_solv.prm

>  <Rbt.Receptor>
prm/pocket_docking_7.prm

>  <SCORE>
-9.50692

>  <SCORE.INTER>
-8.36256

>  <SCORE.INTER.CONST>
1

>  <SCORE.INTER.POLAR>
0

>  <SCORE.INTER.ROT>
11

>  <SCORE.INTER.SOLV>
20.8195

>  <SCORE.INTER.VDW>
-23.4482

>  <SCORE.INTER.norm>
-0.597326

>  <SCORE.INTRA>
-1.14435

>  <SCORE.INTRA.DIHEDRAL>
-5.20035

>  <SCORE.INTRA.DIHEDRAL.0>
7.79482

>  <SCORE.INTRA.POLAR>
0

>  <SCORE.INTRA.POLAR.0>
0

>  <SCORE.INTRA.REPUL>
0

>  <SCORE.INTRA.REPUL.0>
0

>  <SCORE.INTRA.SOLV>
2.60079

>  <SCORE.INTRA.SOLV.lig_0>
-49.456

>  <SCORE.INTRA.VDW>
0.155425

>  <SCORE.INTRA.VDW.0>
-0.478406

>  <SCORE.INTRA.norm>
-0.0817395

>  <SCORE.RESTR>
0

>  <SCORE.RESTR.CAVITY>
0

>  <SCORE.RESTR.norm>
0

>  <SCORE.SYSTEM>
0

>  <SCORE.SYSTEM.CONST>
0

>  <SCORE.SYSTEM.DIHEDRAL>
0

>  <SCORE.SYSTEM.SOLV>
0

>  <SCORE.SYSTEM.norm>
0

>  <SCORE.heavy>
14

>  <SCORE.norm>
-0.679065

>  <RMSD>
2.413

$$$$
ligand
 OpenBabel11021811413D
libRbt.so/2013.1/901 2013/11/27
 14 13  0  0  0  0  0  0  0  0999 V2000
   45.6280   10.7631   17.0926 N   0  0  0  0  0  0  0  0  0  0  0  0
   45.5844   10.6559   18.5670 C   0  0  0  0  0  0  0  0  0  0  0  0
   46.4634    9.4896   19.0679 C   0  0  0  0  0  0  0  0  0  0  0  0
   46.0870    8.1130   18.4958 C   0  0  0  0  0  0  0  0  0  0  0  0
   46.8859    7.0318   19.1354 N   0  0  0  0  0  0  0  0  0  0  0  0
   46.0460    6.2738   20.0981 C   0  0  0  0  0  0  0  0  0  0  0  0
   46.2297    4.7188   20.0781 C   0  0  0  0  0  0  0  0  0  0  0  0
   45.6848    4.0314   18.7932 C   0  0  0  0  0  0  0  0  0  0  0  0
   45.6984    2.5164   18.8527 C   0  0  0  0  0  0  0  0  0  0  0  0
   44.9788    2.0246   17.6931 N   0  0  0  0  0  0  0  0  0  0  0  0
   45.6175    0.7716   17.3302 C   0  0  0  0  0  0  0  0  0  0  0  0
   45.0535    0.2147   16.0283 C   0  0  0  0  0  0  0  0  0  0  0  0
   45.8273   -1.0708   15.6988 C   0  0  0  0  0  0  0  0  0  0  0  0
   45.5981   -2.1280   16.6950 N   0  0  0  0  0  0  0  0  0  0  0  0
  1  2  1  0  0  0  0
  2  3  1  0  0  0  0
  3  4  1  0  0  0  0
  4  5  1  0  0  0  0
  5  6  1  0  0  0  0
  6  7  1  0  0  0  0
  7  8  1  0  0  0  0
  8  9  1  0  0  0  0
  9 10  1  0  0  0  0
 10 11  1  0  0  0  0
 11 12  1  0  0  0  0
 12 13  1  0  0  0  0
 13 14  1  0  0  0  0
M  END
>  <CHROM.1>
-58.00221626,-174.05273726,105.22982991,138.04379383,-69.51279896,-172.45004476
171.22092790,147.51068826,-173.89042749,177.64527429,65.03091675,45.81307034
4.52904764,18.11635873,1.29770288,-1.36986208,-0.07832210

>  <Name>
ligand

>  <RI>
0

>  <Rbt.Current_Directory>
/home/itssahil/PROJECTS/Mol_Feturizer/New_Systems/rnas/1TN1

>  <Rbt.Executable>
rbdock ($Id: //depot/dev/client3/rdock/2013.1/src/exe/rbdock.cxx#4 $)

>  <Rbt.Library>
libRbt.so (2013.1, Build901 2013/11/27)

>  <Rbt.Parameter_File>
/export/apps/rDock/src/rDock_2013.1_src/data/scripts/dock_solv.prm

>  <Rbt.Receptor>
prm/pocket_docking_2.prm

>  <SCORE>
-5.28637

>  <SCORE.INTER>
-3.62696

>  <SCORE.INTER.CONST>
1

>  <SCORE.INTER.POLAR>
0

>  <SCORE.INTER.ROT>
11

>  <SCORE.INTER.SOLV>
18.1287

>  <SCORE.INTER.VDW>
-19.3942

>  <SCORE.INTER.norm>
-0.259069

>  <SCORE.INTRA>
-1.68738

>  <SCORE.INTRA.DIHEDRAL>
-3.98368

>  <SCORE.INTRA.DIHEDRAL.0>
7.79482

>  <SCORE.INTRA.POLAR>
0

>  <SCORE.INTRA.POLAR.0>
0

>  <SCORE.INTRA.REPUL>
0

>  <SCORE.INTRA.REPUL.0>
0

>  <SCORE.INTRA.SOLV>
1.77083

>  <SCORE.INTRA.SOLV.lig_0>
-49.456

>  <SCORE.INTRA.VDW>
-0.580953

>  <SCORE.INTRA.VDW.0>
-0.478406

>  <SCORE.INTRA.norm>
-0.120527

>  <SCORE.RESTR>
0.0279665

>  <SCORE.RESTR.CAVITY>
0.0279665

>  <SCORE.RESTR.norm>
0.0019976

>  <SCORE.SYSTEM>
0

>  <SCORE.SYSTEM.CONST>
0

>  <SCORE.SYSTEM.DIHEDRAL>
0

>  <SCORE.SYSTEM.SOLV>
0

>  <SCORE.SYSTEM.norm>
0

>  <SCORE.heavy>
14

>  <SCORE.norm>
-0.377598

>  <RMSD>
2.415

$$$$
ligand
 OpenBabel11021811413D
libRbt.so/2013.1/901 2013/11/27
 14 13  0  0  0  0  0  0  0  0999 V2000
   45.1229   10.8686   17.4017 N   0  0  0  0  0  0  0  0  0  0  0  0
   46.0547   10.9473   18.5474 C   0  0  0  0  0  0  0  0  0  0  0  0
   46.6358    9.5586   18.8906 C   0  0  0  0  0  0  0  0  0  0  0  0
   45.5999    8.5363   19.3866 C   0  0  0  0  0  0  0  0  0  0  0  0
   46.2307    7.2091   19.6251 N   0  0  0  0  0  0  0  0  0  0  0  0
   45.3301    6.3511   20.4372 C   0  0  0  0  0  0  0  0  0  0  0  0
   45.9261    4.9722   20.8792 C   0  0  0  0  0  0  0  0  0  0  0  0
   46.1970    3.9909   19.7027 C   0  0  0  0  0  0  0  0  0  0  0  0
   44.9480    3.3317   19.1510 C   0  0  0  0  0  0  0  0  0  0  0  0
   45.3650    2.3708   18.1475 N   0  0  0  0  0  0  0  0  0  0  0  0
   44.1479    1.7326   17.6775 C   0  0  0  0  0  0  0  0  0  0  0  0
   44.3845    0.9670   16.3809 C   0  0  0  0  0  0  0  0  0  0  0  0
   45.3539   -0.1837   16.6908 C   0  0  0  0  0  0  0  0  0  0  0  0
   45.6108   -1.0261   15.5131 N   0  0  0  0  0  0  0  0  0  0  0  0
  1  2  1  0  0  0  0
  2  3  1  0  0  0  0
  3  4  1  0  0  0  0
  4  5  1  0  0  0  0
  5  6  1  0  0  0  0
  6  7  1  0  0  0  0
  7  8  1  0  0  0  0
  8  9  1  0  0  0  0
  9 10  1  0  0  0  0
 10 11  1  0  0  0  0
 11 12  1  0  0  0  0
 12 13  1  0  0  0  0
 13 14  1  0  0  0  0
M  END
>  <CHROM.1>
-64.84607031,177.01248737,164.68356121,-174.41155867,-66.28039564,-76.19193112
-175.30018436,178.16551289,165.25040033,64.95202587,177.68215280,45.49334890
4.97337308,18.45970331,0.99258775,-1.41274917,-0.35598112

>  <Name>
ligand

>  <RI>
0

>  <Rbt.Current_Directory>
/home/itssahil/PROJECTS/Mol_Feturizer/New_Systems/rnas/1TN1

>  <Rbt.Executable>
rbdock ($Id: //depot/dev/client3/rdock/2013.1/src/exe/rbdock.cxx#4 $)

>  <Rbt.Library>
libRbt.so (2013.1, Build901 2013/11/27)

>  <Rbt.Parameter_File>
/export/apps/rDock/src/rDock_2013.1_src/data/scripts/dock_solv.prm

>  <Rbt.Receptor>
prm/pocket_docking_5.prm

>  <SCORE>
-8.34853

>  <SCORE.INTER>
-5.6245

>  <SCORE.INTER.CONST>
1

>  <SCORE.INTER.POLAR>
0

>  <SCORE.INTER.ROT>
11

>  <SCORE.INTER.SOLV>
12.9196

>  <SCORE.INTER.VDW>
-18.9895

>  <SCORE.INTER.norm>
-0.40175

>  <SCORE.INTRA>
-2.72403

>  <SCORE.INTRA.DIHEDRAL>
-5.91243

>  <SCORE.INTRA.DIHEDRAL.0>
7.79482

>  <SCORE.INTRA.POLAR>
0

>  <SCORE.INTRA.POLAR.0>
0

>  <SCORE.INTRA.REPUL>
0

>  <SCORE.INTRA.REPUL.0>
0

>  <SCORE.INTRA.SOLV>
1.5765

>  <SCORE.INTRA.SOLV.lig_0>
-49.456

>  <SCORE.INTRA.VDW>
-0.556069

>  <SCORE.INTRA.VDW.0>
-0.478406

>  <SCORE.INTRA.norm>
-0.194574

>  <SCORE.RESTR>
0

>  <SCORE.RESTR.CAVITY>
0

>  <SCORE.RESTR.norm>
0

>  <SCORE.SYSTEM>
0

>  <SCORE.SYSTEM.CONST>
0

>  <SCORE.SYSTEM.DIHEDRAL>
0

>  <SCORE.SYSTEM.SOLV>
0

>  <SCORE.SYSTEM.norm>
0

>  <SCORE.heavy>
14

>  <SCORE.norm>
-0.596324

>  <RMSD>
2.418

$$$$
ligand
 OpenBabel11021811413D
libRbt.so/2013.1/901 2013/11/27
 14 13  0  0  0  0  0  0  0  0999 V2000
   44.9614    0.5968   15.7974 N   0  0  0  0  0  0  0  0  0  0  0  0
   45.5924   -0.0098   16.9895 C   0  0  0  0  0  0  0  0  0  0  0  0
   45.6997    1.0100   18.1439 C   0  0  0  0  0  0  0  0  0  0  0  0
   46.4694    2.2942   17.7937 C   0  0  0  0  0  0  0  0  0  0  0  0
   46.5869    3.1869   18.9793 N   0  0  0  0  0  0  0  0  0  0  0  0
   45.2642    3.7755   19.3120 C   0  0  0  0  0  0  0  0  0  0  0  0
   45.2255    4.6705   20.5963 C   0  0  0  0  0  0  0  0  0  0  0  0
   46.0223    6.0005   20.4678 C   0  0  0  0  0  0  0  0  0  0  0  0
   45.4026    6.9993   19.5101 C   0  0  0  0  0  0  0  0  0  0  0  0
   46.2579    8.1707   19.4828 N   0  0  0  0  0  0  0  0  0  0  0  0
   45.4352    9.2523   18.9699 C   0  0  0  0  0  0  0  0  0  0  0  0
   46.2530   10.5200   18.7521 C   0  0  0  0  0  0  0  0  0  0  0  0
   47.2702   10.2310   17.6378 C   0  0  0  0  0  0  0  0  0  0  0  0
   46.6247   10.0547   16.3283 N   0  0  0  0  0  0  0  0  0  0  0  0
  1  2  1  0  0  0  0
  2  3  1  0  0  0  0
  3  4  1  0  0  0  0
  4  5  1  0  0  0  0
  5  6  1  0  0  0  0
  6  7  1  0  0  0  0
  7  8  1  0  0  0  0
  8  9  1  0  0  0  0
  9 10  1  0  0  0  0
 10 11  1  0  0  0  0
 11 12  1  0  0  0  0
 12 13  1  0  0  0  0
 13 14  1  0  0  0  0
M  END
>  <CHROM.1>
-56.90346050,-177.00306393,-70.67457728,176.43359075,67.70913684,69.13283979
-179.29437651,-160.14778451,-174.13083195,65.36744715,68.58055382,45.93316535
5.48231063,18.48327009,-2.09152323,1.40244755,0.60855725

>  <Name>
ligand

>  <RI>
0

>  <Rbt.Current_Directory>
/home/itssahil/PROJECTS/Mol_Feturizer/New_Systems/rnas/1TN1

>  <Rbt.Executable>
rbdock ($Id: //depot/dev/client3/rdock/2013.1/src/exe/rbdock.cxx#4 $)

>  <Rbt.Library>
libRbt.so (2013.1, Build901 2013/11/27)

>  <Rbt.Parameter_File>
/export/apps/rDock/src/rDock_2013.1_src/data/scripts/dock_solv.prm

>  <Rbt.Receptor>
prm/pocket_docking_3.prm

>  <SCORE>
-6.69182

>  <SCORE.INTER>
-5.50787

>  <SCORE.INTER.CONST>
1

>  <SCORE.INTER.POLAR>
0

>  <SCORE.INTER.ROT>
11

>  <SCORE.INTER.SOLV>
11.7995

>  <SCORE.INTER.VDW>
-18.5384

>  <SCORE.INTER.norm>
-0.393419

>  <SCORE.INTRA>
-1.18395

>  <SCORE.INTRA.DIHEDRAL>
-6.34976

>  <SCORE.INTRA.DIHEDRAL.0>
7.79482

>  <SCORE.INTRA.POLAR>
0

>  <SCORE.INTRA.POLAR.0>
0

>  <SCORE.INTRA.REPUL>
0

>  <SCORE.INTRA.REPUL.0>
0

>  <SCORE.INTRA.SOLV>
3.08968

>  <SCORE.INTRA.SOLV.lig_0>
-49.456

>  <SCORE.INTRA.VDW>
0.446084

>  <SCORE.INTRA.VDW.0>
-0.478406

>  <SCORE.INTRA.norm>
-0.0845681

>  <SCORE.RESTR>
0

>  <SCORE.RESTR.CAVITY>
0

>  <SCORE.RESTR.norm>
0

>  <SCORE.SYSTEM>
0

>  <SCORE.SYSTEM.CONST>
0

>  <SCORE.SYSTEM.DIHEDRAL>
0

>  <SCORE.SYSTEM.SOLV>
0

>  <SCORE.SYSTEM.norm>
0

>  <SCORE.heavy>
14

>  <SCORE.norm>
-0.477987

>  <RMSD>
2.435

$$$$
ligand
 OpenBabel11021811413D
libRbt.so/2013.1/901 2013/11/27
 14 13  0  0  0  0  0  0  0  0999 V2000
   41.8428   12.2194   17.5692 N   0  0  0  0  0  0  0  0  0  0  0  0
   41.6626   11.0331   18.4337 C   0  0  0  0  0  0  0  0  0  0  0  0
   42.9914   10.2679   18.6152 C   0  0  0  0  0  0  0  0  0  0  0  0
   42.9028    9.0421   19.5391 C   0  0  0  0  0  0  0  0  0  0  0  0
   44.2406    8.4163   19.7263 N   0  0  0  0  0  0  0  0  0  0  0  0
   44.1043    7.1131   20.4262 C   0  0  0  0  0  0  0  0  0  0  0  0
   45.4345    6.3124   20.6306 C   0  0  0  0  0  0  0  0  0  0  0  0
   45.2394    4.9120   21.2796 C   0  0  0  0  0  0  0  0  0  0  0  0
   44.4745    3.9323   20.4113 C   0  0  0  0  0  0  0  0  0  0  0  0
   45.3470    3.5365   19.3220 N   0  0  0  0  0  0  0  0  0  0  0  0
   44.7951    2.2987   18.7996 C   0  0  0  0  0  0  0  0  0  0  0  0
   45.6290    1.7607   17.6428 C   0  0  0  0  0  0  0  0  0  0  0  0
   44.8861    0.5499   17.0580 C   0  0  0  0  0  0  0  0  0  0  0  0
   45.5527    0.0139   15.8617 N   0  0  0  0  0  0  0  0  0  0  0  0
  1  2  1  0  0  0  0
  2  3  1  0  0  0  0
  3  4  1  0  0  0  0
  4  5  1  0  0  0  0
  5  6  1  0  0  0  0
  6  7  1  0  0  0  0
  7  8  1  0  0  0  0
  8  9  1  0  0  0  0
  9 10  1  0  0  0  0
 10 11  1  0  0  0  0
 11 12  1  0  0  0  0
 12 13  1  0  0  0  0
 13 14  1  0  0  0  0
M  END
>  <CHROM.1>
178.14860808,-176.42103954,-170.45959942,177.30033872,-176.07093444,66.05166570
72.21384168,160.75272970,-179.62681200,-173.68375609,175.47090017,44.22161883
5.81477017,18.95141315,2.30214426,-1.13227183,0.78902176

>  <Name>
ligand

>  <RI>
0

>  <Rbt.Current_Directory>
/home/itssahil/PROJECTS/Mol_Feturizer/New_Systems/rnas/1TN1

>  <Rbt.Executable>
rbdock ($Id: //depot/dev/client3/rdock/2013.1/src/exe/rbdock.cxx#4 $)

>  <Rbt.Library>
libRbt.so (2013.1, Build901 2013/11/27)

>  <Rbt.Parameter_File>
/export/apps/rDock/src/rDock_2013.1_src/data/scripts/dock_solv.prm

>  <Rbt.Receptor>
prm/pocket_docking_5.prm

>  <SCORE>
-12.1466

>  <SCORE.INTER>
-8.69292

>  <SCORE.INTER.CONST>
1

>  <SCORE.INTER.POLAR>
0

>  <SCORE.INTER.ROT>
11

>  <SCORE.INTER.SOLV>
17.0377

>  <SCORE.INTER.VDW>
-22.4079

>  <SCORE.INTER.norm>
-0.620923

>  <SCORE.INTRA>
-3.45371

>  <SCORE.INTRA.DIHEDRAL>
-6.3916

>  <SCORE.INTRA.DIHEDRAL.0>
7.79482

>  <SCORE.INTRA.POLAR>
0

>  <SCORE.INTRA.POLAR.0>
0

>  <SCORE.INTRA.REPUL>
0

>  <SCORE.INTRA.REPUL.0>
0

>  <SCORE.INTRA.SOLV>
0.536188

>  <SCORE.INTRA.SOLV.lig_0>
-49.456

>  <SCORE.INTRA.VDW>
-0.526001

>  <SCORE.INTRA.VDW.0>
-0.478406

>  <SCORE.INTRA.norm>
-0.246694

>  <SCORE.RESTR>
0

>  <SCORE.RESTR.CAVITY>
0

>  <SCORE.RESTR.norm>
0

>  <SCORE.SYSTEM>
0

>  <SCORE.SYSTEM.CONST>
0

>  <SCORE.SYSTEM.DIHEDRAL>
0

>  <SCORE.SYSTEM.SOLV>
0

>  <SCORE.SYSTEM.norm>
0

>  <SCORE.heavy>
14

>  <SCORE.norm>
-0.867616

>  <RMSD>
2.445

$$$$
ligand
 OpenBabel11021811413D
libRbt.so/2013.1/901 2013/11/27
 14 13  0  0  0  0  0  0  0  0999 V2000
   45.8987    0.4177   15.1687 N   0  0  0  0  0  0  0  0  0  0  0  0
   45.0953    0.0288   16.3478 C   0  0  0  0  0  0  0  0  0  0  0  0
   45.6759    0.6356   17.6435 C   0  0  0  0  0  0  0  0  0  0  0  0
   45.6327    2.1712   17.7061 C   0  0  0  0  0  0  0  0  0  0  0  0
   46.2177    2.6708   18.9807 N   0  0  0  0  0  0  0  0  0  0  0  0
   45.9833    4.1314   19.1155 C   0  0  0  0  0  0  0  0  0  0  0  0
   46.0538    4.6963   20.5743 C   0  0  0  0  0  0  0  0  0  0  0  0
   45.7734    6.2231   20.6785 C   0  0  0  0  0  0  0  0  0  0  0  0
   44.3435    6.6097   20.3546 C   0  0  0  0  0  0  0  0  0  0  0  0
   44.2365    8.0501   20.4898 N   0  0  0  0  0  0  0  0  0  0  0  0
   42.9392    8.4059   19.9420 C   0  0  0  0  0  0  0  0  0  0  0  0
   43.0260    9.6502   19.0659 C   0  0  0  0  0  0  0  0  0  0  0  0
   41.5917   10.1306   18.7975 C   0  0  0  0  0  0  0  0  0  0  0  0
   41.5590   11.3517   17.9787 N   0  0  0  0  0  0  0  0  0  0  0  0
  1  2  1  0  0  0  0
  2  3  1  0  0  0  0
  3  4  1  0  0  0  0
  4  5  1  0  0  0  0
  5  6  1  0  0  0  0
  6  7  1  0  0  0  0
  7  8  1  0  0  0  0
  8  9  1  0  0  0  0
  9 10  1  0  0  0  0
 10 11  1  0  0  0  0
 11 12  1  0  0  0  0
 12 13  1  0  0  0  0
 13 14  1  0  0  0  0
M  END
>  <CHROM.1>
64.47672318,-179.65566083,-171.47107409,158.43080107,-178.76759850,67.80102782
-179.85429359,169.89729071,-136.80395951,-167.40728283,178.78324916,44.57336468
5.36939943,18.77481084,0.99801895,0.90406865,-2.43115937

>  <Name>
ligand

>  <RI>
0

>  <Rbt.Current_Directory>
/home/itssahil/PROJECTS/Mol_Feturizer/New_Systems/rnas/1TN1

>  <Rbt.Executable>
rbdock ($Id: //depot/dev/client3/rdock/2013.1/src/exe/rbdock.cxx#4 $)

>  <Rbt.Library>
libRbt.so (2013.1, Build901 2013/11/27)

>  <Rbt.Parameter_File>
/export/apps/rDock/src/rDock_2013.1_src/data/scripts/dock_solv.prm

>  <Rbt.Receptor>
prm/pocket_docking_4.prm

>  <SCORE>
-12.5278

>  <SCORE.INTER>
-9.68365

>  <SCORE.INTER.CONST>
1

>  <SCORE.INTER.POLAR>
0

>  <SCORE.INTER.ROT>
11

>  <SCORE.INTER.SOLV>
18.7249

>  <SCORE.INTER.VDW>
-23.6307

>  <SCORE.INTER.norm>
-0.691689

>  <SCORE.INTRA>
-2.84417

>  <SCORE.INTRA.DIHEDRAL>
-5.41034

>  <SCORE.INTRA.DIHEDRAL.0>
7.79482

>  <SCORE.INTRA.POLAR>
0

>  <SCORE.INTRA.POLAR.0>
0

>  <SCORE.INTRA.REPUL>
0

>  <SCORE.INTRA.REPUL.0>
0

>  <SCORE.INTRA.SOLV>
0.749702

>  <SCORE.INTRA.SOLV.lig_0>
-49.456

>  <SCORE.INTRA.VDW>
-0.513849

>  <SCORE.INTRA.VDW.0>
-0.478406

>  <SCORE.INTRA.norm>
-0.203155

>  <SCORE.RESTR>
0

>  <SCORE.RESTR.CAVITY>
0

>  <SCORE.RESTR.norm>
0

>  <SCORE.SYSTEM>
0

>  <SCORE.SYSTEM.CONST>
0

>  <SCORE.SYSTEM.DIHEDRAL>
0

>  <SCORE.SYSTEM.SOLV>
0

>  <SCORE.SYSTEM.norm>
0

>  <SCORE.heavy>
14

>  <SCORE.norm>
-0.894844

>  <RMSD>
2.456

$$$$
ligand
 OpenBabel11021811413D
libRbt.so/2013.1/901 2013/11/27
 14 13  0  0  0  0  0  0  0  0999 V2000
   45.3437   -0.0684   15.2573 N   0  0  0  0  0  0  0  0  0  0  0  0
   45.0255    0.9363   16.2948 C   0  0  0  0  0  0  0  0  0  0  0  0
   45.7415    0.6120   17.6238 C   0  0  0  0  0  0  0  0  0  0  0  0
   45.4408    1.5933   18.7686 C   0  0  0  0  0  0  0  0  0  0  0  0
   45.9663    2.9516   18.4601 N   0  0  0  0  0  0  0  0  0  0  0  0
   45.4556    3.9363   19.4482 C   0  0  0  0  0  0  0  0  0  0  0  0
   46.1112    5.3571   19.3884 C   0  0  0  0  0  0  0  0  0  0  0  0
   45.5733    6.3503   20.4583 C   0  0  0  0  0  0  0  0  0  0  0  0
   46.2949    7.6836   20.4784 C   0  0  0  0  0  0  0  0  0  0  0  0
   45.9820    8.3713   19.2400 N   0  0  0  0  0  0  0  0  0  0  0  0
   46.1660    9.7860   19.5128 C   0  0  0  0  0  0  0  0  0  0  0  0
   46.0684   10.6169   18.2388 C   0  0  0  0  0  0  0  0  0  0  0  0
   47.3086   10.3081   17.3864 C   0  0  0  0  0  0  0  0  0  0  0  0
   47.2703    8.9509   16.8213 N   0  0  0  0  0  0  0  0  0  0  0  0
  1  2  1  0  0  0  0
  2  3  1  0  0  0  0
  3  4  1  0  0  0  0
  4  5  1  0  0  0  0
  5  6  1  0  0  0  0
  6  7  1  0  0  0  0
  7  8  1  0  0  0  0
  8  9  1  0  0  0  0
  9 10  1  0  0  0  0
 10 11  1  0  0  0  0
 11 12  1  0  0  0  0
 12 13  1  0  0  0  0
 13 14  1  0  0  0  0
M  END
>  <CHROM.1>
-178.76353994,-65.21663432,169.61714448,170.31333275,-178.71076543,174.86795570
67.53094890,155.84787701,171.65119682,-69.65082812,70.50515354,45.98194144
5.52771717,18.38446773,-2.20386016,1.36276929,0.79628328

>  <Name>
ligand

>  <RI>
0

>  <Rbt.Current_Directory>
/home/itssahil/PROJECTS/Mol_Feturizer/New_Systems/rnas/1TN1

>  <Rbt.Executable>
rbdock ($Id: //depot/dev/client3/rdock/2013.1/src/exe/rbdock.cxx#4 $)

>  <Rbt.Library>
libRbt.so (2013.1, Build901 2013/11/27)

>  <Rbt.Parameter_File>
/export/apps/rDock/src/rDock_2013.1_src/data/scripts/dock_solv.prm

>  <Rbt.Receptor>
prm/pocket_docking_3.prm

>  <SCORE>
-8.00033

>  <SCORE.INTER>
-6.20643

>  <SCORE.INTER.CONST>
1

>  <SCORE.INTER.POLAR>
0

>  <SCORE.INTER.ROT>
11

>  <SCORE.INTER.SOLV>
9.57651

>  <SCORE.INTER.VDW>
-18.2631

>  <SCORE.INTER.norm>
-0.443316

>  <SCORE.INTRA>
-1.7939

>  <SCORE.INTRA.DIHEDRAL>
-5.96917

>  <SCORE.INTRA.DIHEDRAL.0>
7.79482

>  <SCORE.INTRA.POLAR>
0

>  <SCORE.INTRA.POLAR.0>
0

>  <SCORE.INTRA.REPUL>
0

>  <SCORE.INTRA.REPUL.0>
0

>  <SCORE.INTRA.SOLV>
3.76235

>  <SCORE.INTRA.SOLV.lig_0>
-49.456

>  <SCORE.INTRA.VDW>
-0.690492

>  <SCORE.INTRA.VDW.0>
-0.478406

>  <SCORE.INTRA.norm>
-0.128136

>  <SCORE.RESTR>
0

>  <SCORE.RESTR.CAVITY>
0

>  <SCORE.RESTR.norm>
0

>  <SCORE.SYSTEM>
0

>  <SCORE.SYSTEM.CONST>
0

>  <SCORE.SYSTEM.DIHEDRAL>
0

>  <SCORE.SYSTEM.SOLV>
0

>  <SCORE.SYSTEM.norm>
0

>  <SCORE.heavy>
14

>  <SCORE.norm>
-0.571452

>  <RMSD>
2.467

$$$$
ligand
 OpenBabel11021811413D
libRbt.so/2013.1/901 2013/11/27
 14 13  0  0  0  0  0  0  0  0999 V2000
   45.1648    1.4501   16.5615 N   0  0  0  0  0  0  0  0  0  0  0  0
   45.7842    1.0297   17.8370 C   0  0  0  0  0  0  0  0  0  0  0  0
   46.5214    2.2056   18.5135 C   0  0  0  0  0  0  0  0  0  0  0  0
   45.6060    3.3447   18.9917 C   0  0  0  0  0  0  0  0  0  0  0  0
   46.3873    4.3985   19.6956 N   0  0  0  0  0  0  0  0  0  0  0  0
   45.5008    5.1795   20.5960 C   0  0  0  0  0  0  0  0  0  0  0  0
   45.2719    6.6746   20.1903 C   0  0  0  0  0  0  0  0  0  0  0  0
   46.5498    7.5580   20.2735 C   0  0  0  0  0  0  0  0  0  0  0  0
   46.3139    9.0157   19.9293 C   0  0  0  0  0  0  0  0  0  0  0  0
   45.9854    9.0862   18.5181 N   0  0  0  0  0  0  0  0  0  0  0  0
   45.5110   10.4395   18.2871 C   0  0  0  0  0  0  0  0  0  0  0  0
   45.0183   10.6211   16.8561 C   0  0  0  0  0  0  0  0  0  0  0  0
   46.2342   10.4919   15.9261 C   0  0  0  0  0  0  0  0  0  0  0  0
   46.7365    9.1115   15.8569 N   0  0  0  0  0  0  0  0  0  0  0  0
  1  2  1  0  0  0  0
  2  3  1  0  0  0  0
  3  4  1  0  0  0  0
  4  5  1  0  0  0  0
  5  6  1  0  0  0  0
  6  7  1  0  0  0  0
  7  8  1  0  0  0  0
  8  9  1  0  0  0  0
  9 10  1  0  0  0  0
 10 11  1  0  0  0  0
 11 12  1  0  0  0  0
 12 13  1  0  0  0  0
 13 14  1  0  0  0  0
M  END
>  <CHROM.1>
66.20124667,176.90537981,-157.51355409,-112.74695014,-65.94374828,-177.86708758
-67.49463431,168.97195627,-175.27409871,-66.67371543,70.65484784,45.89889791
6.47208999,18.43121384,2.29078468,1.54892229,2.32305698

>  <Name>
ligand

>  <RI>
0

>  <Rbt.Current_Directory>
/home/itssahil/PROJECTS/Mol_Feturizer/New_Systems/rnas/1TN1

>  <Rbt.Executable>
rbdock ($Id: //depot/dev/client3/rdock/2013.1/src/exe/rbdock.cxx#4 $)

>  <Rbt.Library>
libRbt.so (2013.1, Build901 2013/11/27)

>  <Rbt.Parameter_File>
/export/apps/rDock/src/rDock_2013.1_src/data/scripts/dock_solv.prm

>  <Rbt.Receptor>
prm/pocket_docking_3.prm

>  <SCORE>
-7.52713

>  <SCORE.INTER>
-6.59451

>  <SCORE.INTER.CONST>
1

>  <SCORE.INTER.POLAR>
0

>  <SCORE.INTER.ROT>
11

>  <SCORE.INTER.SOLV>
11.5094

>  <SCORE.INTER.VDW>
-19.1661

>  <SCORE.INTER.norm>
-0.471036

>  <SCORE.INTRA>
-0.932624

>  <SCORE.INTRA.DIHEDRAL>
-5.02493

>  <SCORE.INTRA.DIHEDRAL.0>
7.79482

>  <SCORE.INTRA.POLAR>
0

>  <SCORE.INTRA.POLAR.0>
0

>  <SCORE.INTRA.REPUL>
0

>  <SCORE.INTRA.REPUL.0>
0

>  <SCORE.INTRA.SOLV>
4.31341

>  <SCORE.INTRA.SOLV.lig_0>
-49.456

>  <SCORE.INTRA.VDW>
-0.576866

>  <SCORE.INTRA.VDW.0>
-0.478406

>  <SCORE.INTRA.norm>
-0.066616

>  <SCORE.RESTR>
0

>  <SCORE.RESTR.CAVITY>
0

>  <SCORE.RESTR.norm>
0

>  <SCORE.SYSTEM>
0

>  <SCORE.SYSTEM.CONST>
0

>  <SCORE.SYSTEM.DIHEDRAL>
0

>  <SCORE.SYSTEM.SOLV>
0

>  <SCORE.SYSTEM.norm>
0

>  <SCORE.heavy>
14

>  <SCORE.norm>
-0.537652

>  <RMSD>
2.474

$$$$
ligand
 OpenBabel11021811413D
libRbt.so/2013.1/901 2013/11/27
 14 13  0  0  0  0  0  0  0  0999 V2000
   47.6832   10.0374   16.5951 N   0  0  0  0  0  0  0  0  0  0  0  0
   46.3603   10.6125   16.9210 C   0  0  0  0  0  0  0  0  0  0  0  0
   45.6133    9.7430   17.9553 C   0  0  0  0  0  0  0  0  0  0  0  0
   46.3054    9.6406   19.3244 C   0  0  0  0  0  0  0  0  0  0  0  0
   45.5630    8.7224   20.2311 N   0  0  0  0  0  0  0  0  0  0  0  0
   46.0863    7.3382   20.1007 C   0  0  0  0  0  0  0  0  0  0  0  0
   45.2715    6.2330   20.8536 C   0  0  0  0  0  0  0  0  0  0  0  0
   45.8268    4.7925   20.6611 C   0  0  0  0  0  0  0  0  0  0  0  0
   45.8275    4.3206   19.2202 C   0  0  0  0  0  0  0  0  0  0  0  0
   46.3765    2.9781   19.1979 N   0  0  0  0  0  0  0  0  0  0  0  0
   45.3563    2.1409   18.5913 C   0  0  0  0  0  0  0  0  0  0  0  0
   45.9223    1.3174   17.4403 C   0  0  0  0  0  0  0  0  0  0  0  0
   44.7831    0.4482   16.8865 C   0  0  0  0  0  0  0  0  0  0  0  0
   45.2096   -0.3572   15.7323 N   0  0  0  0  0  0  0  0  0  0  0  0
  1  2  1  0  0  0  0
  2  3  1  0  0  0  0
  3  4  1  0  0  0  0
  4  5  1  0  0  0  0
  5  6  1  0  0  0  0
  6  7  1  0  0  0  0
  7  8  1  0  0  0  0
  8  9  1  0  0  0  0
  9 10  1  0  0  0  0
 10 11  1  0  0  0  0
 11 12  1  0  0  0  0
 12 13  1  0  0  0  0
 13 14  1  0  0  0  0
M  END
>  <CHROM.1>
63.16430646,-176.63368197,91.20351373,-172.11305878,178.38143515,-61.09651289
179.59015601,122.53557228,128.07433971,178.80640304,177.92429102,45.87024089
5.56919856,18.55102286,-0.91184430,-1.40173953,-2.37432170

>  <Name>
ligand

>  <RI>
0

>  <Rbt.Current_Directory>
/home/itssahil/PROJECTS/Mol_Feturizer/New_Systems/rnas/1TN1

>  <Rbt.Executable>
rbdock ($Id: //depot/dev/client3/rdock/2013.1/src/exe/rbdock.cxx#4 $)

>  <Rbt.Library>
libRbt.so (2013.1, Build901 2013/11/27)

>  <Rbt.Parameter_File>
/export/apps/rDock/src/rDock_2013.1_src/data/scripts/dock_solv.prm

>  <Rbt.Receptor>
prm/pocket_docking_7.prm

>  <SCORE>
-8.28413

>  <SCORE.INTER>
-6.23405

>  <SCORE.INTER.CONST>
1

>  <SCORE.INTER.POLAR>
0

>  <SCORE.INTER.ROT>
11

>  <SCORE.INTER.SOLV>
12.4187

>  <SCORE.INTER.VDW>
-19.2289

>  <SCORE.INTER.norm>
-0.445289

>  <SCORE.INTRA>
-2.05008

>  <SCORE.INTRA.DIHEDRAL>
-4.64689

>  <SCORE.INTRA.DIHEDRAL.0>
7.79482

>  <SCORE.INTRA.POLAR>
0

>  <SCORE.INTRA.POLAR.0>
0

>  <SCORE.INTRA.REPUL>
0

>  <SCORE.INTRA.REPUL.0>
0

>  <SCORE.INTRA.SOLV>
0.79983

>  <SCORE.INTRA.SOLV.lig_0>
-49.456

>  <SCORE.INTRA.VDW>
-0.126551

>  <SCORE.INTRA.VDW.0>
-0.478406

>  <SCORE.INTRA.norm>
-0.146434

>  <SCORE.RESTR>
0

>  <SCORE.RESTR.CAVITY>
0

>  <SCORE.RESTR.norm>
0

>  <SCORE.SYSTEM>
0

>  <SCORE.SYSTEM.CONST>
0

>  <SCORE.SYSTEM.DIHEDRAL>
0

>  <SCORE.SYSTEM.SOLV>
0

>  <SCORE.SYSTEM.norm>
0

>  <SCORE.heavy>
14

>  <SCORE.norm>
-0.591723

>  <RMSD>
2.476

$$$$
ligand
 OpenBabel11021811413D
libRbt.so/2013.1/901 2013/11/27
 14 13  0  0  0  0  0  0  0  0999 V2000
   44.8200    0.1530   16.3117 N   0  0  0  0  0  0  0  0  0  0  0  0
   45.7878    0.9761   17.0686 C   0  0  0  0  0  0  0  0  0  0  0  0
   45.0692    1.8870   18.0873 C   0  0  0  0  0  0  0  0  0  0  0  0
   45.9908    2.8685   18.8297 C   0  0  0  0  0  0  0  0  0  0  0  0
   45.2220    3.6905   19.8042 N   0  0  0  0  0  0  0  0  0  0  0  0
   46.1061    4.7089   20.4270 C   0  0  0  0  0  0  0  0  0  0  0  0
   45.7087    6.2009   20.1656 C   0  0  0  0  0  0  0  0  0  0  0  0
   44.2901    6.5797   20.6797 C   0  0  0  0  0  0  0  0  0  0  0  0
   43.9163    8.0298   20.4425 C   0  0  0  0  0  0  0  0  0  0  0  0
   43.7314    8.2080   19.0148 N   0  0  0  0  0  0  0  0  0  0  0  0
   43.4325    9.6166   18.8248 C   0  0  0  0  0  0  0  0  0  0  0  0
   41.9517    9.9065   19.0401 C   0  0  0  0  0  0  0  0  0  0  0  0
   41.5925   11.1404   18.1983 C   0  0  0  0  0  0  0  0  0  0  0  0
   42.4205   12.3066   18.5406 N   0  0  0  0  0  0  0  0  0  0  0  0
  1  2  1  0  0  0  0
  2  3  1  0  0  0  0
  3  4  1  0  0  0  0
  4  5  1  0  0  0  0
  5  6  1  0  0  0  0
  6  7  1  0  0  0  0
  7  8  1  0  0  0  0
  8  9  1  0  0  0  0
  9 10  1  0  0  0  0
 10 11  1  0  0  0  0
 11 12  1  0  0  0  0
 12 13  1  0  0  0  0
 13 14  1  0  0  0  0
M  END
>  <CHROM.1>
-174.78360638,-179.11405877,-175.22473060,118.09018067,59.83786513,179.18449454
69.70962055,-177.60984912,-84.09737061,-152.66499255,-57.24187782,44.28864458
6.16235689,18.95986191,1.01109204,0.94191595,-2.56203760

>  <Name>
ligand

>  <RI>
0

>  <Rbt.Current_Directory>
/home/itssahil/PROJECTS/Mol_Feturizer/New_Systems/rnas/1TN1

>  <Rbt.Executable>
rbdock ($Id: //depot/dev/client3/rdock/2013.1/src/exe/rbdock.cxx#4 $)

>  <Rbt.Library>
libRbt.so (2013.1, Build901 2013/11/27)

>  <Rbt.Parameter_File>
/export/apps/rDock/src/rDock_2013.1_src/data/scripts/dock_solv.prm

>  <Rbt.Receptor>
prm/pocket_docking_4.prm

>  <SCORE>
-8.23476

>  <SCORE.INTER>
-7.57809

>  <SCORE.INTER.CONST>
1

>  <SCORE.INTER.POLAR>
0

>  <SCORE.INTER.ROT>
11

>  <SCORE.INTER.SOLV>
18.208

>  <SCORE.INTER.VDW>
-22.0547

>  <SCORE.INTER.norm>
-0.541292

>  <SCORE.INTRA>
-0.656667

>  <SCORE.INTRA.DIHEDRAL>
-3.29488

>  <SCORE.INTRA.DIHEDRAL.0>
7.79482

>  <SCORE.INTRA.POLAR>
0

>  <SCORE.INTRA.POLAR.0>
0

>  <SCORE.INTRA.REPUL>
0

>  <SCORE.INTRA.REPUL.0>
0

>  <SCORE.INTRA.SOLV>
1.53834

>  <SCORE.INTRA.SOLV.lig_0>
-49.456

>  <SCORE.INTRA.VDW>
0.221601

>  <SCORE.INTRA.VDW.0>
-0.478406

>  <SCORE.INTRA.norm>
-0.0469048

>  <SCORE.RESTR>
0

>  <SCORE.RESTR.CAVITY>
0

>  <SCORE.RESTR.norm>
0

>  <SCORE.SYSTEM>
0

>  <SCORE.SYSTEM.CONST>
0

>  <SCORE.SYSTEM.DIHEDRAL>
0

>  <SCORE.SYSTEM.SOLV>
0

>  <SCORE.SYSTEM.norm>
0

>  <SCORE.heavy>
14

>  <SCORE.norm>
-0.588197

>  <RMSD>
2.481

$$$$
ligand
 OpenBabel11021811413D
libRbt.so/2013.1/901 2013/11/27
 14 13  0  0  0  0  0  0  0  0999 V2000
   45.8753   10.7283   16.7932 N   0  0  0  0  0  0  0  0  0  0  0  0
   47.1865   10.6094   17.4670 C   0  0  0  0  0  0  0  0  0  0  0  0
   47.2094    9.4066   18.4348 C   0  0  0  0  0  0  0  0  0  0  0  0
   46.1990    9.4957   19.5903 C   0  0  0  0  0  0  0  0  0  0  0  0
   46.3409    8.3375   20.5148 N   0  0  0  0  0  0  0  0  0  0  0  0
   45.7559    7.1170   19.9025 C   0  0  0  0  0  0  0  0  0  0  0  0
   45.3424    5.9881   20.9059 C   0  0  0  0  0  0  0  0  0  0  0  0
   44.9016    4.6616   20.2229 C   0  0  0  0  0  0  0  0  0  0  0  0
   45.9918    3.9997   19.4030 C   0  0  0  0  0  0  0  0  0  0  0  0
   45.4650    2.7434   18.9043 N   0  0  0  0  0  0  0  0  0  0  0  0
   46.5475    2.1263   18.1578 C   0  0  0  0  0  0  0  0  0  0  0  0
   46.0824    1.6613   16.7827 C   0  0  0  0  0  0  0  0  0  0  0  0
   45.2372    0.3941   16.9819 C   0  0  0  0  0  0  0  0  0  0  0  0
   44.9187   -0.2672   15.7075 N   0  0  0  0  0  0  0  0  0  0  0  0
  1  2  1  0  0  0  0
  2  3  1  0  0  0  0
  3  4  1  0  0  0  0
  4  5  1  0  0  0  0
  5  6  1  0  0  0  0
  6  7  1  0  0  0  0
  7  8  1  0  0  0  0
  8  9  1  0  0  0  0
  9 10  1  0  0  0  0
 10 11  1  0  0  0  0
 11 12  1  0  0  0  0
 12 13  1  0  0  0  0
 13 14  1  0  0  0  0
M  END
>  <CHROM.1>
-62.20238219,-176.79168432,-75.27574165,-157.93149261,-172.73776124,62.33303533
176.38711809,-178.49038175,-130.79768158,-74.51524884,-170.61512478,45.93252287
5.50016878,18.55514517,-0.92622990,-1.38624203,-2.34406722

>  <Name>
ligand

>  <RI>
0

>  <Rbt.Current_Directory>
/home/itssahil/PROJECTS/Mol_Feturizer/New_Systems/rnas/1TN1

>  <Rbt.Executable>
rbdock ($Id: //depot/dev/client3/rdock/2013.1/src/exe/rbdock.cxx#4 $)

>  <Rbt.Library>
libRbt.so (2013.1, Build901 2013/11/27)

>  <Rbt.Parameter_File>
/export/apps/rDock/src/rDock_2013.1_src/data/scripts/dock_solv.prm

>  <Rbt.Receptor>
prm/pocket_docking_5.prm

>  <SCORE>
-7.00685

>  <SCORE.INTER>
-5.41665

>  <SCORE.INTER.CONST>
1

>  <SCORE.INTER.POLAR>
0

>  <SCORE.INTER.ROT>
11

>  <SCORE.INTER.SOLV>
13.4067

>  <SCORE.INTER.VDW>
-19.0133

>  <SCORE.INTER.norm>
-0.386904

>  <SCORE.INTRA>
-1.5902

>  <SCORE.INTRA.DIHEDRAL>
-4.73406

>  <SCORE.INTRA.DIHEDRAL.0>
7.79482

>  <SCORE.INTRA.POLAR>
0

>  <SCORE.INTRA.POLAR.0>
0

>  <SCORE.INTRA.REPUL>
0

>  <SCORE.INTRA.REPUL.0>
0

>  <SCORE.INTRA.SOLV>
1.09464

>  <SCORE.INTRA.SOLV.lig_0>
-49.456

>  <SCORE.INTRA.VDW>
0.229508

>  <SCORE.INTRA.VDW.0>
-0.478406

>  <SCORE.INTRA.norm>
-0.113586

>  <SCORE.RESTR>
0

>  <SCORE.RESTR.CAVITY>
0

>  <SCORE.RESTR.norm>
0

>  <SCORE.SYSTEM>
0

>  <SCORE.SYSTEM.CONST>
0

>  <SCORE.SYSTEM.DIHEDRAL>
0

>  <SCORE.SYSTEM.SOLV>
0

>  <SCORE.SYSTEM.norm>
0

>  <SCORE.heavy>
14

>  <SCORE.norm>
-0.500489

>  <RMSD>
2.499

$$$$
ligand
 OpenBabel11021811413D
libRbt.so/2013.1/901 2013/11/27
 14 13  0  0  0  0  0  0  0  0999 V2000
   45.1008   11.0741   17.5966 N   0  0  0  0  0  0  0  0  0  0  0  0
   46.1845   10.0746   17.4789 C   0  0  0  0  0  0  0  0  0  0  0  0
   46.0835    9.0085   18.5912 C   0  0  0  0  0  0  0  0  0  0  0  0
   47.1493    7.9028   18.5165 C   0  0  0  0  0  0  0  0  0  0  0  0
   46.9160    6.8644   19.5575 N   0  0  0  0  0  0  0  0  0  0  0  0
   45.9912    5.8214   19.0440 C   0  0  0  0  0  0  0  0  0  0  0  0
   46.1239    4.4112   19.7117 C   0  0  0  0  0  0  0  0  0  0  0  0
   45.1198    3.3543   19.1685 C   0  0  0  0  0  0  0  0  0  0  0  0
   45.2842    3.0508   17.6921 C   0  0  0  0  0  0  0  0  0  0  0  0
   46.1418    1.8866   17.5757 N   0  0  0  0  0  0  0  0  0  0  0  0
   45.7985    1.2645   16.3088 C   0  0  0  0  0  0  0  0  0  0  0  0
   44.8272    0.1057   16.5017 C   0  0  0  0  0  0  0  0  0  0  0  0
   45.6573   -1.1814   16.6217 C   0  0  0  0  0  0  0  0  0  0  0  0
   46.3255   -1.5312   15.3592 N   0  0  0  0  0  0  0  0  0  0  0  0
  1  2  1  0  0  0  0
  2  3  1  0  0  0  0
  3  4  1  0  0  0  0
  4  5  1  0  0  0  0
  5  6  1  0  0  0  0
  6  7  1  0  0  0  0
  7  8  1  0  0  0  0
  8  9  1  0  0  0  0
  9 10  1  0  0  0  0
 10 11  1  0  0  0  0
 11 12  1  0  0  0  0
 12 13  1  0  0  0  0
 13 14  1  0  0  0  0
M  END
>  <CHROM.1>
178.17465360,-175.60790667,87.78083953,154.47800668,178.80518570,62.01548983
94.52728287,154.36985281,-97.90307029,-93.38196108,-67.93494386,45.90729034
4.43610745,17.83755897,1.28648476,-1.42127757,-0.09174297

>  <Name>
ligand

>  <RI>
0

>  <Rbt.Current_Directory>
/home/itssahil/PROJECTS/Mol_Feturizer/New_Systems/rnas/1TN1

>  <Rbt.Executable>
rbdock ($Id: //depot/dev/client3/rdock/2013.1/src/exe/rbdock.cxx#4 $)

>  <Rbt.Library>
libRbt.so (2013.1, Build901 2013/11/27)

>  <Rbt.Parameter_File>
/export/apps/rDock/src/rDock_2013.1_src/data/scripts/dock_solv.prm

>  <Rbt.Receptor>
prm/pocket_docking_2.prm

>  <SCORE>
-0.58315

>  <SCORE.INTER>
-2.30284

>  <SCORE.INTER.CONST>
1

>  <SCORE.INTER.POLAR>
0

>  <SCORE.INTER.ROT>
11

>  <SCORE.INTER.SOLV>
14.4199

>  <SCORE.INTER.VDW>
-17.2752

>  <SCORE.INTER.norm>
-0.164488

>  <SCORE.INTRA>
1.66189

>  <SCORE.INTRA.DIHEDRAL>
1.49821

>  <SCORE.INTRA.DIHEDRAL.0>
7.79482

>  <SCORE.INTRA.POLAR>
0

>  <SCORE.INTRA.POLAR.0>
0

>  <SCORE.INTRA.REPUL>
0

>  <SCORE.INTRA.REPUL.0>
0

>  <SCORE.INTRA.SOLV>
1.57066

>  <SCORE.INTRA.SOLV.lig_0>
-49.456

>  <SCORE.INTRA.VDW>
0.127453

>  <SCORE.INTRA.VDW.0>
-0.478406

>  <SCORE.INTRA.norm>
0.118706

>  <SCORE.RESTR>
0.0577984

>  <SCORE.RESTR.CAVITY>
0.0577984

>  <SCORE.RESTR.norm>
0.00412846

>  <SCORE.SYSTEM>
0

>  <SCORE.SYSTEM.CONST>
0

>  <SCORE.SYSTEM.DIHEDRAL>
0

>  <SCORE.SYSTEM.SOLV>
0

>  <SCORE.SYSTEM.norm>
0

>  <SCORE.heavy>
14

>  <SCORE.norm>
-0.0416536

>  <RMSD>
2.506

$$$$
ligand
 OpenBabel11021811413D
libRbt.so/2013.1/901 2013/11/27
 14 13  0  0  0  0  0  0  0  0999 V2000
   41.8782   13.3121   17.1131 N   0  0  0  0  0  0  0  0  0  0  0  0
   42.2187   11.8749   17.1878 C   0  0  0  0  0  0  0  0  0  0  0  0
   42.0917   11.3457   18.6327 C   0  0  0  0  0  0  0  0  0  0  0  0
   42.5836    9.9026   18.8312 C   0  0  0  0  0  0  0  0  0  0  0  0
   44.0032    9.7587   18.4062 N   0  0  0  0  0  0  0  0  0  0  0  0
   44.7673    8.9884   19.4209 C   0  0  0  0  0  0  0  0  0  0  0  0
   44.2381    7.5440   19.7136 C   0  0  0  0  0  0  0  0  0  0  0  0
   45.1934    6.6829   20.5890 C   0  0  0  0  0  0  0  0  0  0  0  0
   46.4267    6.1932   19.8554 C   0  0  0  0  0  0  0  0  0  0  0  0
   45.9815    5.3556   18.7579 N   0  0  0  0  0  0  0  0  0  0  0  0
   46.1342    3.9856   19.2155 C   0  0  0  0  0  0  0  0  0  0  0  0
   45.8396    2.9891   18.1003 C   0  0  0  0  0  0  0  0  0  0  0  0
   45.9942    1.5773   18.6859 C   0  0  0  0  0  0  0  0  0  0  0  0
   45.6928    0.5302   17.6983 N   0  0  0  0  0  0  0  0  0  0  0  0
  1  2  1  0  0  0  0
  2  3  1  0  0  0  0
  3  4  1  0  0  0  0
  4  5  1  0  0  0  0
  5  6  1  0  0  0  0
  6  7  1  0  0  0  0
  7  8  1  0  0  0  0
  8  9  1  0  0  0  0
  9 10  1  0  0  0  0
 10 11  1  0  0  0  0
 11 12  1  0  0  0  0
 12 13  1  0  0  0  0
 13 14  1  0  0  0  0
M  END
>  <CHROM.1>
-173.23751950,57.03579671,134.63486819,59.00643052,170.01188926,-73.77199025
-61.35456284,-99.71983110,-173.95082441,-178.68980075,178.35284174,44.50313141
7.14569526,18.72941460,2.19389604,-0.90569329,0.44948982

>  <Name>
ligand

>  <RI>
0

>  <Rbt.Current_Directory>
/home/itssahil/PROJECTS/Mol_Feturizer/New_Systems/rnas/1TN1

>  <Rbt.Executable>
rbdock ($Id: //depot/dev/client3/rdock/2013.1/src/exe/rbdock.cxx#4 $)

>  <Rbt.Library>
libRbt.so (2013.1, Build901 2013/11/27)

>  <Rbt.Parameter_File>
/export/apps/rDock/src/rDock_2013.1_src/data/scripts/dock_solv.prm

>  <Rbt.Receptor>
prm/pocket_docking_3.prm

>  <SCORE>
-8.08423

>  <SCORE.INTER>
-7.2791

>  <SCORE.INTER.CONST>
1

>  <SCORE.INTER.POLAR>
0

>  <SCORE.INTER.ROT>
11

>  <SCORE.INTER.SOLV>
18.8275

>  <SCORE.INTER.VDW>
-22.0619

>  <SCORE.INTER.norm>
-0.519936

>  <SCORE.INTRA>
-0.967026

>  <SCORE.INTRA.DIHEDRAL>
-4.48083

>  <SCORE.INTRA.DIHEDRAL.0>
7.79482

>  <SCORE.INTRA.POLAR>
0

>  <SCORE.INTRA.POLAR.0>
0

>  <SCORE.INTRA.REPUL>
0

>  <SCORE.INTRA.REPUL.0>
0

>  <SCORE.INTRA.SOLV>
1.01369

>  <SCORE.INTRA.SOLV.lig_0>
-49.456

>  <SCORE.INTRA.VDW>
0.766542

>  <SCORE.INTRA.VDW.0>
-0.478406

>  <SCORE.INTRA.norm>
-0.0690733

>  <SCORE.RESTR>
0.161902

>  <SCORE.RESTR.CAVITY>
0.161902

>  <SCORE.RESTR.norm>
0.0115645

>  <SCORE.SYSTEM>
0

>  <SCORE.SYSTEM.CONST>
0

>  <SCORE.SYSTEM.DIHEDRAL>
0

>  <SCORE.SYSTEM.SOLV>
0

>  <SCORE.SYSTEM.norm>
0

>  <SCORE.heavy>
14

>  <SCORE.norm>
-0.577445

>  <RMSD>
2.508

$$$$
ligand
 OpenBabel11021811413D
libRbt.so/2013.1/901 2013/11/27
 14 13  0  0  0  0  0  0  0  0999 V2000
   45.5953   10.4947   17.0440 N   0  0  0  0  0  0  0  0  0  0  0  0
   46.7051    9.5725   16.7197 C   0  0  0  0  0  0  0  0  0  0  0  0
   47.5917    9.3098   17.9562 C   0  0  0  0  0  0  0  0  0  0  0  0
   46.8881    8.5623   19.1008 C   0  0  0  0  0  0  0  0  0  0  0  0
   46.5884    7.1557   18.7158 N   0  0  0  0  0  0  0  0  0  0  0  0
   45.8251    6.4793   19.7959 C   0  0  0  0  0  0  0  0  0  0  0  0
   46.0867    4.9431   19.9494 C   0  0  0  0  0  0  0  0  0  0  0  0
   45.9330    4.1374   18.6274 C   0  0  0  0  0  0  0  0  0  0  0  0
   46.2838    2.6681   18.7577 C   0  0  0  0  0  0  0  0  0  0  0  0
   46.0755    2.0501   17.4619 N   0  0  0  0  0  0  0  0  0  0  0  0
   45.7273    0.6662   17.7324 C   0  0  0  0  0  0  0  0  0  0  0  0
   44.6930    0.1472   16.7403 C   0  0  0  0  0  0  0  0  0  0  0  0
   45.4006   -0.0480   15.3908 C   0  0  0  0  0  0  0  0  0  0  0  0
   46.3020   -1.2099   15.3991 N   0  0  0  0  0  0  0  0  0  0  0  0
  1  2  1  0  0  0  0
  2  3  1  0  0  0  0
  3  4  1  0  0  0  0
  4  5  1  0  0  0  0
  5  6  1  0  0  0  0
  6  7  1  0  0  0  0
  7  8  1  0  0  0  0
  8  9  1  0  0  0  0
  9 10  1  0  0  0  0
 10 11  1  0  0  0  0
 11 12  1  0  0  0  0
 12 13  1  0  0  0  0
 13 14  1  0  0  0  0
M  END
>  <CHROM.1>
65.33457448,68.48149776,-176.02113397,-148.11644124,-51.92099362,175.82889702
179.19237116,-150.90270366,143.94573051,72.71334119,72.53074261,46.12110380
4.63775819,17.81392396,0.07859378,-1.47145589,-1.32383446

>  <Name>
ligand

>  <RI>
0

>  <Rbt.Current_Directory>
/home/itssahil/PROJECTS/Mol_Feturizer/New_Systems/rnas/1TN1

>  <Rbt.Executable>
rbdock ($Id: //depot/dev/client3/rdock/2013.1/src/exe/rbdock.cxx#4 $)

>  <Rbt.Library>
libRbt.so (2013.1, Build901 2013/11/27)

>  <Rbt.Parameter_File>
/export/apps/rDock/src/rDock_2013.1_src/data/scripts/dock_solv.prm

>  <Rbt.Receptor>
prm/pocket_docking_2.prm

>  <SCORE>
-5.01754

>  <SCORE.INTER>
-4.07484

>  <SCORE.INTER.CONST>
1

>  <SCORE.INTER.POLAR>
0

>  <SCORE.INTER.ROT>
11

>  <SCORE.INTER.SOLV>
12.3381

>  <SCORE.INTER.VDW>
-17.7626

>  <SCORE.INTER.norm>
-0.29106

>  <SCORE.INTRA>
-0.986115

>  <SCORE.INTRA.DIHEDRAL>
-3.90867

>  <SCORE.INTRA.DIHEDRAL.0>
7.79482

>  <SCORE.INTRA.POLAR>
0

>  <SCORE.INTRA.POLAR.0>
0

>  <SCORE.INTRA.REPUL>
0

>  <SCORE.INTRA.REPUL.0>
0

>  <SCORE.INTRA.SOLV>
3.3272

>  <SCORE.INTRA.SOLV.lig_0>
-49.456

>  <SCORE.INTRA.VDW>
-0.695383

>  <SCORE.INTRA.VDW.0>
-0.478406

>  <SCORE.INTRA.norm>
-0.0704368

>  <SCORE.RESTR>
0.0434146

>  <SCORE.RESTR.CAVITY>
0.0434146

>  <SCORE.RESTR.norm>
0.00310105

>  <SCORE.SYSTEM>
0

>  <SCORE.SYSTEM.CONST>
0

>  <SCORE.SYSTEM.DIHEDRAL>
0

>  <SCORE.SYSTEM.SOLV>
0

>  <SCORE.SYSTEM.norm>
0

>  <SCORE.heavy>
14

>  <SCORE.norm>
-0.358396

>  <RMSD>
2.513

$$$$
ligand
 OpenBabel11021811413D
libRbt.so/2013.1/901 2013/11/27
 14 13  0  0  0  0  0  0  0  0999 V2000
   44.9763   11.5101   18.0879 N   0  0  0  0  0  0  0  0  0  0  0  0
   46.0875   10.5404   18.1971 C   0  0  0  0  0  0  0  0  0  0  0  0
   45.7945    9.4752   19.2758 C   0  0  0  0  0  0  0  0  0  0  0  0
   46.8903    8.4087   19.4362 C   0  0  0  0  0  0  0  0  0  0  0  0
   46.5162    7.4101   20.4751 N   0  0  0  0  0  0  0  0  0  0  0  0
   45.8012    6.2659   19.8536 C   0  0  0  0  0  0  0  0  0  0  0  0
   45.3722    5.1228   20.8340 C   0  0  0  0  0  0  0  0  0  0  0  0
   44.5732    3.9722   20.1573 C   0  0  0  0  0  0  0  0  0  0  0  0
   45.3797    3.1691   19.1555 C   0  0  0  0  0  0  0  0  0  0  0  0
   44.5139    2.1338   18.6235 N   0  0  0  0  0  0  0  0  0  0  0  0
   45.3943    1.1565   18.0074 C   0  0  0  0  0  0  0  0  0  0  0  0
   44.7218    0.4663   16.8264 C   0  0  0  0  0  0  0  0  0  0  0  0
   45.6638   -0.6454   16.3399 C   0  0  0  0  0  0  0  0  0  0  0  0
   45.1635   -1.3051   15.1246 N   0  0  0  0  0  0  0  0  0  0  0  0
  1  2  1  0  0  0  0
  2  3  1  0  0  0  0
  3  4  1  0  0  0  0
  4  5  1  0  0  0  0
  5  6  1  0  0  0  0
  6  7  1  0  0  0  0
  7  8  1  0  0  0  0
  8  9  1  0  0  0  0
  9 10  1  0  0  0  0
 10 11  1  0  0  0  0
 11 12  1  0  0  0  0
 12 13  1  0  0  0  0
 13 14  1  0  0  0  0
M  END
>  <CHROM.1>
178.88061574,-178.92338319,91.53591879,178.85465642,177.50547577,66.06760072
179.40091917,-162.89809867,-149.39786757,-174.02032762,-175.09146435,45.48925109
4.83428686,18.59980746,-0.07159981,-1.49386747,-1.41112848

>  <Name>
ligand

>  <RI>
0

>  <Rbt.Current_Directory>
/home/itssahil/PROJECTS/Mol_Feturizer/New_Systems/rnas/1TN1

>  <Rbt.Executable>
rbdock ($Id: //depot/dev/client3/rdock/2013.1/src/exe/rbdock.cxx#4 $)

>  <Rbt.Library>
libRbt.so (2013.1, Build901 2013/11/27)

>  <Rbt.Parameter_File>
/export/apps/rDock/src/rDock_2013.1_src/data/scripts/dock_solv.prm

>  <Rbt.Receptor>
prm/pocket_docking_7.prm

>  <SCORE>
-9.59916

>  <SCORE.INTER>
-6.3794

>  <SCORE.INTER.CONST>
1

>  <SCORE.INTER.POLAR>
0

>  <SCORE.INTER.ROT>
11

>  <SCORE.INTER.SOLV>
14.0199

>  <SCORE.INTER.VDW>
-19.8596

>  <SCORE.INTER.norm>
-0.455671

>  <SCORE.INTRA>
-3.21976

>  <SCORE.INTRA.DIHEDRAL>
-5.88977

>  <SCORE.INTRA.DIHEDRAL.0>
7.79482

>  <SCORE.INTRA.POLAR>
0

>  <SCORE.INTRA.POLAR.0>
0

>  <SCORE.INTRA.REPUL>
0

>  <SCORE.INTRA.REPUL.0>
0

>  <SCORE.INTRA.SOLV>
0.0708054

>  <SCORE.INTRA.SOLV.lig_0>
-49.456

>  <SCORE.INTRA.VDW>
-0.310273

>  <SCORE.INTRA.VDW.0>
-0.478406

>  <SCORE.INTRA.norm>
-0.229983

>  <SCORE.RESTR>
0

>  <SCORE.RESTR.CAVITY>
0

>  <SCORE.RESTR.norm>
0

>  <SCORE.SYSTEM>
0

>  <SCORE.SYSTEM.CONST>
0

>  <SCORE.SYSTEM.DIHEDRAL>
0

>  <SCORE.SYSTEM.SOLV>
0

>  <SCORE.SYSTEM.norm>
0

>  <SCORE.heavy>
14

>  <SCORE.norm>
-0.685654

>  <RMSD>
2.532

$$$$
ligand
 OpenBabel11021811413D
libRbt.so/2013.1/901 2013/11/27
 14 13  0  0  0  0  0  0  0  0999 V2000
   45.2874   -1.6777   14.9367 N   0  0  0  0  0  0  0  0  0  0  0  0
   45.8138   -1.0925   16.1887 C   0  0  0  0  0  0  0  0  0  0  0  0
   45.0415    0.1878   16.5741 C   0  0  0  0  0  0  0  0  0  0  0  0
   45.6008    0.9277   17.8004 C   0  0  0  0  0  0  0  0  0  0  0  0
   44.7152    2.0586   18.1920 N   0  0  0  0  0  0  0  0  0  0  0  0
   45.4694    3.0410   19.0121 C   0  0  0  0  0  0  0  0  0  0  0  0
   44.6010    3.9579   19.9380 C   0  0  0  0  0  0  0  0  0  0  0  0
   45.3916    5.1227   20.6003 C   0  0  0  0  0  0  0  0  0  0  0  0
   45.9499    6.1278   19.6119 C   0  0  0  0  0  0  0  0  0  0  0  0
   46.4114    7.2771   20.3672 N   0  0  0  0  0  0  0  0  0  0  0  0
   46.8776    8.2388   19.3836 C   0  0  0  0  0  0  0  0  0  0  0  0
   45.9993    9.4843   19.3615 C   0  0  0  0  0  0  0  0  0  0  0  0
   44.6234    9.0730   18.8159 C   0  0  0  0  0  0  0  0  0  0  0  0
   43.7672   10.2352   18.5350 N   0  0  0  0  0  0  0  0  0  0  0  0
  1  2  1  0  0  0  0
  2  3  1  0  0  0  0
  3  4  1  0  0  0  0
  4  5  1  0  0  0  0
  5  6  1  0  0  0  0
  6  7  1  0  0  0  0
  7  8  1  0  0  0  0
  8  9  1  0  0  0  0
  9 10  1  0  0  0  0
 10 11  1  0  0  0  0
 11 12  1  0  0  0  0
 12 13  1  0  0  0  0
 13 14  1  0  0  0  0
M  END
>  <CHROM.1>
-175.08067690,-173.73911493,-159.28791334,-157.32230578,-170.42947461,63.88444586
168.51117096,-177.34547888,113.45470762,-67.81711343,-170.24350337,45.39652805
4.49727409,18.52288366,1.59004107,1.23332055,-2.85237933

>  <Name>
ligand

>  <RI>
0

>  <Rbt.Current_Directory>
/home/itssahil/PROJECTS/Mol_Feturizer/New_Systems/rnas/1TN1

>  <Rbt.Executable>
rbdock ($Id: //depot/dev/client3/rdock/2013.1/src/exe/rbdock.cxx#4 $)

>  <Rbt.Library>
libRbt.so (2013.1, Build901 2013/11/27)

>  <Rbt.Parameter_File>
/export/apps/rDock/src/rDock_2013.1_src/data/scripts/dock_solv.prm

>  <Rbt.Receptor>
prm/pocket_docking_3.prm

>  <SCORE>
-8.88559

>  <SCORE.INTER>
-6.773

>  <SCORE.INTER.CONST>
1

>  <SCORE.INTER.POLAR>
0

>  <SCORE.INTER.ROT>
11

>  <SCORE.INTER.SOLV>
16.7548

>  <SCORE.INTER.VDW>
-21.0336

>  <SCORE.INTER.norm>
-0.483786

>  <SCORE.INTRA>
-2.11286

>  <SCORE.INTRA.DIHEDRAL>
-4.22349

>  <SCORE.INTRA.DIHEDRAL.0>
7.79482

>  <SCORE.INTRA.POLAR>
0

>  <SCORE.INTRA.POLAR.0>
0

>  <SCORE.INTRA.REPUL>
0

>  <SCORE.INTRA.REPUL.0>
0

>  <SCORE.INTRA.SOLV>
0.457276

>  <SCORE.INTRA.SOLV.lig_0>
-49.456

>  <SCORE.INTRA.VDW>
-0.229748

>  <SCORE.INTRA.VDW.0>
-0.478406

>  <SCORE.INTRA.norm>
-0.150918

>  <SCORE.RESTR>
0.000262396

>  <SCORE.RESTR.CAVITY>
0.000262396

>  <SCORE.RESTR.norm>
1.87426e-05

>  <SCORE.SYSTEM>
0

>  <SCORE.SYSTEM.CONST>
0

>  <SCORE.SYSTEM.DIHEDRAL>
0

>  <SCORE.SYSTEM.SOLV>
0

>  <SCORE.SYSTEM.norm>
0

>  <SCORE.heavy>
14

>  <SCORE.norm>
-0.634685

>  <RMSD>
2.537

$$$$
ligand
 OpenBabel11021811413D
libRbt.so/2013.1/901 2013/11/27
 14 13  0  0  0  0  0  0  0  0999 V2000
   44.5808    1.5472   16.2470 N   0  0  0  0  0  0  0  0  0  0  0  0
   45.6497    2.5568   16.0884 C   0  0  0  0  0  0  0  0  0  0  0  0
   46.7514    2.3752   17.1548 C   0  0  0  0  0  0  0  0  0  0  0  0
   46.2931    2.6356   18.5991 C   0  0  0  0  0  0  0  0  0  0  0  0
   45.8992    4.0591   18.7863 N   0  0  0  0  0  0  0  0  0  0  0  0
   46.0051    4.4369   20.2191 C   0  0  0  0  0  0  0  0  0  0  0  0
   45.5836    5.9049   20.5648 C   0  0  0  0  0  0  0  0  0  0  0  0
   46.4102    6.9943   19.8231 C   0  0  0  0  0  0  0  0  0  0  0  0
   45.9828    8.4139   20.1409 C   0  0  0  0  0  0  0  0  0  0  0  0
   46.8162    9.3088   19.3604 N   0  0  0  0  0  0  0  0  0  0  0  0
   45.9539   10.4063   18.9583 C   0  0  0  0  0  0  0  0  0  0  0  0
   46.6502   11.3266   17.9625 C   0  0  0  0  0  0  0  0  0  0  0  0
   46.9329   10.5089   16.6931 C   0  0  0  0  0  0  0  0  0  0  0  0
   47.6583   11.2894   15.6796 N   0  0  0  0  0  0  0  0  0  0  0  0
  1  2  1  0  0  0  0
  2  3  1  0  0  0  0
  3  4  1  0  0  0  0
  4  5  1  0  0  0  0
  5  6  1  0  0  0  0
  6  7  1  0  0  0  0
  7  8  1  0  0  0  0
  8  9  1  0  0  0  0
  9 10  1  0  0  0  0
 10 11  1  0  0  0  0
 11 12  1  0  0  0  0
 12 13  1  0  0  0  0
 13 14  1  0  0  0  0
M  END
>  <CHROM.1>
-65.54438448,-64.62133730,-156.59908494,-178.51673638,-59.30142202,178.94554885
-178.75750553,143.18518678,-171.88851923,63.67678084,-177.60389390,46.22623648
6.55457238,18.30585127,-2.44054695,1.40387319,0.89762442

>  <Name>
ligand

>  <RI>
0

>  <Rbt.Current_Directory>
/home/itssahil/PROJECTS/Mol_Feturizer/New_Systems/rnas/1TN1

>  <Rbt.Executable>
rbdock ($Id: //depot/dev/client3/rdock/2013.1/src/exe/rbdock.cxx#4 $)

>  <Rbt.Library>
libRbt.so (2013.1, Build901 2013/11/27)

>  <Rbt.Parameter_File>
/export/apps/rDock/src/rDock_2013.1_src/data/scripts/dock_solv.prm

>  <Rbt.Receptor>
prm/pocket_docking_8.prm

>  <SCORE>
-6.35052

>  <SCORE.INTER>
-3.7281

>  <SCORE.INTER.CONST>
1

>  <SCORE.INTER.POLAR>
0

>  <SCORE.INTER.ROT>
11

>  <SCORE.INTER.SOLV>
11.7103

>  <SCORE.INTER.VDW>
-17.3222

>  <SCORE.INTER.norm>
-0.266293

>  <SCORE.INTRA>
-2.62242

>  <SCORE.INTRA.DIHEDRAL>
-6.25242

>  <SCORE.INTRA.DIHEDRAL.0>
7.79482

>  <SCORE.INTRA.POLAR>
0

>  <SCORE.INTRA.POLAR.0>
0

>  <SCORE.INTRA.REPUL>
0

>  <SCORE.INTRA.REPUL.0>
0

>  <SCORE.INTRA.SOLV>
2.35004

>  <SCORE.INTRA.SOLV.lig_0>
-49.456

>  <SCORE.INTRA.VDW>
-0.671228

>  <SCORE.INTRA.VDW.0>
-0.478406

>  <SCORE.INTRA.norm>
-0.187316

>  <SCORE.RESTR>
0

>  <SCORE.RESTR.CAVITY>
0

>  <SCORE.RESTR.norm>
0

>  <SCORE.SYSTEM>
0

>  <SCORE.SYSTEM.CONST>
0

>  <SCORE.SYSTEM.DIHEDRAL>
0

>  <SCORE.SYSTEM.SOLV>
0

>  <SCORE.SYSTEM.norm>
0

>  <SCORE.heavy>
14

>  <SCORE.norm>
-0.453608

>  <RMSD>
2.573

$$$$
ligand
 OpenBabel11021811413D
libRbt.so/2013.1/901 2013/11/27
 14 13  0  0  0  0  0  0  0  0999 V2000
   45.5821    1.7497   16.5986 N   0  0  0  0  0  0  0  0  0  0  0  0
   45.9581    1.2349   17.9331 C   0  0  0  0  0  0  0  0  0  0  0  0
   44.9560    1.6981   19.0125 C   0  0  0  0  0  0  0  0  0  0  0  0
   44.9142    3.2186   19.2365 C   0  0  0  0  0  0  0  0  0  0  0  0
   46.2674    3.7486   19.5596 N   0  0  0  0  0  0  0  0  0  0  0  0
   46.1530    5.0031   20.3468 C   0  0  0  0  0  0  0  0  0  0  0  0
   45.6252    6.2499   19.5601 C   0  0  0  0  0  0  0  0  0  0  0  0
   45.6934    7.5819   20.3611 C   0  0  0  0  0  0  0  0  0  0  0  0
   45.1188    8.7747   19.6221 C   0  0  0  0  0  0  0  0  0  0  0  0
   45.8689    8.9315   18.3904 N   0  0  0  0  0  0  0  0  0  0  0  0
   45.3697   10.1475   17.7725 C   0  0  0  0  0  0  0  0  0  0  0  0
   45.6422   10.1634   16.2729 C   0  0  0  0  0  0  0  0  0  0  0  0
   47.1656   10.1389   16.0770 C   0  0  0  0  0  0  0  0  0  0  0  0
   47.8070   11.3734   16.5538 N   0  0  0  0  0  0  0  0  0  0  0  0
  1  2  1  0  0  0  0
  2  3  1  0  0  0  0
  3  4  1  0  0  0  0
  4  5  1  0  0  0  0
  5  6  1  0  0  0  0
  6  7  1  0  0  0  0
  7  8  1  0  0  0  0
  8  9  1  0  0  0  0
  9 10  1  0  0  0  0
 10 11  1  0  0  0  0
 11 12  1  0  0  0  0
 12 13  1  0  0  0  0
 13 14  1  0  0  0  0
M  END
>  <CHROM.1>
-64.11894323,-55.48937812,-154.48857193,-70.58147035,-172.44914456,-177.14768700
-59.27909339,-175.08927250,-157.79647402,-62.42475574,-66.88151329,45.86561559
6.42957584,18.37860494,-2.03500854,1.33581204,0.28632841

>  <Name>
ligand

>  <RI>
0

>  <Rbt.Current_Directory>
/home/itssahil/PROJECTS/Mol_Feturizer/New_Systems/rnas/1TN1

>  <Rbt.Executable>
rbdock ($Id: //depot/dev/client3/rdock/2013.1/src/exe/rbdock.cxx#4 $)

>  <Rbt.Library>
libRbt.so (2013.1, Build901 2013/11/27)

>  <Rbt.Parameter_File>
/export/apps/rDock/src/rDock_2013.1_src/data/scripts/dock_solv.prm

>  <Rbt.Receptor>
prm/pocket_docking_5.prm

>  <SCORE>
-6.11734

>  <SCORE.INTER>
-5.15876

>  <SCORE.INTER.CONST>
1

>  <SCORE.INTER.POLAR>
0

>  <SCORE.INTER.ROT>
11

>  <SCORE.INTER.SOLV>
9.36882

>  <SCORE.INTER.VDW>
-17.4954

>  <SCORE.INTER.norm>
-0.368483

>  <SCORE.INTRA>
-0.958584

>  <SCORE.INTRA.DIHEDRAL>
-6.2743

>  <SCORE.INTRA.DIHEDRAL.0>
7.79482

>  <SCORE.INTRA.POLAR>
0

>  <SCORE.INTRA.POLAR.0>
0

>  <SCORE.INTRA.REPUL>
0

>  <SCORE.INTRA.REPUL.0>
0

>  <SCORE.INTRA.SOLV>
3.97749

>  <SCORE.INTRA.SOLV.lig_0>
-49.456

>  <SCORE.INTRA.VDW>
0.189817

>  <SCORE.INTRA.VDW.0>
-0.478406

>  <SCORE.INTRA.norm>
-0.0684703

>  <SCORE.RESTR>
0

>  <SCORE.RESTR.CAVITY>
0

>  <SCORE.RESTR.norm>
0

>  <SCORE.SYSTEM>
0

>  <SCORE.SYSTEM.CONST>
0

>  <SCORE.SYSTEM.DIHEDRAL>
0

>  <SCORE.SYSTEM.SOLV>
0

>  <SCORE.SYSTEM.norm>
0

>  <SCORE.heavy>
14

>  <SCORE.norm>
-0.436953

>  <RMSD>
2.574

$$$$
ligand
 OpenBabel11021811413D
libRbt.so/2013.1/901 2013/11/27
 14 13  0  0  0  0  0  0  0  0999 V2000
   45.3684    0.7984   15.8139 N   0  0  0  0  0  0  0  0  0  0  0  0
   45.3548    0.2816   17.1995 C   0  0  0  0  0  0  0  0  0  0  0  0
   46.1574    1.2005   18.1458 C   0  0  0  0  0  0  0  0  0  0  0  0
   45.5961    2.6254   18.2822 C   0  0  0  0  0  0  0  0  0  0  0  0
   46.5089    3.4847   19.0852 N   0  0  0  0  0  0  0  0  0  0  0  0
   45.8097    4.7273   19.5021 C   0  0  0  0  0  0  0  0  0  0  0  0
   45.2045    4.7112   20.9463 C   0  0  0  0  0  0  0  0  0  0  0  0
   44.1032    5.7837   21.1854 C   0  0  0  0  0  0  0  0  0  0  0  0
   44.5972    7.2117   21.0602 C   0  0  0  0  0  0  0  0  0  0  0  0
   44.8332    7.4732   19.6530 N   0  0  0  0  0  0  0  0  0  0  0  0
   45.3496    8.8289   19.5812 C   0  0  0  0  0  0  0  0  0  0  0  0
   45.3603    9.3464   18.1476 C   0  0  0  0  0  0  0  0  0  0  0  0
   45.9282   10.7736   18.1729 C   0  0  0  0  0  0  0  0  0  0  0  0
   45.9656   11.3805   16.8339 N   0  0  0  0  0  0  0  0  0  0  0  0
  1  2  1  0  0  0  0
  2  3  1  0  0  0  0
  3  4  1  0  0  0  0
  4  5  1  0  0  0  0
  5  6  1  0  0  0  0
  6  7  1  0  0  0  0
  7  8  1  0  0  0  0
  8  9  1  0  0  0  0
  9 10  1  0  0  0  0
 10 11  1  0  0  0  0
 11 12  1  0  0  0  0
 12 13  1  0  0  0  0
 13 14  1  0  0  0  0
M  END
>  <CHROM.1>
62.77925025,-173.60373696,-165.47895353,97.14695683,-160.61653826,-63.09978472
72.42880977,-177.97155977,-167.70641365,-179.60699857,-179.16396677,45.43827288
5.61616664,18.82963758,-1.47674370,1.34025888,0.01532845

>  <Name>
ligand

>  <RI>
0

>  <Rbt.Current_Directory>
/home/itssahil/PROJECTS/Mol_Feturizer/New_Systems/rnas/1TN1

>  <Rbt.Executable>
rbdock ($Id: //depot/dev/client3/rdock/2013.1/src/exe/rbdock.cxx#4 $)

>  <Rbt.Library>
libRbt.so (2013.1, Build901 2013/11/27)

>  <Rbt.Parameter_File>
/export/apps/rDock/src/rDock_2013.1_src/data/scripts/dock_solv.prm

>  <Rbt.Receptor>
prm/pocket_docking_5.prm

>  <SCORE>
-8.71933

>  <SCORE.INTER>
-6.97371

>  <SCORE.INTER.CONST>
1

>  <SCORE.INTER.POLAR>
0

>  <SCORE.INTER.ROT>
11

>  <SCORE.INTER.SOLV>
11.1547

>  <SCORE.INTER.VDW>
-19.3007

>  <SCORE.INTER.norm>
-0.498122

>  <SCORE.INTRA>
-1.74562

>  <SCORE.INTRA.DIHEDRAL>
-4.59319

>  <SCORE.INTRA.DIHEDRAL.0>
7.79482

>  <SCORE.INTRA.POLAR>
0

>  <SCORE.INTRA.POLAR.0>
0

>  <SCORE.INTRA.REPUL>
0

>  <SCORE.INTRA.REPUL.0>
0

>  <SCORE.INTRA.SOLV>
1.61671

>  <SCORE.INTRA.SOLV.lig_0>
-49.456

>  <SCORE.INTRA.VDW>
-0.257381

>  <SCORE.INTRA.VDW.0>
-0.478406

>  <SCORE.INTRA.norm>
-0.124687

>  <SCORE.RESTR>
0

>  <SCORE.RESTR.CAVITY>
0

>  <SCORE.RESTR.norm>
0

>  <SCORE.SYSTEM>
0

>  <SCORE.SYSTEM.CONST>
0

>  <SCORE.SYSTEM.DIHEDRAL>
0

>  <SCORE.SYSTEM.SOLV>
0

>  <SCORE.SYSTEM.norm>
0

>  <SCORE.heavy>
14

>  <SCORE.norm>
-0.622809

>  <RMSD>
2.576

$$$$
ligand
 OpenBabel11021811413D
libRbt.so/2013.1/901 2013/11/27
 14 13  0  0  0  0  0  0  0  0999 V2000
   44.6834   10.5864   18.3808 N   0  0  0  0  0  0  0  0  0  0  0  0
   45.9113    9.8172   18.0844 C   0  0  0  0  0  0  0  0  0  0  0  0
   46.5821    9.3154   19.3813 C   0  0  0  0  0  0  0  0  0  0  0  0
   45.7772    8.2536   20.1485 C   0  0  0  0  0  0  0  0  0  0  0  0
   45.5667    7.0376   19.3157 N   0  0  0  0  0  0  0  0  0  0  0  0
   44.7919    6.0230   20.0753 C   0  0  0  0  0  0  0  0  0  0  0  0
   45.6177    4.8086   20.6188 C   0  0  0  0  0  0  0  0  0  0  0  0
   46.3329    3.9809   19.5126 C   0  0  0  0  0  0  0  0  0  0  0  0
   45.3940    3.1428   18.6669 C   0  0  0  0  0  0  0  0  0  0  0  0
   46.1911    2.4763   17.6547 N   0  0  0  0  0  0  0  0  0  0  0  0
   45.3778    1.3753   17.1689 C   0  0  0  0  0  0  0  0  0  0  0  0
   45.2610    1.3963   15.6493 C   0  0  0  0  0  0  0  0  0  0  0  0
   44.4800    0.1431   15.2258 C   0  0  0  0  0  0  0  0  0  0  0  0
   45.2570   -1.0895   15.4252 N   0  0  0  0  0  0  0  0  0  0  0  0
  1  2  1  0  0  0  0
  2  3  1  0  0  0  0
  3  4  1  0  0  0  0
  4  5  1  0  0  0  0
  5  6  1  0  0  0  0
  6  7  1  0  0  0  0
  7  8  1  0  0  0  0
  8  9  1  0  0  0  0
  9 10  1  0  0  0  0
 10 11  1  0  0  0  0
 11 12  1  0  0  0  0
 12 13  1  0  0  0  0
 13 14  1  0  0  0  0
M  END
>  <CHROM.1>
67.39371586,60.70541301,179.81403925,-104.74047435,-59.61683118,-72.04253232
177.75406557,161.51103938,127.66989369,175.72698111,-70.02328492,45.51602837
4.80479539,18.23652866,1.29725353,-1.40089618,0.07520470

>  <Name>
ligand

>  <RI>
0

>  <Rbt.Current_Directory>
/home/itssahil/PROJECTS/Mol_Feturizer/New_Systems/rnas/1TN1

>  <Rbt.Executable>
rbdock ($Id: //depot/dev/client3/rdock/2013.1/src/exe/rbdock.cxx#4 $)

>  <Rbt.Library>
libRbt.so (2013.1, Build901 2013/11/27)

>  <Rbt.Parameter_File>
/export/apps/rDock/src/rDock_2013.1_src/data/scripts/dock_solv.prm

>  <Rbt.Receptor>
prm/pocket_docking_3.prm

>  <SCORE>
-5.59043

>  <SCORE.INTER>
-4.50339

>  <SCORE.INTER.CONST>
1

>  <SCORE.INTER.POLAR>
0

>  <SCORE.INTER.ROT>
11

>  <SCORE.INTER.SOLV>
12.3767

>  <SCORE.INTER.VDW>
-18.0612

>  <SCORE.INTER.norm>
-0.321671

>  <SCORE.INTRA>
-1.10587

>  <SCORE.INTRA.DIHEDRAL>
-4.10978

>  <SCORE.INTRA.DIHEDRAL.0>
7.79482

>  <SCORE.INTRA.POLAR>
0

>  <SCORE.INTRA.POLAR.0>
0

>  <SCORE.INTRA.REPUL>
0

>  <SCORE.INTRA.REPUL.0>
0

>  <SCORE.INTRA.SOLV>
2.9503

>  <SCORE.INTRA.SOLV.lig_0>
-49.456

>  <SCORE.INTRA.VDW>
-0.526134

>  <SCORE.INTRA.VDW.0>
-0.478406

>  <SCORE.INTRA.norm>
-0.0789911

>  <SCORE.RESTR>
0.0188314

>  <SCORE.RESTR.CAVITY>
0.0188314

>  <SCORE.RESTR.norm>
0.0013451

>  <SCORE.SYSTEM>
0

>  <SCORE.SYSTEM.CONST>
0

>  <SCORE.SYSTEM.DIHEDRAL>
0

>  <SCORE.SYSTEM.SOLV>
0

>  <SCORE.SYSTEM.norm>
0

>  <SCORE.heavy>
14

>  <SCORE.norm>
-0.399317

>  <RMSD>
2.582

$$$$
ligand
 OpenBabel11021811413D
libRbt.so/2013.1/901 2013/11/27
 14 13  0  0  0  0  0  0  0  0999 V2000
   46.4587   -0.2743   14.5102 N   0  0  0  0  0  0  0  0  0  0  0  0
   45.2887   -0.7355   15.2882 C   0  0  0  0  0  0  0  0  0  0  0  0
   45.4403   -0.3855   16.7844 C   0  0  0  0  0  0  0  0  0  0  0  0
   45.5378    1.1197   17.0827 C   0  0  0  0  0  0  0  0  0  0  0  0
   45.5998    1.3710   18.5488 N   0  0  0  0  0  0  0  0  0  0  0  0
   46.0247    2.7698   18.8124 C   0  0  0  0  0  0  0  0  0  0  0  0
   45.0101    3.6438   19.6241 C   0  0  0  0  0  0  0  0  0  0  0  0
   45.6378    4.9144   20.2659 C   0  0  0  0  0  0  0  0  0  0  0  0
   46.1123    5.9428   19.2578 C   0  0  0  0  0  0  0  0  0  0  0  0
   46.5218    7.1236   19.9943 N   0  0  0  0  0  0  0  0  0  0  0  0
   46.4548    8.2250   19.0498 C   0  0  0  0  0  0  0  0  0  0  0  0
   46.3411    9.5664   19.7645 C   0  0  0  0  0  0  0  0  0  0  0  0
   46.2371   10.6586   18.6892 C   0  0  0  0  0  0  0  0  0  0  0  0
   44.9858   10.5658   17.9222 N   0  0  0  0  0  0  0  0  0  0  0  0
  1  2  1  0  0  0  0
  2  3  1  0  0  0  0
  3  4  1  0  0  0  0
  4  5  1  0  0  0  0
  5  6  1  0  0  0  0
  6  7  1  0  0  0  0
  7  8  1  0  0  0  0
  8  9  1  0  0  0  0
  9 10  1  0  0  0  0
 10 11  1  0  0  0  0
 11 12  1  0  0  0  0
 12 13  1  0  0  0  0
 13 14  1  0  0  0  0
M  END
>  <CHROM.1>
61.56226438,176.62139723,166.13201927,120.41007701,161.62504523,66.35862452
173.38619486,-157.90437838,158.56121423,-178.44636464,66.57050935,45.83217187
4.60750202,18.25695345,-2.47562286,1.52528269,1.19375808

>  <Name>
ligand

>  <RI>
0

>  <Rbt.Current_Directory>
/home/itssahil/PROJECTS/Mol_Feturizer/New_Systems/rnas/1TN1

>  <Rbt.Executable>
rbdock ($Id: //depot/dev/client3/rdock/2013.1/src/exe/rbdock.cxx#4 $)

>  <Rbt.Library>
libRbt.so (2013.1, Build901 2013/11/27)

>  <Rbt.Parameter_File>
/export/apps/rDock/src/rDock_2013.1_src/data/scripts/dock_solv.prm

>  <Rbt.Receptor>
prm/pocket_docking_3.prm

>  <SCORE>
-7.82886

>  <SCORE.INTER>
-6.25915

>  <SCORE.INTER.CONST>
1

>  <SCORE.INTER.POLAR>
0

>  <SCORE.INTER.ROT>
11

>  <SCORE.INTER.SOLV>
12.5518

>  <SCORE.INTER.VDW>
-19.29

>  <SCORE.INTER.norm>
-0.447082

>  <SCORE.INTRA>
-1.56971

>  <SCORE.INTRA.DIHEDRAL>
-4.00804

>  <SCORE.INTRA.DIHEDRAL.0>
7.79482

>  <SCORE.INTRA.POLAR>
0

>  <SCORE.INTRA.POLAR.0>
0

>  <SCORE.INTRA.REPUL>
0

>  <SCORE.INTRA.REPUL.0>
0

>  <SCORE.INTRA.SOLV>
1.54565

>  <SCORE.INTRA.SOLV.lig_0>
-49.456

>  <SCORE.INTRA.VDW>
-0.338513

>  <SCORE.INTRA.VDW.0>
-0.478406

>  <SCORE.INTRA.norm>
-0.112122

>  <SCORE.RESTR>
0

>  <SCORE.RESTR.CAVITY>
0

>  <SCORE.RESTR.norm>
0

>  <SCORE.SYSTEM>
0

>  <SCORE.SYSTEM.CONST>
0

>  <SCORE.SYSTEM.DIHEDRAL>
0

>  <SCORE.SYSTEM.SOLV>
0

>  <SCORE.SYSTEM.norm>
0

>  <SCORE.heavy>
14

>  <SCORE.norm>
-0.559205

>  <RMSD>
2.586

$$$$
ligand
 OpenBabel11021811413D
libRbt.so/2013.1/901 2013/11/27
 14 13  0  0  0  0  0  0  0  0999 V2000
   47.0999    8.5642   15.2673 N   0  0  0  0  0  0  0  0  0  0  0  0
   46.8841    9.9172   15.8242 C   0  0  0  0  0  0  0  0  0  0  0  0
   46.1601    9.8510   17.1863 C   0  0  0  0  0  0  0  0  0  0  0  0
   46.9575    9.1552   18.3016 C   0  0  0  0  0  0  0  0  0  0  0  0
   46.1755    9.1074   19.5676 N   0  0  0  0  0  0  0  0  0  0  0  0
   46.4377    7.8334   20.2852 C   0  0  0  0  0  0  0  0  0  0  0  0
   45.6628    6.5828   19.7490 C   0  0  0  0  0  0  0  0  0  0  0  0
   45.8747    5.2939   20.5941 C   0  0  0  0  0  0  0  0  0  0  0  0
   45.1125    4.0884   20.0798 C   0  0  0  0  0  0  0  0  0  0  0  0
   45.7865    3.6199   18.8837 N   0  0  0  0  0  0  0  0  0  0  0  0
   45.1677    2.3489   18.5501 C   0  0  0  0  0  0  0  0  0  0  0  0
   45.7316    1.7772   17.2545 C   0  0  0  0  0  0  0  0  0  0  0  0
   44.9665    0.4811   16.9467 C   0  0  0  0  0  0  0  0  0  0  0  0
   45.4200   -0.1484   15.6974 N   0  0  0  0  0  0  0  0  0  0  0  0
  1  2  1  0  0  0  0
  2  3  1  0  0  0  0
  3  4  1  0  0  0  0
  4  5  1  0  0  0  0
  5  6  1  0  0  0  0
  6  7  1  0  0  0  0
  7  8  1  0  0  0  0
  8  9  1  0  0  0  0
  9 10  1  0  0  0  0
 10 11  1  0  0  0  0
 11 12  1  0  0  0  0
 12 13  1  0  0  0  0
 13 14  1  0  0  0  0
M  END
>  <CHROM.1>
64.35758775,-178.67431683,143.71650829,-79.45222585,-175.35838194,179.44962206
74.00145929,170.84258515,176.71372856,-176.95264266,179.15700872,45.95972075
5.60529009,18.15656487,-0.69174441,-1.36485478,-2.22855993

>  <Name>
ligand

>  <RI>
0

>  <Rbt.Current_Directory>
/home/itssahil/PROJECTS/Mol_Feturizer/New_Systems/rnas/1TN1

>  <Rbt.Executable>
rbdock ($Id: //depot/dev/client3/rdock/2013.1/src/exe/rbdock.cxx#4 $)

>  <Rbt.Library>
libRbt.so (2013.1, Build901 2013/11/27)

>  <Rbt.Parameter_File>
/export/apps/rDock/src/rDock_2013.1_src/data/scripts/dock_solv.prm

>  <Rbt.Receptor>
prm/pocket_docking_3.prm

>  <SCORE>
-7.46495

>  <SCORE.INTER>
-4.46857

>  <SCORE.INTER.CONST>
1

>  <SCORE.INTER.POLAR>
0

>  <SCORE.INTER.ROT>
11

>  <SCORE.INTER.SOLV>
11.8917

>  <SCORE.INTER.VDW>
-17.8763

>  <SCORE.INTER.norm>
-0.319183

>  <SCORE.INTRA>
-2.99639

>  <SCORE.INTRA.DIHEDRAL>
-5.73185

>  <SCORE.INTRA.DIHEDRAL.0>
7.79482

>  <SCORE.INTRA.POLAR>
0

>  <SCORE.INTRA.POLAR.0>
0

>  <SCORE.INTRA.REPUL>
0

>  <SCORE.INTRA.REPUL.0>
0

>  <SCORE.INTRA.SOLV>
0.955901

>  <SCORE.INTRA.SOLV.lig_0>
-49.456

>  <SCORE.INTRA.VDW>
-0.608411

>  <SCORE.INTRA.VDW.0>
-0.478406

>  <SCORE.INTRA.norm>
-0.214028

>  <SCORE.RESTR>
0

>  <SCORE.RESTR.CAVITY>
0

>  <SCORE.RESTR.norm>
0

>  <SCORE.SYSTEM>
0

>  <SCORE.SYSTEM.CONST>
0

>  <SCORE.SYSTEM.DIHEDRAL>
0

>  <SCORE.SYSTEM.SOLV>
0

>  <SCORE.SYSTEM.norm>
0

>  <SCORE.heavy>
14

>  <SCORE.norm>
-0.533211

>  <RMSD>
2.586

$$$$
ligand
 OpenBabel11021811413D
libRbt.so/2013.1/901 2013/11/27
 14 13  0  0  0  0  0  0  0  0999 V2000
   45.8632   -1.1754   16.5143 N   0  0  0  0  0  0  0  0  0  0  0  0
   45.1650    0.1123   16.7182 C   0  0  0  0  0  0  0  0  0  0  0  0
   45.7938    0.9099   17.8811 C   0  0  0  0  0  0  0  0  0  0  0  0
   45.1543    2.2853   18.1330 C   0  0  0  0  0  0  0  0  0  0  0  0
   45.8123    2.9796   19.2738 N   0  0  0  0  0  0  0  0  0  0  0  0
   45.1066    4.2512   19.5769 C   0  0  0  0  0  0  0  0  0  0  0  0
   45.3305    4.8227   21.0175 C   0  0  0  0  0  0  0  0  0  0  0  0
   44.4534    6.0633   21.3520 C   0  0  0  0  0  0  0  0  0  0  0  0
   44.6827    7.2457   20.4310 C   0  0  0  0  0  0  0  0  0  0  0  0
   46.0784    7.6252   20.5424 N   0  0  0  0  0  0  0  0  0  0  0  0
   46.3759    8.4020   19.3517 C   0  0  0  0  0  0  0  0  0  0  0  0
   46.1426    9.8902   19.5839 C   0  0  0  0  0  0  0  0  0  0  0  0
   46.5666   10.6319   18.3072 C   0  0  0  0  0  0  0  0  0  0  0  0
   45.6645   10.3560   17.1790 N   0  0  0  0  0  0  0  0  0  0  0  0
  1  2  1  0  0  0  0
  2  3  1  0  0  0  0
  3  4  1  0  0  0  0
  4  5  1  0  0  0  0
  5  6  1  0  0  0  0
  6  7  1  0  0  0  0
  7  8  1  0  0  0  0
  8  9  1  0  0  0  0
  9 10  1  0  0  0  0
 10 11  1  0  0  0  0
 11 12  1  0  0  0  0
 12 13  1  0  0  0  0
 13 14  1  0  0  0  0
M  END
>  <CHROM.1>
178.16232256,179.58151528,-175.10153731,158.80721054,-173.45462109,-59.90393815
-59.63666764,160.31741124,91.25712284,176.46632707,68.70921541,45.58486774
5.31443393,18.99040480,-1.76335833,1.32841869,0.37090641

>  <Name>
ligand

>  <RI>
0

>  <Rbt.Current_Directory>
/home/itssahil/PROJECTS/Mol_Feturizer/New_Systems/rnas/1TN1

>  <Rbt.Executable>
rbdock ($Id: //depot/dev/client3/rdock/2013.1/src/exe/rbdock.cxx#4 $)

>  <Rbt.Library>
libRbt.so (2013.1, Build901 2013/11/27)

>  <Rbt.Parameter_File>
/export/apps/rDock/src/rDock_2013.1_src/data/scripts/dock_solv.prm

>  <Rbt.Receptor>
prm/pocket_docking_4.prm

>  <SCORE>
-8.09738

>  <SCORE.INTER>
-6.06625

>  <SCORE.INTER.CONST>
1

>  <SCORE.INTER.POLAR>
0

>  <SCORE.INTER.ROT>
11

>  <SCORE.INTER.SOLV>
17.2273

>  <SCORE.INTER.VDW>
-20.7199

>  <SCORE.INTER.norm>
-0.433303

>  <SCORE.INTRA>
-2.03114

>  <SCORE.INTRA.DIHEDRAL>
-6.00769

>  <SCORE.INTRA.DIHEDRAL.0>
7.79482

>  <SCORE.INTRA.POLAR>
0

>  <SCORE.INTRA.POLAR.0>
0

>  <SCORE.INTRA.REPUL>
0

>  <SCORE.INTRA.REPUL.0>
0

>  <SCORE.INTRA.SOLV>
1.49688

>  <SCORE.INTRA.SOLV.lig_0>
-49.456

>  <SCORE.INTRA.VDW>
0.22427

>  <SCORE.INTRA.VDW.0>
-0.478406

>  <SCORE.INTRA.norm>
-0.145081

>  <SCORE.RESTR>
0

>  <SCORE.RESTR.CAVITY>
0

>  <SCORE.RESTR.norm>
0

>  <SCORE.SYSTEM>
0

>  <SCORE.SYSTEM.CONST>
0

>  <SCORE.SYSTEM.DIHEDRAL>
0

>  <SCORE.SYSTEM.SOLV>
0

>  <SCORE.SYSTEM.norm>
0

>  <SCORE.heavy>
14

>  <SCORE.norm>
-0.578385

>  <RMSD>
2.593

$$$$
ligand
 OpenBabel11021811413D
libRbt.so/2013.1/901 2013/11/27
 14 13  0  0  0  0  0  0  0  0999 V2000
   45.7941   10.1311   18.2314 N   0  0  0  0  0  0  0  0  0  0  0  0
   47.0844    9.8740   17.5559 C   0  0  0  0  0  0  0  0  0  0  0  0
   47.8881    8.7770   18.2871 C   0  0  0  0  0  0  0  0  0  0  0  0
   47.2778    7.3687   18.1963 C   0  0  0  0  0  0  0  0  0  0  0  0
   45.9349    7.3259   18.8376 N   0  0  0  0  0  0  0  0  0  0  0  0
   45.9824    6.5037   20.0739 C   0  0  0  0  0  0  0  0  0  0  0  0
   45.4339    5.0433   19.9369 C   0  0  0  0  0  0  0  0  0  0  0  0
   46.2450    4.1498   18.9551 C   0  0  0  0  0  0  0  0  0  0  0  0
   45.8249    2.6929   18.9585 C   0  0  0  0  0  0  0  0  0  0  0  0
   44.6192    2.5815   18.1597 N   0  0  0  0  0  0  0  0  0  0  0  0
   44.4928    1.1739   17.8241 C   0  0  0  0  0  0  0  0  0  0  0  0
   45.3774    0.8012   16.6402 C   0  0  0  0  0  0  0  0  0  0  0  0
   45.3523   -0.7288   16.5047 C   0  0  0  0  0  0  0  0  0  0  0  0
   46.1795   -1.2009   15.3842 N   0  0  0  0  0  0  0  0  0  0  0  0
  1  2  1  0  0  0  0
  2  3  1  0  0  0  0
  3  4  1  0  0  0  0
  4  5  1  0  0  0  0
  5  6  1  0  0  0  0
  6  7  1  0  0  0  0
  7  8  1  0  0  0  0
  8  9  1  0  0  0  0
  9 10  1  0  0  0  0
 10 11  1  0  0  0  0
 11 12  1  0  0  0  0
 12 13  1  0  0  0  0
 13 14  1  0  0  0  0
M  END
>  <CHROM.1>
68.51663530,-62.29962397,-111.50600008,-100.60430939,63.52060673,172.51652258
79.10585609,162.00061409,-81.25430142,171.04995298,-179.99768127,45.96348155
4.60661438,18.11057954,-1.24478923,-1.09557382,-2.66186282

>  <Name>
ligand

>  <RI>
0

>  <Rbt.Current_Directory>
/home/itssahil/PROJECTS/Mol_Feturizer/New_Systems/rnas/1TN1

>  <Rbt.Executable>
rbdock ($Id: //depot/dev/client3/rdock/2013.1/src/exe/rbdock.cxx#4 $)

>  <Rbt.Library>
libRbt.so (2013.1, Build901 2013/11/27)

>  <Rbt.Parameter_File>
/export/apps/rDock/src/rDock_2013.1_src/data/scripts/dock_solv.prm

>  <Rbt.Receptor>
prm/pocket_docking_2.prm

>  <SCORE>
-3.20791

>  <SCORE.INTER>
-3.41079

>  <SCORE.INTER.CONST>
1

>  <SCORE.INTER.POLAR>
0

>  <SCORE.INTER.ROT>
11

>  <SCORE.INTER.SOLV>
13.632

>  <SCORE.INTER.VDW>
-17.7512

>  <SCORE.INTER.norm>
-0.243628

>  <SCORE.INTRA>
0.20288

>  <SCORE.INTRA.DIHEDRAL>
-3.01907

>  <SCORE.INTRA.DIHEDRAL.0>
7.79482

>  <SCORE.INTRA.POLAR>
0

>  <SCORE.INTRA.POLAR.0>
0

>  <SCORE.INTRA.REPUL>
0

>  <SCORE.INTRA.REPUL.0>
0

>  <SCORE.INTRA.SOLV>
3.52025

>  <SCORE.INTRA.SOLV.lig_0>
-49.456

>  <SCORE.INTRA.VDW>
-0.047711

>  <SCORE.INTRA.VDW.0>
-0.478406

>  <SCORE.INTRA.norm>
0.0144914

>  <SCORE.RESTR>
0

>  <SCORE.RESTR.CAVITY>
0

>  <SCORE.RESTR.norm>
0

>  <SCORE.SYSTEM>
0

>  <SCORE.SYSTEM.CONST>
0

>  <SCORE.SYSTEM.DIHEDRAL>
0

>  <SCORE.SYSTEM.SOLV>
0

>  <SCORE.SYSTEM.norm>
0

>  <SCORE.heavy>
14

>  <SCORE.norm>
-0.229136

>  <RMSD>
2.620

$$$$
ligand
 OpenBabel11021811413D
libRbt.so/2013.1/901 2013/11/27
 14 13  0  0  0  0  0  0  0  0999 V2000
   44.8731   10.7442   18.3008 N   0  0  0  0  0  0  0  0  0  0  0  0
   43.7732    9.8115   18.6286 C   0  0  0  0  0  0  0  0  0  0  0  0
   44.2394    8.7265   19.6233 C   0  0  0  0  0  0  0  0  0  0  0  0
   45.4452    7.8990   19.1486 C   0  0  0  0  0  0  0  0  0  0  0  0
   45.7379    6.7888   20.0964 N   0  0  0  0  0  0  0  0  0  0  0  0
   46.2488    5.6051   19.3586 C   0  0  0  0  0  0  0  0  0  0  0  0
   45.5934    4.2351   19.7403 C   0  0  0  0  0  0  0  0  0  0  0  0
   46.1292    3.0249   18.9225 C   0  0  0  0  0  0  0  0  0  0  0  0
   45.7286    3.0443   17.4603 C   0  0  0  0  0  0  0  0  0  0  0  0
   46.1868    1.8044   16.8627 N   0  0  0  0  0  0  0  0  0  0  0  0
   45.0417    0.9109   16.8724 C   0  0  0  0  0  0  0  0  0  0  0  0
   45.4742   -0.5502   16.8351 C   0  0  0  0  0  0  0  0  0  0  0  0
   45.9777   -0.8497   15.4150 C   0  0  0  0  0  0  0  0  0  0  0  0
   44.9177   -0.7004   14.4067 N   0  0  0  0  0  0  0  0  0  0  0  0
  1  2  1  0  0  0  0
  2  3  1  0  0  0  0
  3  4  1  0  0  0  0
  4  5  1  0  0  0  0
  5  6  1  0  0  0  0
  6  7  1  0  0  0  0
  7  8  1  0  0  0  0
  8  9  1  0  0  0  0
  9 10  1  0  0  0  0
 10 11  1  0  0  0  0
 11 12  1  0  0  0  0
 12 13  1  0  0  0  0
 13 14  1  0  0  0  0
M  END
>  <CHROM.1>
-56.92650883,-174.04792052,146.20914236,-132.88961465,178.58006706,-68.82266687
-174.68498335,96.95748692,-156.17506536,-73.26900833,-63.09998922,45.38332173
4.32088211,17.97674009,1.75974127,-1.14301868,0.50304703

>  <Name>
ligand

>  <RI>
0

>  <Rbt.Current_Directory>
/home/itssahil/PROJECTS/Mol_Feturizer/New_Systems/rnas/1TN1

>  <Rbt.Executable>
rbdock ($Id: //depot/dev/client3/rdock/2013.1/src/exe/rbdock.cxx#4 $)

>  <Rbt.Library>
libRbt.so (2013.1, Build901 2013/11/27)

>  <Rbt.Parameter_File>
/export/apps/rDock/src/rDock_2013.1_src/data/scripts/dock_solv.prm

>  <Rbt.Receptor>
prm/pocket_docking_3.prm

>  <SCORE>
-6.8059

>  <SCORE.INTER>
-6.41909

>  <SCORE.INTER.CONST>
1

>  <SCORE.INTER.POLAR>
0

>  <SCORE.INTER.ROT>
11

>  <SCORE.INTER.SOLV>
10.8111

>  <SCORE.INTER.VDW>
-18.8164

>  <SCORE.INTER.norm>
-0.458506

>  <SCORE.INTRA>
-0.386814

>  <SCORE.INTRA.DIHEDRAL>
-3.5057

>  <SCORE.INTRA.DIHEDRAL.0>
7.79482

>  <SCORE.INTRA.POLAR>
0

>  <SCORE.INTRA.POLAR.0>
0

>  <SCORE.INTRA.REPUL>
0

>  <SCORE.INTRA.REPUL.0>
0

>  <SCORE.INTRA.SOLV>
2.48537

>  <SCORE.INTRA.SOLV.lig_0>
-49.456

>  <SCORE.INTRA.VDW>
0.123352

>  <SCORE.INTRA.VDW.0>
-0.478406

>  <SCORE.INTRA.norm>
-0.0276296

>  <SCORE.RESTR>
0

>  <SCORE.RESTR.CAVITY>
0

>  <SCORE.RESTR.norm>
0

>  <SCORE.SYSTEM>
0

>  <SCORE.SYSTEM.CONST>
0

>  <SCORE.SYSTEM.DIHEDRAL>
0

>  <SCORE.SYSTEM.SOLV>
0

>  <SCORE.SYSTEM.norm>
0

>  <SCORE.heavy>
14

>  <SCORE.norm>
-0.486136

>  <RMSD>
2.623

$$$$
ligand
 OpenBabel11021811413D
libRbt.so/2013.1/901 2013/11/27
 14 13  0  0  0  0  0  0  0  0999 V2000
   46.8889    2.2294   15.2488 N   0  0  0  0  0  0  0  0  0  0  0  0
   45.9997    2.6156   16.3656 C   0  0  0  0  0  0  0  0  0  0  0  0
   46.6300    2.2599   17.7294 C   0  0  0  0  0  0  0  0  0  0  0  0
   45.7871    2.6664   18.9494 C   0  0  0  0  0  0  0  0  0  0  0  0
   45.6141    4.1438   19.0111 N   0  0  0  0  0  0  0  0  0  0  0  0
   45.9268    4.6407   20.3757 C   0  0  0  0  0  0  0  0  0  0  0  0
   45.6391    6.1597   20.6251 C   0  0  0  0  0  0  0  0  0  0  0  0
   46.4186    7.1174   19.6789 C   0  0  0  0  0  0  0  0  0  0  0  0
   46.1760    8.5883   19.9557 C   0  0  0  0  0  0  0  0  0  0  0  0
   46.8152    9.3460   18.8967 N   0  0  0  0  0  0  0  0  0  0  0  0
   46.0748   10.5916   18.7959 C   0  0  0  0  0  0  0  0  0  0  0  0
   46.1790   11.1907   17.3982 C   0  0  0  0  0  0  0  0  0  0  0  0
   47.6527   11.5504   17.1554 C   0  0  0  0  0  0  0  0  0  0  0  0
   47.8691   12.1381   15.8248 N   0  0  0  0  0  0  0  0  0  0  0  0
  1  2  1  0  0  0  0
  2  3  1  0  0  0  0
  3  4  1  0  0  0  0
  4  5  1  0  0  0  0
  5  6  1  0  0  0  0
  6  7  1  0  0  0  0
  7  8  1  0  0  0  0
  8  9  1  0  0  0  0
  9 10  1  0  0  0  0
 10 11  1  0  0  0  0
 11 12  1  0  0  0  0
 12 13  1  0  0  0  0
 13 14  1  0  0  0  0
M  END
>  <CHROM.1>
178.27975836,-62.73016400,-131.28270903,-173.73189798,-59.02635677,-177.91940498
-172.46350249,153.15572852,-154.02479179,-64.07020632,179.87380433,46.40491199
6.80264410,18.28689576,-1.92419967,1.29341806,0.32290631

>  <Name>
ligand

>  <RI>
0

>  <Rbt.Current_Directory>
/home/itssahil/PROJECTS/Mol_Feturizer/New_Systems/rnas/1TN1

>  <Rbt.Executable>
rbdock ($Id: //depot/dev/client3/rdock/2013.1/src/exe/rbdock.cxx#4 $)

>  <Rbt.Library>
libRbt.so (2013.1, Build901 2013/11/27)

>  <Rbt.Parameter_File>
/export/apps/rDock/src/rDock_2013.1_src/data/scripts/dock_solv.prm

>  <Rbt.Receptor>
prm/pocket_docking_4.prm

>  <SCORE>
-7.17136

>  <SCORE.INTER>
-4.36031

>  <SCORE.INTER.CONST>
1

>  <SCORE.INTER.POLAR>
0

>  <SCORE.INTER.ROT>
11

>  <SCORE.INTER.SOLV>
8.92529

>  <SCORE.INTER.VDW>
-16.8153

>  <SCORE.INTER.norm>
-0.311451

>  <SCORE.INTRA>
-2.81104

>  <SCORE.INTRA.DIHEDRAL>
-5.353

>  <SCORE.INTRA.DIHEDRAL.0>
7.79482

>  <SCORE.INTRA.POLAR>
0

>  <SCORE.INTRA.POLAR.0>
0

>  <SCORE.INTRA.REPUL>
0

>  <SCORE.INTRA.REPUL.0>
0

>  <SCORE.INTRA.SOLV>
1.05696

>  <SCORE.INTRA.SOLV.lig_0>
-49.456

>  <SCORE.INTRA.VDW>
-0.663024

>  <SCORE.INTRA.VDW.0>
-0.478406

>  <SCORE.INTRA.norm>
-0.200789

>  <SCORE.RESTR>
0

>  <SCORE.RESTR.CAVITY>
0

>  <SCORE.RESTR.norm>
0

>  <SCORE.SYSTEM>
0

>  <SCORE.SYSTEM.CONST>
0

>  <SCORE.SYSTEM.DIHEDRAL>
0

>  <SCORE.SYSTEM.SOLV>
0

>  <SCORE.SYSTEM.norm>
0

>  <SCORE.heavy>
14

>  <SCORE.norm>
-0.51224

>  <RMSD>
2.637

$$$$
ligand
 OpenBabel11021811413D
libRbt.so/2013.1/901 2013/11/27
 14 13  0  0  0  0  0  0  0  0999 V2000
   46.1363   11.3776   17.5921 N   0  0  0  0  0  0  0  0  0  0  0  0
   46.0846   10.6236   18.8633 C   0  0  0  0  0  0  0  0  0  0  0  0
   46.3986    9.1287   18.6386 C   0  0  0  0  0  0  0  0  0  0  0  0
   46.3140    8.2598   19.9042 C   0  0  0  0  0  0  0  0  0  0  0  0
   46.6478    6.8408   19.6015 N   0  0  0  0  0  0  0  0  0  0  0  0
   45.7696    5.9296   20.3796 C   0  0  0  0  0  0  0  0  0  0  0  0
   46.0828    4.4021   20.2362 C   0  0  0  0  0  0  0  0  0  0  0  0
   45.9038    3.8499   18.7927 C   0  0  0  0  0  0  0  0  0  0  0  0
   46.2222    2.3739   18.6544 C   0  0  0  0  0  0  0  0  0  0  0  0
   45.9331    1.9884   17.2862 N   0  0  0  0  0  0  0  0  0  0  0  0
   44.7209    1.1905   17.3451 C   0  0  0  0  0  0  0  0  0  0  0  0
   44.4818    0.4421   16.0390 C   0  0  0  0  0  0  0  0  0  0  0  0
   45.5347   -0.6723   15.9424 C   0  0  0  0  0  0  0  0  0  0  0  0
   45.4287   -1.4294   14.6861 N   0  0  0  0  0  0  0  0  0  0  0  0
  1  2  1  0  0  0  0
  2  3  1  0  0  0  0
  3  4  1  0  0  0  0
  4  5  1  0  0  0  0
  5  6  1  0  0  0  0
  6  7  1  0  0  0  0
  7  8  1  0  0  0  0
  8  9  1  0  0  0  0
  9 10  1  0  0  0  0
 10 11  1  0  0  0  0
 11 12  1  0  0  0  0
 12 13  1  0  0  0  0
 13 14  1  0  0  0  0
M  END
>  <CHROM.1>
-177.79643572,-179.25664404,-141.58774762,-175.71420448,-62.77072984,179.37795801
176.56599722,-107.31675625,-166.34954212,71.14043898,-177.74895139,45.83270225
4.59319136,18.14045476,0.87670209,-1.42048143,-0.40650398

>  <Name>
ligand

>  <RI>
0

>  <Rbt.Current_Directory>
/home/itssahil/PROJECTS/Mol_Feturizer/New_Systems/rnas/1TN1

>  <Rbt.Executable>
rbdock ($Id: //depot/dev/client3/rdock/2013.1/src/exe/rbdock.cxx#4 $)

>  <Rbt.Library>
libRbt.so (2013.1, Build901 2013/11/27)

>  <Rbt.Parameter_File>
/export/apps/rDock/src/rDock_2013.1_src/data/scripts/dock_solv.prm

>  <Rbt.Receptor>
prm/pocket_docking_3.prm

>  <SCORE>
-9.81594

>  <SCORE.INTER>
-7.01103

>  <SCORE.INTER.CONST>
1

>  <SCORE.INTER.POLAR>
0

>  <SCORE.INTER.ROT>
11

>  <SCORE.INTER.SOLV>
10.9501

>  <SCORE.INTER.VDW>
-19.2574

>  <SCORE.INTER.norm>
-0.500788

>  <SCORE.INTRA>
-2.80491

>  <SCORE.INTRA.DIHEDRAL>
-5.13355

>  <SCORE.INTRA.DIHEDRAL.0>
7.79482

>  <SCORE.INTRA.POLAR>
0

>  <SCORE.INTRA.POLAR.0>
0

>  <SCORE.INTRA.REPUL>
0

>  <SCORE.INTRA.REPUL.0>
0

>  <SCORE.INTRA.SOLV>
0.658238

>  <SCORE.INTRA.SOLV.lig_0>
-49.456

>  <SCORE.INTRA.VDW>
-0.567256

>  <SCORE.INTRA.VDW.0>
-0.478406

>  <SCORE.INTRA.norm>
-0.200351

>  <SCORE.RESTR>
0

>  <SCORE.RESTR.CAVITY>
0

>  <SCORE.RESTR.norm>
0

>  <SCORE.SYSTEM>
0

>  <SCORE.SYSTEM.CONST>
0

>  <SCORE.SYSTEM.DIHEDRAL>
0

>  <SCORE.SYSTEM.SOLV>
0

>  <SCORE.SYSTEM.norm>
0

>  <SCORE.heavy>
14

>  <SCORE.norm>
-0.701139

>  <RMSD>
2.653

$$$$
ligand
 OpenBabel11021811413D
libRbt.so/2013.1/901 2013/11/27
 14 13  0  0  0  0  0  0  0  0999 V2000
   43.0395   10.9292   18.2793 N   0  0  0  0  0  0  0  0  0  0  0  0
   41.6058   10.5831   18.3887 C   0  0  0  0  0  0  0  0  0  0  0  0
   41.3337    9.7215   19.6407 C   0  0  0  0  0  0  0  0  0  0  0  0
   42.1093    8.3946   19.6852 C   0  0  0  0  0  0  0  0  0  0  0  0
   43.5739    8.6354   19.8013 N   0  0  0  0  0  0  0  0  0  0  0  0
   44.2086    7.5602   20.6062 C   0  0  0  0  0  0  0  0  0  0  0  0
   44.8930    6.4152   19.7860 C   0  0  0  0  0  0  0  0  0  0  0  0
   45.6417    5.3682   20.6598 C   0  0  0  0  0  0  0  0  0  0  0  0
   46.2326    4.2168   19.8698 C   0  0  0  0  0  0  0  0  0  0  0  0
   45.1322    3.4008   19.3928 N   0  0  0  0  0  0  0  0  0  0  0  0
   45.7329    2.3610   18.5756 C   0  0  0  0  0  0  0  0  0  0  0  0
   44.6810    1.3998   18.0343 C   0  0  0  0  0  0  0  0  0  0  0  0
   45.4030    0.3691   17.1531 C   0  0  0  0  0  0  0  0  0  0  0  0
   45.9470    0.9708   15.9265 N   0  0  0  0  0  0  0  0  0  0  0  0
  1  2  1  0  0  0  0
  2  3  1  0  0  0  0
  3  4  1  0  0  0  0
  4  5  1  0  0  0  0
  5  6  1  0  0  0  0
  6  7  1  0  0  0  0
  7  8  1  0  0  0  0
  8  9  1  0  0  0  0
  9 10  1  0  0  0  0
 10 11  1  0  0  0  0
 11 12  1  0  0  0  0
 12 13  1  0  0  0  0
 13 14  1  0  0  0  0
M  END
>  <CHROM.1>
-59.10557938,65.66524951,146.66518575,98.25383310,175.44838394,176.54398077
-70.25965638,176.57185341,178.49577815,178.27944758,-67.94448087,44.25237656
5.73745555,18.98592242,2.17846776,-0.89939127,0.67591355

>  <Name>
ligand

>  <RI>
0

>  <Rbt.Current_Directory>
/home/itssahil/PROJECTS/Mol_Feturizer/New_Systems/rnas/1TN1

>  <Rbt.Executable>
rbdock ($Id: //depot/dev/client3/rdock/2013.1/src/exe/rbdock.cxx#4 $)

>  <Rbt.Library>
libRbt.so (2013.1, Build901 2013/11/27)

>  <Rbt.Parameter_File>
/export/apps/rDock/src/rDock_2013.1_src/data/scripts/dock_solv.prm

>  <Rbt.Receptor>
prm/pocket_docking_4.prm

>  <SCORE>
-12.2025

>  <SCORE.INTER>
-11.0058

>  <SCORE.INTER.CONST>
1

>  <SCORE.INTER.POLAR>
0

>  <SCORE.INTER.ROT>
11

>  <SCORE.INTER.SOLV>
15.9816

>  <SCORE.INTER.VDW>
-23.5977

>  <SCORE.INTER.norm>
-0.786125

>  <SCORE.INTRA>
-1.20303

>  <SCORE.INTRA.DIHEDRAL>
-5.34093

>  <SCORE.INTRA.DIHEDRAL.0>
7.79482

>  <SCORE.INTRA.POLAR>
0

>  <SCORE.INTRA.POLAR.0>
0

>  <SCORE.INTRA.REPUL>
0

>  <SCORE.INTRA.REPUL.0>
0

>  <SCORE.INTRA.SOLV>
4.08534

>  <SCORE.INTRA.SOLV.lig_0>
-49.456

>  <SCORE.INTRA.VDW>
-0.575232

>  <SCORE.INTRA.VDW.0>
-0.478406

>  <SCORE.INTRA.norm>
-0.0859306

>  <SCORE.RESTR>
0.00623364

>  <SCORE.RESTR.CAVITY>
0.00623364

>  <SCORE.RESTR.norm>
0.00044526

>  <SCORE.SYSTEM>
0

>  <SCORE.SYSTEM.CONST>
0

>  <SCORE.SYSTEM.DIHEDRAL>
0

>  <SCORE.SYSTEM.SOLV>
0

>  <SCORE.SYSTEM.norm>
0

>  <SCORE.heavy>
14

>  <SCORE.norm>
-0.87161

>  <RMSD>
2.665

$$$$
ligand
 OpenBabel11021811413D
libRbt.so/2013.1/901 2013/11/27
 14 13  0  0  0  0  0  0  0  0999 V2000
   46.6089   11.0981   17.4747 N   0  0  0  0  0  0  0  0  0  0  0  0
   45.7762   10.3056   18.4052 C   0  0  0  0  0  0  0  0  0  0  0  0
   46.6410    9.3389   19.2428 C   0  0  0  0  0  0  0  0  0  0  0  0
   45.8449    8.4213   20.1852 C   0  0  0  0  0  0  0  0  0  0  0  0
   44.9569    7.5066   19.4164 N   0  0  0  0  0  0  0  0  0  0  0  0
   44.0726    6.7521   20.3413 C   0  0  0  0  0  0  0  0  0  0  0  0
   44.7963    5.7497   21.3023 C   0  0  0  0  0  0  0  0  0  0  0  0
   45.7521    4.7563   20.5812 C   0  0  0  0  0  0  0  0  0  0  0  0
   45.0479    3.7962   19.6424 C   0  0  0  0  0  0  0  0  0  0  0  0
   46.0542    2.9186   19.0755 N   0  0  0  0  0  0  0  0  0  0  0  0
   45.3375    1.7517   18.5913 C   0  0  0  0  0  0  0  0  0  0  0  0
   45.8917    1.2716   17.2550 C   0  0  0  0  0  0  0  0  0  0  0  0
   45.0361    0.0803   16.7981 C   0  0  0  0  0  0  0  0  0  0  0  0
   45.4487   -0.4271   15.4809 N   0  0  0  0  0  0  0  0  0  0  0  0
  1  2  1  0  0  0  0
  2  3  1  0  0  0  0
  3  4  1  0  0  0  0
  4  5  1  0  0  0  0
  5  6  1  0  0  0  0
  6  7  1  0  0  0  0
  7  8  1  0  0  0  0
  8  9  1  0  0  0  0
  9 10  1  0  0  0  0
 10 11  1  0  0  0  0
 11 12  1  0  0  0  0
 12 13  1  0  0  0  0
 13 14  1  0  0  0  0
M  END
>  <CHROM.1>
-176.88646207,63.47995565,-172.80360661,-65.66694739,-52.04066095,-64.81446568
-178.56814172,159.99724965,139.95449776,-177.57840894,177.44086285,45.51882595
5.23710550,18.84269923,-1.38201941,-1.29440322,-2.75040381

>  <Name>
ligand

>  <RI>
0

>  <Rbt.Current_Directory>
/home/itssahil/PROJECTS/Mol_Feturizer/New_Systems/rnas/1TN1

>  <Rbt.Executable>
rbdock ($Id: //depot/dev/client3/rdock/2013.1/src/exe/rbdock.cxx#4 $)

>  <Rbt.Library>
libRbt.so (2013.1, Build901 2013/11/27)

>  <Rbt.Parameter_File>
/export/apps/rDock/src/rDock_2013.1_src/data/scripts/dock_solv.prm

>  <Rbt.Receptor>
prm/pocket_docking_4.prm

>  <SCORE>
-9.46508

>  <SCORE.INTER>
-6.96614

>  <SCORE.INTER.CONST>
1

>  <SCORE.INTER.POLAR>
0

>  <SCORE.INTER.ROT>
11

>  <SCORE.INTER.SOLV>
11.6917

>  <SCORE.INTER.VDW>
-19.4747

>  <SCORE.INTER.norm>
-0.497582

>  <SCORE.INTRA>
-2.49894

>  <SCORE.INTRA.DIHEDRAL>
-6.05532

>  <SCORE.INTRA.DIHEDRAL.0>
7.79482

>  <SCORE.INTRA.POLAR>
0

>  <SCORE.INTRA.POLAR.0>
0

>  <SCORE.INTRA.REPUL>
0

>  <SCORE.INTRA.REPUL.0>
0

>  <SCORE.INTRA.SOLV>
1.00856

>  <SCORE.INTRA.SOLV.lig_0>
-49.456

>  <SCORE.INTRA.VDW>
0.0244406

>  <SCORE.INTRA.VDW.0>
-0.478406

>  <SCORE.INTRA.norm>
-0.178496

>  <SCORE.RESTR>
0

>  <SCORE.RESTR.CAVITY>
0

>  <SCORE.RESTR.norm>
0

>  <SCORE.SYSTEM>
0

>  <SCORE.SYSTEM.CONST>
0

>  <SCORE.SYSTEM.DIHEDRAL>
0

>  <SCORE.SYSTEM.SOLV>
0

>  <SCORE.SYSTEM.norm>
0

>  <SCORE.heavy>
14

>  <SCORE.norm>
-0.676077

>  <RMSD>
2.668

$$$$
ligand
 OpenBabel11021811413D
libRbt.so/2013.1/901 2013/11/27
 14 13  0  0  0  0  0  0  0  0999 V2000
   41.8592   12.1512   18.0481 N   0  0  0  0  0  0  0  0  0  0  0  0
   42.5031   10.8359   18.2546 C   0  0  0  0  0  0  0  0  0  0  0  0
   41.6411    9.9284   19.1587 C   0  0  0  0  0  0  0  0  0  0  0  0
   42.2787    8.5708   19.4967 C   0  0  0  0  0  0  0  0  0  0  0  0
   43.5365    8.7496   20.2728 N   0  0  0  0  0  0  0  0  0  0  0  0
   44.7101    8.3783   19.4413 C   0  0  0  0  0  0  0  0  0  0  0  0
   45.0955    6.8606   19.4541 C   0  0  0  0  0  0  0  0  0  0  0  0
   45.5763    6.3392   20.8388 C   0  0  0  0  0  0  0  0  0  0  0  0
   45.6267    4.8274   20.9436 C   0  0  0  0  0  0  0  0  0  0  0  0
   46.5535    4.3478   19.9359 N   0  0  0  0  0  0  0  0  0  0  0  0
   45.7515    3.6066   18.9782 C   0  0  0  0  0  0  0  0  0  0  0  0
   46.5238    2.4274   18.3983 C   0  0  0  0  0  0  0  0  0  0  0  0
   45.6647    1.8125   17.2830 C   0  0  0  0  0  0  0  0  0  0  0  0
   44.4284    1.2090   17.8028 N   0  0  0  0  0  0  0  0  0  0  0  0
  1  2  1  0  0  0  0
  2  3  1  0  0  0  0
  3  4  1  0  0  0  0
  4  5  1  0  0  0  0
  5  6  1  0  0  0  0
  6  7  1  0  0  0  0
  7  8  1  0  0  0  0
  8  9  1  0  0  0  0
  9 10  1  0  0  0  0
 10 11  1  0  0  0  0
 11 12  1  0  0  0  0
 12 13  1  0  0  0  0
 13 14  1  0  0  0  0
M  END
>  <CHROM.1>
-176.38565292,62.91558410,-110.11607900,-86.37562796,-65.09064052,165.96548818
60.18709826,-113.25503221,-146.17069174,-173.30982322,-66.12190119,44.41078064
6.43168556,19.16484528,2.17894862,-0.80811954,0.50345588

>  <Name>
ligand

>  <RI>
0

>  <Rbt.Current_Directory>
/home/itssahil/PROJECTS/Mol_Feturizer/New_Systems/rnas/1TN1

>  <Rbt.Executable>
rbdock ($Id: //depot/dev/client3/rdock/2013.1/src/exe/rbdock.cxx#4 $)

>  <Rbt.Library>
libRbt.so (2013.1, Build901 2013/11/27)

>  <Rbt.Parameter_File>
/export/apps/rDock/src/rDock_2013.1_src/data/scripts/dock_solv.prm

>  <Rbt.Receptor>
prm/blind_docking_80.prm

>  <SCORE>
-9.81922

>  <SCORE.INTER>
-8.97609

>  <SCORE.INTER.CONST>
1

>  <SCORE.INTER.POLAR>
0

>  <SCORE.INTER.ROT>
11

>  <SCORE.INTER.SOLV>
19.9646

>  <SCORE.INTER.VDW>
-23.5723

>  <SCORE.INTER.norm>
-0.641149

>  <SCORE.INTRA>
-0.843136

>  <SCORE.INTRA.DIHEDRAL>
-3.02726

>  <SCORE.INTRA.DIHEDRAL.0>
7.79482

>  <SCORE.INTRA.POLAR>
0

>  <SCORE.INTRA.POLAR.0>
0

>  <SCORE.INTRA.REPUL>
0

>  <SCORE.INTRA.REPUL.0>
0

>  <SCORE.INTRA.SOLV>
1.79997

>  <SCORE.INTRA.SOLV.lig_0>
-49.456

>  <SCORE.INTRA.VDW>
-0.229491

>  <SCORE.INTRA.VDW.0>
-0.478406

>  <SCORE.INTRA.norm>
-0.060224

>  <SCORE.RESTR>
0

>  <SCORE.RESTR.CAVITY>
0

>  <SCORE.RESTR.norm>
0

>  <SCORE.SYSTEM>
0

>  <SCORE.SYSTEM.CONST>
0

>  <SCORE.SYSTEM.DIHEDRAL>
0

>  <SCORE.SYSTEM.SOLV>
0

>  <SCORE.SYSTEM.norm>
0

>  <SCORE.heavy>
14

>  <SCORE.norm>
-0.701373

>  <RMSD>
2.676

$$$$
ligand
 OpenBabel11021811413D
libRbt.so/2013.1/901 2013/11/27
 14 13  0  0  0  0  0  0  0  0999 V2000
   47.2541   10.5127   15.7527 N   0  0  0  0  0  0  0  0  0  0  0  0
   46.4904    9.3073   16.1409 C   0  0  0  0  0  0  0  0  0  0  0  0
   47.3291    8.3844   17.0513 C   0  0  0  0  0  0  0  0  0  0  0  0
   47.7274    9.0062   18.3998 C   0  0  0  0  0  0  0  0  0  0  0  0
   46.5262    9.2976   19.2296 N   0  0  0  0  0  0  0  0  0  0  0  0
   46.3523    8.2489   20.2673 C   0  0  0  0  0  0  0  0  0  0  0  0
   45.7661    6.8876   19.7621 C   0  0  0  0  0  0  0  0  0  0  0  0
   45.5659    5.8273   20.8829 C   0  0  0  0  0  0  0  0  0  0  0  0
   45.0376    4.4966   20.3840 C   0  0  0  0  0  0  0  0  0  0  0  0
   46.0586    3.9075   19.5386 N   0  0  0  0  0  0  0  0  0  0  0  0
   45.4172    2.7990   18.8534 C   0  0  0  0  0  0  0  0  0  0  0  0
   46.4375    1.7698   18.3811 C   0  0  0  0  0  0  0  0  0  0  0  0
   45.6812    0.6997   17.5793 C   0  0  0  0  0  0  0  0  0  0  0  0
   45.1413    1.2290   16.3179 N   0  0  0  0  0  0  0  0  0  0  0  0
  1  2  1  0  0  0  0
  2  3  1  0  0  0  0
  3  4  1  0  0  0  0
  4  5  1  0  0  0  0
  5  6  1  0  0  0  0
  6  7  1  0  0  0  0
  7  8  1  0  0  0  0
  8  9  1  0  0  0  0
  9 10  1  0  0  0  0
 10 11  1  0  0  0  0
 11 12  1  0  0  0  0
 12 13  1  0  0  0  0
 13 14  1  0  0  0  0
M  END
>  <CHROM.1>
63.09783365,63.69510181,101.38245809,-76.52177263,-178.56667282,-178.25457846
65.82549509,-167.82189665,-157.29530051,-175.69471921,67.53472500,46.19891981
5.88368650,18.46749574,-0.70218096,-1.33731595,-2.35905929

>  <Name>
ligand

>  <RI>
0

>  <Rbt.Current_Directory>
/home/itssahil/PROJECTS/Mol_Feturizer/New_Systems/rnas/1TN1

>  <Rbt.Executable>
rbdock ($Id: //depot/dev/client3/rdock/2013.1/src/exe/rbdock.cxx#4 $)

>  <Rbt.Library>
libRbt.so (2013.1, Build901 2013/11/27)

>  <Rbt.Parameter_File>
/export/apps/rDock/src/rDock_2013.1_src/data/scripts/dock_solv.prm

>  <Rbt.Receptor>
prm/pocket_docking_5.prm

>  <SCORE>
-8.14982

>  <SCORE.INTER>
-6.48239

>  <SCORE.INTER.CONST>
1

>  <SCORE.INTER.POLAR>
0

>  <SCORE.INTER.ROT>
11

>  <SCORE.INTER.SOLV>
11.3427

>  <SCORE.INTER.VDW>
-19.0358

>  <SCORE.INTER.norm>
-0.463028

>  <SCORE.INTRA>
-1.66744

>  <SCORE.INTRA.DIHEDRAL>
-5.63542

>  <SCORE.INTRA.DIHEDRAL.0>
7.79482

>  <SCORE.INTRA.POLAR>
0

>  <SCORE.INTRA.POLAR.0>
0

>  <SCORE.INTRA.REPUL>
0

>  <SCORE.INTRA.REPUL.0>
0

>  <SCORE.INTRA.SOLV>
2.82201

>  <SCORE.INTRA.SOLV.lig_0>
-49.456

>  <SCORE.INTRA.VDW>
-0.260731

>  <SCORE.INTRA.VDW.0>
-0.478406

>  <SCORE.INTRA.norm>
-0.119103

>  <SCORE.RESTR>
0

>  <SCORE.RESTR.CAVITY>
0

>  <SCORE.RESTR.norm>
0

>  <SCORE.SYSTEM>
0

>  <SCORE.SYSTEM.CONST>
0

>  <SCORE.SYSTEM.DIHEDRAL>
0

>  <SCORE.SYSTEM.SOLV>
0

>  <SCORE.SYSTEM.norm>
0

>  <SCORE.heavy>
14

>  <SCORE.norm>
-0.58213

>  <RMSD>
2.676

$$$$
ligand
 OpenBabel11021811413D
libRbt.so/2013.1/901 2013/11/27
 14 13  0  0  0  0  0  0  0  0999 V2000
   45.5169   10.8591   17.1822 N   0  0  0  0  0  0  0  0  0  0  0  0
   46.0285    9.4829   17.3595 C   0  0  0  0  0  0  0  0  0  0  0  0
   46.5555    9.2639   18.7941 C   0  0  0  0  0  0  0  0  0  0  0  0
   47.0719    7.8434   19.0763 C   0  0  0  0  0  0  0  0  0  0  0  0
   45.9917    6.8356   18.8916 N   0  0  0  0  0  0  0  0  0  0  0  0
   45.8748    5.9809   20.1010 C   0  0  0  0  0  0  0  0  0  0  0  0
   46.2797    4.4802   19.9107 C   0  0  0  0  0  0  0  0  0  0  0  0
   45.4005    3.7106   18.8834 C   0  0  0  0  0  0  0  0  0  0  0  0
   45.8085    2.2637   18.6862 C   0  0  0  0  0  0  0  0  0  0  0  0
   44.9241    1.6898   17.6897 N   0  0  0  0  0  0  0  0  0  0  0  0
   45.5530    0.4511   17.2656 C   0  0  0  0  0  0  0  0  0  0  0  0
   45.0292   -0.0040   15.9084 C   0  0  0  0  0  0  0  0  0  0  0  0
   45.7842   -1.2857   15.5249 C   0  0  0  0  0  0  0  0  0  0  0  0
   45.5408   -2.3797   16.4771 N   0  0  0  0  0  0  0  0  0  0  0  0
  1  2  1  0  0  0  0
  2  3  1  0  0  0  0
  3  4  1  0  0  0  0
  4  5  1  0  0  0  0
  5  6  1  0  0  0  0
  6  7  1  0  0  0  0
  7  8  1  0  0  0  0
  8  9  1  0  0  0  0
  9 10  1  0  0  0  0
 10 11  1  0  0  0  0
 11 12  1  0  0  0  0
 12 13  1  0  0  0  0
 13 14  1  0  0  0  0
M  END
>  <CHROM.1>
178.39531195,-60.62959832,-127.27718699,-112.72165687,-62.12794766,179.12481182
-178.84628879,164.99734239,-159.60486993,178.04031639,62.18344952,45.81150375
4.22798778,17.98237198,1.08668353,-1.41372352,-0.29686679

>  <Name>
ligand

>  <RI>
0

>  <Rbt.Current_Directory>
/home/itssahil/PROJECTS/Mol_Feturizer/New_Systems/rnas/1TN1

>  <Rbt.Executable>
rbdock ($Id: //depot/dev/client3/rdock/2013.1/src/exe/rbdock.cxx#4 $)

>  <Rbt.Library>
libRbt.so (2013.1, Build901 2013/11/27)

>  <Rbt.Parameter_File>
/export/apps/rDock/src/rDock_2013.1_src/data/scripts/dock_solv.prm

>  <Rbt.Receptor>
prm/pocket_docking_2.prm

>  <SCORE>
-6.29774

>  <SCORE.INTER>
-3.98363

>  <SCORE.INTER.CONST>
1

>  <SCORE.INTER.POLAR>
0

>  <SCORE.INTER.ROT>
11

>  <SCORE.INTER.SOLV>
18.0235

>  <SCORE.INTER.VDW>
-19.5969

>  <SCORE.INTER.norm>
-0.284545

>  <SCORE.INTRA>
-2.31508

>  <SCORE.INTRA.DIHEDRAL>
-4.92516

>  <SCORE.INTRA.DIHEDRAL.0>
7.79482

>  <SCORE.INTRA.POLAR>
0

>  <SCORE.INTRA.POLAR.0>
0

>  <SCORE.INTRA.REPUL>
0

>  <SCORE.INTRA.REPUL.0>
0

>  <SCORE.INTRA.SOLV>
1.46527

>  <SCORE.INTRA.SOLV.lig_0>
-49.456

>  <SCORE.INTRA.VDW>
-0.585139

>  <SCORE.INTRA.VDW.0>
-0.478406

>  <SCORE.INTRA.norm>
-0.165363

>  <SCORE.RESTR>
0.000977466

>  <SCORE.RESTR.CAVITY>
0.000977466

>  <SCORE.RESTR.norm>
6.9819e-05

>  <SCORE.SYSTEM>
0

>  <SCORE.SYSTEM.CONST>
0

>  <SCORE.SYSTEM.DIHEDRAL>
0

>  <SCORE.SYSTEM.SOLV>
0

>  <SCORE.SYSTEM.norm>
0

>  <SCORE.heavy>
14

>  <SCORE.norm>
-0.449838

>  <RMSD>
2.678

$$$$
ligand
 OpenBabel11021811413D
libRbt.so/2013.1/901 2013/11/27
 14 13  0  0  0  0  0  0  0  0999 V2000
   44.8703   10.6654   18.3916 N   0  0  0  0  0  0  0  0  0  0  0  0
   46.3258   10.5821   18.6397 C   0  0  0  0  0  0  0  0  0  0  0  0
   46.8206    9.1210   18.5723 C   0  0  0  0  0  0  0  0  0  0  0  0
   46.2304    8.1953   19.6487 C   0  0  0  0  0  0  0  0  0  0  0  0
   46.6873    6.7916   19.4554 N   0  0  0  0  0  0  0  0  0  0  0  0
   45.8605    5.8656   20.2712 C   0  0  0  0  0  0  0  0  0  0  0  0
   46.1973    4.3440   20.1176 C   0  0  0  0  0  0  0  0  0  0  0  0
   45.9099    3.7697   18.7006 C   0  0  0  0  0  0  0  0  0  0  0  0
   46.1731    2.2819   18.5744 C   0  0  0  0  0  0  0  0  0  0  0  0
   45.7505    1.8718   17.2487 N   0  0  0  0  0  0  0  0  0  0  0  0
   45.0212    0.6289   17.4302 C   0  0  0  0  0  0  0  0  0  0  0  0
   45.4407   -0.4186   16.4053 C   0  0  0  0  0  0  0  0  0  0  0  0
   44.9844    0.0743   15.0237 C   0  0  0  0  0  0  0  0  0  0  0  0
   45.2994   -0.8893   13.9583 N   0  0  0  0  0  0  0  0  0  0  0  0
  1  2  1  0  0  0  0
  2  3  1  0  0  0  0
  3  4  1  0  0  0  0
  4  5  1  0  0  0  0
  5  6  1  0  0  0  0
  6  7  1  0  0  0  0
  7  8  1  0  0  0  0
  8  9  1  0  0  0  0
  9 10  1  0  0  0  0
 10 11  1  0  0  0  0
 11 12  1  0  0  0  0
 12 13  1  0  0  0  0
 13 14  1  0  0  0  0
M  END
>  <CHROM.1>
-63.60917923,176.17946737,-165.88997369,177.63227575,-65.32490391,-177.17478325
174.97430492,-135.98783546,-134.58410810,-66.86912946,-178.01743688,45.82659268
4.49163837,18.03157817,1.17359513,-1.36978028,-0.06093222

>  <Name>
ligand

>  <RI>
0

>  <Rbt.Current_Directory>
/home/itssahil/PROJECTS/Mol_Feturizer/New_Systems/rnas/1TN1

>  <Rbt.Executable>
rbdock ($Id: //depot/dev/client3/rdock/2013.1/src/exe/rbdock.cxx#4 $)

>  <Rbt.Library>
libRbt.so (2013.1, Build901 2013/11/27)

>  <Rbt.Parameter_File>
/export/apps/rDock/src/rDock_2013.1_src/data/scripts/dock_solv.prm

>  <Rbt.Receptor>
prm/pocket_docking_6.prm

>  <SCORE>
-9.2302

>  <SCORE.INTER>
-6.74902

>  <SCORE.INTER.CONST>
1

>  <SCORE.INTER.POLAR>
0

>  <SCORE.INTER.ROT>
11

>  <SCORE.INTER.SOLV>
10.5479

>  <SCORE.INTER.VDW>
-18.9487

>  <SCORE.INTER.norm>
-0.482073

>  <SCORE.INTRA>
-2.48119

>  <SCORE.INTRA.DIHEDRAL>
-5.06797

>  <SCORE.INTRA.DIHEDRAL.0>
7.79482

>  <SCORE.INTRA.POLAR>
0

>  <SCORE.INTRA.POLAR.0>
0

>  <SCORE.INTRA.REPUL>
0

>  <SCORE.INTRA.REPUL.0>
0

>  <SCORE.INTRA.SOLV>
1.34398

>  <SCORE.INTRA.SOLV.lig_0>
-49.456

>  <SCORE.INTRA.VDW>
-0.619192

>  <SCORE.INTRA.VDW.0>
-0.478406

>  <SCORE.INTRA.norm>
-0.177228

>  <SCORE.RESTR>
0

>  <SCORE.RESTR.CAVITY>
0

>  <SCORE.RESTR.norm>
0

>  <SCORE.SYSTEM>
0

>  <SCORE.SYSTEM.CONST>
0

>  <SCORE.SYSTEM.DIHEDRAL>
0

>  <SCORE.SYSTEM.SOLV>
0

>  <SCORE.SYSTEM.norm>
0

>  <SCORE.heavy>
14

>  <SCORE.norm>
-0.6593

>  <RMSD>
2.682

$$$$
ligand
 OpenBabel11021811413D
libRbt.so/2013.1/901 2013/11/27
 14 13  0  0  0  0  0  0  0  0999 V2000
   45.6197    9.6276   19.0932 N   0  0  0  0  0  0  0  0  0  0  0  0
   46.1983    9.4803   17.7401 C   0  0  0  0  0  0  0  0  0  0  0  0
   47.5020    8.6539   17.7776 C   0  0  0  0  0  0  0  0  0  0  0  0
   47.3061    7.1641   18.1032 C   0  0  0  0  0  0  0  0  0  0  0  0
   46.9333    6.9738   19.5319 N   0  0  0  0  0  0  0  0  0  0  0  0
   45.5949    6.3373   19.6329 C   0  0  0  0  0  0  0  0  0  0  0  0
   45.5966    4.7795   19.7920 C   0  0  0  0  0  0  0  0  0  0  0  0
   46.1548    4.0155   18.5570 C   0  0  0  0  0  0  0  0  0  0  0  0
   46.2208    2.5120   18.7416 C   0  0  0  0  0  0  0  0  0  0  0  0
   44.8612    2.0066   18.7206 N   0  0  0  0  0  0  0  0  0  0  0  0
   44.8723    0.8723   17.8134 C   0  0  0  0  0  0  0  0  0  0  0  0
   44.4382    1.2768   16.4094 C   0  0  0  0  0  0  0  0  0  0  0  0
   44.4599    0.0143   15.5345 C   0  0  0  0  0  0  0  0  0  0  0  0
   45.7999   -0.5870   15.4599 N   0  0  0  0  0  0  0  0  0  0  0  0
  1  2  1  0  0  0  0
  2  3  1  0  0  0  0
  3  4  1  0  0  0  0
  4  5  1  0  0  0  0
  5  6  1  0  0  0  0
  6  7  1  0  0  0  0
  7  8  1  0  0  0  0
  8  9  1  0  0  0  0
  9 10  1  0  0  0  0
 10 11  1  0  0  0  0
 11 12  1  0  0  0  0
 12 13  1  0  0  0  0
 13 14  1  0  0  0  0
M  END
>  <CHROM.1>
69.46049213,-71.51374780,118.67666438,95.09014424,-65.35909476,177.05154095
71.47998118,132.20595331,-95.60991527,-179.10140994,-60.42762730,45.82558943
4.50906828,18.06475244,-0.65697325,-1.34468723,-1.99624283

>  <Name>
ligand

>  <RI>
0

>  <Rbt.Current_Directory>
/home/itssahil/PROJECTS/Mol_Feturizer/New_Systems/rnas/1TN1

>  <Rbt.Executable>
rbdock ($Id: //depot/dev/client3/rdock/2013.1/src/exe/rbdock.cxx#4 $)

>  <Rbt.Library>
libRbt.so (2013.1, Build901 2013/11/27)

>  <Rbt.Parameter_File>
/export/apps/rDock/src/rDock_2013.1_src/data/scripts/dock_solv.prm

>  <Rbt.Receptor>
prm/pocket_docking_2.prm

>  <SCORE>
-2.63085

>  <SCORE.INTER>
-3.40467

>  <SCORE.INTER.CONST>
1

>  <SCORE.INTER.POLAR>
0

>  <SCORE.INTER.ROT>
11

>  <SCORE.INTER.SOLV>
13.7172

>  <SCORE.INTER.VDW>
-17.7755

>  <SCORE.INTER.norm>
-0.243191

>  <SCORE.INTRA>
0.769922

>  <SCORE.INTRA.DIHEDRAL>
-2.53279

>  <SCORE.INTRA.DIHEDRAL.0>
7.79482

>  <SCORE.INTRA.POLAR>
0

>  <SCORE.INTRA.POLAR.0>
0

>  <SCORE.INTRA.REPUL>
0

>  <SCORE.INTRA.REPUL.0>
0

>  <SCORE.INTRA.SOLV>
4.99607

>  <SCORE.INTRA.SOLV.lig_0>
-49.456

>  <SCORE.INTRA.VDW>
-0.461718

>  <SCORE.INTRA.VDW.0>
-0.478406

>  <SCORE.INTRA.norm>
0.0549944

>  <SCORE.RESTR>
0.00390129

>  <SCORE.RESTR.CAVITY>
0.00390129

>  <SCORE.RESTR.norm>
0.000278664

>  <SCORE.SYSTEM>
0

>  <SCORE.SYSTEM.CONST>
0

>  <SCORE.SYSTEM.DIHEDRAL>
0

>  <SCORE.SYSTEM.SOLV>
0

>  <SCORE.SYSTEM.norm>
0

>  <SCORE.heavy>
14

>  <SCORE.norm>
-0.187918

>  <RMSD>
2.704

$$$$
ligand
 OpenBabel11021811413D
libRbt.so/2013.1/901 2013/11/27
 14 13  0  0  0  0  0  0  0  0999 V2000
   46.6586   11.4184   17.5780 N   0  0  0  0  0  0  0  0  0  0  0  0
   46.2054   10.6301   18.7443 C   0  0  0  0  0  0  0  0  0  0  0  0
   46.6950    9.1686   18.6543 C   0  0  0  0  0  0  0  0  0  0  0  0
   46.2579    8.2740   19.8259 C   0  0  0  0  0  0  0  0  0  0  0  0
   46.6704    6.8611   19.6023 N   0  0  0  0  0  0  0  0  0  0  0  0
   45.7940    5.9423   20.3733 C   0  0  0  0  0  0  0  0  0  0  0  0
   46.1249    4.4178   20.2364 C   0  0  0  0  0  0  0  0  0  0  0  0
   45.9130    3.8480   18.8043 C   0  0  0  0  0  0  0  0  0  0  0  0
   46.2263    2.3700   18.6774 C   0  0  0  0  0  0  0  0  0  0  0  0
   45.9363    1.9751   17.3120 N   0  0  0  0  0  0  0  0  0  0  0  0
   44.7330    1.1645   17.3791 C   0  0  0  0  0  0  0  0  0  0  0  0
   44.4811    0.4306   16.0672 C   0  0  0  0  0  0  0  0  0  0  0  0
   45.5642   -0.6492   15.9233 C   0  0  0  0  0  0  0  0  0  0  0  0
   45.4428   -1.3932   14.6606 N   0  0  0  0  0  0  0  0  0  0  0  0
  1  2  1  0  0  0  0
  2  3  1  0  0  0  0
  3  4  1  0  0  0  0
  4  5  1  0  0  0  0
  5  6  1  0  0  0  0
  6  7  1  0  0  0  0
  7  8  1  0  0  0  0
  8  9  1  0  0  0  0
  9 10  1  0  0  0  0
 10 11  1  0  0  0  0
 11 12  1  0  0  0  0
 12 13  1  0  0  0  0
 13 14  1  0  0  0  0
M  END
>  <CHROM.1>
-179.57259034,175.10446044,-155.82354052,-179.59213661,-65.05033019,-179.65397391
177.90051078,-108.18047908,-167.55178424,69.75873105,-178.04001812,45.90723255
4.60411375,18.13164838,0.32064671,-1.44830081,-0.97226751

>  <Name>
ligand

>  <RI>
0

>  <Rbt.Current_Directory>
/home/itssahil/PROJECTS/Mol_Feturizer/New_Systems/rnas/1TN1

>  <Rbt.Executable>
rbdock ($Id: //depot/dev/client3/rdock/2013.1/src/exe/rbdock.cxx#4 $)

>  <Rbt.Library>
libRbt.so (2013.1, Build901 2013/11/27)

>  <Rbt.Parameter_File>
/export/apps/rDock/src/rDock_2013.1_src/data/scripts/dock_solv.prm

>  <Rbt.Receptor>
prm/pocket_docking_3.prm

>  <SCORE>
-10.0794

>  <SCORE.INTER>
-7.04484

>  <SCORE.INTER.CONST>
1

>  <SCORE.INTER.POLAR>
0

>  <SCORE.INTER.ROT>
11

>  <SCORE.INTER.SOLV>
10.9134

>  <SCORE.INTER.VDW>
-19.2677

>  <SCORE.INTER.norm>
-0.503203

>  <SCORE.INTRA>
-3.03453

>  <SCORE.INTRA.DIHEDRAL>
-5.59207

>  <SCORE.INTRA.DIHEDRAL.0>
7.79482

>  <SCORE.INTRA.POLAR>
0

>  <SCORE.INTRA.POLAR.0>
0

>  <SCORE.INTRA.REPUL>
0

>  <SCORE.INTRA.REPUL.0>
0

>  <SCORE.INTRA.SOLV>
0.65687

>  <SCORE.INTRA.SOLV.lig_0>
-49.456

>  <SCORE.INTRA.VDW>
-0.566925

>  <SCORE.INTRA.VDW.0>
-0.478406

>  <SCORE.INTRA.norm>
-0.216752

>  <SCORE.RESTR>
0

>  <SCORE.RESTR.CAVITY>
0

>  <SCORE.RESTR.norm>
0

>  <SCORE.SYSTEM>
0

>  <SCORE.SYSTEM.CONST>
0

>  <SCORE.SYSTEM.DIHEDRAL>
0

>  <SCORE.SYSTEM.SOLV>
0

>  <SCORE.SYSTEM.norm>
0

>  <SCORE.heavy>
14

>  <SCORE.norm>
-0.719955

>  <RMSD>
2.708

$$$$
ligand
 OpenBabel11021811413D
libRbt.so/2013.1/901 2013/11/27
 14 13  0  0  0  0  0  0  0  0999 V2000
   45.8067    0.7377   16.1844 N   0  0  0  0  0  0  0  0  0  0  0  0
   45.6647    1.1630   17.5937 C   0  0  0  0  0  0  0  0  0  0  0  0
   44.1804    1.3607   17.9701 C   0  0  0  0  0  0  0  0  0  0  0  0
   43.9476    1.9193   19.3835 C   0  0  0  0  0  0  0  0  0  0  0  0
   44.5092    3.2918   19.5148 N   0  0  0  0  0  0  0  0  0  0  0  0
   44.0248    3.9271   20.7672 C   0  0  0  0  0  0  0  0  0  0  0  0
   44.9948    4.9718   21.4151 C   0  0  0  0  0  0  0  0  0  0  0  0
   45.1530    6.2849   20.5959 C   0  0  0  0  0  0  0  0  0  0  0  0
   43.9012    7.1394   20.5548 C   0  0  0  0  0  0  0  0  0  0  0  0
   44.1836    8.2929   19.7218 N   0  0  0  0  0  0  0  0  0  0  0  0
   42.9217    8.9972   19.5760 C   0  0  0  0  0  0  0  0  0  0  0  0
   43.0452   10.1683   18.6082 C   0  0  0  0  0  0  0  0  0  0  0  0
   41.6858   10.8825   18.5671 C   0  0  0  0  0  0  0  0  0  0  0  0
   41.7051   12.0637   17.6911 N   0  0  0  0  0  0  0  0  0  0  0  0
  1  2  1  0  0  0  0
  2  3  1  0  0  0  0
  3  4  1  0  0  0  0
  4  5  1  0  0  0  0
  5  6  1  0  0  0  0
  6  7  1  0  0  0  0
  7  8  1  0  0  0  0
  8  9  1  0  0  0  0
  9 10  1  0  0  0  0
 10 11  1  0  0  0  0
 11 12  1  0  0  0  0
 12 13  1  0  0  0  0
 13 14  1  0  0  0  0
M  END
>  <CHROM.1>
-175.01654427,63.96590928,167.69590112,150.41230700,69.17901545,68.01468187
-177.90435940,173.29904320,-174.60792676,-177.60133448,178.10489637,43.98023797
5.79991161,19.15347722,0.60871969,1.23935418,-2.14333454

>  <Name>
ligand

>  <RI>
0

>  <Rbt.Current_Directory>
/home/itssahil/PROJECTS/Mol_Feturizer/New_Systems/rnas/1TN1

>  <Rbt.Executable>
rbdock ($Id: //depot/dev/client3/rdock/2013.1/src/exe/rbdock.cxx#4 $)

>  <Rbt.Library>
libRbt.so (2013.1, Build901 2013/11/27)

>  <Rbt.Parameter_File>
/export/apps/rDock/src/rDock_2013.1_src/data/scripts/dock_solv.prm

>  <Rbt.Receptor>
prm/pocket_docking_5.prm

>  <SCORE>
-11.6216

>  <SCORE.INTER>
-8.26775

>  <SCORE.INTER.CONST>
1

>  <SCORE.INTER.POLAR>
0

>  <SCORE.INTER.ROT>
11

>  <SCORE.INTER.SOLV>
18.2871

>  <SCORE.INTER.VDW>
-22.5409

>  <SCORE.INTER.norm>
-0.590553

>  <SCORE.INTRA>
-3.35381

>  <SCORE.INTRA.DIHEDRAL>
-6.24438

>  <SCORE.INTRA.DIHEDRAL.0>
7.79482

>  <SCORE.INTRA.POLAR>
0

>  <SCORE.INTRA.POLAR.0>
0

>  <SCORE.INTRA.REPUL>
0

>  <SCORE.INTRA.REPUL.0>
0

>  <SCORE.INTRA.SOLV>
0.843479

>  <SCORE.INTRA.SOLV.lig_0>
-49.456

>  <SCORE.INTRA.VDW>
-0.653357

>  <SCORE.INTRA.VDW.0>
-0.478406

>  <SCORE.INTRA.norm>
-0.239558

>  <SCORE.RESTR>
0

>  <SCORE.RESTR.CAVITY>
0

>  <SCORE.RESTR.norm>
0

>  <SCORE.SYSTEM>
0

>  <SCORE.SYSTEM.CONST>
0

>  <SCORE.SYSTEM.DIHEDRAL>
0

>  <SCORE.SYSTEM.SOLV>
0

>  <SCORE.SYSTEM.norm>
0

>  <SCORE.heavy>
14

>  <SCORE.norm>
-0.830111

>  <RMSD>
2.715

$$$$
ligand
 OpenBabel11021811413D
libRbt.so/2013.1/901 2013/11/27
 14 13  0  0  0  0  0  0  0  0999 V2000
   46.8057    2.1157   14.8910 N   0  0  0  0  0  0  0  0  0  0  0  0
   47.0106    2.6590   16.2511 C   0  0  0  0  0  0  0  0  0  0  0  0
   46.0630    1.9877   17.2687 C   0  0  0  0  0  0  0  0  0  0  0  0
   46.2101    2.4965   18.7121 C   0  0  0  0  0  0  0  0  0  0  0  0
   45.8709    3.9430   18.8060 N   0  0  0  0  0  0  0  0  0  0  0  0
   46.1370    4.4447   20.1787 C   0  0  0  0  0  0  0  0  0  0  0  0
   45.7652    5.9441   20.4351 C   0  0  0  0  0  0  0  0  0  0  0  0
   44.2523    6.2621   20.2607 C   0  0  0  0  0  0  0  0  0  0  0  0
   43.9394    7.7437   20.1851 C   0  0  0  0  0  0  0  0  0  0  0  0
   44.6719    8.2905   19.0587 N   0  0  0  0  0  0  0  0  0  0  0  0
   44.1961    9.6535   18.8984 C   0  0  0  0  0  0  0  0  0  0  0  0
   45.2611   10.5458   18.2717 C   0  0  0  0  0  0  0  0  0  0  0  0
   45.5413   10.0128   16.8584 C   0  0  0  0  0  0  0  0  0  0  0  0
   46.5853   10.7864   16.1698 N   0  0  0  0  0  0  0  0  0  0  0  0
  1  2  1  0  0  0  0
  2  3  1  0  0  0  0
  3  4  1  0  0  0  0
  4  5  1  0  0  0  0
  5  6  1  0  0  0  0
  6  7  1  0  0  0  0
  7  8  1  0  0  0  0
  8  9  1  0  0  0  0
  9 10  1  0  0  0  0
 10 11  1  0  0  0  0
 11 12  1  0  0  0  0
 12 13  1  0  0  0  0
 13 14  1  0  0  0  0
M  END
>  <CHROM.1>
-179.96753816,62.60510175,-174.86574135,-177.50525541,62.10501354,-166.37186359
58.89819664,171.75055690,152.30388032,63.59866083,-178.60753057,45.59341428
6.20607090,18.30368752,-1.07955755,1.18903387,-0.33982698

>  <Name>
ligand

>  <RI>
0

>  <Rbt.Current_Directory>
/home/itssahil/PROJECTS/Mol_Feturizer/New_Systems/rnas/1TN1

>  <Rbt.Executable>
rbdock ($Id: //depot/dev/client3/rdock/2013.1/src/exe/rbdock.cxx#4 $)

>  <Rbt.Library>
libRbt.so (2013.1, Build901 2013/11/27)

>  <Rbt.Parameter_File>
/export/apps/rDock/src/rDock_2013.1_src/data/scripts/dock_solv.prm

>  <Rbt.Receptor>
prm/pocket_docking_6.prm

>  <SCORE>
-7.97375

>  <SCORE.INTER>
-5.03737

>  <SCORE.INTER.CONST>
1

>  <SCORE.INTER.POLAR>
0

>  <SCORE.INTER.ROT>
11

>  <SCORE.INTER.SOLV>
9.83601

>  <SCORE.INTER.VDW>
-17.5702

>  <SCORE.INTER.norm>
-0.359812

>  <SCORE.INTRA>
-2.93638

>  <SCORE.INTRA.DIHEDRAL>
-6.33555

>  <SCORE.INTRA.DIHEDRAL.0>
7.79482

>  <SCORE.INTRA.POLAR>
0

>  <SCORE.INTRA.POLAR.0>
0

>  <SCORE.INTRA.REPUL>
0

>  <SCORE.INTRA.REPUL.0>
0

>  <SCORE.INTRA.SOLV>
1.54092

>  <SCORE.INTRA.SOLV.lig_0>
-49.456

>  <SCORE.INTRA.VDW>
-0.53907

>  <SCORE.INTRA.VDW.0>
-0.478406

>  <SCORE.INTRA.norm>
-0.209742

>  <SCORE.RESTR>
0

>  <SCORE.RESTR.CAVITY>
0

>  <SCORE.RESTR.norm>
0

>  <SCORE.SYSTEM>
0

>  <SCORE.SYSTEM.CONST>
0

>  <SCORE.SYSTEM.DIHEDRAL>
0

>  <SCORE.SYSTEM.SOLV>
0

>  <SCORE.SYSTEM.norm>
0

>  <SCORE.heavy>
14

>  <SCORE.norm>
-0.569554

>  <RMSD>
2.718

$$$$
ligand
 OpenBabel11021811413D
libRbt.so/2013.1/901 2013/11/27
 14 13  0  0  0  0  0  0  0  0999 V2000
   45.1276   -1.5231   15.0325 N   0  0  0  0  0  0  0  0  0  0  0  0
   45.7353   -0.9331   16.2448 C   0  0  0  0  0  0  0  0  0  0  0  0
   44.9333    0.2936   16.7305 C   0  0  0  0  0  0  0  0  0  0  0  0
   45.5802    1.0606   17.8955 C   0  0  0  0  0  0  0  0  0  0  0  0
   44.6787    2.1356   18.3937 N   0  0  0  0  0  0  0  0  0  0  0  0
   45.4689    3.1948   19.0722 C   0  0  0  0  0  0  0  0  0  0  0  0
   44.6798    4.0740   20.1002 C   0  0  0  0  0  0  0  0  0  0  0  0
   45.5203    5.2204   20.7323 C   0  0  0  0  0  0  0  0  0  0  0  0
   45.9302    6.2981   19.7478 C   0  0  0  0  0  0  0  0  0  0  0  0
   46.6619    7.3111   20.4845 N   0  0  0  0  0  0  0  0  0  0  0  0
   46.0903    8.5850   20.0843 C   0  0  0  0  0  0  0  0  0  0  0  0
   46.8603    9.2012   18.9221 C   0  0  0  0  0  0  0  0  0  0  0  0
   46.1841   10.5354   18.5719 C   0  0  0  0  0  0  0  0  0  0  0  0
   46.8200   11.1955   17.4219 N   0  0  0  0  0  0  0  0  0  0  0  0
  1  2  1  0  0  0  0
  2  3  1  0  0  0  0
  3  4  1  0  0  0  0
  4  5  1  0  0  0  0
  5  6  1  0  0  0  0
  6  7  1  0  0  0  0
  7  8  1  0  0  0  0
  8  9  1  0  0  0  0
  9 10  1  0  0  0  0
 10 11  1  0  0  0  0
 11 12  1  0  0  0  0
 12 13  1  0  0  0  0
 13 14  1  0  0  0  0
M  END
>  <CHROM.1>
-173.65444732,-174.02447402,-156.22821238,-157.31824113,-176.84987452,66.76605766
178.12470195,-131.97606614,-93.17643147,179.92589139,-177.83098423,45.73358906
4.76064686,18.53130463,-2.17281521,1.35096687,0.83453138

>  <Name>
ligand

>  <RI>
0

>  <Rbt.Current_Directory>
/home/itssahil/PROJECTS/Mol_Feturizer/New_Systems/rnas/1TN1

>  <Rbt.Executable>
rbdock ($Id: //depot/dev/client3/rdock/2013.1/src/exe/rbdock.cxx#4 $)

>  <Rbt.Library>
libRbt.so (2013.1, Build901 2013/11/27)

>  <Rbt.Parameter_File>
/export/apps/rDock/src/rDock_2013.1_src/data/scripts/dock_solv.prm

>  <Rbt.Receptor>
prm/pocket_docking_4.prm

>  <SCORE>
-9.40972

>  <SCORE.INTER>
-7.00028

>  <SCORE.INTER.CONST>
1

>  <SCORE.INTER.POLAR>
0

>  <SCORE.INTER.ROT>
11

>  <SCORE.INTER.SOLV>
13.8906

>  <SCORE.INTER.VDW>
-20.2304

>  <SCORE.INTER.norm>
-0.50002

>  <SCORE.INTRA>
-2.40944

>  <SCORE.INTRA.DIHEDRAL>
-4.68266

>  <SCORE.INTRA.DIHEDRAL.0>
7.79482

>  <SCORE.INTRA.POLAR>
0

>  <SCORE.INTRA.POLAR.0>
0

>  <SCORE.INTRA.REPUL>
0

>  <SCORE.INTRA.REPUL.0>
0

>  <SCORE.INTRA.SOLV>
0.0799884

>  <SCORE.INTRA.SOLV.lig_0>
-49.456

>  <SCORE.INTRA.VDW>
-0.108109

>  <SCORE.INTRA.VDW.0>
-0.478406

>  <SCORE.INTRA.norm>
-0.172103

>  <SCORE.RESTR>
0

>  <SCORE.RESTR.CAVITY>
0

>  <SCORE.RESTR.norm>
0

>  <SCORE.SYSTEM>
0

>  <SCORE.SYSTEM.CONST>
0

>  <SCORE.SYSTEM.DIHEDRAL>
0

>  <SCORE.SYSTEM.SOLV>
0

>  <SCORE.SYSTEM.norm>
0

>  <SCORE.heavy>
14

>  <SCORE.norm>
-0.672123

>  <RMSD>
2.719

$$$$
ligand
 OpenBabel11021811413D
libRbt.so/2013.1/901 2013/11/27
 14 13  0  0  0  0  0  0  0  0999 V2000
   47.6440   12.4571   15.7750 N   0  0  0  0  0  0  0  0  0  0  0  0
   46.8849   11.4231   16.5111 C   0  0  0  0  0  0  0  0  0  0  0  0
   46.8198   11.7465   18.0194 C   0  0  0  0  0  0  0  0  0  0  0  0
   46.1028   10.6859   18.8709 C   0  0  0  0  0  0  0  0  0  0  0  0
   46.8220    9.3834   18.8190 N   0  0  0  0  0  0  0  0  0  0  0  0
   46.0825    8.3572   19.5981 C   0  0  0  0  0  0  0  0  0  0  0  0
   46.5724    6.8818   19.4100 C   0  0  0  0  0  0  0  0  0  0  0  0
   45.7248    5.8283   20.1795 C   0  0  0  0  0  0  0  0  0  0  0  0
   46.2236    4.4049   20.0244 C   0  0  0  0  0  0  0  0  0  0  0  0
   46.0326    4.0209   18.6386 N   0  0  0  0  0  0  0  0  0  0  0  0
   46.3468    2.6044   18.5712 C   0  0  0  0  0  0  0  0  0  0  0  0
   46.0389    2.0298   17.1934 C   0  0  0  0  0  0  0  0  0  0  0  0
   47.0559    2.6210   16.2054 C   0  0  0  0  0  0  0  0  0  0  0  0
   46.8056    4.0449   15.9361 N   0  0  0  0  0  0  0  0  0  0  0  0
  1  2  1  0  0  0  0
  2  3  1  0  0  0  0
  3  4  1  0  0  0  0
  4  5  1  0  0  0  0
  5  6  1  0  0  0  0
  6  7  1  0  0  0  0
  7  8  1  0  0  0  0
  8  9  1  0  0  0  0
  9 10  1  0  0  0  0
 10 11  1  0  0  0  0
 11 12  1  0  0  0  0
 12 13  1  0  0  0  0
 13 14  1  0  0  0  0
M  END
>  <CHROM.1>
-177.28464494,62.86576236,-177.51097492,168.84675885,-176.79055586,-178.48397863
-66.70141533,-172.37257942,173.70424255,69.34400613,-71.54890209,46.51105485
6.89185139,18.12549888,-1.31671082,-1.32120001,-2.93455308

>  <Name>
ligand

>  <RI>
0

>  <Rbt.Current_Directory>
/home/itssahil/PROJECTS/Mol_Feturizer/New_Systems/rnas/1TN1

>  <Rbt.Executable>
rbdock ($Id: //depot/dev/client3/rdock/2013.1/src/exe/rbdock.cxx#4 $)

>  <Rbt.Library>
libRbt.so (2013.1, Build901 2013/11/27)

>  <Rbt.Parameter_File>
/export/apps/rDock/src/rDock_2013.1_src/data/scripts/dock_solv.prm

>  <Rbt.Receptor>
prm/pocket_docking_5.prm

>  <SCORE>
-5.26173

>  <SCORE.INTER>
-3.17316

>  <SCORE.INTER.CONST>
1

>  <SCORE.INTER.POLAR>
0

>  <SCORE.INTER.ROT>
11

>  <SCORE.INTER.SOLV>
9.93817

>  <SCORE.INTER.VDW>
-16.3615

>  <SCORE.INTER.norm>
-0.226654

>  <SCORE.INTRA>
-2.08857

>  <SCORE.INTRA.DIHEDRAL>
-6.52202

>  <SCORE.INTRA.DIHEDRAL.0>
7.79482

>  <SCORE.INTRA.POLAR>
0

>  <SCORE.INTRA.POLAR.0>
0

>  <SCORE.INTRA.REPUL>
0

>  <SCORE.INTRA.REPUL.0>
0

>  <SCORE.INTRA.SOLV>
3.70513

>  <SCORE.INTRA.SOLV.lig_0>
-49.456

>  <SCORE.INTRA.VDW>
-0.680121

>  <SCORE.INTRA.VDW.0>
-0.478406

>  <SCORE.INTRA.norm>
-0.149183

>  <SCORE.RESTR>
0

>  <SCORE.RESTR.CAVITY>
0

>  <SCORE.RESTR.norm>
0

>  <SCORE.SYSTEM>
0

>  <SCORE.SYSTEM.CONST>
0

>  <SCORE.SYSTEM.DIHEDRAL>
0

>  <SCORE.SYSTEM.SOLV>
0

>  <SCORE.SYSTEM.norm>
0

>  <SCORE.heavy>
14

>  <SCORE.norm>
-0.375838

>  <RMSD>
2.731

$$$$
ligand
 OpenBabel11021811413D
libRbt.so/2013.1/901 2013/11/27
 14 13  0  0  0  0  0  0  0  0999 V2000
   45.1928   10.7833   17.7908 N   0  0  0  0  0  0  0  0  0  0  0  0
   45.8567    9.5419   18.2437 C   0  0  0  0  0  0  0  0  0  0  0  0
   45.5800    9.2747   19.7391 C   0  0  0  0  0  0  0  0  0  0  0  0
   46.2837    8.0316   20.3079 C   0  0  0  0  0  0  0  0  0  0  0  0
   45.8465    6.7983   19.5979 N   0  0  0  0  0  0  0  0  0  0  0  0
   45.6898    5.6791   20.5620 C   0  0  0  0  0  0  0  0  0  0  0  0
   46.2993    4.3084   20.1126 C   0  0  0  0  0  0  0  0  0  0  0  0
   45.6915    3.7443   18.7962 C   0  0  0  0  0  0  0  0  0  0  0  0
   46.1900    2.3594   18.4321 C   0  0  0  0  0  0  0  0  0  0  0  0
   45.5665    1.9838   17.1773 N   0  0  0  0  0  0  0  0  0  0  0  0
   44.8392    0.7556   17.4462 C   0  0  0  0  0  0  0  0  0  0  0  0
   45.3852   -0.4069   16.6254 C   0  0  0  0  0  0  0  0  0  0  0  0
   45.0682   -0.1229   15.1493 C   0  0  0  0  0  0  0  0  0  0  0  0
   45.5466   -1.1940   14.2624 N   0  0  0  0  0  0  0  0  0  0  0  0
  1  2  1  0  0  0  0
  2  3  1  0  0  0  0
  3  4  1  0  0  0  0
  4  5  1  0  0  0  0
  5  6  1  0  0  0  0
  6  7  1  0  0  0  0
  7  8  1  0  0  0  0
  8  9  1  0  0  0  0
  9 10  1  0  0  0  0
 10 11  1  0  0  0  0
 11 12  1  0  0  0  0
 12 13  1  0  0  0  0
 13 14  1  0  0  0  0
M  END
>  <CHROM.1>
-177.54337100,-60.70322968,-140.61428268,-135.00039986,-60.03608446,-174.64192384
-178.63767788,-121.59893930,-117.19577143,-67.35453316,-179.62179177,45.64545432
4.39538942,18.16058620,1.34451433,-1.39982626,0.12111721

>  <Name>
ligand

>  <RI>
0

>  <Rbt.Current_Directory>
/home/itssahil/PROJECTS/Mol_Feturizer/New_Systems/rnas/1TN1

>  <Rbt.Executable>
rbdock ($Id: //depot/dev/client3/rdock/2013.1/src/exe/rbdock.cxx#4 $)

>  <Rbt.Library>
libRbt.so (2013.1, Build901 2013/11/27)

>  <Rbt.Parameter_File>
/export/apps/rDock/src/rDock_2013.1_src/data/scripts/dock_solv.prm

>  <Rbt.Receptor>
prm/blind_docking_100.prm

>  <SCORE>
-9.64327

>  <SCORE.INTER>
-8.06894

>  <SCORE.INTER.CONST>
1

>  <SCORE.INTER.POLAR>
0

>  <SCORE.INTER.ROT>
11

>  <SCORE.INTER.SOLV>
9.49531

>  <SCORE.INTER.VDW>
-19.4777

>  <SCORE.INTER.norm>
-0.576353

>  <SCORE.INTRA>
-1.57434

>  <SCORE.INTRA.DIHEDRAL>
-3.14199

>  <SCORE.INTRA.DIHEDRAL.0>
7.79482

>  <SCORE.INTRA.POLAR>
0

>  <SCORE.INTRA.POLAR.0>
0

>  <SCORE.INTRA.REPUL>
0

>  <SCORE.INTRA.REPUL.0>
0

>  <SCORE.INTRA.SOLV>
1.01189

>  <SCORE.INTRA.SOLV.lig_0>
-49.456

>  <SCORE.INTRA.VDW>
-0.509285

>  <SCORE.INTRA.VDW.0>
-0.478406

>  <SCORE.INTRA.norm>
-0.112453

>  <SCORE.RESTR>
0

>  <SCORE.RESTR.CAVITY>
0

>  <SCORE.RESTR.norm>
0

>  <SCORE.SYSTEM>
0

>  <SCORE.SYSTEM.CONST>
0

>  <SCORE.SYSTEM.DIHEDRAL>
0

>  <SCORE.SYSTEM.SOLV>
0

>  <SCORE.SYSTEM.norm>
0

>  <SCORE.heavy>
14

>  <SCORE.norm>
-0.688805

>  <RMSD>
2.738

$$$$
ligand
 OpenBabel11021811413D
libRbt.so/2013.1/901 2013/11/27
 14 13  0  0  0  0  0  0  0  0999 V2000
   45.1487    9.7985   17.8155 N   0  0  0  0  0  0  0  0  0  0  0  0
   46.0948    9.7957   18.9522 C   0  0  0  0  0  0  0  0  0  0  0  0
   47.4320    9.1289   18.5635 C   0  0  0  0  0  0  0  0  0  0  0  0
   47.3227    7.6383   18.2026 C   0  0  0  0  0  0  0  0  0  0  0  0
   46.7914    6.8489   19.3476 N   0  0  0  0  0  0  0  0  0  0  0  0
   46.1872    5.5819   18.8612 C   0  0  0  0  0  0  0  0  0  0  0  0
   46.0330    4.4506   19.9329 C   0  0  0  0  0  0  0  0  0  0  0  0
   45.4801    3.1110   19.3672 C   0  0  0  0  0  0  0  0  0  0  0  0
   46.3908    2.4492   18.3515 C   0  0  0  0  0  0  0  0  0  0  0  0
   46.1228    1.0239   18.3841 N   0  0  0  0  0  0  0  0  0  0  0  0
   45.1735    0.7728   17.3139 C   0  0  0  0  0  0  0  0  0  0  0  0
   45.8603    0.7487   15.9534 C   0  0  0  0  0  0  0  0  0  0  0  0
   44.9917   -0.0962   15.0091 C   0  0  0  0  0  0  0  0  0  0  0  0
   44.9750   -1.5162   15.3913 N   0  0  0  0  0  0  0  0  0  0  0  0
  1  2  1  0  0  0  0
  2  3  1  0  0  0  0
  3  4  1  0  0  0  0
  4  5  1  0  0  0  0
  5  6  1  0  0  0  0
  6  7  1  0  0  0  0
  7  8  1  0  0  0  0
  8  9  1  0  0  0  0
  9 10  1  0  0  0  0
 10 11  1  0  0  0  0
 11 12  1  0  0  0  0
 12 13  1  0  0  0  0
 13 14  1  0  0  0  0
M  END
>  <CHROM.1>
-63.78718902,-60.10258951,157.39343139,160.00500184,-176.36276237,63.82793656
153.66483521,95.85307907,77.87400943,155.44724741,-67.61522629,46.00039272
4.26696272,17.96051546,1.02603471,-1.34110588,-0.27516224

>  <Name>
ligand

>  <RI>
0

>  <Rbt.Current_Directory>
/home/itssahil/PROJECTS/Mol_Feturizer/New_Systems/rnas/1TN1

>  <Rbt.Executable>
rbdock ($Id: //depot/dev/client3/rdock/2013.1/src/exe/rbdock.cxx#4 $)

>  <Rbt.Library>
libRbt.so (2013.1, Build901 2013/11/27)

>  <Rbt.Parameter_File>
/export/apps/rDock/src/rDock_2013.1_src/data/scripts/dock_solv.prm

>  <Rbt.Receptor>
prm/pocket_docking_2.prm

>  <SCORE>
-0.767892

>  <SCORE.INTER>
-2.68083

>  <SCORE.INTER.CONST>
1

>  <SCORE.INTER.POLAR>
0

>  <SCORE.INTER.ROT>
11

>  <SCORE.INTER.SOLV>
16.5046

>  <SCORE.INTER.VDW>
-18.2221

>  <SCORE.INTER.norm>
-0.191488

>  <SCORE.INTRA>
1.8575

>  <SCORE.INTRA.DIHEDRAL>
-1.49747

>  <SCORE.INTRA.DIHEDRAL.0>
7.79482

>  <SCORE.INTRA.POLAR>
0

>  <SCORE.INTRA.POLAR.0>
0

>  <SCORE.INTRA.REPUL>
0

>  <SCORE.INTRA.REPUL.0>
0

>  <SCORE.INTRA.SOLV>
3.01586

>  <SCORE.INTRA.SOLV.lig_0>
-49.456

>  <SCORE.INTRA.VDW>
1.09831

>  <SCORE.INTRA.VDW.0>
-0.478406

>  <SCORE.INTRA.norm>
0.132679

>  <SCORE.RESTR>
0.0554328

>  <SCORE.RESTR.CAVITY>
0.0554328

>  <SCORE.RESTR.norm>
0.00395948

>  <SCORE.SYSTEM>
0

>  <SCORE.SYSTEM.CONST>
0

>  <SCORE.SYSTEM.DIHEDRAL>
0

>  <SCORE.SYSTEM.SOLV>
0

>  <SCORE.SYSTEM.norm>
0

>  <SCORE.heavy>
14

>  <SCORE.norm>
-0.0548494

>  <RMSD>
2.741

$$$$
ligand
 OpenBabel11021811413D
libRbt.so/2013.1/901 2013/11/27
 14 13  0  0  0  0  0  0  0  0999 V2000
   46.9317    4.0375   15.8529 N   0  0  0  0  0  0  0  0  0  0  0  0
   47.0657    2.5726   16.0055 C   0  0  0  0  0  0  0  0  0  0  0  0
   46.0598    2.0252   17.0412 C   0  0  0  0  0  0  0  0  0  0  0  0
   46.3253    2.4710   18.4885 C   0  0  0  0  0  0  0  0  0  0  0  0
   46.0917    3.9326   18.6488 N   0  0  0  0  0  0  0  0  0  0  0  0
   46.3108    4.3356   20.0617 C   0  0  0  0  0  0  0  0  0  0  0  0
   45.6175    5.6695   20.5003 C   0  0  0  0  0  0  0  0  0  0  0  0
   46.1118    6.9260   19.7276 C   0  0  0  0  0  0  0  0  0  0  0  0
   45.3264    8.1860   20.0349 C   0  0  0  0  0  0  0  0  0  0  0  0
   43.9493    7.9517   19.6439 N   0  0  0  0  0  0  0  0  0  0  0  0
   43.3412    9.2652   19.5218 C   0  0  0  0  0  0  0  0  0  0  0  0
   41.8628    9.1643   19.1652 C   0  0  0  0  0  0  0  0  0  0  0  0
   41.3194   10.5945   19.0271 C   0  0  0  0  0  0  0  0  0  0  0  0
   42.0023   11.3481   17.9648 N   0  0  0  0  0  0  0  0  0  0  0  0
  1  2  1  0  0  0  0
  2  3  1  0  0  0  0
  3  4  1  0  0  0  0
  4  5  1  0  0  0  0
  5  6  1  0  0  0  0
  6  7  1  0  0  0  0
  7  8  1  0  0  0  0
  8  9  1  0  0  0  0
  9 10  1  0  0  0  0
 10 11  1  0  0  0  0
 11 12  1  0  0  0  0
 12 13  1  0  0  0  0
 13 14  1  0  0  0  0
M  END
>  <CHROM.1>
-67.46856550,67.62849114,178.18883183,-158.34270628,-62.28635897,173.10441706
-61.07845937,-161.32015098,-177.75410498,-178.72205364,60.87048836,44.87973549
6.31979485,18.69199800,0.54051350,0.94814125,-1.98579940

>  <Name>
ligand

>  <RI>
0

>  <Rbt.Current_Directory>
/home/itssahil/PROJECTS/Mol_Feturizer/New_Systems/rnas/1TN1

>  <Rbt.Executable>
rbdock ($Id: //depot/dev/client3/rdock/2013.1/src/exe/rbdock.cxx#4 $)

>  <Rbt.Library>
libRbt.so (2013.1, Build901 2013/11/27)

>  <Rbt.Parameter_File>
/export/apps/rDock/src/rDock_2013.1_src/data/scripts/dock_solv.prm

>  <Rbt.Receptor>
prm/blind_docking_80.prm

>  <SCORE>
-11.6137

>  <SCORE.INTER>
-9.9416

>  <SCORE.INTER.CONST>
1

>  <SCORE.INTER.POLAR>
0

>  <SCORE.INTER.ROT>
11

>  <SCORE.INTER.SOLV>
16.8238

>  <SCORE.INTER.VDW>
-23.169

>  <SCORE.INTER.norm>
-0.710114

>  <SCORE.INTRA>
-1.67207

>  <SCORE.INTRA.DIHEDRAL>
-6.52089

>  <SCORE.INTRA.DIHEDRAL.0>
7.79482

>  <SCORE.INTRA.POLAR>
0

>  <SCORE.INTRA.POLAR.0>
0

>  <SCORE.INTRA.REPUL>
0

>  <SCORE.INTRA.REPUL.0>
0

>  <SCORE.INTRA.SOLV>
4.38781

>  <SCORE.INTRA.SOLV.lig_0>
-49.456

>  <SCORE.INTRA.VDW>
-0.605533

>  <SCORE.INTRA.VDW.0>
-0.478406

>  <SCORE.INTRA.norm>
-0.119434

>  <SCORE.RESTR>
0

>  <SCORE.RESTR.CAVITY>
0

>  <SCORE.RESTR.norm>
0

>  <SCORE.SYSTEM>
0

>  <SCORE.SYSTEM.CONST>
0

>  <SCORE.SYSTEM.DIHEDRAL>
0

>  <SCORE.SYSTEM.SOLV>
0

>  <SCORE.SYSTEM.norm>
0

>  <SCORE.heavy>
14

>  <SCORE.norm>
-0.829548

>  <RMSD>
2.753

$$$$
ligand
 OpenBabel11021811413D
libRbt.so/2013.1/901 2013/11/27
 14 13  0  0  0  0  0  0  0  0999 V2000
   45.4712   -1.9623   14.6048 N   0  0  0  0  0  0  0  0  0  0  0  0
   45.6867   -1.4932   15.9907 C   0  0  0  0  0  0  0  0  0  0  0  0
   45.5132    0.0374   16.0951 C   0  0  0  0  0  0  0  0  0  0  0  0
   45.7250    0.6106   17.5060 C   0  0  0  0  0  0  0  0  0  0  0  0
   45.5953    2.0937   17.5052 N   0  0  0  0  0  0  0  0  0  0  0  0
   46.0113    2.6461   18.8200 C   0  0  0  0  0  0  0  0  0  0  0  0
   45.6913    4.1618   19.0491 C   0  0  0  0  0  0  0  0  0  0  0  0
   46.0252    4.6721   20.4803 C   0  0  0  0  0  0  0  0  0  0  0  0
   45.6157    6.1101   20.7322 C   0  0  0  0  0  0  0  0  0  0  0  0
   46.3541    6.9461   19.8046 N   0  0  0  0  0  0  0  0  0  0  0  0
   46.2782    8.2951   20.3376 C   0  0  0  0  0  0  0  0  0  0  0  0
   46.6742    9.3310   19.2920 C   0  0  0  0  0  0  0  0  0  0  0  0
   45.5637    9.3686   18.2312 C   0  0  0  0  0  0  0  0  0  0  0  0
   45.8432   10.3462   17.1687 N   0  0  0  0  0  0  0  0  0  0  0  0
  1  2  1  0  0  0  0
  2  3  1  0  0  0  0
  3  4  1  0  0  0  0
  4  5  1  0  0  0  0
  5  6  1  0  0  0  0
  6  7  1  0  0  0  0
  7  8  1  0  0  0  0
  8  9  1  0  0  0  0
  9 10  1  0  0  0  0
 10 11  1  0  0  0  0
 11 12  1  0  0  0  0
 12 13  1  0  0  0  0
 13 14  1  0  0  0  0
M  END
>  <CHROM.1>
-179.81762074,177.63154118,-171.09834326,-169.70379033,174.82102249,-175.52353569
-61.69753111,-162.24830683,-164.45135272,69.98468614,179.77620868,45.86062224
4.36881376,18.25878693,2.21572042,1.49028019,2.80961230

>  <Name>
ligand

>  <RI>
0

>  <Rbt.Current_Directory>
/home/itssahil/PROJECTS/Mol_Feturizer/New_Systems/rnas/1TN1

>  <Rbt.Executable>
rbdock ($Id: //depot/dev/client3/rdock/2013.1/src/exe/rbdock.cxx#4 $)

>  <Rbt.Library>
libRbt.so (2013.1, Build901 2013/11/27)

>  <Rbt.Parameter_File>
/export/apps/rDock/src/rDock_2013.1_src/data/scripts/dock_solv.prm

>  <Rbt.Receptor>
prm/pocket_docking_5.prm

>  <SCORE>
-11.7562

>  <SCORE.INTER>
-8.18609

>  <SCORE.INTER.CONST>
1

>  <SCORE.INTER.POLAR>
0

>  <SCORE.INTER.ROT>
11

>  <SCORE.INTER.SOLV>
12.1933

>  <SCORE.INTER.VDW>
-20.4552

>  <SCORE.INTER.norm>
-0.584721

>  <SCORE.INTRA>
-3.57015

>  <SCORE.INTRA.DIHEDRAL>
-6.63098

>  <SCORE.INTRA.DIHEDRAL.0>
7.79482

>  <SCORE.INTRA.POLAR>
0

>  <SCORE.INTRA.POLAR.0>
0

>  <SCORE.INTRA.REPUL>
0

>  <SCORE.INTRA.REPUL.0>
0

>  <SCORE.INTRA.SOLV>
0.704857

>  <SCORE.INTRA.SOLV.lig_0>
-49.456

>  <SCORE.INTRA.VDW>
-0.607093

>  <SCORE.INTRA.VDW.0>
-0.478406

>  <SCORE.INTRA.norm>
-0.255011

>  <SCORE.RESTR>
0

>  <SCORE.RESTR.CAVITY>
0

>  <SCORE.RESTR.norm>
0

>  <SCORE.SYSTEM>
0

>  <SCORE.SYSTEM.CONST>
0

>  <SCORE.SYSTEM.DIHEDRAL>
0

>  <SCORE.SYSTEM.SOLV>
0

>  <SCORE.SYSTEM.norm>
0

>  <SCORE.heavy>
14

>  <SCORE.norm>
-0.839732

>  <RMSD>
2.757

$$$$
ligand
 OpenBabel11021811413D
libRbt.so/2013.1/901 2013/11/27
 14 13  0  0  0  0  0  0  0  0999 V2000
   45.2777   -1.8292   15.3356 N   0  0  0  0  0  0  0  0  0  0  0  0
   45.6555   -1.0194   16.5139 C   0  0  0  0  0  0  0  0  0  0  0  0
   45.3880    0.4814   16.2686 C   0  0  0  0  0  0  0  0  0  0  0  0
   45.7975    1.4024   17.4296 C   0  0  0  0  0  0  0  0  0  0  0  0
   45.5242    2.8288   17.1021 N   0  0  0  0  0  0  0  0  0  0  0  0
   46.0476    3.7115   18.1761 C   0  0  0  0  0  0  0  0  0  0  0  0
   45.2132    3.7329   19.5011 C   0  0  0  0  0  0  0  0  0  0  0  0
   45.7570    4.7149   20.5783 C   0  0  0  0  0  0  0  0  0  0  0  0
   45.3674    6.1615   20.3454 C   0  0  0  0  0  0  0  0  0  0  0  0
   46.0733    6.6220   19.1647 N   0  0  0  0  0  0  0  0  0  0  0  0
   46.8723    7.7559   19.5957 C   0  0  0  0  0  0  0  0  0  0  0  0
   47.4872    8.4882   18.4087 C   0  0  0  0  0  0  0  0  0  0  0  0
   46.3519    9.2151   17.6722 C   0  0  0  0  0  0  0  0  0  0  0  0
   45.7836   10.3111   18.4713 N   0  0  0  0  0  0  0  0  0  0  0  0
  1  2  1  0  0  0  0
  2  3  1  0  0  0  0
  3  4  1  0  0  0  0
  4  5  1  0  0  0  0
  5  6  1  0  0  0  0
  6  7  1  0  0  0  0
  7  8  1  0  0  0  0
  8  9  1  0  0  0  0
  9 10  1  0  0  0  0
 10 11  1  0  0  0  0
 11 12  1  0  0  0  0
 12 13  1  0  0  0  0
 13 14  1  0  0  0  0
M  END
>  <CHROM.1>
-178.06039195,179.16550364,-174.43958030,-74.61296705,-177.46519780,79.93845980
-68.72525542,-121.20684806,-170.35494932,70.91394755,67.66977601,45.89983706
4.46978742,18.18337024,-2.09844005,1.38060437,0.79579185

>  <Name>
ligand

>  <RI>
0

>  <Rbt.Current_Directory>
/home/itssahil/PROJECTS/Mol_Feturizer/New_Systems/rnas/1TN1

>  <Rbt.Executable>
rbdock ($Id: //depot/dev/client3/rdock/2013.1/src/exe/rbdock.cxx#4 $)

>  <Rbt.Library>
libRbt.so (2013.1, Build901 2013/11/27)

>  <Rbt.Parameter_File>
/export/apps/rDock/src/rDock_2013.1_src/data/scripts/dock_solv.prm

>  <Rbt.Receptor>
prm/pocket_docking_3.prm

>  <SCORE>
-6.43271

>  <SCORE.INTER>
-5.62417

>  <SCORE.INTER.CONST>
1

>  <SCORE.INTER.POLAR>
0

>  <SCORE.INTER.ROT>
11

>  <SCORE.INTER.SOLV>
13.3753

>  <SCORE.INTER.VDW>
-19.1412

>  <SCORE.INTER.norm>
-0.401726

>  <SCORE.INTRA>
-0.808537

>  <SCORE.INTRA.DIHEDRAL>
-3.82489

>  <SCORE.INTRA.DIHEDRAL.0>
7.79482

>  <SCORE.INTRA.POLAR>
0

>  <SCORE.INTRA.POLAR.0>
0

>  <SCORE.INTRA.REPUL>
0

>  <SCORE.INTRA.REPUL.0>
0

>  <SCORE.INTRA.SOLV>
2.51562

>  <SCORE.INTRA.SOLV.lig_0>
-49.456

>  <SCORE.INTRA.VDW>
-0.153901

>  <SCORE.INTRA.VDW.0>
-0.478406

>  <SCORE.INTRA.norm>
-0.0577527

>  <SCORE.RESTR>
0

>  <SCORE.RESTR.CAVITY>
0

>  <SCORE.RESTR.norm>
0

>  <SCORE.SYSTEM>
0

>  <SCORE.SYSTEM.CONST>
0

>  <SCORE.SYSTEM.DIHEDRAL>
0

>  <SCORE.SYSTEM.SOLV>
0

>  <SCORE.SYSTEM.norm>
0

>  <SCORE.heavy>
14

>  <SCORE.norm>
-0.459479

>  <RMSD>
2.771

$$$$
ligand
 OpenBabel11021811413D
libRbt.so/2013.1/901 2013/11/27
 14 13  0  0  0  0  0  0  0  0999 V2000
   47.3959   11.4976   15.7922 N   0  0  0  0  0  0  0  0  0  0  0  0
   47.7553   10.2625   16.5218 C   0  0  0  0  0  0  0  0  0  0  0  0
   46.6424    9.8552   17.5115 C   0  0  0  0  0  0  0  0  0  0  0  0
   46.9616    8.6111   18.3567 C   0  0  0  0  0  0  0  0  0  0  0  0
   45.8532    8.3098   19.3039 N   0  0  0  0  0  0  0  0  0  0  0  0
   46.3574    7.5015   20.4437 C   0  0  0  0  0  0  0  0  0  0  0  0
   46.1124    5.9583   20.3397 C   0  0  0  0  0  0  0  0  0  0  0  0
   44.6161    5.5446   20.4413 C   0  0  0  0  0  0  0  0  0  0  0  0
   44.3913    4.0451   20.4494 C   0  0  0  0  0  0  0  0  0  0  0  0
   44.8224    3.5293   19.1640 N   0  0  0  0  0  0  0  0  0  0  0  0
   44.5427    2.1043   19.1929 C   0  0  0  0  0  0  0  0  0  0  0  0
   44.4083    1.5336   17.7859 C   0  0  0  0  0  0  0  0  0  0  0  0
   45.7824    1.6414   17.1075 C   0  0  0  0  0  0  0  0  0  0  0  0
   45.7555    1.1593   15.7184 N   0  0  0  0  0  0  0  0  0  0  0  0
  1  2  1  0  0  0  0
  2  3  1  0  0  0  0
  3  4  1  0  0  0  0
  4  5  1  0  0  0  0
  5  6  1  0  0  0  0
  6  7  1  0  0  0  0
  7  8  1  0  0  0  0
  8  9  1  0  0  0  0
  9 10  1  0  0  0  0
 10 11  1  0  0  0  0
 11 12  1  0  0  0  0
 12 13  1  0  0  0  0
 13 14  1  0  0  0  0
M  END
>  <CHROM.1>
-177.53154850,178.60966207,-157.38207728,-98.44954631,-68.02897810,-175.46513341
-64.70772876,-177.81951469,157.12269372,66.01737780,-177.97401217,45.81400280
5.82512835,18.43816242,-0.77036492,-1.20528069,-2.46705009

>  <Name>
ligand

>  <RI>
0

>  <Rbt.Current_Directory>
/home/itssahil/PROJECTS/Mol_Feturizer/New_Systems/rnas/1TN1

>  <Rbt.Executable>
rbdock ($Id: //depot/dev/client3/rdock/2013.1/src/exe/rbdock.cxx#4 $)

>  <Rbt.Library>
libRbt.so (2013.1, Build901 2013/11/27)

>  <Rbt.Parameter_File>
/export/apps/rDock/src/rDock_2013.1_src/data/scripts/dock_solv.prm

>  <Rbt.Receptor>
prm/pocket_docking_4.prm

>  <SCORE>
-6.2716

>  <SCORE.INTER>
-3.40146

>  <SCORE.INTER.CONST>
1

>  <SCORE.INTER.POLAR>
0

>  <SCORE.INTER.ROT>
11

>  <SCORE.INTER.SOLV>
9.31546

>  <SCORE.INTER.VDW>
-16.3061

>  <SCORE.INTER.norm>
-0.242962

>  <SCORE.INTRA>
-2.87014

>  <SCORE.INTRA.DIHEDRAL>
-5.58752

>  <SCORE.INTRA.DIHEDRAL.0>
7.79482

>  <SCORE.INTRA.POLAR>
0

>  <SCORE.INTRA.POLAR.0>
0

>  <SCORE.INTRA.REPUL>
0

>  <SCORE.INTRA.REPUL.0>
0

>  <SCORE.INTRA.SOLV>
1.04159

>  <SCORE.INTRA.SOLV.lig_0>
-49.456

>  <SCORE.INTRA.VDW>
-0.597174

>  <SCORE.INTRA.VDW.0>
-0.478406

>  <SCORE.INTRA.norm>
-0.20501

>  <SCORE.RESTR>
0

>  <SCORE.RESTR.CAVITY>
0

>  <SCORE.RESTR.norm>
0

>  <SCORE.SYSTEM>
0

>  <SCORE.SYSTEM.CONST>
0

>  <SCORE.SYSTEM.DIHEDRAL>
0

>  <SCORE.SYSTEM.SOLV>
0

>  <SCORE.SYSTEM.norm>
0

>  <SCORE.heavy>
14

>  <SCORE.norm>
-0.447972

>  <RMSD>
2.775

$$$$
ligand
 OpenBabel11021811413D
libRbt.so/2013.1/901 2013/11/27
 14 13  0  0  0  0  0  0  0  0999 V2000
   45.7834   10.6568   17.4396 N   0  0  0  0  0  0  0  0  0  0  0  0
   45.3133    9.3804   18.0201 C   0  0  0  0  0  0  0  0  0  0  0  0
   45.5215    9.3528   19.5498 C   0  0  0  0  0  0  0  0  0  0  0  0
   45.0606    8.0559   20.2351 C   0  0  0  0  0  0  0  0  0  0  0  0
   45.8515    6.8887   19.7570 N   0  0  0  0  0  0  0  0  0  0  0  0
   45.6696    5.7348   20.6748 C   0  0  0  0  0  0  0  0  0  0  0  0
   46.2926    4.3816   20.1922 C   0  0  0  0  0  0  0  0  0  0  0  0
   45.6258    3.7955   18.9145 C   0  0  0  0  0  0  0  0  0  0  0  0
   46.1494    2.4286   18.5189 C   0  0  0  0  0  0  0  0  0  0  0  0
   45.4494    2.0215   17.3153 N   0  0  0  0  0  0  0  0  0  0  0  0
   45.6541    0.5881   17.2014 C   0  0  0  0  0  0  0  0  0  0  0  0
   45.4397    0.1060   15.7714 C   0  0  0  0  0  0  0  0  0  0  0  0
   45.7454   -1.3992   15.7377 C   0  0  0  0  0  0  0  0  0  0  0  0
   45.6059   -1.9642   14.3871 N   0  0  0  0  0  0  0  0  0  0  0  0
  1  2  1  0  0  0  0
  2  3  1  0  0  0  0
  3  4  1  0  0  0  0
  4  5  1  0  0  0  0
  5  6  1  0  0  0  0
  6  7  1  0  0  0  0
  7  8  1  0  0  0  0
  8  9  1  0  0  0  0
  9 10  1  0  0  0  0
 10 11  1  0  0  0  0
 11 12  1  0  0  0  0
 12 13  1  0  0  0  0
 13 14  1  0  0  0  0
M  END
>  <CHROM.1>
-179.88816008,63.26113954,164.30231133,172.22104380,-65.70958279,-174.98907525
-179.49161499,-162.85180510,-158.85742900,177.21972591,-178.38011110,45.65442761
4.28763051,18.12286272,1.69237290,-1.48760377,0.45091173

>  <Name>
ligand

>  <RI>
0

>  <Rbt.Current_Directory>
/home/itssahil/PROJECTS/Mol_Feturizer/New_Systems/rnas/1TN1

>  <Rbt.Executable>
rbdock ($Id: //depot/dev/client3/rdock/2013.1/src/exe/rbdock.cxx#4 $)

>  <Rbt.Library>
libRbt.so (2013.1, Build901 2013/11/27)

>  <Rbt.Parameter_File>
/export/apps/rDock/src/rDock_2013.1_src/data/scripts/dock_solv.prm

>  <Rbt.Receptor>
prm/blind_docking_80.prm

>  <SCORE>
-11.1094

>  <SCORE.INTER>
-7.1846

>  <SCORE.INTER.CONST>
1

>  <SCORE.INTER.POLAR>
0

>  <SCORE.INTER.ROT>
11

>  <SCORE.INTER.SOLV>
10.4022

>  <SCORE.INTER.VDW>
-19.1905

>  <SCORE.INTER.norm>
-0.513185

>  <SCORE.INTRA>
-3.92478

>  <SCORE.INTRA.DIHEDRAL>
-6.68916

>  <SCORE.INTRA.DIHEDRAL.0>
7.79482

>  <SCORE.INTRA.POLAR>
0

>  <SCORE.INTRA.POLAR.0>
0

>  <SCORE.INTRA.REPUL>
0

>  <SCORE.INTRA.REPUL.0>
0

>  <SCORE.INTRA.SOLV>
0.562103

>  <SCORE.INTRA.SOLV.lig_0>
-49.456

>  <SCORE.INTRA.VDW>
-0.86125

>  <SCORE.INTRA.VDW.0>
-0.478406

>  <SCORE.INTRA.norm>
-0.280341

>  <SCORE.RESTR>
0

>  <SCORE.RESTR.CAVITY>
0

>  <SCORE.RESTR.norm>
0

>  <SCORE.SYSTEM>
0

>  <SCORE.SYSTEM.CONST>
0

>  <SCORE.SYSTEM.DIHEDRAL>
0

>  <SCORE.SYSTEM.SOLV>
0

>  <SCORE.SYSTEM.norm>
0

>  <SCORE.heavy>
14

>  <SCORE.norm>
-0.793527

>  <RMSD>
2.777

$$$$
ligand
 OpenBabel11021811413D
libRbt.so/2013.1/901 2013/11/27
 14 13  0  0  0  0  0  0  0  0999 V2000
   46.9532    2.4783   14.5874 N   0  0  0  0  0  0  0  0  0  0  0  0
   47.2207    2.8636   15.9899 C   0  0  0  0  0  0  0  0  0  0  0  0
   46.2536    2.1495   16.9589 C   0  0  0  0  0  0  0  0  0  0  0  0
   46.4254    2.5383   18.4365 C   0  0  0  0  0  0  0  0  0  0  0  0
   46.1047    3.9762   18.6515 N   0  0  0  0  0  0  0  0  0  0  0  0
   46.3127    4.3411   20.0764 C   0  0  0  0  0  0  0  0  0  0  0  0
   45.4252    5.5153   20.6107 C   0  0  0  0  0  0  0  0  0  0  0  0
   45.7179    6.8885   19.9405 C   0  0  0  0  0  0  0  0  0  0  0  0
   44.6801    7.9528   20.2390 C   0  0  0  0  0  0  0  0  0  0  0  0
   43.4222    7.5128   19.6659 N   0  0  0  0  0  0  0  0  0  0  0  0
   42.4964    8.6181   19.8419 C   0  0  0  0  0  0  0  0  0  0  0  0
   42.6752    9.6735   18.7568 C   0  0  0  0  0  0  0  0  0  0  0  0
   41.5609   10.7160   18.9344 C   0  0  0  0  0  0  0  0  0  0  0  0
   41.7272   11.8659   18.0329 N   0  0  0  0  0  0  0  0  0  0  0  0
  1  2  1  0  0  0  0
  2  3  1  0  0  0  0
  3  4  1  0  0  0  0
  4  5  1  0  0  0  0
  5  6  1  0  0  0  0
  6  7  1  0  0  0  0
  7  8  1  0  0  0  0
  8  9  1  0  0  0  0
  9 10  1  0  0  0  0
 10 11  1  0  0  0  0
 11 12  1  0  0  0  0
 12 13  1  0  0  0  0
 13 14  1  0  0  0  0
M  END
>  <CHROM.1>
-177.61799823,64.11600147,-178.43657371,-151.86426563,-65.11095136,167.91304225
-63.86650588,-173.85912504,81.60184200,173.90316440,173.48062386,44.78405097
6.22062054,18.62342340,0.38652202,1.00730190,-1.74745777

>  <Name>
ligand

>  <RI>
0

>  <Rbt.Current_Directory>
/home/itssahil/PROJECTS/Mol_Feturizer/New_Systems/rnas/1TN1

>  <Rbt.Executable>
rbdock ($Id: //depot/dev/client3/rdock/2013.1/src/exe/rbdock.cxx#4 $)

>  <Rbt.Library>
libRbt.so (2013.1, Build901 2013/11/27)

>  <Rbt.Parameter_File>
/export/apps/rDock/src/rDock_2013.1_src/data/scripts/dock_solv.prm

>  <Rbt.Receptor>
prm/pocket_docking_4.prm

>  <SCORE>
-11.2202

>  <SCORE.INTER>
-8.92467

>  <SCORE.INTER.CONST>
1

>  <SCORE.INTER.POLAR>
0

>  <SCORE.INTER.ROT>
11

>  <SCORE.INTER.SOLV>
15.7828

>  <SCORE.INTER.VDW>
-22.1441

>  <SCORE.INTER.norm>
-0.637476

>  <SCORE.INTRA>
-2.29549

>  <SCORE.INTRA.DIHEDRAL>
-5.74475

>  <SCORE.INTRA.DIHEDRAL.0>
7.79482

>  <SCORE.INTRA.POLAR>
0

>  <SCORE.INTRA.POLAR.0>
0

>  <SCORE.INTRA.REPUL>
0

>  <SCORE.INTRA.REPUL.0>
0

>  <SCORE.INTRA.SOLV>
1.04619

>  <SCORE.INTRA.SOLV.lig_0>
-49.456

>  <SCORE.INTRA.VDW>
0.0537859

>  <SCORE.INTRA.VDW.0>
-0.478406

>  <SCORE.INTRA.norm>
-0.163964

>  <SCORE.RESTR>
0

>  <SCORE.RESTR.CAVITY>
0

>  <SCORE.RESTR.norm>
0

>  <SCORE.SYSTEM>
0

>  <SCORE.SYSTEM.CONST>
0

>  <SCORE.SYSTEM.DIHEDRAL>
0

>  <SCORE.SYSTEM.SOLV>
0

>  <SCORE.SYSTEM.norm>
0

>  <SCORE.heavy>
14

>  <SCORE.norm>
-0.80144

>  <RMSD>
2.777

$$$$
ligand
 OpenBabel11021811413D
libRbt.so/2013.1/901 2013/11/27
 14 13  0  0  0  0  0  0  0  0999 V2000
   45.0844   10.7496   17.8401 N   0  0  0  0  0  0  0  0  0  0  0  0
   45.4327    9.7107   18.8333 C   0  0  0  0  0  0  0  0  0  0  0  0
   44.1939    8.8772   19.2267 C   0  0  0  0  0  0  0  0  0  0  0  0
   44.4585    7.8020   20.2935 C   0  0  0  0  0  0  0  0  0  0  0  0
   45.4816    6.8265   19.8266 N   0  0  0  0  0  0  0  0  0  0  0  0
   45.6305    5.7267   20.8140 C   0  0  0  0  0  0  0  0  0  0  0  0
   46.3182    4.4255   20.2790 C   0  0  0  0  0  0  0  0  0  0  0  0
   45.5732    3.7572   19.0879 C   0  0  0  0  0  0  0  0  0  0  0  0
   46.1582    2.4234   18.6664 C   0  0  0  0  0  0  0  0  0  0  0  0
   45.4041    1.9559   17.5187 N   0  0  0  0  0  0  0  0  0  0  0  0
   45.6838    0.5347   17.4108 C   0  0  0  0  0  0  0  0  0  0  0  0
   45.2394   -0.0204   16.0626 C   0  0  0  0  0  0  0  0  0  0  0  0
   45.6809   -1.4903   15.9968 C   0  0  0  0  0  0  0  0  0  0  0  0
   45.2974   -2.1294   14.7291 N   0  0  0  0  0  0  0  0  0  0  0  0
  1  2  1  0  0  0  0
  2  3  1  0  0  0  0
  3  4  1  0  0  0  0
  4  5  1  0  0  0  0
  5  6  1  0  0  0  0
  6  7  1  0  0  0  0
  7  8  1  0  0  0  0
  8  9  1  0  0  0  0
  9 10  1  0  0  0  0
 10 11  1  0  0  0  0
 11 12  1  0  0  0  0
 12 13  1  0  0  0  0
 13 14  1  0  0  0  0
M  END
>  <CHROM.1>
-178.04867234,-59.79567011,-174.69708650,161.83127117,-59.70732037,-173.96106499
-177.48337641,-162.20317655,-165.99695529,175.31143505,179.87979417,45.40266668
4.22489523,18.32788481,1.79375471,-1.34587201,0.53500757

>  <Name>
ligand

>  <RI>
0

>  <Rbt.Current_Directory>
/home/itssahil/PROJECTS/Mol_Feturizer/New_Systems/rnas/1TN1

>  <Rbt.Executable>
rbdock ($Id: //depot/dev/client3/rdock/2013.1/src/exe/rbdock.cxx#4 $)

>  <Rbt.Library>
libRbt.so (2013.1, Build901 2013/11/27)

>  <Rbt.Parameter_File>
/export/apps/rDock/src/rDock_2013.1_src/data/scripts/dock_solv.prm

>  <Rbt.Receptor>
prm/pocket_docking_7.prm

>  <SCORE>
-11.5431

>  <SCORE.INTER>
-7.60398

>  <SCORE.INTER.CONST>
1

>  <SCORE.INTER.POLAR>
0

>  <SCORE.INTER.ROT>
11

>  <SCORE.INTER.SOLV>
12.9208

>  <SCORE.INTER.VDW>
-20.3096

>  <SCORE.INTER.norm>
-0.543141

>  <SCORE.INTRA>
-3.93913

>  <SCORE.INTRA.DIHEDRAL>
-6.85054

>  <SCORE.INTRA.DIHEDRAL.0>
7.79482

>  <SCORE.INTRA.POLAR>
0

>  <SCORE.INTRA.POLAR.0>
0

>  <SCORE.INTRA.REPUL>
0

>  <SCORE.INTRA.REPUL.0>
0

>  <SCORE.INTRA.SOLV>
0.609647

>  <SCORE.INTRA.SOLV.lig_0>
-49.456

>  <SCORE.INTRA.VDW>
-0.818683

>  <SCORE.INTRA.VDW.0>
-0.478406

>  <SCORE.INTRA.norm>
-0.281366

>  <SCORE.RESTR>
0

>  <SCORE.RESTR.CAVITY>
0

>  <SCORE.RESTR.norm>
0

>  <SCORE.SYSTEM>
0

>  <SCORE.SYSTEM.CONST>
0

>  <SCORE.SYSTEM.DIHEDRAL>
0

>  <SCORE.SYSTEM.SOLV>
0

>  <SCORE.SYSTEM.norm>
0

>  <SCORE.heavy>
14

>  <SCORE.norm>
-0.824507

>  <RMSD>
2.777

$$$$
ligand
 OpenBabel11021811413D
libRbt.so/2013.1/901 2013/11/27
 14 13  0  0  0  0  0  0  0  0999 V2000
   45.4034    1.0264   15.9978 N   0  0  0  0  0  0  0  0  0  0  0  0
   44.9527    0.8074   17.3892 C   0  0  0  0  0  0  0  0  0  0  0  0
   46.0782    1.1260   18.3970 C   0  0  0  0  0  0  0  0  0  0  0  0
   46.4744    2.6101   18.4657 C   0  0  0  0  0  0  0  0  0  0  0  0
   45.3684    3.4330   19.0276 N   0  0  0  0  0  0  0  0  0  0  0  0
   45.9175    4.6273   19.7196 C   0  0  0  0  0  0  0  0  0  0  0  0
   44.8858    5.7638   20.0297 C   0  0  0  0  0  0  0  0  0  0  0  0
   45.4908    6.9822   20.7846 C   0  0  0  0  0  0  0  0  0  0  0  0
   46.5516    7.7281   19.9990 C   0  0  0  0  0  0  0  0  0  0  0  0
   45.8960    8.3705   18.8756 N   0  0  0  0  0  0  0  0  0  0  0  0
   46.9510    8.6950   17.9315 C   0  0  0  0  0  0  0  0  0  0  0  0
   46.4064    9.4496   16.7243 C   0  0  0  0  0  0  0  0  0  0  0  0
   47.5686    9.6533   15.7406 C   0  0  0  0  0  0  0  0  0  0  0  0
   48.5703   10.6005   16.2527 N   0  0  0  0  0  0  0  0  0  0  0  0
  1  2  1  0  0  0  0
  2  3  1  0  0  0  0
  3  4  1  0  0  0  0
  4  5  1  0  0  0  0
  5  6  1  0  0  0  0
  6  7  1  0  0  0  0
  7  8  1  0  0  0  0
  8  9  1  0  0  0  0
  9 10  1  0  0  0  0
 10 11  1  0  0  0  0
 11 12  1  0  0  0  0
 12 13  1  0  0  0  0
 13 14  1  0  0  0  0
M  END
>  <CHROM.1>
67.10503035,67.08002526,151.26502987,164.65472325,178.61090079,63.49899788
67.90232546,-162.04077165,-176.91709484,-175.81650859,-69.11747421,46.17960136
5.77661991,18.23849285,-2.21553285,1.22602923,0.53990676

>  <Name>
ligand

>  <RI>
0

>  <Rbt.Current_Directory>
/home/itssahil/PROJECTS/Mol_Feturizer/New_Systems/rnas/1TN1

>  <Rbt.Executable>
rbdock ($Id: //depot/dev/client3/rdock/2013.1/src/exe/rbdock.cxx#4 $)

>  <Rbt.Library>
libRbt.so (2013.1, Build901 2013/11/27)

>  <Rbt.Parameter_File>
/export/apps/rDock/src/rDock_2013.1_src/data/scripts/dock_solv.prm

>  <Rbt.Receptor>
prm/pocket_docking_5.prm

>  <SCORE>
-7.3293

>  <SCORE.INTER>
-5.44464

>  <SCORE.INTER.CONST>
1

>  <SCORE.INTER.POLAR>
0

>  <SCORE.INTER.ROT>
11

>  <SCORE.INTER.SOLV>
9.12251

>  <SCORE.INTER.VDW>
-17.6039

>  <SCORE.INTER.norm>
-0.388903

>  <SCORE.INTRA>
-1.88466

>  <SCORE.INTRA.DIHEDRAL>
-5.75474

>  <SCORE.INTRA.DIHEDRAL.0>
7.79482

>  <SCORE.INTRA.POLAR>
0

>  <SCORE.INTRA.POLAR.0>
0

>  <SCORE.INTRA.REPUL>
0

>  <SCORE.INTRA.REPUL.0>
0

>  <SCORE.INTRA.SOLV>
2.82118

>  <SCORE.INTRA.SOLV.lig_0>
-49.456

>  <SCORE.INTRA.VDW>
-0.417874

>  <SCORE.INTRA.VDW.0>
-0.478406

>  <SCORE.INTRA.norm>
-0.134618

>  <SCORE.RESTR>
0

>  <SCORE.RESTR.CAVITY>
0

>  <SCORE.RESTR.norm>
0

>  <SCORE.SYSTEM>
0

>  <SCORE.SYSTEM.CONST>
0

>  <SCORE.SYSTEM.DIHEDRAL>
0

>  <SCORE.SYSTEM.SOLV>
0

>  <SCORE.SYSTEM.norm>
0

>  <SCORE.heavy>
14

>  <SCORE.norm>
-0.523521

>  <RMSD>
2.785

$$$$
ligand
 OpenBabel11021811413D
libRbt.so/2013.1/901 2013/11/27
 14 13  0  0  0  0  0  0  0  0999 V2000
   46.7310   -0.9893   14.7793 N   0  0  0  0  0  0  0  0  0  0  0  0
   45.7112   -1.4052   15.7663 C   0  0  0  0  0  0  0  0  0  0  0  0
   44.9892   -0.1820   16.3718 C   0  0  0  0  0  0  0  0  0  0  0  0
   45.8217    0.6123   17.3916 C   0  0  0  0  0  0  0  0  0  0  0  0
   45.0257    1.7235   17.9816 N   0  0  0  0  0  0  0  0  0  0  0  0
   45.9074    2.6274   18.7641 C   0  0  0  0  0  0  0  0  0  0  0  0
   45.1917    3.8311   19.4648 C   0  0  0  0  0  0  0  0  0  0  0  0
   46.1529    4.7785   20.2387 C   0  0  0  0  0  0  0  0  0  0  0  0
   45.4673    5.9832   20.8529 C   0  0  0  0  0  0  0  0  0  0  0  0
   44.9582    6.7999   19.7675 N   0  0  0  0  0  0  0  0  0  0  0  0
   45.5870    8.1004   19.9192 C   0  0  0  0  0  0  0  0  0  0  0  0
   45.4526    8.9361   18.6516 C   0  0  0  0  0  0  0  0  0  0  0  0
   46.1929   10.2613   18.8879 C   0  0  0  0  0  0  0  0  0  0  0  0
   46.1759   11.1268   17.6990 N   0  0  0  0  0  0  0  0  0  0  0  0
  1  2  1  0  0  0  0
  2  3  1  0  0  0  0
  3  4  1  0  0  0  0
  4  5  1  0  0  0  0
  5  6  1  0  0  0  0
  6  7  1  0  0  0  0
  7  8  1  0  0  0  0
  8  9  1  0  0  0  0
  9 10  1  0  0  0  0
 10 11  1  0  0  0  0
 11 12  1  0  0  0  0
 12 13  1  0  0  0  0
 13 14  1  0  0  0  0
M  END
>  <CHROM.1>
-74.51165966,-176.73628544,-169.45627670,-178.91884758,-178.26050073,176.87830501
-64.91955743,-121.21471585,164.29972573,-177.72880767,177.53293898,45.66888762
4.44306013,18.32434208,-1.57906123,1.37638417,0.29191696

>  <Name>
ligand

>  <RI>
0

>  <Rbt.Current_Directory>
/home/itssahil/PROJECTS/Mol_Feturizer/New_Systems/rnas/1TN1

>  <Rbt.Executable>
rbdock ($Id: //depot/dev/client3/rdock/2013.1/src/exe/rbdock.cxx#4 $)

>  <Rbt.Library>
libRbt.so (2013.1, Build901 2013/11/27)

>  <Rbt.Parameter_File>
/export/apps/rDock/src/rDock_2013.1_src/data/scripts/dock_solv.prm

>  <Rbt.Receptor>
prm/pocket_docking_3.prm

>  <SCORE>
-9.01727

>  <SCORE.INTER>
-6.14896

>  <SCORE.INTER.CONST>
1

>  <SCORE.INTER.POLAR>
0

>  <SCORE.INTER.ROT>
11

>  <SCORE.INTER.SOLV>
12.3829

>  <SCORE.INTER.VDW>
-19.1603

>  <SCORE.INTER.norm>
-0.439211

>  <SCORE.INTRA>
-2.86831

>  <SCORE.INTRA.DIHEDRAL>
-5.32926

>  <SCORE.INTRA.DIHEDRAL.0>
7.79482

>  <SCORE.INTRA.POLAR>
0

>  <SCORE.INTRA.POLAR.0>
0

>  <SCORE.INTRA.REPUL>
0

>  <SCORE.INTRA.REPUL.0>
0

>  <SCORE.INTRA.SOLV>
0.933213

>  <SCORE.INTRA.SOLV.lig_0>
-49.456

>  <SCORE.INTRA.VDW>
-0.670289

>  <SCORE.INTRA.VDW.0>
-0.478406

>  <SCORE.INTRA.norm>
-0.204879

>  <SCORE.RESTR>
0

>  <SCORE.RESTR.CAVITY>
0

>  <SCORE.RESTR.norm>
0

>  <SCORE.SYSTEM>
0

>  <SCORE.SYSTEM.CONST>
0

>  <SCORE.SYSTEM.DIHEDRAL>
0

>  <SCORE.SYSTEM.SOLV>
0

>  <SCORE.SYSTEM.norm>
0

>  <SCORE.heavy>
14

>  <SCORE.norm>
-0.644091

>  <RMSD>
2.787

$$$$
ligand
 OpenBabel11021811413D
libRbt.so/2013.1/901 2013/11/27
 14 13  0  0  0  0  0  0  0  0999 V2000
   45.9214    0.9561   16.3564 N   0  0  0  0  0  0  0  0  0  0  0  0
   45.1771    1.6760   17.4123 C   0  0  0  0  0  0  0  0  0  0  0  0
   46.1152    2.5858   18.2348 C   0  0  0  0  0  0  0  0  0  0  0  0
   45.3987    3.4981   19.2439 C   0  0  0  0  0  0  0  0  0  0  0  0
   46.3755    4.3279   20.0014 N   0  0  0  0  0  0  0  0  0  0  0  0
   45.6716    5.1452   21.0228 C   0  0  0  0  0  0  0  0  0  0  0  0
   45.3058    6.6042   20.5873 C   0  0  0  0  0  0  0  0  0  0  0  0
   46.5380    7.5234   20.3479 C   0  0  0  0  0  0  0  0  0  0  0  0
   46.1799    8.9592   20.0174 C   0  0  0  0  0  0  0  0  0  0  0  0
   45.4947    8.9579   18.7388 N   0  0  0  0  0  0  0  0  0  0  0  0
   46.3983    9.6032   17.8024 C   0  0  0  0  0  0  0  0  0  0  0  0
   45.7422    9.8018   16.4410 C   0  0  0  0  0  0  0  0  0  0  0  0
   46.7642   10.4982   15.5297 C   0  0  0  0  0  0  0  0  0  0  0  0
   47.9355    9.6510   15.2595 N   0  0  0  0  0  0  0  0  0  0  0  0
  1  2  1  0  0  0  0
  2  3  1  0  0  0  0
  3  4  1  0  0  0  0
  4  5  1  0  0  0  0
  5  6  1  0  0  0  0
  6  7  1  0  0  0  0
  7  8  1  0  0  0  0
  8  9  1  0  0  0  0
  9 10  1  0  0  0  0
 10 11  1  0  0  0  0
 11 12  1  0  0  0  0
 12 13  1  0  0  0  0
 13 14  1  0  0  0  0
M  END
>  <CHROM.1>
173.02568042,179.39868513,-176.81907937,-95.09342725,-66.18588658,-176.10879714
-65.44412434,-111.19138757,-174.03711833,179.48108468,65.34651890,46.07258747
6.41360902,18.35714273,-2.26897345,1.39737859,0.52708084

>  <Name>
ligand

>  <RI>
0

>  <Rbt.Current_Directory>
/home/itssahil/PROJECTS/Mol_Feturizer/New_Systems/rnas/1TN1

>  <Rbt.Executable>
rbdock ($Id: //depot/dev/client3/rdock/2013.1/src/exe/rbdock.cxx#4 $)

>  <Rbt.Library>
libRbt.so (2013.1, Build901 2013/11/27)

>  <Rbt.Parameter_File>
/export/apps/rDock/src/rDock_2013.1_src/data/scripts/dock_solv.prm

>  <Rbt.Receptor>
prm/pocket_docking_4.prm

>  <SCORE>
-7.67677

>  <SCORE.INTER>
-5.33699

>  <SCORE.INTER.CONST>
1

>  <SCORE.INTER.POLAR>
0

>  <SCORE.INTER.ROT>
11

>  <SCORE.INTER.SOLV>
11.2518

>  <SCORE.INTER.VDW>
-18.2419

>  <SCORE.INTER.norm>
-0.381213

>  <SCORE.INTRA>
-2.33978

>  <SCORE.INTRA.DIHEDRAL>
-5.25208

>  <SCORE.INTRA.DIHEDRAL.0>
7.79482

>  <SCORE.INTRA.POLAR>
0

>  <SCORE.INTRA.POLAR.0>
0

>  <SCORE.INTRA.REPUL>
0

>  <SCORE.INTRA.REPUL.0>
0

>  <SCORE.INTRA.SOLV>
1.44058

>  <SCORE.INTRA.SOLV.lig_0>
-49.456

>  <SCORE.INTRA.VDW>
-0.434029

>  <SCORE.INTRA.VDW.0>
-0.478406

>  <SCORE.INTRA.norm>
-0.167127

>  <SCORE.RESTR>
0

>  <SCORE.RESTR.CAVITY>
0

>  <SCORE.RESTR.norm>
0

>  <SCORE.SYSTEM>
0

>  <SCORE.SYSTEM.CONST>
0

>  <SCORE.SYSTEM.DIHEDRAL>
0

>  <SCORE.SYSTEM.SOLV>
0

>  <SCORE.SYSTEM.norm>
0

>  <SCORE.heavy>
14

>  <SCORE.norm>
-0.54834

>  <RMSD>
2.791

$$$$
ligand
 OpenBabel11021811413D
libRbt.so/2013.1/901 2013/11/27
 14 13  0  0  0  0  0  0  0  0999 V2000
   45.6340    2.4797   15.7990 N   0  0  0  0  0  0  0  0  0  0  0  0
   46.7919    2.3452   16.7092 C   0  0  0  0  0  0  0  0  0  0  0  0
   46.3960    1.6168   18.0118 C   0  0  0  0  0  0  0  0  0  0  0  0
   45.4223    2.3966   18.9105 C   0  0  0  0  0  0  0  0  0  0  0  0
   46.0712    3.6131   19.4722 N   0  0  0  0  0  0  0  0  0  0  0  0
   45.0409    4.5672   19.9568 C   0  0  0  0  0  0  0  0  0  0  0  0
   45.5806    5.7866   20.7777 C   0  0  0  0  0  0  0  0  0  0  0  0
   44.5289    6.9085   21.0142 C   0  0  0  0  0  0  0  0  0  0  0  0
   44.1325    7.6557   19.7559 C   0  0  0  0  0  0  0  0  0  0  0  0
   43.0392    8.5452   20.0991 N   0  0  0  0  0  0  0  0  0  0  0  0
   42.9669    9.5200   19.0248 C   0  0  0  0  0  0  0  0  0  0  0  0
   41.6661   10.3127   19.0775 C   0  0  0  0  0  0  0  0  0  0  0  0
   41.6869   11.3177   17.9158 C   0  0  0  0  0  0  0  0  0  0  0  0
   42.7668   12.3062   18.0556 N   0  0  0  0  0  0  0  0  0  0  0  0
  1  2  1  0  0  0  0
  2  3  1  0  0  0  0
  3  4  1  0  0  0  0
  4  5  1  0  0  0  0
  5  6  1  0  0  0  0
  6  7  1  0  0  0  0
  7  8  1  0  0  0  0
  8  9  1  0  0  0  0
  9 10  1  0  0  0  0
 10 11  1  0  0  0  0
 11 12  1  0  0  0  0
 12 13  1  0  0  0  0
 13 14  1  0  0  0  0
M  END
>  <CHROM.1>
-66.90186587,-67.24014087,161.72502324,170.63563815,167.96374589,-68.40077544
173.08288687,162.60313551,166.42473502,179.61096579,-63.90963524,44.40887607
6.38351724,18.89880103,0.28696616,1.13096410,-1.78172587

>  <Name>
ligand

>  <RI>
0

>  <Rbt.Current_Directory>
/home/itssahil/PROJECTS/Mol_Feturizer/New_Systems/rnas/1TN1

>  <Rbt.Executable>
rbdock ($Id: //depot/dev/client3/rdock/2013.1/src/exe/rbdock.cxx#4 $)

>  <Rbt.Library>
libRbt.so (2013.1, Build901 2013/11/27)

>  <Rbt.Parameter_File>
/export/apps/rDock/src/rDock_2013.1_src/data/scripts/dock_solv.prm

>  <Rbt.Receptor>
prm/pocket_docking_4.prm

>  <SCORE>
-11.3415

>  <SCORE.INTER>
-9.30558

>  <SCORE.INTER.CONST>
1

>  <SCORE.INTER.POLAR>
0

>  <SCORE.INTER.ROT>
11

>  <SCORE.INTER.SOLV>
15.7053

>  <SCORE.INTER.VDW>
-22.3722

>  <SCORE.INTER.norm>
-0.664684

>  <SCORE.INTRA>
-2.03591

>  <SCORE.INTRA.DIHEDRAL>
-5.65934

>  <SCORE.INTRA.DIHEDRAL.0>
7.79482

>  <SCORE.INTRA.POLAR>
0

>  <SCORE.INTRA.POLAR.0>
0

>  <SCORE.INTRA.REPUL>
0

>  <SCORE.INTRA.REPUL.0>
0

>  <SCORE.INTRA.SOLV>
2.48221

>  <SCORE.INTRA.SOLV.lig_0>
-49.456

>  <SCORE.INTRA.VDW>
-0.447348

>  <SCORE.INTRA.VDW.0>
-0.478406

>  <SCORE.INTRA.norm>
-0.145422

>  <SCORE.RESTR>
0

>  <SCORE.RESTR.CAVITY>
0

>  <SCORE.RESTR.norm>
0

>  <SCORE.SYSTEM>
0

>  <SCORE.SYSTEM.CONST>
0

>  <SCORE.SYSTEM.DIHEDRAL>
0

>  <SCORE.SYSTEM.SOLV>
0

>  <SCORE.SYSTEM.norm>
0

>  <SCORE.heavy>
14

>  <SCORE.norm>
-0.810107

>  <RMSD>
2.795

$$$$
ligand
 OpenBabel11021811413D
libRbt.so/2013.1/901 2013/11/27
 14 13  0  0  0  0  0  0  0  0999 V2000
   45.3096   -1.4109   14.4502 N   0  0  0  0  0  0  0  0  0  0  0  0
   45.5337   -0.7434   15.7508 C   0  0  0  0  0  0  0  0  0  0  0  0
   44.5232    0.4030   15.9710 C   0  0  0  0  0  0  0  0  0  0  0  0
   44.7103    1.1770   17.2863 C   0  0  0  0  0  0  0  0  0  0  0  0
   46.0178    1.8886   17.3063 N   0  0  0  0  0  0  0  0  0  0  0  0
   46.2807    2.4415   18.6598 C   0  0  0  0  0  0  0  0  0  0  0  0
   45.7904    3.9095   18.8981 C   0  0  0  0  0  0  0  0  0  0  0  0
   46.1272    4.4703   20.3096 C   0  0  0  0  0  0  0  0  0  0  0  0
   45.5550    5.8487   20.5769 C   0  0  0  0  0  0  0  0  0  0  0  0
   46.1956    6.7752   19.6628 N   0  0  0  0  0  0  0  0  0  0  0  0
   46.1793    8.0662   20.3282 C   0  0  0  0  0  0  0  0  0  0  0  0
   46.6384    9.1805   19.3950 C   0  0  0  0  0  0  0  0  0  0  0  0
   45.5866    9.3190   18.2839 C   0  0  0  0  0  0  0  0  0  0  0  0
   45.9502   10.3498   17.3001 N   0  0  0  0  0  0  0  0  0  0  0  0
  1  2  1  0  0  0  0
  2  3  1  0  0  0  0
  3  4  1  0  0  0  0
  4  5  1  0  0  0  0
  5  6  1  0  0  0  0
  6  7  1  0  0  0  0
  7  8  1  0  0  0  0
  8  9  1  0  0  0  0
  9 10  1  0  0  0  0
 10 11  1  0  0  0  0
 11 12  1  0  0  0  0
 12 13  1  0  0  0  0
 13 14  1  0  0  0  0
M  END
>  <CHROM.1>
-178.42763667,64.35252019,-170.67163339,-91.74863341,-177.98638874,-175.33991419
-64.94553000,-152.10459569,-171.60973153,66.46637023,-178.47072434,45.74266771
4.40534188,18.15605760,2.23494636,1.42989816,2.82533747

>  <Name>
ligand

>  <RI>
0

>  <Rbt.Current_Directory>
/home/itssahil/PROJECTS/Mol_Feturizer/New_Systems/rnas/1TN1

>  <Rbt.Executable>
rbdock ($Id: //depot/dev/client3/rdock/2013.1/src/exe/rbdock.cxx#4 $)

>  <Rbt.Library>
libRbt.so (2013.1, Build901 2013/11/27)

>  <Rbt.Parameter_File>
/export/apps/rDock/src/rDock_2013.1_src/data/scripts/dock_solv.prm

>  <Rbt.Receptor>
prm/blind_docking_60.prm

>  <SCORE>
-11.2297

>  <SCORE.INTER>
-8.24939

>  <SCORE.INTER.CONST>
1

>  <SCORE.INTER.POLAR>
0

>  <SCORE.INTER.ROT>
11

>  <SCORE.INTER.SOLV>
10.2452

>  <SCORE.INTER.VDW>
-19.848

>  <SCORE.INTER.norm>
-0.589242

>  <SCORE.INTRA>
-2.98031

>  <SCORE.INTRA.DIHEDRAL>
-6.03458

>  <SCORE.INTRA.DIHEDRAL.0>
7.79482

>  <SCORE.INTRA.POLAR>
0

>  <SCORE.INTRA.POLAR.0>
0

>  <SCORE.INTRA.REPUL>
0

>  <SCORE.INTRA.REPUL.0>
0

>  <SCORE.INTRA.SOLV>
1.06591

>  <SCORE.INTRA.SOLV.lig_0>
-49.456

>  <SCORE.INTRA.VDW>
-0.495972

>  <SCORE.INTRA.VDW.0>
-0.478406

>  <SCORE.INTRA.norm>
-0.212879

>  <SCORE.RESTR>
0

>  <SCORE.RESTR.CAVITY>
0

>  <SCORE.RESTR.norm>
0

>  <SCORE.SYSTEM>
0

>  <SCORE.SYSTEM.CONST>
0

>  <SCORE.SYSTEM.DIHEDRAL>
0

>  <SCORE.SYSTEM.SOLV>
0

>  <SCORE.SYSTEM.norm>
0

>  <SCORE.heavy>
14

>  <SCORE.norm>
-0.802121

>  <RMSD>
2.806

$$$$
ligand
 OpenBabel11021811413D
libRbt.so/2013.1/901 2013/11/27
 14 13  0  0  0  0  0  0  0  0999 V2000
   47.0527    3.3982   14.3251 N   0  0  0  0  0  0  0  0  0  0  0  0
   47.0230    2.7203   15.6392 C   0  0  0  0  0  0  0  0  0  0  0  0
   46.1818    3.5174   16.6594 C   0  0  0  0  0  0  0  0  0  0  0  0
   46.0812    2.8702   18.0505 C   0  0  0  0  0  0  0  0  0  0  0  0
   45.3322    3.7450   18.9940 N   0  0  0  0  0  0  0  0  0  0  0  0
   46.2650    4.3650   19.9698 C   0  0  0  0  0  0  0  0  0  0  0  0
   45.5912    5.0960   21.1796 C   0  0  0  0  0  0  0  0  0  0  0  0
   44.7878    6.3686   20.7852 C   0  0  0  0  0  0  0  0  0  0  0  0
   45.6440    7.4887   20.2273 C   0  0  0  0  0  0  0  0  0  0  0  0
   44.7585    8.5777   19.8606 N   0  0  0  0  0  0  0  0  0  0  0  0
   45.5100    9.4073   18.9351 C   0  0  0  0  0  0  0  0  0  0  0  0
   44.5846   10.2162   18.0336 C   0  0  0  0  0  0  0  0  0  0  0  0
   45.4613   10.9557   17.0116 C   0  0  0  0  0  0  0  0  0  0  0  0
   46.3048   11.9819   17.6426 N   0  0  0  0  0  0  0  0  0  0  0  0
  1  2  1  0  0  0  0
  2  3  1  0  0  0  0
  3  4  1  0  0  0  0
  4  5  1  0  0  0  0
  5  6  1  0  0  0  0
  6  7  1  0  0  0  0
  7  8  1  0  0  0  0
  8  9  1  0  0  0  0
  9 10  1  0  0  0  0
 10 11  1  0  0  0  0
 11 12  1  0  0  0  0
 12 13  1  0  0  0  0
 13 14  1  0  0  0  0
M  END
>  <CHROM.1>
179.14117210,176.21384816,-106.82141544,-169.13690978,-66.68721015,-65.34121580
177.85950369,-160.80600728,156.08568916,-174.84755946,-66.91979320,45.75552465
6.47898349,18.37982059,-0.99718664,1.31727045,-0.37497836

>  <Name>
ligand

>  <RI>
0

>  <Rbt.Current_Directory>
/home/itssahil/PROJECTS/Mol_Feturizer/New_Systems/rnas/1TN1

>  <Rbt.Executable>
rbdock ($Id: //depot/dev/client3/rdock/2013.1/src/exe/rbdock.cxx#4 $)

>  <Rbt.Library>
libRbt.so (2013.1, Build901 2013/11/27)

>  <Rbt.Parameter_File>
/export/apps/rDock/src/rDock_2013.1_src/data/scripts/dock_solv.prm

>  <Rbt.Receptor>
prm/pocket_docking_7.prm

>  <SCORE>
-7.0261

>  <SCORE.INTER>
-4.60113

>  <SCORE.INTER.CONST>
1

>  <SCORE.INTER.POLAR>
0

>  <SCORE.INTER.ROT>
11

>  <SCORE.INTER.SOLV>
9.42306

>  <SCORE.INTER.VDW>
-17.1418

>  <SCORE.INTER.norm>
-0.328652

>  <SCORE.INTRA>
-2.42497

>  <SCORE.INTRA.DIHEDRAL>
-5.3077

>  <SCORE.INTRA.DIHEDRAL.0>
7.79482

>  <SCORE.INTRA.POLAR>
0

>  <SCORE.INTRA.POLAR.0>
0

>  <SCORE.INTRA.REPUL>
0

>  <SCORE.INTRA.REPUL.0>
0

>  <SCORE.INTRA.SOLV>
1.33365

>  <SCORE.INTRA.SOLV.lig_0>
-49.456

>  <SCORE.INTRA.VDW>
-0.437945

>  <SCORE.INTRA.VDW.0>
-0.478406

>  <SCORE.INTRA.norm>
-0.173212

>  <SCORE.RESTR>
0

>  <SCORE.RESTR.CAVITY>
0

>  <SCORE.RESTR.norm>
0

>  <SCORE.SYSTEM>
0

>  <SCORE.SYSTEM.CONST>
0

>  <SCORE.SYSTEM.DIHEDRAL>
0

>  <SCORE.SYSTEM.SOLV>
0

>  <SCORE.SYSTEM.norm>
0

>  <SCORE.heavy>
14

>  <SCORE.norm>
-0.501864

>  <RMSD>
2.807

$$$$
ligand
 OpenBabel11021811413D
libRbt.so/2013.1/901 2013/11/27
 14 13  0  0  0  0  0  0  0  0999 V2000
   45.9362   10.2430   18.5661 N   0  0  0  0  0  0  0  0  0  0  0  0
   44.8956    9.3741   17.9750 C   0  0  0  0  0  0  0  0  0  0  0  0
   43.9243    8.8522   19.0558 C   0  0  0  0  0  0  0  0  0  0  0  0
   44.5688    7.9300   20.1038 C   0  0  0  0  0  0  0  0  0  0  0  0
   45.0942    6.6885   19.4722 N   0  0  0  0  0  0  0  0  0  0  0  0
   45.5217    5.7224   20.5167 C   0  0  0  0  0  0  0  0  0  0  0  0
   46.3027    4.4678   19.9990 C   0  0  0  0  0  0  0  0  0  0  0  0
   45.4631    3.5295   19.0852 C   0  0  0  0  0  0  0  0  0  0  0  0
   46.2213    2.3139   18.5888 C   0  0  0  0  0  0  0  0  0  0  0  0
   45.2977    1.5056   17.8154 N   0  0  0  0  0  0  0  0  0  0  0  0
   45.6842    1.6790   16.4261 C   0  0  0  0  0  0  0  0  0  0  0  0
   44.9878    0.6677   15.5231 C   0  0  0  0  0  0  0  0  0  0  0  0
   45.5113   -0.7273   15.8973 C   0  0  0  0  0  0  0  0  0  0  0  0
   44.9474   -1.7807   15.0398 N   0  0  0  0  0  0  0  0  0  0  0  0
  1  2  1  0  0  0  0
  2  3  1  0  0  0  0
  3  4  1  0  0  0  0
  4  5  1  0  0  0  0
  5  6  1  0  0  0  0
  6  7  1  0  0  0  0
  7  8  1  0  0  0  0
  8  9  1  0  0  0  0
  9 10  1  0  0  0  0
 10 11  1  0  0  0  0
 11 12  1  0  0  0  0
 12 13  1  0  0  0  0
 13 14  1  0  0  0  0
M  END
>  <CHROM.1>
-64.47120218,-62.91062594,-171.31565036,-170.69133370,-64.64660611,-179.84667030
177.05143764,106.96827449,168.21653961,-65.95916656,-177.36172395,45.31115465
4.31903429,18.14762473,1.70661000,-1.32318524,0.47196311

>  <Name>
ligand

>  <RI>
0

>  <Rbt.Current_Directory>
/home/itssahil/PROJECTS/Mol_Feturizer/New_Systems/rnas/1TN1

>  <Rbt.Executable>
rbdock ($Id: //depot/dev/client3/rdock/2013.1/src/exe/rbdock.cxx#4 $)

>  <Rbt.Library>
libRbt.so (2013.1, Build901 2013/11/27)

>  <Rbt.Parameter_File>
/export/apps/rDock/src/rDock_2013.1_src/data/scripts/dock_solv.prm

>  <Rbt.Receptor>
prm/pocket_docking_3.prm

>  <SCORE>
-8.21761

>  <SCORE.INTER>
-5.85123

>  <SCORE.INTER.CONST>
1

>  <SCORE.INTER.POLAR>
0

>  <SCORE.INTER.ROT>
11

>  <SCORE.INTER.SOLV>
12.7239

>  <SCORE.INTER.VDW>
-19.0755

>  <SCORE.INTER.norm>
-0.417945

>  <SCORE.INTRA>
-2.37016

>  <SCORE.INTRA.DIHEDRAL>
-6.10665

>  <SCORE.INTRA.DIHEDRAL.0>
7.79482

>  <SCORE.INTRA.POLAR>
0

>  <SCORE.INTRA.POLAR.0>
0

>  <SCORE.INTRA.REPUL>
0

>  <SCORE.INTRA.REPUL.0>
0

>  <SCORE.INTRA.SOLV>
2.31638

>  <SCORE.INTRA.SOLV.lig_0>
-49.456

>  <SCORE.INTRA.VDW>
-0.47502

>  <SCORE.INTRA.VDW.0>
-0.478406

>  <SCORE.INTRA.norm>
-0.169297

>  <SCORE.RESTR>
0.00378214

>  <SCORE.RESTR.CAVITY>
0.00378214

>  <SCORE.RESTR.norm>
0.000270153

>  <SCORE.SYSTEM>
0

>  <SCORE.SYSTEM.CONST>
0

>  <SCORE.SYSTEM.DIHEDRAL>
0

>  <SCORE.SYSTEM.SOLV>
0

>  <SCORE.SYSTEM.norm>
0

>  <SCORE.heavy>
14

>  <SCORE.norm>
-0.586972

>  <RMSD>
2.811

$$$$
ligand
 OpenBabel11021811413D
libRbt.so/2013.1/901 2013/11/27
 14 13  0  0  0  0  0  0  0  0999 V2000
   45.4397   -1.5907   14.9229 N   0  0  0  0  0  0  0  0  0  0  0  0
   45.6406   -1.0458   16.2830 C   0  0  0  0  0  0  0  0  0  0  0  0
   45.1388    0.4112   16.3802 C   0  0  0  0  0  0  0  0  0  0  0  0
   45.3850    1.0833   17.7409 C   0  0  0  0  0  0  0  0  0  0  0  0
   44.8010    2.4524   17.7741 N   0  0  0  0  0  0  0  0  0  0  0  0
   44.9176    3.0272   19.1389 C   0  0  0  0  0  0  0  0  0  0  0  0
   46.1381    3.9808   19.3696 C   0  0  0  0  0  0  0  0  0  0  0  0
   46.1410    4.6844   20.7572 C   0  0  0  0  0  0  0  0  0  0  0  0
   45.0611    5.7368   20.9160 C   0  0  0  0  0  0  0  0  0  0  0  0
   45.2773    6.7456   19.8962 N   0  0  0  0  0  0  0  0  0  0  0  0
   46.1118    7.7621   20.5126 C   0  0  0  0  0  0  0  0  0  0  0  0
   46.4787    8.8595   19.5204 C   0  0  0  0  0  0  0  0  0  0  0  0
   45.1840    9.5936   19.1397 C   0  0  0  0  0  0  0  0  0  0  0  0
   45.4222   10.6729   18.1696 N   0  0  0  0  0  0  0  0  0  0  0  0
  1  2  1  0  0  0  0
  2  3  1  0  0  0  0
  3  4  1  0  0  0  0
  4  5  1  0  0  0  0
  5  6  1  0  0  0  0
  6  7  1  0  0  0  0
  7  8  1  0  0  0  0
  8  9  1  0  0  0  0
  9 10  1  0  0  0  0
 10 11  1  0  0  0  0
 11 12  1  0  0  0  0
 12 13  1  0  0  0  0
 13 14  1  0  0  0  0
M  END
>  <CHROM.1>
-176.60662200,-176.65376388,173.83817950,97.34519122,173.63514400,-70.18874970
-60.02432080,-92.37900332,177.09432954,65.66429685,-179.47063886,45.50987569
4.45518610,18.60904270,2.03438143,1.49562426,3.01723141

>  <Name>
ligand

>  <RI>
0

>  <Rbt.Current_Directory>
/home/itssahil/PROJECTS/Mol_Feturizer/New_Systems/rnas/1TN1

>  <Rbt.Executable>
rbdock ($Id: //depot/dev/client3/rdock/2013.1/src/exe/rbdock.cxx#4 $)

>  <Rbt.Library>
libRbt.so (2013.1, Build901 2013/11/27)

>  <Rbt.Parameter_File>
/export/apps/rDock/src/rDock_2013.1_src/data/scripts/dock_solv.prm

>  <Rbt.Receptor>
prm/blind_docking_100.prm

>  <SCORE>
-10.0225

>  <SCORE.INTER>
-8.0938

>  <SCORE.INTER.CONST>
1

>  <SCORE.INTER.POLAR>
0

>  <SCORE.INTER.ROT>
11

>  <SCORE.INTER.SOLV>
12.7964

>  <SCORE.INTER.VDW>
-20.5947

>  <SCORE.INTER.norm>
-0.578129

>  <SCORE.INTRA>
-1.92871

>  <SCORE.INTRA.DIHEDRAL>
-5.47294

>  <SCORE.INTRA.DIHEDRAL.0>
7.79482

>  <SCORE.INTRA.POLAR>
0

>  <SCORE.INTRA.POLAR.0>
0

>  <SCORE.INTRA.REPUL>
0

>  <SCORE.INTRA.REPUL.0>
0

>  <SCORE.INTRA.SOLV>
1.02618

>  <SCORE.INTRA.SOLV.lig_0>
-49.456

>  <SCORE.INTRA.VDW>
0.294672

>  <SCORE.INTRA.VDW.0>
-0.478406

>  <SCORE.INTRA.norm>
-0.137765

>  <SCORE.RESTR>
0

>  <SCORE.RESTR.CAVITY>
0

>  <SCORE.RESTR.norm>
0

>  <SCORE.SYSTEM>
0

>  <SCORE.SYSTEM.CONST>
0

>  <SCORE.SYSTEM.DIHEDRAL>
0

>  <SCORE.SYSTEM.SOLV>
0

>  <SCORE.SYSTEM.norm>
0

>  <SCORE.heavy>
14

>  <SCORE.norm>
-0.715894

>  <RMSD>
2.814

$$$$
ligand
 OpenBabel11021811413D
libRbt.so/2013.1/901 2013/11/27
 14 13  0  0  0  0  0  0  0  0999 V2000
   45.9515   -0.5929   15.8538 N   0  0  0  0  0  0  0  0  0  0  0  0
   45.0483    0.0542   16.8298 C   0  0  0  0  0  0  0  0  0  0  0  0
   45.8045    1.0920   17.6872 C   0  0  0  0  0  0  0  0  0  0  0  0
   44.9194    1.8790   18.6676 C   0  0  0  0  0  0  0  0  0  0  0  0
   45.6964    2.9534   19.3447 N   0  0  0  0  0  0  0  0  0  0  0  0
   44.7764    3.9709   19.9148 C   0  0  0  0  0  0  0  0  0  0  0  0
   45.4433    5.0428   20.8413 C   0  0  0  0  0  0  0  0  0  0  0  0
   44.4974    6.2100   21.2452 C   0  0  0  0  0  0  0  0  0  0  0  0
   44.0430    7.0658   20.0790 C   0  0  0  0  0  0  0  0  0  0  0  0
   43.0323    7.9815   20.5734 N   0  0  0  0  0  0  0  0  0  0  0  0
   42.7723    8.9110   19.4880 C   0  0  0  0  0  0  0  0  0  0  0  0
   41.4524    9.6467   19.6881 C   0  0  0  0  0  0  0  0  0  0  0  0
   41.2834   10.6250   18.5158 C   0  0  0  0  0  0  0  0  0  0  0  0
   42.3426   11.6447   18.4862 N   0  0  0  0  0  0  0  0  0  0  0  0
  1  2  1  0  0  0  0
  2  3  1  0  0  0  0
  3  4  1  0  0  0  0
  4  5  1  0  0  0  0
  5  6  1  0  0  0  0
  6  7  1  0  0  0  0
  7  8  1  0  0  0  0
  8  9  1  0  0  0  0
  9 10  1  0  0  0  0
 10 11  1  0  0  0  0
 11 12  1  0  0  0  0
 12 13  1  0  0  0  0
 13 14  1  0  0  0  0
M  END
>  <CHROM.1>
176.20180934,-173.86503541,160.93184295,171.07511416,171.26440543,-64.28030013
172.11253258,171.56838408,162.24842866,178.62961508,-62.61278062,44.07586150
5.46313049,19.08699200,0.83669807,1.04478872,-2.27861008

>  <Name>
ligand

>  <RI>
0

>  <Rbt.Current_Directory>
/home/itssahil/PROJECTS/Mol_Feturizer/New_Systems/rnas/1TN1

>  <Rbt.Executable>
rbdock ($Id: //depot/dev/client3/rdock/2013.1/src/exe/rbdock.cxx#4 $)

>  <Rbt.Library>
libRbt.so (2013.1, Build901 2013/11/27)

>  <Rbt.Parameter_File>
/export/apps/rDock/src/rDock_2013.1_src/data/scripts/dock_solv.prm

>  <Rbt.Receptor>
prm/blind_docking_100.prm

>  <SCORE>
-12.9795

>  <SCORE.INTER>
-10.0121

>  <SCORE.INTER.CONST>
1

>  <SCORE.INTER.POLAR>
0

>  <SCORE.INTER.ROT>
11

>  <SCORE.INTER.SOLV>
19.2969

>  <SCORE.INTER.VDW>
-24.0404

>  <SCORE.INTER.norm>
-0.71515

>  <SCORE.INTRA>
-2.96739

>  <SCORE.INTRA.DIHEDRAL>
-6.33615

>  <SCORE.INTRA.DIHEDRAL.0>
7.79482

>  <SCORE.INTRA.POLAR>
0

>  <SCORE.INTRA.POLAR.0>
0

>  <SCORE.INTRA.REPUL>
0

>  <SCORE.INTRA.REPUL.0>
0

>  <SCORE.INTRA.SOLV>
0.999111

>  <SCORE.INTRA.SOLV.lig_0>
-49.456

>  <SCORE.INTRA.VDW>
-0.298872

>  <SCORE.INTRA.VDW.0>
-0.478406

>  <SCORE.INTRA.norm>
-0.211957

>  <SCORE.RESTR>
0

>  <SCORE.RESTR.CAVITY>
0

>  <SCORE.RESTR.norm>
0

>  <SCORE.SYSTEM>
0

>  <SCORE.SYSTEM.CONST>
0

>  <SCORE.SYSTEM.DIHEDRAL>
0

>  <SCORE.SYSTEM.SOLV>
0

>  <SCORE.SYSTEM.norm>
0

>  <SCORE.heavy>
14

>  <SCORE.norm>
-0.927107

>  <RMSD>
2.821

$$$$
ligand
 OpenBabel11021811413D
libRbt.so/2013.1/901 2013/11/27
 14 13  0  0  0  0  0  0  0  0999 V2000
   45.1726   -1.3794   15.4016 N   0  0  0  0  0  0  0  0  0  0  0  0
   45.4899    0.0641   15.4535 C   0  0  0  0  0  0  0  0  0  0  0  0
   44.4896    0.8234   16.3518 C   0  0  0  0  0  0  0  0  0  0  0  0
   44.7180    2.3422   16.4221 C   0  0  0  0  0  0  0  0  0  0  0  0
   46.0938    2.6543   16.8977 N   0  0  0  0  0  0  0  0  0  0  0  0
   46.2593    2.2222   18.3094 C   0  0  0  0  0  0  0  0  0  0  0  0
   45.4524    3.0466   19.3684 C   0  0  0  0  0  0  0  0  0  0  0  0
   46.1137    4.3998   19.7579 C   0  0  0  0  0  0  0  0  0  0  0  0
   46.2011    5.3935   18.6160 C   0  0  0  0  0  0  0  0  0  0  0  0
   46.7926    6.6111   19.1374 N   0  0  0  0  0  0  0  0  0  0  0  0
   47.1860    7.3911   17.9770 C   0  0  0  0  0  0  0  0  0  0  0  0
   47.6930    8.7713   18.3785 C   0  0  0  0  0  0  0  0  0  0  0  0
   46.5222    9.5260   19.0264 C   0  0  0  0  0  0  0  0  0  0  0  0
   45.5137    9.9397   18.0393 N   0  0  0  0  0  0  0  0  0  0  0  0
  1  2  1  0  0  0  0
  2  3  1  0  0  0  0
  3  4  1  0  0  0  0
  4  5  1  0  0  0  0
  5  6  1  0  0  0  0
  6  7  1  0  0  0  0
  7  8  1  0  0  0  0
  8  9  1  0  0  0  0
  9 10  1  0  0  0  0
 10 11  1  0  0  0  0
 11 12  1  0  0  0  0
 12 13  1  0  0  0  0
 13 14  1  0  0  0  0
M  END
>  <CHROM.1>
-177.95257803,-57.24945958,-66.34874080,-69.30379769,-79.91851044,64.45286603
178.09639931,165.21929009,173.99291646,-63.90145169,-72.56119392,45.97844744
4.41468430,17.79567822,2.38459012,1.34262691,2.62268436

>  <Name>
ligand

>  <RI>
0

>  <Rbt.Current_Directory>
/home/itssahil/PROJECTS/Mol_Feturizer/New_Systems/rnas/1TN1

>  <Rbt.Executable>
rbdock ($Id: //depot/dev/client3/rdock/2013.1/src/exe/rbdock.cxx#4 $)

>  <Rbt.Library>
libRbt.so (2013.1, Build901 2013/11/27)

>  <Rbt.Parameter_File>
/export/apps/rDock/src/rDock_2013.1_src/data/scripts/dock_solv.prm

>  <Rbt.Receptor>
prm/pocket_docking_2.prm

>  <SCORE>
-2.42284

>  <SCORE.INTER>
-2.16104

>  <SCORE.INTER.CONST>
1

>  <SCORE.INTER.POLAR>
0

>  <SCORE.INTER.ROT>
11

>  <SCORE.INTER.SOLV>
14.0014

>  <SCORE.INTER.VDW>
-17.0412

>  <SCORE.INTER.norm>
-0.15436

>  <SCORE.INTRA>
-0.264221

>  <SCORE.INTRA.DIHEDRAL>
-5.348

>  <SCORE.INTRA.DIHEDRAL.0>
7.79482

>  <SCORE.INTRA.POLAR>
0

>  <SCORE.INTRA.POLAR.0>
0

>  <SCORE.INTRA.REPUL>
0

>  <SCORE.INTRA.REPUL.0>
0

>  <SCORE.INTRA.SOLV>
2.82008

>  <SCORE.INTRA.SOLV.lig_0>
-49.456

>  <SCORE.INTRA.VDW>
0.999738

>  <SCORE.INTRA.VDW.0>
-0.478406

>  <SCORE.INTRA.norm>
-0.0188729

>  <SCORE.RESTR>
0.00242381

>  <SCORE.RESTR.CAVITY>
0.00242381

>  <SCORE.RESTR.norm>
0.000173129

>  <SCORE.SYSTEM>
0

>  <SCORE.SYSTEM.CONST>
0

>  <SCORE.SYSTEM.DIHEDRAL>
0

>  <SCORE.SYSTEM.SOLV>
0

>  <SCORE.SYSTEM.norm>
0

>  <SCORE.heavy>
14

>  <SCORE.norm>
-0.17306

>  <RMSD>
2.822

$$$$
ligand
 OpenBabel11021811413D
libRbt.so/2013.1/901 2013/11/27
 14 13  0  0  0  0  0  0  0  0999 V2000
   48.4558    8.4389   17.5594 N   0  0  0  0  0  0  0  0  0  0  0  0
   48.1638    9.8770   17.3761 C   0  0  0  0  0  0  0  0  0  0  0  0
   46.6929   10.1961   17.7205 C   0  0  0  0  0  0  0  0  0  0  0  0
   46.3544   10.1157   19.2181 C   0  0  0  0  0  0  0  0  0  0  0  0
   46.5774    8.7406   19.7433 N   0  0  0  0  0  0  0  0  0  0  0  0
   45.2771    8.0910   20.0498 C   0  0  0  0  0  0  0  0  0  0  0  0
   45.3622    6.6101   20.5519 C   0  0  0  0  0  0  0  0  0  0  0  0
   45.9644    5.6209   19.5131 C   0  0  0  0  0  0  0  0  0  0  0  0
   45.9578    4.1738   19.9654 C   0  0  0  0  0  0  0  0  0  0  0  0
   46.5289    3.3766   18.8965 N   0  0  0  0  0  0  0  0  0  0  0  0
   45.5336    2.3684   18.5764 C   0  0  0  0  0  0  0  0  0  0  0  0
   45.9590    1.5247   17.3803 C   0  0  0  0  0  0  0  0  0  0  0  0
   44.7997    0.5735   17.0467 C   0  0  0  0  0  0  0  0  0  0  0  0
   45.0624   -0.2193   15.8363 N   0  0  0  0  0  0  0  0  0  0  0  0
  1  2  1  0  0  0  0
  2  3  1  0  0  0  0
  3  4  1  0  0  0  0
  4  5  1  0  0  0  0
  5  6  1  0  0  0  0
  6  7  1  0  0  0  0
  7  8  1  0  0  0  0
  8  9  1  0  0  0  0
  9 10  1  0  0  0  0
 10 11  1  0  0  0  0
 11 12  1  0  0  0  0
 12 13  1  0  0  0  0
 13 14  1  0  0  0  0
M  END
>  <CHROM.1>
70.81840491,-61.55386049,-109.50846168,177.35700753,-62.90572298,-176.02464358
179.30633554,-124.32502578,175.29046810,-175.31472178,175.52942478,46.19191874
5.67795432,18.53119395,-1.18028685,-1.08243819,-2.63643741

>  <Name>
ligand

>  <RI>
0

>  <Rbt.Current_Directory>
/home/itssahil/PROJECTS/Mol_Feturizer/New_Systems/rnas/1TN1

>  <Rbt.Executable>
rbdock ($Id: //depot/dev/client3/rdock/2013.1/src/exe/rbdock.cxx#4 $)

>  <Rbt.Library>
libRbt.so (2013.1, Build901 2013/11/27)

>  <Rbt.Parameter_File>
/export/apps/rDock/src/rDock_2013.1_src/data/scripts/dock_solv.prm

>  <Rbt.Receptor>
prm/pocket_docking_3.prm

>  <SCORE>
-6.09601

>  <SCORE.INTER>
-4.53129

>  <SCORE.INTER.CONST>
1

>  <SCORE.INTER.POLAR>
0

>  <SCORE.INTER.ROT>
11

>  <SCORE.INTER.SOLV>
14.4869

>  <SCORE.INTER.VDW>
-18.7832

>  <SCORE.INTER.norm>
-0.323664

>  <SCORE.INTRA>
-1.56472

>  <SCORE.INTRA.DIHEDRAL>
-4.77666

>  <SCORE.INTRA.DIHEDRAL.0>
7.79482

>  <SCORE.INTRA.POLAR>
0

>  <SCORE.INTRA.POLAR.0>
0

>  <SCORE.INTRA.REPUL>
0

>  <SCORE.INTRA.REPUL.0>
0

>  <SCORE.INTRA.SOLV>
3.53698

>  <SCORE.INTRA.SOLV.lig_0>
-49.456

>  <SCORE.INTRA.VDW>
-0.94488

>  <SCORE.INTRA.VDW.0>
-0.478406

>  <SCORE.INTRA.norm>
-0.111766

>  <SCORE.RESTR>
0

>  <SCORE.RESTR.CAVITY>
0

>  <SCORE.RESTR.norm>
0

>  <SCORE.SYSTEM>
0

>  <SCORE.SYSTEM.CONST>
0

>  <SCORE.SYSTEM.DIHEDRAL>
0

>  <SCORE.SYSTEM.SOLV>
0

>  <SCORE.SYSTEM.norm>
0

>  <SCORE.heavy>
14

>  <SCORE.norm>
-0.43543

>  <RMSD>
2.825

$$$$
ligand
 OpenBabel11021811413D
libRbt.so/2013.1/901 2013/11/27
 14 13  0  0  0  0  0  0  0  0999 V2000
   46.9267    8.4890   15.3258 N   0  0  0  0  0  0  0  0  0  0  0  0
   46.1072    9.6469   15.7439 C   0  0  0  0  0  0  0  0  0  0  0  0
   45.6299    9.4945   17.2043 C   0  0  0  0  0  0  0  0  0  0  0  0
   46.7616    9.3670   18.2373 C   0  0  0  0  0  0  0  0  0  0  0  0
   46.2143    9.2134   19.6133 N   0  0  0  0  0  0  0  0  0  0  0  0
   46.5516    7.8712   20.1532 C   0  0  0  0  0  0  0  0  0  0  0  0
   45.4778    6.7566   19.9151 C   0  0  0  0  0  0  0  0  0  0  0  0
   45.8036    5.4024   20.6081 C   0  0  0  0  0  0  0  0  0  0  0  0
   44.7052    4.3651   20.4794 C   0  0  0  0  0  0  0  0  0  0  0  0
   44.8917    3.6825   19.2130 N   0  0  0  0  0  0  0  0  0  0  0  0
   44.2311    2.3966   19.3530 C   0  0  0  0  0  0  0  0  0  0  0  0
   44.5283    1.4851   18.1680 C   0  0  0  0  0  0  0  0  0  0  0  0
   46.0175    1.1128   18.2302 C   0  0  0  0  0  0  0  0  0  0  0  0
   46.8904    2.2758   18.0110 N   0  0  0  0  0  0  0  0  0  0  0  0
  1  2  1  0  0  0  0
  2  3  1  0  0  0  0
  3  4  1  0  0  0  0
  4  5  1  0  0  0  0
  5  6  1  0  0  0  0
  6  7  1  0  0  0  0
  7  8  1  0  0  0  0
  8  9  1  0  0  0  0
  9 10  1  0  0  0  0
 10 11  1  0  0  0  0
 11 12  1  0  0  0  0
 12 13  1  0  0  0  0
 13 14  1  0  0  0  0
M  END
>  <CHROM.1>
59.26853503,-179.53765088,114.42876038,-92.41265180,-174.55089845,174.83996447
85.03921231,157.04901705,-171.34309639,67.94330720,-66.23743630,45.76673267
5.82559740,18.58991510,-0.77367111,-1.35893596,-2.54891527

>  <Name>
ligand

>  <RI>
0

>  <Rbt.Current_Directory>
/home/itssahil/PROJECTS/Mol_Feturizer/New_Systems/rnas/1TN1

>  <Rbt.Executable>
rbdock ($Id: //depot/dev/client3/rdock/2013.1/src/exe/rbdock.cxx#4 $)

>  <Rbt.Library>
libRbt.so (2013.1, Build901 2013/11/27)

>  <Rbt.Parameter_File>
/export/apps/rDock/src/rDock_2013.1_src/data/scripts/dock_solv.prm

>  <Rbt.Receptor>
prm/pocket_docking_3.prm

>  <SCORE>
-4.74874

>  <SCORE.INTER>
-4.99779

>  <SCORE.INTER.CONST>
1

>  <SCORE.INTER.POLAR>
0

>  <SCORE.INTER.ROT>
11

>  <SCORE.INTER.SOLV>
16.7186

>  <SCORE.INTER.VDW>
-19.838

>  <SCORE.INTER.norm>
-0.356985

>  <SCORE.INTRA>
0.240927

>  <SCORE.INTRA.DIHEDRAL>
-2.8427

>  <SCORE.INTRA.DIHEDRAL.0>
7.79482

>  <SCORE.INTRA.POLAR>
0

>  <SCORE.INTRA.POLAR.0>
0

>  <SCORE.INTRA.REPUL>
0

>  <SCORE.INTRA.REPUL.0>
0

>  <SCORE.INTRA.SOLV>
4.48288

>  <SCORE.INTRA.SOLV.lig_0>
-49.456

>  <SCORE.INTRA.VDW>
-0.579161

>  <SCORE.INTRA.VDW.0>
-0.478406

>  <SCORE.INTRA.norm>
0.017209

>  <SCORE.RESTR>
0.0081196

>  <SCORE.RESTR.CAVITY>
0.0081196

>  <SCORE.RESTR.norm>
0.000579972

>  <SCORE.SYSTEM>
0

>  <SCORE.SYSTEM.CONST>
0

>  <SCORE.SYSTEM.DIHEDRAL>
0

>  <SCORE.SYSTEM.SOLV>
0

>  <SCORE.SYSTEM.norm>
0

>  <SCORE.heavy>
14

>  <SCORE.norm>
-0.339196

>  <RMSD>
2.835

$$$$
ligand
 OpenBabel11021811413D
libRbt.so/2013.1/901 2013/11/27
 14 13  0  0  0  0  0  0  0  0999 V2000
   45.6500    1.6624   16.5634 N   0  0  0  0  0  0  0  0  0  0  0  0
   45.7249    1.0697   17.9163 C   0  0  0  0  0  0  0  0  0  0  0  0
   45.0357    1.9742   18.9607 C   0  0  0  0  0  0  0  0  0  0  0  0
   45.6711    3.3651   19.1214 C   0  0  0  0  0  0  0  0  0  0  0  0
   45.0217    4.1250   20.2247 N   0  0  0  0  0  0  0  0  0  0  0  0
   45.8992    5.2393   20.6664 C   0  0  0  0  0  0  0  0  0  0  0  0
   45.6053    6.6318   20.0133 C   0  0  0  0  0  0  0  0  0  0  0  0
   46.6037    7.7509   20.4273 C   0  0  0  0  0  0  0  0  0  0  0  0
   46.2339    9.1276   19.9109 C   0  0  0  0  0  0  0  0  0  0  0  0
   46.3081    9.0882   18.4627 N   0  0  0  0  0  0  0  0  0  0  0  0
   45.9583   10.4231   18.0097 C   0  0  0  0  0  0  0  0  0  0  0  0
   46.3843   10.6510   16.5641 C   0  0  0  0  0  0  0  0  0  0  0  0
   47.9182   10.5829   16.5153 C   0  0  0  0  0  0  0  0  0  0  0  0
   48.4387   10.7533   15.1505 N   0  0  0  0  0  0  0  0  0  0  0  0
  1  2  1  0  0  0  0
  2  3  1  0  0  0  0
  3  4  1  0  0  0  0
  4  5  1  0  0  0  0
  5  6  1  0  0  0  0
  6  7  1  0  0  0  0
  7  8  1  0  0  0  0
  8  9  1  0  0  0  0
  9 10  1  0  0  0  0
 10 11  1  0  0  0  0
 11 12  1  0  0  0  0
 12 13  1  0  0  0  0
 13 14  1  0  0  0  0
M  END
>  <CHROM.1>
-62.12939578,-175.13785787,161.31128411,95.24342971,-176.09097077,-173.92899474
-64.46846743,-179.57116425,163.19761343,-64.49427472,178.39103517,46.17514139
6.60325095,18.46511108,-2.29429301,1.26937718,0.51539594

>  <Name>
ligand

>  <RI>
0

>  <Rbt.Current_Directory>
/home/itssahil/PROJECTS/Mol_Feturizer/New_Systems/rnas/1TN1

>  <Rbt.Executable>
rbdock ($Id: //depot/dev/client3/rdock/2013.1/src/exe/rbdock.cxx#4 $)

>  <Rbt.Library>
libRbt.so (2013.1, Build901 2013/11/27)

>  <Rbt.Parameter_File>
/export/apps/rDock/src/rDock_2013.1_src/data/scripts/dock_solv.prm

>  <Rbt.Receptor>
prm/pocket_docking_5.prm

>  <SCORE>
-8.47975

>  <SCORE.INTER>
-5.75922

>  <SCORE.INTER.CONST>
1

>  <SCORE.INTER.POLAR>
0

>  <SCORE.INTER.ROT>
11

>  <SCORE.INTER.SOLV>
8.3312

>  <SCORE.INTER.VDW>
-17.5499

>  <SCORE.INTER.norm>
-0.411373

>  <SCORE.INTRA>
-2.72053

>  <SCORE.INTRA.DIHEDRAL>
-6.07128

>  <SCORE.INTRA.DIHEDRAL.0>
7.79482

>  <SCORE.INTRA.POLAR>
0

>  <SCORE.INTRA.POLAR.0>
0

>  <SCORE.INTRA.REPUL>
0

>  <SCORE.INTRA.REPUL.0>
0

>  <SCORE.INTRA.SOLV>
1.46914

>  <SCORE.INTRA.SOLV.lig_0>
-49.456

>  <SCORE.INTRA.VDW>
-0.419456

>  <SCORE.INTRA.VDW.0>
-0.478406

>  <SCORE.INTRA.norm>
-0.194323

>  <SCORE.RESTR>
0

>  <SCORE.RESTR.CAVITY>
0

>  <SCORE.RESTR.norm>
0

>  <SCORE.SYSTEM>
0

>  <SCORE.SYSTEM.CONST>
0

>  <SCORE.SYSTEM.DIHEDRAL>
0

>  <SCORE.SYSTEM.SOLV>
0

>  <SCORE.SYSTEM.norm>
0

>  <SCORE.heavy>
14

>  <SCORE.norm>
-0.605696

>  <RMSD>
2.841

$$$$
ligand
 OpenBabel11021811413D
libRbt.so/2013.1/901 2013/11/27
 14 13  0  0  0  0  0  0  0  0999 V2000
   45.3296   11.2234   17.9938 N   0  0  0  0  0  0  0  0  0  0  0  0
   45.3703    9.8191   18.4559 C   0  0  0  0  0  0  0  0  0  0  0  0
   46.3309    9.6533   19.6533 C   0  0  0  0  0  0  0  0  0  0  0  0
   46.5262    8.2016   20.1206 C   0  0  0  0  0  0  0  0  0  0  0  0
   45.2416    7.6141   20.5908 N   0  0  0  0  0  0  0  0  0  0  0  0
   45.3322    6.1315   20.6113 C   0  0  0  0  0  0  0  0  0  0  0  0
   43.9675    5.3689   20.5199 C   0  0  0  0  0  0  0  0  0  0  0  0
   44.1079    3.8205   20.4622 C   0  0  0  0  0  0  0  0  0  0  0  0
   44.9040    3.3185   19.2735 C   0  0  0  0  0  0  0  0  0  0  0  0
   44.8002    1.8717   19.2545 N   0  0  0  0  0  0  0  0  0  0  0  0
   46.0117    1.3942   18.6112 C   0  0  0  0  0  0  0  0  0  0  0  0
   45.6944    0.4932   17.4234 C   0  0  0  0  0  0  0  0  0  0  0  0
   45.1455    1.3837   16.2982 C   0  0  0  0  0  0  0  0  0  0  0  0
   44.9105    0.6297   15.0577 N   0  0  0  0  0  0  0  0  0  0  0  0
  1  2  1  0  0  0  0
  2  3  1  0  0  0  0
  3  4  1  0  0  0  0
  4  5  1  0  0  0  0
  5  6  1  0  0  0  0
  6  7  1  0  0  0  0
  7  8  1  0  0  0  0
  8  9  1  0  0  0  0
  9 10  1  0  0  0  0
 10 11  1  0  0  0  0
 11 12  1  0  0  0  0
 12 13  1  0  0  0  0
 13 14  1  0  0  0  0
M  END
>  <CHROM.1>
-174.99507608,-61.96553514,161.42318644,-156.54821938,176.68260665,-60.06964514
-172.57674718,-152.24141210,-125.07479304,71.95042277,175.19109786,45.26240327
5.06584152,18.88072315,-1.22844588,-1.41347089,-2.56672559

>  <Name>
ligand

>  <RI>
0

>  <Rbt.Current_Directory>
/home/itssahil/PROJECTS/Mol_Feturizer/New_Systems/rnas/1TN1

>  <Rbt.Executable>
rbdock ($Id: //depot/dev/client3/rdock/2013.1/src/exe/rbdock.cxx#4 $)

>  <Rbt.Library>
libRbt.so (2013.1, Build901 2013/11/27)

>  <Rbt.Parameter_File>
/export/apps/rDock/src/rDock_2013.1_src/data/scripts/dock_solv.prm

>  <Rbt.Receptor>
prm/pocket_docking_4.prm

>  <SCORE>
-7.65459

>  <SCORE.INTER>
-5.45297

>  <SCORE.INTER.CONST>
1

>  <SCORE.INTER.POLAR>
0

>  <SCORE.INTER.ROT>
11

>  <SCORE.INTER.SOLV>
13.6039

>  <SCORE.INTER.VDW>
-19.1033

>  <SCORE.INTER.norm>
-0.389498

>  <SCORE.INTRA>
-2.20161

>  <SCORE.INTRA.DIHEDRAL>
-4.4595

>  <SCORE.INTRA.DIHEDRAL.0>
7.79482

>  <SCORE.INTRA.POLAR>
0

>  <SCORE.INTRA.POLAR.0>
0

>  <SCORE.INTRA.REPUL>
0

>  <SCORE.INTRA.REPUL.0>
0

>  <SCORE.INTRA.SOLV>
0.758809

>  <SCORE.INTRA.SOLV.lig_0>
-49.456

>  <SCORE.INTRA.VDW>
-0.351268

>  <SCORE.INTRA.VDW.0>
-0.478406

>  <SCORE.INTRA.norm>
-0.157258

>  <SCORE.RESTR>
0

>  <SCORE.RESTR.CAVITY>
0

>  <SCORE.RESTR.norm>
0

>  <SCORE.SYSTEM>
0

>  <SCORE.SYSTEM.CONST>
0

>  <SCORE.SYSTEM.DIHEDRAL>
0

>  <SCORE.SYSTEM.SOLV>
0

>  <SCORE.SYSTEM.norm>
0

>  <SCORE.heavy>
14

>  <SCORE.norm>
-0.546756

>  <RMSD>
2.842

$$$$
ligand
 OpenBabel11021811413D
libRbt.so/2013.1/901 2013/11/27
 14 13  0  0  0  0  0  0  0  0999 V2000
   46.6022   10.5279   17.2437 N   0  0  0  0  0  0  0  0  0  0  0  0
   45.9798    9.8359   18.3930 C   0  0  0  0  0  0  0  0  0  0  0  0
   46.9643    8.8413   19.0453 C   0  0  0  0  0  0  0  0  0  0  0  0
   46.3726    8.0224   20.2044 C   0  0  0  0  0  0  0  0  0  0  0  0
   45.2740    7.1380   19.7277 N   0  0  0  0  0  0  0  0  0  0  0  0
   44.9274    6.1409   20.7729 C   0  0  0  0  0  0  0  0  0  0  0  0
   45.9467    4.9657   20.9517 C   0  0  0  0  0  0  0  0  0  0  0  0
   46.1710    4.1185   19.6662 C   0  0  0  0  0  0  0  0  0  0  0  0
   45.0202    3.1893   19.3329 C   0  0  0  0  0  0  0  0  0  0  0  0
   45.4083    2.4071   18.1745 N   0  0  0  0  0  0  0  0  0  0  0  0
   44.4872    1.2852   18.1249 C   0  0  0  0  0  0  0  0  0  0  0  0
   44.9447    0.2318   17.1228 C   0  0  0  0  0  0  0  0  0  0  0  0
   44.8231    0.8426   15.7184 C   0  0  0  0  0  0  0  0  0  0  0  0
   45.2012   -0.1099   14.6637 N   0  0  0  0  0  0  0  0  0  0  0  0
  1  2  1  0  0  0  0
  2  3  1  0  0  0  0
  3  4  1  0  0  0  0
  4  5  1  0  0  0  0
  5  6  1  0  0  0  0
  6  7  1  0  0  0  0
  7  8  1  0  0  0  0
  8  9  1  0  0  0  0
  9 10  1  0  0  0  0
 10 11  1  0  0  0  0
 11 12  1  0  0  0  0
 12 13  1  0  0  0  0
 13 14  1  0  0  0  0
M  END
>  <CHROM.1>
-176.89853960,63.96827149,167.05951348,-74.90731420,-58.84560399,-74.35802741
-176.17991812,163.59571914,-168.70931103,-67.71178552,-178.17039107,45.58016496
4.81683467,18.51059532,-0.60006969,-1.39127918,-1.89200254

>  <Name>
ligand

>  <RI>
0

>  <Rbt.Current_Directory>
/home/itssahil/PROJECTS/Mol_Feturizer/New_Systems/rnas/1TN1

>  <Rbt.Executable>
rbdock ($Id: //depot/dev/client3/rdock/2013.1/src/exe/rbdock.cxx#4 $)

>  <Rbt.Library>
libRbt.so (2013.1, Build901 2013/11/27)

>  <Rbt.Parameter_File>
/export/apps/rDock/src/rDock_2013.1_src/data/scripts/dock_solv.prm

>  <Rbt.Receptor>
prm/blind_docking_60.prm

>  <SCORE>
-10.1011

>  <SCORE.INTER>
-7.43079

>  <SCORE.INTER.CONST>
1

>  <SCORE.INTER.POLAR>
0

>  <SCORE.INTER.ROT>
11

>  <SCORE.INTER.SOLV>
10.3048

>  <SCORE.INTER.VDW>
-19.3221

>  <SCORE.INTER.norm>
-0.530771

>  <SCORE.INTRA>
-2.67031

>  <SCORE.INTRA.DIHEDRAL>
-5.9636

>  <SCORE.INTRA.DIHEDRAL.0>
7.79482

>  <SCORE.INTRA.POLAR>
0

>  <SCORE.INTRA.POLAR.0>
0

>  <SCORE.INTRA.REPUL>
0

>  <SCORE.INTRA.REPUL.0>
0

>  <SCORE.INTRA.SOLV>
1.24791

>  <SCORE.INTRA.SOLV.lig_0>
-49.456

>  <SCORE.INTRA.VDW>
-0.312462

>  <SCORE.INTRA.VDW.0>
-0.478406

>  <SCORE.INTRA.norm>
-0.190736

>  <SCORE.RESTR>
0

>  <SCORE.RESTR.CAVITY>
0

>  <SCORE.RESTR.norm>
0

>  <SCORE.SYSTEM>
0

>  <SCORE.SYSTEM.CONST>
0

>  <SCORE.SYSTEM.DIHEDRAL>
0

>  <SCORE.SYSTEM.SOLV>
0

>  <SCORE.SYSTEM.norm>
0

>  <SCORE.heavy>
14

>  <SCORE.norm>
-0.721507

>  <RMSD>
2.849

$$$$
ligand
 OpenBabel11021811413D
libRbt.so/2013.1/901 2013/11/27
 14 13  0  0  0  0  0  0  0  0999 V2000
   45.7467   -1.8119   16.7420 N   0  0  0  0  0  0  0  0  0  0  0  0
   45.5569   -0.6745   15.8159 C   0  0  0  0  0  0  0  0  0  0  0  0
   44.7147    0.4425   16.4693 C   0  0  0  0  0  0  0  0  0  0  0  0
   45.3536    1.0808   17.7137 C   0  0  0  0  0  0  0  0  0  0  0  0
   44.4536    2.1057   18.3103 N   0  0  0  0  0  0  0  0  0  0  0  0
   45.2289    3.0239   19.1836 C   0  0  0  0  0  0  0  0  0  0  0  0
   44.3784    3.9393   20.1273 C   0  0  0  0  0  0  0  0  0  0  0  0
   45.2255    4.8194   21.0909 C   0  0  0  0  0  0  0  0  0  0  0  0
   46.0410    5.8889   20.3909 C   0  0  0  0  0  0  0  0  0  0  0  0
   45.1145    6.8702   19.8591 N   0  0  0  0  0  0  0  0  0  0  0  0
   45.9165    8.0339   19.5236 C   0  0  0  0  0  0  0  0  0  0  0  0
   45.0416    9.2339   19.1804 C   0  0  0  0  0  0  0  0  0  0  0  0
   45.9735   10.3960   18.8045 C   0  0  0  0  0  0  0  0  0  0  0  0
   46.7289   10.1260   17.5720 N   0  0  0  0  0  0  0  0  0  0  0  0
  1  2  1  0  0  0  0
  2  3  1  0  0  0  0
  3  4  1  0  0  0  0
  4  5  1  0  0  0  0
  5  6  1  0  0  0  0
  6  7  1  0  0  0  0
  7  8  1  0  0  0  0
  8  9  1  0  0  0  0
  9 10  1  0  0  0  0
 10 11  1  0  0  0  0
 11 12  1  0  0  0  0
 12 13  1  0  0  0  0
 13 14  1  0  0  0  0
M  END
>  <CHROM.1>
62.51700720,-177.70421717,-160.41481259,-166.53935569,176.23787141,67.16493637
68.79289782,165.09184088,-170.02431492,-178.47105359,65.57474551,45.39096915
4.53395010,18.62759212,-1.81470871,1.31251949,0.46487946

>  <Name>
ligand

>  <RI>
0

>  <Rbt.Current_Directory>
/home/itssahil/PROJECTS/Mol_Feturizer/New_Systems/rnas/1TN1

>  <Rbt.Executable>
rbdock ($Id: //depot/dev/client3/rdock/2013.1/src/exe/rbdock.cxx#4 $)

>  <Rbt.Library>
libRbt.so (2013.1, Build901 2013/11/27)

>  <Rbt.Parameter_File>
/export/apps/rDock/src/rDock_2013.1_src/data/scripts/dock_solv.prm

>  <Rbt.Receptor>
prm/pocket_docking_7.prm

>  <SCORE>
-7.78412

>  <SCORE.INTER>
-5.29437

>  <SCORE.INTER.CONST>
1

>  <SCORE.INTER.POLAR>
0

>  <SCORE.INTER.ROT>
11

>  <SCORE.INTER.SOLV>
17.3151

>  <SCORE.INTER.VDW>
-20.2346

>  <SCORE.INTER.norm>
-0.378169

>  <SCORE.INTRA>
-2.48975

>  <SCORE.INTRA.DIHEDRAL>
-6.38636

>  <SCORE.INTRA.DIHEDRAL.0>
7.79482

>  <SCORE.INTRA.POLAR>
0

>  <SCORE.INTRA.POLAR.0>
0

>  <SCORE.INTRA.REPUL>
0

>  <SCORE.INTRA.REPUL.0>
0

>  <SCORE.INTRA.SOLV>
2.05604

>  <SCORE.INTRA.SOLV.lig_0>
-49.456

>  <SCORE.INTRA.VDW>
-0.324585

>  <SCORE.INTRA.VDW.0>
-0.478406

>  <SCORE.INTRA.norm>
-0.177839

>  <SCORE.RESTR>
0

>  <SCORE.RESTR.CAVITY>
0

>  <SCORE.RESTR.norm>
0

>  <SCORE.SYSTEM>
0

>  <SCORE.SYSTEM.CONST>
0

>  <SCORE.SYSTEM.DIHEDRAL>
0

>  <SCORE.SYSTEM.SOLV>
0

>  <SCORE.SYSTEM.norm>
0

>  <SCORE.heavy>
14

>  <SCORE.norm>
-0.556009

>  <RMSD>
2.856

$$$$
ligand
 OpenBabel11021811413D
libRbt.so/2013.1/901 2013/11/27
 14 13  0  0  0  0  0  0  0  0999 V2000
   45.4763   -1.9565   14.3781 N   0  0  0  0  0  0  0  0  0  0  0  0
   45.6153   -1.5074   15.7802 C   0  0  0  0  0  0  0  0  0  0  0  0
   45.4661    0.0253   15.8927 C   0  0  0  0  0  0  0  0  0  0  0  0
   45.7251    0.5920   17.2983 C   0  0  0  0  0  0  0  0  0  0  0  0
   45.6369    2.0781   17.3000 N   0  0  0  0  0  0  0  0  0  0  0  0
   46.1464    2.6212   18.5853 C   0  0  0  0  0  0  0  0  0  0  0  0
   45.6365    4.0524   18.9648 C   0  0  0  0  0  0  0  0  0  0  0  0
   46.1420    4.5614   20.3453 C   0  0  0  0  0  0  0  0  0  0  0  0
   45.6028    5.9241   20.7339 C   0  0  0  0  0  0  0  0  0  0  0  0
   46.1374    6.8923   19.7952 N   0  0  0  0  0  0  0  0  0  0  0  0
   45.9606    8.1917   20.4195 C   0  0  0  0  0  0  0  0  0  0  0  0
   46.5862    9.3020   19.5833 C   0  0  0  0  0  0  0  0  0  0  0  0
   45.7608    9.4345   18.2945 C   0  0  0  0  0  0  0  0  0  0  0  0
   46.2998   10.4638   17.3930 N   0  0  0  0  0  0  0  0  0  0  0  0
  1  2  1  0  0  0  0
  2  3  1  0  0  0  0
  3  4  1  0  0  0  0
  4  5  1  0  0  0  0
  5  6  1  0  0  0  0
  6  7  1  0  0  0  0
  7  8  1  0  0  0  0
  8  9  1  0  0  0  0
  9 10  1  0  0  0  0
 10 11  1  0  0  0  0
 11 12  1  0  0  0  0
 12 13  1  0  0  0  0
 13 14  1  0  0  0  0
M  END
>  <CHROM.1>
-174.65816929,176.75811101,-168.91838802,-157.62956901,177.47605305,-177.71906307
-65.64631243,-162.59568685,175.38590249,68.24603890,-178.64452586,45.87087552
4.33390361,18.19783336,-3.12917976,1.51740113,1.89999678

>  <Name>
ligand

>  <RI>
0

>  <Rbt.Current_Directory>
/home/itssahil/PROJECTS/Mol_Feturizer/New_Systems/rnas/1TN1

>  <Rbt.Executable>
rbdock ($Id: //depot/dev/client3/rdock/2013.1/src/exe/rbdock.cxx#4 $)

>  <Rbt.Library>
libRbt.so (2013.1, Build901 2013/11/27)

>  <Rbt.Parameter_File>
/export/apps/rDock/src/rDock_2013.1_src/data/scripts/dock_solv.prm

>  <Rbt.Receptor>
prm/blind_docking_80.prm

>  <SCORE>
-11.2851

>  <SCORE.INTER>
-7.77063

>  <SCORE.INTER.CONST>
1

>  <SCORE.INTER.POLAR>
0

>  <SCORE.INTER.ROT>
11

>  <SCORE.INTER.SOLV>
10.6573

>  <SCORE.INTER.VDW>
-19.6662

>  <SCORE.INTER.norm>
-0.555045

>  <SCORE.INTRA>
-3.51449

>  <SCORE.INTRA.DIHEDRAL>
-6.50744

>  <SCORE.INTRA.DIHEDRAL.0>
7.79482

>  <SCORE.INTRA.POLAR>
0

>  <SCORE.INTRA.POLAR.0>
0

>  <SCORE.INTRA.REPUL>
0

>  <SCORE.INTRA.REPUL.0>
0

>  <SCORE.INTRA.SOLV>
0.716576

>  <SCORE.INTRA.SOLV.lig_0>
-49.456

>  <SCORE.INTRA.VDW>
-0.619064

>  <SCORE.INTRA.VDW.0>
-0.478406

>  <SCORE.INTRA.norm>
-0.251035

>  <SCORE.RESTR>
0

>  <SCORE.RESTR.CAVITY>
0

>  <SCORE.RESTR.norm>
0

>  <SCORE.SYSTEM>
0

>  <SCORE.SYSTEM.CONST>
0

>  <SCORE.SYSTEM.DIHEDRAL>
0

>  <SCORE.SYSTEM.SOLV>
0

>  <SCORE.SYSTEM.norm>
0

>  <SCORE.heavy>
14

>  <SCORE.norm>
-0.80608

>  <RMSD>
2.859

$$$$
ligand
 OpenBabel11021811413D
libRbt.so/2013.1/901 2013/11/27
 14 13  0  0  0  0  0  0  0  0999 V2000
   46.8688   11.1559   17.7203 N   0  0  0  0  0  0  0  0  0  0  0  0
   46.8160    9.7507   18.1782 C   0  0  0  0  0  0  0  0  0  0  0  0
   46.3786    9.6614   19.6562 C   0  0  0  0  0  0  0  0  0  0  0  0
   46.2935    8.2307   20.2130 C   0  0  0  0  0  0  0  0  0  0  0  0
   45.2950    7.4228   19.4602 N   0  0  0  0  0  0  0  0  0  0  0  0
   44.1466    7.0785   20.3374 C   0  0  0  0  0  0  0  0  0  0  0  0
   44.3903    5.9007   21.3401 C   0  0  0  0  0  0  0  0  0  0  0  0
   44.7311    4.5452   20.6568 C   0  0  0  0  0  0  0  0  0  0  0  0
   46.0457    4.5501   19.9013 C   0  0  0  0  0  0  0  0  0  0  0  0
   46.2155    3.2379   19.3066 N   0  0  0  0  0  0  0  0  0  0  0  0
   46.0000    3.4160   17.8813 C   0  0  0  0  0  0  0  0  0  0  0  0
   46.3743    2.1621   17.0997 C   0  0  0  0  0  0  0  0  0  0  0  0
   45.4109    1.0439   17.5257 C   0  0  0  0  0  0  0  0  0  0  0  0
   45.6644   -0.2125   16.8047 N   0  0  0  0  0  0  0  0  0  0  0  0
  1  2  1  0  0  0  0
  2  3  1  0  0  0  0
  3  4  1  0  0  0  0
  4  5  1  0  0  0  0
  5  6  1  0  0  0  0
  6  7  1  0  0  0  0
  7  8  1  0  0  0  0
  8  9  1  0  0  0  0
  9 10  1  0  0  0  0
 10 11  1  0  0  0  0
 11 12  1  0  0  0  0
 12 13  1  0  0  0  0
 13 14  1  0  0  0  0
M  END
>  <CHROM.1>
179.83559676,-60.94988950,-113.42726414,-78.45828767,-60.67603118,65.02112933
-179.12590103,107.63570100,170.53019512,64.70485945,178.67479300,45.75923705
5.56745188,19.00609040,-1.45477954,-1.07364082,-2.86604339

>  <Name>
ligand

>  <RI>
0

>  <Rbt.Current_Directory>
/home/itssahil/PROJECTS/Mol_Feturizer/New_Systems/rnas/1TN1

>  <Rbt.Executable>
rbdock ($Id: //depot/dev/client3/rdock/2013.1/src/exe/rbdock.cxx#4 $)

>  <Rbt.Library>
libRbt.so (2013.1, Build901 2013/11/27)

>  <Rbt.Parameter_File>
/export/apps/rDock/src/rDock_2013.1_src/data/scripts/dock_solv.prm

>  <Rbt.Receptor>
prm/pocket_docking_4.prm

>  <SCORE>
-7.88106

>  <SCORE.INTER>
-6.27668

>  <SCORE.INTER.CONST>
1

>  <SCORE.INTER.POLAR>
0

>  <SCORE.INTER.ROT>
11

>  <SCORE.INTER.SOLV>
15.3212

>  <SCORE.INTER.VDW>
-20.2249

>  <SCORE.INTER.norm>
-0.448334

>  <SCORE.INTRA>
-1.60709

>  <SCORE.INTRA.DIHEDRAL>
-5.01682

>  <SCORE.INTRA.DIHEDRAL.0>
7.79482

>  <SCORE.INTRA.POLAR>
0

>  <SCORE.INTRA.POLAR.0>
0

>  <SCORE.INTRA.REPUL>
0

>  <SCORE.INTRA.REPUL.0>
0

>  <SCORE.INTRA.SOLV>
1.8629

>  <SCORE.INTRA.SOLV.lig_0>
-49.456

>  <SCORE.INTRA.VDW>
-0.0301218

>  <SCORE.INTRA.VDW.0>
-0.478406

>  <SCORE.INTRA.norm>
-0.114792

>  <SCORE.RESTR>
0.00270758

>  <SCORE.RESTR.CAVITY>
0.00270758

>  <SCORE.RESTR.norm>
0.000193399

>  <SCORE.SYSTEM>
0

>  <SCORE.SYSTEM.CONST>
0

>  <SCORE.SYSTEM.DIHEDRAL>
0

>  <SCORE.SYSTEM.SOLV>
0

>  <SCORE.SYSTEM.norm>
0

>  <SCORE.heavy>
14

>  <SCORE.norm>
-0.562933

>  <RMSD>
2.865

$$$$
ligand
 OpenBabel11021811413D
libRbt.so/2013.1/901 2013/11/27
 14 13  0  0  0  0  0  0  0  0999 V2000
   45.7919   -1.6439   14.1162 N   0  0  0  0  0  0  0  0  0  0  0  0
   45.3874   -0.4814   14.9361 C   0  0  0  0  0  0  0  0  0  0  0  0
   45.5575   -0.7748   16.4425 C   0  0  0  0  0  0  0  0  0  0  0  0
   45.1317    0.3749   17.3703 C   0  0  0  0  0  0  0  0  0  0  0  0
   45.9856    1.5760   17.1595 N   0  0  0  0  0  0  0  0  0  0  0  0
   46.3316    2.1955   18.4647 C   0  0  0  0  0  0  0  0  0  0  0  0
   45.8937    3.6884   18.6424 C   0  0  0  0  0  0  0  0  0  0  0  0
   46.2295    4.2869   20.0386 C   0  0  0  0  0  0  0  0  0  0  0  0
   45.7848    5.7256   20.2147 C   0  0  0  0  0  0  0  0  0  0  0  0
   46.5659    6.5416   19.3045 N   0  0  0  0  0  0  0  0  0  0  0  0
   46.2212    7.9192   19.6093 C   0  0  0  0  0  0  0  0  0  0  0  0
   46.6872    8.8670   18.5103 C   0  0  0  0  0  0  0  0  0  0  0  0
   46.2762   10.2898   18.9184 C   0  0  0  0  0  0  0  0  0  0  0  0
   46.5983   11.2804   17.8803 N   0  0  0  0  0  0  0  0  0  0  0  0
  1  2  1  0  0  0  0
  2  3  1  0  0  0  0
  3  4  1  0  0  0  0
  4  5  1  0  0  0  0
  5  6  1  0  0  0  0
  6  7  1  0  0  0  0
  7  8  1  0  0  0  0
  8  9  1  0  0  0  0
  9 10  1  0  0  0  0
 10 11  1  0  0  0  0
 11 12  1  0  0  0  0
 12 13  1  0  0  0  0
 13 14  1  0  0  0  0
M  END
>  <CHROM.1>
-178.83302641,-63.58079595,-138.25109039,-121.59508748,178.00904637,-179.09526402
-66.05743333,-173.72005624,-165.49836796,179.83450335,-176.12635141,46.03152171
4.27459007,17.97234900,-2.78904785,1.48510026,1.52208346

>  <Name>
ligand

>  <RI>
0

>  <Rbt.Current_Directory>
/home/itssahil/PROJECTS/Mol_Feturizer/New_Systems/rnas/1TN1

>  <Rbt.Executable>
rbdock ($Id: //depot/dev/client3/rdock/2013.1/src/exe/rbdock.cxx#4 $)

>  <Rbt.Library>
libRbt.so (2013.1, Build901 2013/11/27)

>  <Rbt.Parameter_File>
/export/apps/rDock/src/rDock_2013.1_src/data/scripts/dock_solv.prm

>  <Rbt.Receptor>
prm/pocket_docking_6.prm

>  <SCORE>
-10.1473

>  <SCORE.INTER>
-7.17116

>  <SCORE.INTER.CONST>
1

>  <SCORE.INTER.POLAR>
0

>  <SCORE.INTER.ROT>
11

>  <SCORE.INTER.SOLV>
10.7473

>  <SCORE.INTER.VDW>
-19.2965

>  <SCORE.INTER.norm>
-0.512226

>  <SCORE.INTRA>
-2.97609

>  <SCORE.INTRA.DIHEDRAL>
-5.18742

>  <SCORE.INTRA.DIHEDRAL.0>
7.79482

>  <SCORE.INTRA.POLAR>
0

>  <SCORE.INTRA.POLAR.0>
0

>  <SCORE.INTRA.REPUL>
0

>  <SCORE.INTRA.REPUL.0>
0

>  <SCORE.INTRA.SOLV>
0.653985

>  <SCORE.INTRA.SOLV.lig_0>
-49.456

>  <SCORE.INTRA.VDW>
-0.709374

>  <SCORE.INTRA.VDW.0>
-0.478406

>  <SCORE.INTRA.norm>
-0.212578

>  <SCORE.RESTR>
0

>  <SCORE.RESTR.CAVITY>
0

>  <SCORE.RESTR.norm>
0

>  <SCORE.SYSTEM>
0

>  <SCORE.SYSTEM.CONST>
0

>  <SCORE.SYSTEM.DIHEDRAL>
0

>  <SCORE.SYSTEM.SOLV>
0

>  <SCORE.SYSTEM.norm>
0

>  <SCORE.heavy>
14

>  <SCORE.norm>
-0.724804

>  <RMSD>
2.869

$$$$
ligand
 OpenBabel11021811413D
libRbt.so/2013.1/901 2013/11/27
 14 13  0  0  0  0  0  0  0  0999 V2000
   45.3667    0.6452   15.7782 N   0  0  0  0  0  0  0  0  0  0  0  0
   45.5306    0.0311   17.1136 C   0  0  0  0  0  0  0  0  0  0  0  0
   46.0952    1.0473   18.1297 C   0  0  0  0  0  0  0  0  0  0  0  0
   45.1793    2.2507   18.4073 C   0  0  0  0  0  0  0  0  0  0  0  0
   45.7721    3.1470   19.4377 N   0  0  0  0  0  0  0  0  0  0  0  0
   44.7452    4.0904   19.9496 C   0  0  0  0  0  0  0  0  0  0  0  0
   45.2461    5.1229   21.0151 C   0  0  0  0  0  0  0  0  0  0  0  0
   44.2296    6.2590   21.3254 C   0  0  0  0  0  0  0  0  0  0  0  0
   44.0014    7.2135   20.1697 C   0  0  0  0  0  0  0  0  0  0  0  0
   42.8567    8.0403   20.5020 N   0  0  0  0  0  0  0  0  0  0  0  0
   42.7108    8.9784   19.4028 C   0  0  0  0  0  0  0  0  0  0  0  0
   41.4706    9.8481   19.5727 C   0  0  0  0  0  0  0  0  0  0  0  0
   41.3956   10.7921   18.3631 C   0  0  0  0  0  0  0  0  0  0  0  0
   42.5516   11.6985   18.2934 N   0  0  0  0  0  0  0  0  0  0  0  0
  1  2  1  0  0  0  0
  2  3  1  0  0  0  0
  3  4  1  0  0  0  0
  4  5  1  0  0  0  0
  5  6  1  0  0  0  0
  6  7  1  0  0  0  0
  7  8  1  0  0  0  0
  8  9  1  0  0  0  0
  9 10  1  0  0  0  0
 10 11  1  0  0  0  0
 11 12  1  0  0  0  0
 12 13  1  0  0  0  0
 13 14  1  0  0  0  0
M  END
>  <CHROM.1>
63.49729287,177.57703555,-165.26398391,-178.31150299,168.88909131,-67.63789246
168.85601051,177.39736603,175.70432641,-179.48381501,-62.50128471,44.08223977
5.65451148,19.10455891,0.67298441,1.10341777,-2.13036908

>  <Name>
ligand

>  <RI>
0

>  <Rbt.Current_Directory>
/home/itssahil/PROJECTS/Mol_Feturizer/New_Systems/rnas/1TN1

>  <Rbt.Executable>
rbdock ($Id: //depot/dev/client3/rdock/2013.1/src/exe/rbdock.cxx#4 $)

>  <Rbt.Library>
libRbt.so (2013.1, Build901 2013/11/27)

>  <Rbt.Parameter_File>
/export/apps/rDock/src/rDock_2013.1_src/data/scripts/dock_solv.prm

>  <Rbt.Receptor>
prm/pocket_docking_6.prm

>  <SCORE>
-13.6441

>  <SCORE.INTER>
-10.9821

>  <SCORE.INTER.CONST>
1

>  <SCORE.INTER.POLAR>
0

>  <SCORE.INTER.ROT>
11

>  <SCORE.INTER.SOLV>
16.9512

>  <SCORE.INTER.VDW>
-23.9051

>  <SCORE.INTER.norm>
-0.784438

>  <SCORE.INTRA>
-2.66195

>  <SCORE.INTRA.DIHEDRAL>
-6.35675

>  <SCORE.INTRA.DIHEDRAL.0>
7.79482

>  <SCORE.INTRA.POLAR>
0

>  <SCORE.INTRA.POLAR.0>
0

>  <SCORE.INTRA.REPUL>
0

>  <SCORE.INTRA.REPUL.0>
0

>  <SCORE.INTRA.SOLV>
1.68077

>  <SCORE.INTRA.SOLV.lig_0>
-49.456

>  <SCORE.INTRA.VDW>
-0.323958

>  <SCORE.INTRA.VDW.0>
-0.478406

>  <SCORE.INTRA.norm>
-0.190139

>  <SCORE.RESTR>
0

>  <SCORE.RESTR.CAVITY>
0

>  <SCORE.RESTR.norm>
0

>  <SCORE.SYSTEM>
0

>  <SCORE.SYSTEM.CONST>
0

>  <SCORE.SYSTEM.DIHEDRAL>
0

>  <SCORE.SYSTEM.SOLV>
0

>  <SCORE.SYSTEM.norm>
0

>  <SCORE.heavy>
14

>  <SCORE.norm>
-0.974577

>  <RMSD>
2.881

$$$$
ligand
 OpenBabel11021811413D
libRbt.so/2013.1/901 2013/11/27
 14 13  0  0  0  0  0  0  0  0999 V2000
   45.6026   10.9635   17.7828 N   0  0  0  0  0  0  0  0  0  0  0  0
   46.3140   10.2292   18.8514 C   0  0  0  0  0  0  0  0  0  0  0  0
   45.7674    8.7930   19.0007 C   0  0  0  0  0  0  0  0  0  0  0  0
   46.4655    7.9518   20.0820 C   0  0  0  0  0  0  0  0  0  0  0  0
   45.9290    6.5633   20.1081 N   0  0  0  0  0  0  0  0  0  0  0  0
   44.7761    6.4759   21.0408 C   0  0  0  0  0  0  0  0  0  0  0  0
   43.6695    5.4378   20.6535 C   0  0  0  0  0  0  0  0  0  0  0  0
   44.1819    3.9725   20.5493 C   0  0  0  0  0  0  0  0  0  0  0  0
   45.1295    3.7328   19.3902 C   0  0  0  0  0  0  0  0  0  0  0  0
   45.3069    2.2992   19.2570 N   0  0  0  0  0  0  0  0  0  0  0  0
   46.4581    2.1195   18.3897 C   0  0  0  0  0  0  0  0  0  0  0  0
   46.0366    1.7400   16.9749 C   0  0  0  0  0  0  0  0  0  0  0  0
   45.3791    0.3532   17.0421 C   0  0  0  0  0  0  0  0  0  0  0  0
   45.0654   -0.1781   15.7072 N   0  0  0  0  0  0  0  0  0  0  0  0
  1  2  1  0  0  0  0
  2  3  1  0  0  0  0
  3  4  1  0  0  0  0
  4  5  1  0  0  0  0
  5  6  1  0  0  0  0
  6  7  1  0  0  0  0
  7  8  1  0  0  0  0
  8  9  1  0  0  0  0
  9 10  1  0  0  0  0
 10 11  1  0  0  0  0
 11 12  1  0  0  0  0
 12 13  1  0  0  0  0
 13 14  1  0  0  0  0
M  END
>  <CHROM.1>
179.28754558,-176.91795846,-89.82017103,148.20492456,59.43280248,-67.92935964
-168.74303857,-165.75586806,-102.73334292,-65.75037225,-173.71245480,45.43437978
5.03246726,18.91669340,-1.45589283,-1.20765639,-2.81321837

>  <Name>
ligand

>  <RI>
0

>  <Rbt.Current_Directory>
/home/itssahil/PROJECTS/Mol_Feturizer/New_Systems/rnas/1TN1

>  <Rbt.Executable>
rbdock ($Id: //depot/dev/client3/rdock/2013.1/src/exe/rbdock.cxx#4 $)

>  <Rbt.Library>
libRbt.so (2013.1, Build901 2013/11/27)

>  <Rbt.Parameter_File>
/export/apps/rDock/src/rDock_2013.1_src/data/scripts/dock_solv.prm

>  <Rbt.Receptor>
prm/pocket_docking_4.prm

>  <SCORE>
-7.0698

>  <SCORE.INTER>
-5.46916

>  <SCORE.INTER.CONST>
1

>  <SCORE.INTER.POLAR>
0

>  <SCORE.INTER.ROT>
11

>  <SCORE.INTER.SOLV>
12.7709

>  <SCORE.INTER.VDW>
-18.8364

>  <SCORE.INTER.norm>
-0.390654

>  <SCORE.INTRA>
-1.60064

>  <SCORE.INTRA.DIHEDRAL>
-4.37678

>  <SCORE.INTRA.DIHEDRAL.0>
7.79482

>  <SCORE.INTRA.POLAR>
0

>  <SCORE.INTRA.POLAR.0>
0

>  <SCORE.INTRA.REPUL>
0

>  <SCORE.INTRA.REPUL.0>
0

>  <SCORE.INTRA.SOLV>
1.31039

>  <SCORE.INTRA.SOLV.lig_0>
-49.456

>  <SCORE.INTRA.VDW>
-0.0674481

>  <SCORE.INTRA.VDW.0>
-0.478406

>  <SCORE.INTRA.norm>
-0.114331

>  <SCORE.RESTR>
0

>  <SCORE.RESTR.CAVITY>
0

>  <SCORE.RESTR.norm>
0

>  <SCORE.SYSTEM>
0

>  <SCORE.SYSTEM.CONST>
0

>  <SCORE.SYSTEM.DIHEDRAL>
0

>  <SCORE.SYSTEM.SOLV>
0

>  <SCORE.SYSTEM.norm>
0

>  <SCORE.heavy>
14

>  <SCORE.norm>
-0.504986

>  <RMSD>
2.883

$$$$
ligand
 OpenBabel11021811413D
libRbt.so/2013.1/901 2013/11/27
 14 13  0  0  0  0  0  0  0  0999 V2000
   45.3305   -1.8252   15.3953 N   0  0  0  0  0  0  0  0  0  0  0  0
   44.6208   -0.6402   14.8669 C   0  0  0  0  0  0  0  0  0  0  0  0
   45.2683    0.6682   15.3699 C   0  0  0  0  0  0  0  0  0  0  0  0
   45.1612    0.8930   16.8871 C   0  0  0  0  0  0  0  0  0  0  0  0
   45.8949    2.1214   17.2984 N   0  0  0  0  0  0  0  0  0  0  0  0
   45.4115    2.5889   18.6230 C   0  0  0  0  0  0  0  0  0  0  0  0
   45.8870    4.0182   19.0510 C   0  0  0  0  0  0  0  0  0  0  0  0
   45.3176    4.4939   20.4184 C   0  0  0  0  0  0  0  0  0  0  0  0
   45.6432    5.9366   20.7524 C   0  0  0  0  0  0  0  0  0  0  0  0
   44.8892    6.7790   19.8434 N   0  0  0  0  0  0  0  0  0  0  0  0
   45.6964    7.9696   19.6420 C   0  0  0  0  0  0  0  0  0  0  0  0
   44.8815    9.0969   19.0189 C   0  0  0  0  0  0  0  0  0  0  0  0
   45.8479   10.2479   18.7007 C   0  0  0  0  0  0  0  0  0  0  0  0
   46.8105    9.8901   17.6481 N   0  0  0  0  0  0  0  0  0  0  0  0
  1  2  1  0  0  0  0
  2  3  1  0  0  0  0
  3  4  1  0  0  0  0
  4  5  1  0  0  0  0
  5  6  1  0  0  0  0
  6  7  1  0  0  0  0
  7  8  1  0  0  0  0
  8  9  1  0  0  0  0
  9 10  1  0  0  0  0
 10 11  1  0  0  0  0
 11 12  1  0  0  0  0
 12 13  1  0  0  0  0
 13 14  1  0  0  0  0
M  END
>  <CHROM.1>
-65.44327717,175.82553816,160.28797176,-168.38130254,177.82213300,-173.06436887
69.43842194,-149.01572474,-164.69283411,-173.76096912,66.52542650,45.47563404
4.44566598,18.10846790,-2.10758427,1.46274963,0.88624405

>  <Name>
ligand

>  <RI>
0

>  <Rbt.Current_Directory>
/home/itssahil/PROJECTS/Mol_Feturizer/New_Systems/rnas/1TN1

>  <Rbt.Executable>
rbdock ($Id: //depot/dev/client3/rdock/2013.1/src/exe/rbdock.cxx#4 $)

>  <Rbt.Library>
libRbt.so (2013.1, Build901 2013/11/27)

>  <Rbt.Parameter_File>
/export/apps/rDock/src/rDock_2013.1_src/data/scripts/dock_solv.prm

>  <Rbt.Receptor>
prm/pocket_docking_3.prm

>  <SCORE>
-7.55005

>  <SCORE.INTER>
-5.06542

>  <SCORE.INTER.CONST>
1

>  <SCORE.INTER.POLAR>
0

>  <SCORE.INTER.ROT>
11

>  <SCORE.INTER.SOLV>
11.5314

>  <SCORE.INTER.VDW>
-18.1541

>  <SCORE.INTER.norm>
-0.361816

>  <SCORE.INTRA>
-2.48463

>  <SCORE.INTRA.DIHEDRAL>
-5.55122

>  <SCORE.INTRA.DIHEDRAL.0>
7.79482

>  <SCORE.INTRA.POLAR>
0

>  <SCORE.INTRA.POLAR.0>
0

>  <SCORE.INTRA.REPUL>
0

>  <SCORE.INTRA.REPUL.0>
0

>  <SCORE.INTRA.SOLV>
1.83979

>  <SCORE.INTRA.SOLV.lig_0>
-49.456

>  <SCORE.INTRA.VDW>
-0.628913

>  <SCORE.INTRA.VDW.0>
-0.478406

>  <SCORE.INTRA.norm>
-0.177474

>  <SCORE.RESTR>
0

>  <SCORE.RESTR.CAVITY>
0

>  <SCORE.RESTR.norm>
0

>  <SCORE.SYSTEM>
0

>  <SCORE.SYSTEM.CONST>
0

>  <SCORE.SYSTEM.DIHEDRAL>
0

>  <SCORE.SYSTEM.SOLV>
0

>  <SCORE.SYSTEM.norm>
0

>  <SCORE.heavy>
14

>  <SCORE.norm>
-0.539289

>  <RMSD>
2.903

$$$$
ligand
 OpenBabel11021811413D
libRbt.so/2013.1/901 2013/11/27
 14 13  0  0  0  0  0  0  0  0999 V2000
   46.5735    3.1970   14.6097 N   0  0  0  0  0  0  0  0  0  0  0  0
   46.5299    2.9509   16.0673 C   0  0  0  0  0  0  0  0  0  0  0  0
   45.8808    1.5861   16.3836 C   0  0  0  0  0  0  0  0  0  0  0  0
   45.7690    1.2628   17.8826 C   0  0  0  0  0  0  0  0  0  0  0  0
   44.8386    2.2040   18.5644 N   0  0  0  0  0  0  0  0  0  0  0  0
   45.6021    3.2999   19.2145 C   0  0  0  0  0  0  0  0  0  0  0  0
   44.7939    4.1799   20.2267 C   0  0  0  0  0  0  0  0  0  0  0  0
   45.6448    5.2676   20.9430 C   0  0  0  0  0  0  0  0  0  0  0  0
   46.1538    6.3576   20.0201 C   0  0  0  0  0  0  0  0  0  0  0  0
   45.0004    6.9870   19.4055 N   0  0  0  0  0  0  0  0  0  0  0  0
   44.7496    8.1943   20.1732 C   0  0  0  0  0  0  0  0  0  0  0  0
   43.6892    9.0661   19.5109 C   0  0  0  0  0  0  0  0  0  0  0  0
   44.3057    9.6589   18.2347 C   0  0  0  0  0  0  0  0  0  0  0  0
   45.4360   10.5530   18.5273 N   0  0  0  0  0  0  0  0  0  0  0  0
  1  2  1  0  0  0  0
  2  3  1  0  0  0  0
  3  4  1  0  0  0  0
  4  5  1  0  0  0  0
  5  6  1  0  0  0  0
  6  7  1  0  0  0  0
  7  8  1  0  0  0  0
  8  9  1  0  0  0  0
  9 10  1  0  0  0  0
 10 11  1  0  0  0  0
 11 12  1  0  0  0  0
 12 13  1  0  0  0  0
 13 14  1  0  0  0  0
M  END
>  <CHROM.1>
-178.79563250,65.52438523,-97.22097783,-166.98708485,176.90892192,66.80788880
58.92864229,98.45365833,171.49809518,-70.34446218,-63.94047403,45.35475654
5.34019600,18.55485605,-0.73730491,1.35266478,-0.49937712

>  <Name>
ligand

>  <RI>
0

>  <Rbt.Current_Directory>
/home/itssahil/PROJECTS/Mol_Feturizer/New_Systems/rnas/1TN1

>  <Rbt.Executable>
rbdock ($Id: //depot/dev/client3/rdock/2013.1/src/exe/rbdock.cxx#4 $)

>  <Rbt.Library>
libRbt.so (2013.1, Build901 2013/11/27)

>  <Rbt.Parameter_File>
/export/apps/rDock/src/rDock_2013.1_src/data/scripts/dock_solv.prm

>  <Rbt.Receptor>
prm/pocket_docking_4.prm

>  <SCORE>
-6.17161

>  <SCORE.INTER>
-5.391

>  <SCORE.INTER.CONST>
1

>  <SCORE.INTER.POLAR>
0

>  <SCORE.INTER.ROT>
11

>  <SCORE.INTER.SOLV>
10.2019

>  <SCORE.INTER.VDW>
-17.928

>  <SCORE.INTER.norm>
-0.385071

>  <SCORE.INTRA>
-0.780609

>  <SCORE.INTRA.DIHEDRAL>
-5.1174

>  <SCORE.INTRA.DIHEDRAL.0>
7.79482

>  <SCORE.INTRA.POLAR>
0

>  <SCORE.INTRA.POLAR.0>
0

>  <SCORE.INTRA.REPUL>
0

>  <SCORE.INTRA.REPUL.0>
0

>  <SCORE.INTRA.SOLV>
2.8033

>  <SCORE.INTRA.SOLV.lig_0>
-49.456

>  <SCORE.INTRA.VDW>
0.37644

>  <SCORE.INTRA.VDW.0>
-0.478406

>  <SCORE.INTRA.norm>
-0.0557578

>  <SCORE.RESTR>
0

>  <SCORE.RESTR.CAVITY>
0

>  <SCORE.RESTR.norm>
0

>  <SCORE.SYSTEM>
0

>  <SCORE.SYSTEM.CONST>
0

>  <SCORE.SYSTEM.DIHEDRAL>
0

>  <SCORE.SYSTEM.SOLV>
0

>  <SCORE.SYSTEM.norm>
0

>  <SCORE.heavy>
14

>  <SCORE.norm>
-0.440829

>  <RMSD>
2.906

$$$$
ligand
 OpenBabel11021811413D
libRbt.so/2013.1/901 2013/11/27
 14 13  0  0  0  0  0  0  0  0999 V2000
   41.6922   11.5369   18.8435 N   0  0  0  0  0  0  0  0  0  0  0  0
   42.7289   10.9014   18.0019 C   0  0  0  0  0  0  0  0  0  0  0  0
   43.5914    9.9201   18.8248 C   0  0  0  0  0  0  0  0  0  0  0  0
   42.8131    8.7464   19.4415 C   0  0  0  0  0  0  0  0  0  0  0  0
   43.7104    7.8764   20.2505 N   0  0  0  0  0  0  0  0  0  0  0  0
   42.9830    6.6589   20.6927 C   0  0  0  0  0  0  0  0  0  0  0  0
   43.7711    5.7145   21.6618 C   0  0  0  0  0  0  0  0  0  0  0  0
   45.1097    5.1787   21.0773 C   0  0  0  0  0  0  0  0  0  0  0  0
   44.9342    4.2158   19.9194 C   0  0  0  0  0  0  0  0  0  0  0  0
   46.2564    3.8232   19.4700 N   0  0  0  0  0  0  0  0  0  0  0  0
   46.0467    2.9703   18.3132 C   0  0  0  0  0  0  0  0  0  0  0  0
   45.9290    1.5047   18.7150 C   0  0  0  0  0  0  0  0  0  0  0  0
   45.6844    0.6902   17.4356 C   0  0  0  0  0  0  0  0  0  0  0  0
   44.4389    1.0807   16.7581 N   0  0  0  0  0  0  0  0  0  0  0  0
  1  2  1  0  0  0  0
  2  3  1  0  0  0  0
  3  4  1  0  0  0  0
  4  5  1  0  0  0  0
  5  6  1  0  0  0  0
  6  7  1  0  0  0  0
  7  8  1  0  0  0  0
  8  9  1  0  0  0  0
  9 10  1  0  0  0  0
 10 11  1  0  0  0  0
 11 12  1  0  0  0  0
 12 13  1  0  0  0  0
 13 14  1  0  0  0  0
M  END
>  <CHROM.1>
61.42633829,-178.21958017,-172.77244791,-174.74708321,-58.73188836,-67.92267139
179.06335878,-176.58035453,-90.50643733,178.97102501,-61.16439744,44.26362062
5.77261112,19.24341388,2.74541271,-1.20745666,1.25613477

>  <Name>
ligand

>  <RI>
0

>  <Rbt.Current_Directory>
/home/itssahil/PROJECTS/Mol_Feturizer/New_Systems/rnas/1TN1

>  <Rbt.Executable>
rbdock ($Id: //depot/dev/client3/rdock/2013.1/src/exe/rbdock.cxx#4 $)

>  <Rbt.Library>
libRbt.so (2013.1, Build901 2013/11/27)

>  <Rbt.Parameter_File>
/export/apps/rDock/src/rDock_2013.1_src/data/scripts/dock_solv.prm

>  <Rbt.Receptor>
prm/pocket_docking_7.prm

>  <SCORE>
-10.4755

>  <SCORE.INTER>
-8.3384

>  <SCORE.INTER.CONST>
1

>  <SCORE.INTER.POLAR>
0

>  <SCORE.INTER.ROT>
11

>  <SCORE.INTER.SOLV>
20.305

>  <SCORE.INTER.VDW>
-23.2606

>  <SCORE.INTER.norm>
-0.5956

>  <SCORE.INTRA>
-2.1371

>  <SCORE.INTRA.DIHEDRAL>
-6.80657

>  <SCORE.INTRA.DIHEDRAL.0>
7.79482

>  <SCORE.INTRA.POLAR>
0

>  <SCORE.INTRA.POLAR.0>
0

>  <SCORE.INTRA.REPUL>
0

>  <SCORE.INTRA.REPUL.0>
0

>  <SCORE.INTRA.SOLV>
2.3905

>  <SCORE.INTRA.SOLV.lig_0>
-49.456

>  <SCORE.INTRA.VDW>
0.07093

>  <SCORE.INTRA.VDW.0>
-0.478406

>  <SCORE.INTRA.norm>
-0.15265

>  <SCORE.RESTR>
0

>  <SCORE.RESTR.CAVITY>
0

>  <SCORE.RESTR.norm>
0

>  <SCORE.SYSTEM>
0

>  <SCORE.SYSTEM.CONST>
0

>  <SCORE.SYSTEM.DIHEDRAL>
0

>  <SCORE.SYSTEM.SOLV>
0

>  <SCORE.SYSTEM.norm>
0

>  <SCORE.heavy>
14

>  <SCORE.norm>
-0.748251

>  <RMSD>
2.920

$$$$
ligand
 OpenBabel11021811413D
libRbt.so/2013.1/901 2013/11/27
 14 13  0  0  0  0  0  0  0  0999 V2000
   47.1856   10.2823   17.0069 N   0  0  0  0  0  0  0  0  0  0  0  0
   46.4312    9.2547   17.7567 C   0  0  0  0  0  0  0  0  0  0  0  0
   46.6169    9.4267   19.2798 C   0  0  0  0  0  0  0  0  0  0  0  0
   45.8873    8.3784   20.1358 C   0  0  0  0  0  0  0  0  0  0  0  0
   46.3593    7.0035   19.8142 N   0  0  0  0  0  0  0  0  0  0  0  0
   45.6361    6.0054   20.6433 C   0  0  0  0  0  0  0  0  0  0  0  0
   46.0329    4.5099   20.4015 C   0  0  0  0  0  0  0  0  0  0  0  0
   45.7383    3.9996   18.9617 C   0  0  0  0  0  0  0  0  0  0  0  0
   46.0499    2.5304   18.7536 C   0  0  0  0  0  0  0  0  0  0  0  0
   45.6039    2.1711   17.4209 N   0  0  0  0  0  0  0  0  0  0  0  0
   45.6811    0.7223   17.3524 C   0  0  0  0  0  0  0  0  0  0  0  0
   45.4273    0.2165   15.9371 C   0  0  0  0  0  0  0  0  0  0  0  0
   45.6844   -1.2980   15.9317 C   0  0  0  0  0  0  0  0  0  0  0  0
   45.5522   -1.8792   14.5873 N   0  0  0  0  0  0  0  0  0  0  0  0
  1  2  1  0  0  0  0
  2  3  1  0  0  0  0
  3  4  1  0  0  0  0
  4  5  1  0  0  0  0
  5  6  1  0  0  0  0
  6  7  1  0  0  0  0
  7  8  1  0  0  0  0
  8  9  1  0  0  0  0
  9 10  1  0  0  0  0
 10 11  1  0  0  0  0
 11 12  1  0  0  0  0
 12 13  1  0  0  0  0
 13 14  1  0  0  0  0
M  END
>  <CHROM.1>
-178.80409839,59.77550336,-179.57751689,179.76118693,-62.48071812,-176.69433785
174.40041946,-169.41011775,-171.94947186,173.74732809,-176.29231606,45.99180764
4.38023813,18.14202786,-1.03212069,-1.39886326,-2.30661746

>  <Name>
ligand

>  <RI>
0

>  <Rbt.Current_Directory>
/home/itssahil/PROJECTS/Mol_Feturizer/New_Systems/rnas/1TN1

>  <Rbt.Executable>
rbdock ($Id: //depot/dev/client3/rdock/2013.1/src/exe/rbdock.cxx#4 $)

>  <Rbt.Library>
libRbt.so (2013.1, Build901 2013/11/27)

>  <Rbt.Parameter_File>
/export/apps/rDock/src/rDock_2013.1_src/data/scripts/dock_solv.prm

>  <Rbt.Receptor>
prm/pocket_docking_3.prm

>  <SCORE>
-11.5081

>  <SCORE.INTER>
-7.33846

>  <SCORE.INTER.CONST>
1

>  <SCORE.INTER.POLAR>
0

>  <SCORE.INTER.ROT>
11

>  <SCORE.INTER.SOLV>
10.9467

>  <SCORE.INTER.VDW>
-19.4745

>  <SCORE.INTER.norm>
-0.524176

>  <SCORE.INTRA>
-4.16961

>  <SCORE.INTRA.DIHEDRAL>
-7.26141

>  <SCORE.INTRA.DIHEDRAL.0>
7.79482

>  <SCORE.INTRA.POLAR>
0

>  <SCORE.INTRA.POLAR.0>
0

>  <SCORE.INTRA.REPUL>
0

>  <SCORE.INTRA.REPUL.0>
0

>  <SCORE.INTRA.SOLV>
0.605912

>  <SCORE.INTRA.SOLV.lig_0>
-49.456

>  <SCORE.INTRA.VDW>
-0.841859

>  <SCORE.INTRA.VDW.0>
-0.478406

>  <SCORE.INTRA.norm>
-0.297829

>  <SCORE.RESTR>
0

>  <SCORE.RESTR.CAVITY>
0

>  <SCORE.RESTR.norm>
0

>  <SCORE.SYSTEM>
0

>  <SCORE.SYSTEM.CONST>
0

>  <SCORE.SYSTEM.DIHEDRAL>
0

>  <SCORE.SYSTEM.SOLV>
0

>  <SCORE.SYSTEM.norm>
0

>  <SCORE.heavy>
14

>  <SCORE.norm>
-0.822005

>  <RMSD>
2.924

$$$$
ligand
 OpenBabel11021811413D
libRbt.so/2013.1/901 2013/11/27
 14 13  0  0  0  0  0  0  0  0999 V2000
   43.8650   10.5876   17.9588 N   0  0  0  0  0  0  0  0  0  0  0  0
   44.3090    9.5455   18.9096 C   0  0  0  0  0  0  0  0  0  0  0  0
   43.1175    8.6972   19.4043 C   0  0  0  0  0  0  0  0  0  0  0  0
   43.4867    7.6105   20.4274 C   0  0  0  0  0  0  0  0  0  0  0  0
   44.5144    6.6849   19.8764 N   0  0  0  0  0  0  0  0  0  0  0  0
   44.7304    5.5460   20.8054 C   0  0  0  0  0  0  0  0  0  0  0  0
   44.8992    4.1437   20.1292 C   0  0  0  0  0  0  0  0  0  0  0  0
   46.1193    4.0444   19.1691 C   0  0  0  0  0  0  0  0  0  0  0  0
   46.3265    2.6636   18.5779 C   0  0  0  0  0  0  0  0  0  0  0  0
   45.1810    2.3688   17.7382 N   0  0  0  0  0  0  0  0  0  0  0  0
   45.5271    1.1661   17.0009 C   0  0  0  0  0  0  0  0  0  0  0  0
   44.4268    0.7771   16.0204 C   0  0  0  0  0  0  0  0  0  0  0  0
   44.9158   -0.4499   15.2360 C   0  0  0  0  0  0  0  0  0  0  0  0
   46.0240   -0.1224   14.3264 N   0  0  0  0  0  0  0  0  0  0  0  0
  1  2  1  0  0  0  0
  2  3  1  0  0  0  0
  3  4  1  0  0  0  0
  4  5  1  0  0  0  0
  5  6  1  0  0  0  0
  6  7  1  0  0  0  0
  7  8  1  0  0  0  0
  8  9  1  0  0  0  0
  9 10  1  0  0  0  0
 10 11  1  0  0  0  0
 11 12  1  0  0  0  0
 12 13  1  0  0  0  0
 13 14  1  0  0  0  0
M  END
>  <CHROM.1>
-178.49237131,-57.25289255,-172.76335246,139.30678486,60.98301217,176.67001882
64.71320631,169.60368824,-177.26372948,176.80617989,-68.93599432,44.81731474
4.51864796,18.25603938,2.22885629,-1.29882784,1.03976361

>  <Name>
ligand

>  <RI>
0

>  <Rbt.Current_Directory>
/home/itssahil/PROJECTS/Mol_Feturizer/New_Systems/rnas/1TN1

>  <Rbt.Executable>
rbdock ($Id: //depot/dev/client3/rdock/2013.1/src/exe/rbdock.cxx#4 $)

>  <Rbt.Library>
libRbt.so (2013.1, Build901 2013/11/27)

>  <Rbt.Parameter_File>
/export/apps/rDock/src/rDock_2013.1_src/data/scripts/dock_solv.prm

>  <Rbt.Receptor>
prm/pocket_docking_4.prm

>  <SCORE>
-9.68384

>  <SCORE.INTER>
-6.8641

>  <SCORE.INTER.CONST>
1

>  <SCORE.INTER.POLAR>
0

>  <SCORE.INTER.ROT>
11

>  <SCORE.INTER.SOLV>
12.045

>  <SCORE.INTER.VDW>
-19.5244

>  <SCORE.INTER.norm>
-0.490293

>  <SCORE.INTRA>
-2.82454

>  <SCORE.INTRA.DIHEDRAL>
-6.23483

>  <SCORE.INTRA.DIHEDRAL.0>
7.79482

>  <SCORE.INTRA.POLAR>
0

>  <SCORE.INTRA.POLAR.0>
0

>  <SCORE.INTRA.REPUL>
0

>  <SCORE.INTRA.REPUL.0>
0

>  <SCORE.INTRA.SOLV>
1.78154

>  <SCORE.INTRA.SOLV.lig_0>
-49.456

>  <SCORE.INTRA.VDW>
-0.597898

>  <SCORE.INTRA.VDW.0>
-0.478406

>  <SCORE.INTRA.norm>
-0.201753

>  <SCORE.RESTR>
0.00480032

>  <SCORE.RESTR.CAVITY>
0.00480032

>  <SCORE.RESTR.norm>
0.00034288

>  <SCORE.SYSTEM>
0

>  <SCORE.SYSTEM.CONST>
0

>  <SCORE.SYSTEM.DIHEDRAL>
0

>  <SCORE.SYSTEM.SOLV>
0

>  <SCORE.SYSTEM.norm>
0

>  <SCORE.heavy>
14

>  <SCORE.norm>
-0.691703

>  <RMSD>
2.924

$$$$
ligand
 OpenBabel11021811413D
libRbt.so/2013.1/901 2013/11/27
 14 13  0  0  0  0  0  0  0  0999 V2000
   45.5148   10.5241   17.6101 N   0  0  0  0  0  0  0  0  0  0  0  0
   45.3222    9.4657   18.6249 C   0  0  0  0  0  0  0  0  0  0  0  0
   46.6758    8.9691   19.1771 C   0  0  0  0  0  0  0  0  0  0  0  0
   46.5664    7.8652   20.2418 C   0  0  0  0  0  0  0  0  0  0  0  0
   45.9885    6.6208   19.6639 N   0  0  0  0  0  0  0  0  0  0  0  0
   45.9094    5.5613   20.7022 C   0  0  0  0  0  0  0  0  0  0  0  0
   45.0564    4.3041   20.3224 C   0  0  0  0  0  0  0  0  0  0  0  0
   45.6536    3.4586   19.1611 C   0  0  0  0  0  0  0  0  0  0  0  0
   44.8519    2.2151   18.8295 C   0  0  0  0  0  0  0  0  0  0  0  0
   45.4533    1.6035   17.6597 N   0  0  0  0  0  0  0  0  0  0  0  0
   44.3792    0.8980   16.9828 C   0  0  0  0  0  0  0  0  0  0  0  0
   44.8394    0.3341   15.6436 C   0  0  0  0  0  0  0  0  0  0  0  0
   45.6881   -0.9136   15.9317 C   0  0  0  0  0  0  0  0  0  0  0  0
   46.1988   -1.5345   14.7003 N   0  0  0  0  0  0  0  0  0  0  0  0
  1  2  1  0  0  0  0
  2  3  1  0  0  0  0
  3  4  1  0  0  0  0
  4  5  1  0  0  0  0
  5  6  1  0  0  0  0
  6  7  1  0  0  0  0
  7  8  1  0  0  0  0
  8  9  1  0  0  0  0
  9 10  1  0  0  0  0
 10 11  1  0  0  0  0
 11 12  1  0  0  0  0
 12 13  1  0  0  0  0
 13 14  1  0  0  0  0
M  END
>  <CHROM.1>
179.95321306,64.92866252,179.17682248,167.83612333,66.29705951,177.90329153
174.77710507,-151.86750084,173.59858192,76.16050332,-179.42529109,45.57833484
4.24079837,18.23255169,-0.36206342,-1.50651517,-1.60404998

>  <Name>
ligand

>  <RI>
0

>  <Rbt.Current_Directory>
/home/itssahil/PROJECTS/Mol_Feturizer/New_Systems/rnas/1TN1

>  <Rbt.Executable>
rbdock ($Id: //depot/dev/client3/rdock/2013.1/src/exe/rbdock.cxx#4 $)

>  <Rbt.Library>
libRbt.so (2013.1, Build901 2013/11/27)

>  <Rbt.Parameter_File>
/export/apps/rDock/src/rDock_2013.1_src/data/scripts/dock_solv.prm

>  <Rbt.Receptor>
prm/pocket_docking_4.prm

>  <SCORE>
-10.29

>  <SCORE.INTER>
-6.97939

>  <SCORE.INTER.CONST>
1

>  <SCORE.INTER.POLAR>
0

>  <SCORE.INTER.ROT>
11

>  <SCORE.INTER.SOLV>
11.8593

>  <SCORE.INTER.VDW>
-19.5393

>  <SCORE.INTER.norm>
-0.498528

>  <SCORE.INTRA>
-3.31059

>  <SCORE.INTRA.DIHEDRAL>
-5.80901

>  <SCORE.INTRA.DIHEDRAL.0>
7.79482

>  <SCORE.INTRA.POLAR>
0

>  <SCORE.INTRA.POLAR.0>
0

>  <SCORE.INTRA.REPUL>
0

>  <SCORE.INTRA.REPUL.0>
0

>  <SCORE.INTRA.SOLV>
0.859058

>  <SCORE.INTRA.SOLV.lig_0>
-49.456

>  <SCORE.INTRA.VDW>
-0.835617

>  <SCORE.INTRA.VDW.0>
-0.478406

>  <SCORE.INTRA.norm>
-0.236471

>  <SCORE.RESTR>
0

>  <SCORE.RESTR.CAVITY>
0

>  <SCORE.RESTR.norm>
0

>  <SCORE.SYSTEM>
0

>  <SCORE.SYSTEM.CONST>
0

>  <SCORE.SYSTEM.DIHEDRAL>
0

>  <SCORE.SYSTEM.SOLV>
0

>  <SCORE.SYSTEM.norm>
0

>  <SCORE.heavy>
14

>  <SCORE.norm>
-0.734999

>  <RMSD>
2.927

$$$$
ligand
 OpenBabel11021811413D
libRbt.so/2013.1/901 2013/11/27
 14 13  0  0  0  0  0  0  0  0999 V2000
   42.4576   11.2296   17.6118 N   0  0  0  0  0  0  0  0  0  0  0  0
   41.5005   10.9129   18.6938 C   0  0  0  0  0  0  0  0  0  0  0  0
   41.5889    9.4256   19.0992 C   0  0  0  0  0  0  0  0  0  0  0  0
   42.9754    8.9774   19.5897 C   0  0  0  0  0  0  0  0  0  0  0  0
   42.9799    7.5274   19.9271 N   0  0  0  0  0  0  0  0  0  0  0  0
   44.2366    7.1684   20.6332 C   0  0  0  0  0  0  0  0  0  0  0  0
   44.1636    5.8925   21.5381 C   0  0  0  0  0  0  0  0  0  0  0  0
   43.9963    4.5626   20.7483 C   0  0  0  0  0  0  0  0  0  0  0  0
   45.1958    4.1980   19.8956 C   0  0  0  0  0  0  0  0  0  0  0  0
   44.9273    2.9083   19.2881 N   0  0  0  0  0  0  0  0  0  0  0  0
   46.1732    2.4937   18.6672 C   0  0  0  0  0  0  0  0  0  0  0  0
   46.0323    1.1378   17.9853 C   0  0  0  0  0  0  0  0  0  0  0  0
   45.1554    1.3333   16.7392 C   0  0  0  0  0  0  0  0  0  0  0  0
   45.0260    0.0981   15.9516 N   0  0  0  0  0  0  0  0  0  0  0  0
  1  2  1  0  0  0  0
  2  3  1  0  0  0  0
  3  4  1  0  0  0  0
  4  5  1  0  0  0  0
  5  6  1  0  0  0  0
  6  7  1  0  0  0  0
  7  8  1  0  0  0  0
  8  9  1  0  0  0  0
  9 10  1  0  0  0  0
 10 11  1  0  0  0  0
 11 12  1  0  0  0  0
 12 13  1  0  0  0  0
 13 14  1  0  0  0  0
M  END
>  <CHROM.1>
58.88025621,-178.61551634,-169.40683828,156.33379001,68.46722840,66.57583134
176.68697604,-170.75840942,179.93407043,70.92136992,176.21938195,44.02927466
5.56187763,19.02663557,2.58455865,-1.14791665,1.12851220

>  <Name>
ligand

>  <RI>
0

>  <Rbt.Current_Directory>
/home/itssahil/PROJECTS/Mol_Feturizer/New_Systems/rnas/1TN1

>  <Rbt.Executable>
rbdock ($Id: //depot/dev/client3/rdock/2013.1/src/exe/rbdock.cxx#4 $)

>  <Rbt.Library>
libRbt.so (2013.1, Build901 2013/11/27)

>  <Rbt.Parameter_File>
/export/apps/rDock/src/rDock_2013.1_src/data/scripts/dock_solv.prm

>  <Rbt.Receptor>
prm/blind_docking_80.prm

>  <SCORE>
-13.1215

>  <SCORE.INTER>
-10.3344

>  <SCORE.INTER.CONST>
1

>  <SCORE.INTER.POLAR>
0

>  <SCORE.INTER.ROT>
11

>  <SCORE.INTER.SOLV>
17.9512

>  <SCORE.INTER.VDW>
-23.8067

>  <SCORE.INTER.norm>
-0.738169

>  <SCORE.INTRA>
-2.7871

>  <SCORE.INTRA.DIHEDRAL>
-6.2385

>  <SCORE.INTRA.DIHEDRAL.0>
7.79482

>  <SCORE.INTRA.POLAR>
0

>  <SCORE.INTRA.POLAR.0>
0

>  <SCORE.INTRA.REPUL>
0

>  <SCORE.INTRA.REPUL.0>
0

>  <SCORE.INTRA.SOLV>
1.60349

>  <SCORE.INTRA.SOLV.lig_0>
-49.456

>  <SCORE.INTRA.VDW>
-0.469599

>  <SCORE.INTRA.VDW.0>
-0.478406

>  <SCORE.INTRA.norm>
-0.199079

>  <SCORE.RESTR>
0

>  <SCORE.RESTR.CAVITY>
0

>  <SCORE.RESTR.norm>
0

>  <SCORE.SYSTEM>
0

>  <SCORE.SYSTEM.CONST>
0

>  <SCORE.SYSTEM.DIHEDRAL>
0

>  <SCORE.SYSTEM.SOLV>
0

>  <SCORE.SYSTEM.norm>
0

>  <SCORE.heavy>
14

>  <SCORE.norm>
-0.937248

>  <RMSD>
2.945

$$$$
ligand
 OpenBabel11021811413D
libRbt.so/2013.1/901 2013/11/27
 14 13  0  0  0  0  0  0  0  0999 V2000
   46.1585   10.3850   17.6059 N   0  0  0  0  0  0  0  0  0  0  0  0
   47.3868    9.5711   17.7321 C   0  0  0  0  0  0  0  0  0  0  0  0
   47.1027    8.2421   18.4649 C   0  0  0  0  0  0  0  0  0  0  0  0
   46.5563    8.4030   19.8930 C   0  0  0  0  0  0  0  0  0  0  0  0
   46.5159    7.0937   20.6005 N   0  0  0  0  0  0  0  0  0  0  0  0
   45.1302    6.5584   20.6111 C   0  0  0  0  0  0  0  0  0  0  0  0
   45.0074    4.9977   20.5748 C   0  0  0  0  0  0  0  0  0  0  0  0
   45.6518    4.3390   19.3213 C   0  0  0  0  0  0  0  0  0  0  0  0
   45.3513    2.8595   19.1804 C   0  0  0  0  0  0  0  0  0  0  0  0
   45.9774    2.3987   17.9557 N   0  0  0  0  0  0  0  0  0  0  0  0
   45.9897    0.9485   18.0362 C   0  0  0  0  0  0  0  0  0  0  0  0
   45.0708    0.3242   16.9926 C   0  0  0  0  0  0  0  0  0  0  0  0
   45.7123    0.5484   15.6148 C   0  0  0  0  0  0  0  0  0  0  0  0
   44.9280   -0.0619   14.5309 N   0  0  0  0  0  0  0  0  0  0  0  0
  1  2  1  0  0  0  0
  2  3  1  0  0  0  0
  3  4  1  0  0  0  0
  4  5  1  0  0  0  0
  5  6  1  0  0  0  0
  6  7  1  0  0  0  0
  7  8  1  0  0  0  0
  8  9  1  0  0  0  0
  9 10  1  0  0  0  0
 10 11  1  0  0  0  0
 11 12  1  0  0  0  0
 12 13  1  0  0  0  0
 13 14  1  0  0  0  0
M  END
>  <CHROM.1>
-59.99852227,-170.95584487,-101.61730225,148.08014825,-59.65351641,-171.20074908
178.23667806,164.77510199,112.86298607,70.05509618,177.88187859,45.89565105
4.75759433,18.36556831,-0.96092226,-1.33782194,-2.24572542

>  <Name>
ligand

>  <RI>
0

>  <Rbt.Current_Directory>
/home/itssahil/PROJECTS/Mol_Feturizer/New_Systems/rnas/1TN1

>  <Rbt.Executable>
rbdock ($Id: //depot/dev/client3/rdock/2013.1/src/exe/rbdock.cxx#4 $)

>  <Rbt.Library>
libRbt.so (2013.1, Build901 2013/11/27)

>  <Rbt.Parameter_File>
/export/apps/rDock/src/rDock_2013.1_src/data/scripts/dock_solv.prm

>  <Rbt.Receptor>
prm/blind_docking_80.prm

>  <SCORE>
-7.88742

>  <SCORE.INTER>
-6.06268

>  <SCORE.INTER.CONST>
1

>  <SCORE.INTER.POLAR>
0

>  <SCORE.INTER.ROT>
11

>  <SCORE.INTER.SOLV>
12.1222

>  <SCORE.INTER.VDW>
-19.0158

>  <SCORE.INTER.norm>
-0.433049

>  <SCORE.INTRA>
-1.82473

>  <SCORE.INTRA.DIHEDRAL>
-3.82666

>  <SCORE.INTRA.DIHEDRAL.0>
7.79482

>  <SCORE.INTRA.POLAR>
0

>  <SCORE.INTRA.POLAR.0>
0

>  <SCORE.INTRA.REPUL>
0

>  <SCORE.INTRA.REPUL.0>
0

>  <SCORE.INTRA.SOLV>
1.35443

>  <SCORE.INTRA.SOLV.lig_0>
-49.456

>  <SCORE.INTRA.VDW>
-0.588619

>  <SCORE.INTRA.VDW.0>
-0.478406

>  <SCORE.INTRA.norm>
-0.130338

>  <SCORE.RESTR>
0

>  <SCORE.RESTR.CAVITY>
0

>  <SCORE.RESTR.norm>
0

>  <SCORE.SYSTEM>
0

>  <SCORE.SYSTEM.CONST>
0

>  <SCORE.SYSTEM.DIHEDRAL>
0

>  <SCORE.SYSTEM.SOLV>
0

>  <SCORE.SYSTEM.norm>
0

>  <SCORE.heavy>
14

>  <SCORE.norm>
-0.563387

>  <RMSD>
2.946

$$$$
ligand
 OpenBabel11021811413D
libRbt.so/2013.1/901 2013/11/27
 14 13  0  0  0  0  0  0  0  0999 V2000
   46.5113   -1.0017   15.3865 N   0  0  0  0  0  0  0  0  0  0  0  0
   45.0634   -0.8427   15.6426 C   0  0  0  0  0  0  0  0  0  0  0  0
   44.7685    0.4847   16.3739 C   0  0  0  0  0  0  0  0  0  0  0  0
   45.5737    0.6956   17.6667 C   0  0  0  0  0  0  0  0  0  0  0  0
   44.7685    1.4247   18.6848 N   0  0  0  0  0  0  0  0  0  0  0  0
   44.9312    2.8914   18.5138 C   0  0  0  0  0  0  0  0  0  0  0  0
   46.2810    3.4881   19.0374 C   0  0  0  0  0  0  0  0  0  0  0  0
   46.1085    4.6322   20.0775 C   0  0  0  0  0  0  0  0  0  0  0  0
   45.5132    5.9025   19.5022 C   0  0  0  0  0  0  0  0  0  0  0  0
   46.4368    6.4078   18.5043 N   0  0  0  0  0  0  0  0  0  0  0  0
   47.0428    7.5925   19.0865 C   0  0  0  0  0  0  0  0  0  0  0  0
   47.9783    8.2823   18.1004 C   0  0  0  0  0  0  0  0  0  0  0  0
   47.1091    8.9446   17.0207 C   0  0  0  0  0  0  0  0  0  0  0  0
   46.3611   10.0991   17.5408 N   0  0  0  0  0  0  0  0  0  0  0  0
  1  2  1  0  0  0  0
  2  3  1  0  0  0  0
  3  4  1  0  0  0  0
  4  5  1  0  0  0  0
  5  6  1  0  0  0  0
  6  7  1  0  0  0  0
  7  8  1  0  0  0  0
  8  9  1  0  0  0  0
  9 10  1  0  0  0  0
 10 11  1  0  0  0  0
 11 12  1  0  0  0  0
 12 13  1  0  0  0  0
 13 14  1  0  0  0  0
M  END
>  <CHROM.1>
-53.63252787,-145.43782779,-88.16144142,-76.31808693,-124.01442367,-68.05733252
-62.86111339,-108.07903102,-176.33302491,71.81821644,70.12822263,46.03196470
4.21435318,17.93860116,-2.13975924,1.24449883,0.72802834

>  <Name>
ligand

>  <RI>
0

>  <Rbt.Current_Directory>
/home/itssahil/PROJECTS/Mol_Feturizer/New_Systems/rnas/1TN1

>  <Rbt.Executable>
rbdock ($Id: //depot/dev/client3/rdock/2013.1/src/exe/rbdock.cxx#4 $)

>  <Rbt.Library>
libRbt.so (2013.1, Build901 2013/11/27)

>  <Rbt.Parameter_File>
/export/apps/rDock/src/rDock_2013.1_src/data/scripts/dock_solv.prm

>  <Rbt.Receptor>
prm/pocket_docking_2.prm

>  <SCORE>
0.945605

>  <SCORE.INTER>
-3.24571

>  <SCORE.INTER.CONST>
1

>  <SCORE.INTER.POLAR>
0

>  <SCORE.INTER.ROT>
11

>  <SCORE.INTER.SOLV>
14.1504

>  <SCORE.INTER.VDW>
-17.8139

>  <SCORE.INTER.norm>
-0.231836

>  <SCORE.INTRA>
4.17727

>  <SCORE.INTRA.DIHEDRAL>
4.26575

>  <SCORE.INTRA.DIHEDRAL.0>
7.79482

>  <SCORE.INTRA.POLAR>
0

>  <SCORE.INTRA.POLAR.0>
0

>  <SCORE.INTRA.REPUL>
0

>  <SCORE.INTRA.REPUL.0>
0

>  <SCORE.INTRA.SOLV>
2.99282

>  <SCORE.INTRA.SOLV.lig_0>
-49.456

>  <SCORE.INTRA.VDW>
0.547987

>  <SCORE.INTRA.VDW.0>
-0.478406

>  <SCORE.INTRA.norm>
0.298377

>  <SCORE.RESTR>
0.0140391

>  <SCORE.RESTR.CAVITY>
0.0140391

>  <SCORE.RESTR.norm>
0.00100279

>  <SCORE.SYSTEM>
0

>  <SCORE.SYSTEM.CONST>
0

>  <SCORE.SYSTEM.DIHEDRAL>
0

>  <SCORE.SYSTEM.SOLV>
0

>  <SCORE.SYSTEM.norm>
0

>  <SCORE.heavy>
14

>  <SCORE.norm>
0.0675432

>  <RMSD>
2.964

$$$$
ligand
 OpenBabel11021811413D
libRbt.so/2013.1/901 2013/11/27
 14 13  0  0  0  0  0  0  0  0999 V2000
   45.9291   -1.6801   14.1915 N   0  0  0  0  0  0  0  0  0  0  0  0
   45.6352   -1.1408   15.5369 C   0  0  0  0  0  0  0  0  0  0  0  0
   44.7769    0.1396   15.4496 C   0  0  0  0  0  0  0  0  0  0  0  0
   44.4015    0.7523   16.8089 C   0  0  0  0  0  0  0  0  0  0  0  0
   45.6078    1.2635   17.5160 N   0  0  0  0  0  0  0  0  0  0  0  0
   45.2110    1.9836   18.7532 C   0  0  0  0  0  0  0  0  0  0  0  0
   45.8791    3.3839   18.9649 C   0  0  0  0  0  0  0  0  0  0  0  0
   45.2854    4.1983   20.1502 C   0  0  0  0  0  0  0  0  0  0  0  0
   45.9723    5.5288   20.3881 C   0  0  0  0  0  0  0  0  0  0  0  0
   45.7713    6.3447   19.2055 N   0  0  0  0  0  0  0  0  0  0  0  0
   46.3487    7.6413   19.5138 C   0  0  0  0  0  0  0  0  0  0  0  0
   45.6918    8.7515   18.7018 C   0  0  0  0  0  0  0  0  0  0  0  0
   46.3439   10.0791   19.1171 C   0  0  0  0  0  0  0  0  0  0  0  0
   45.7545   11.2303   18.4171 N   0  0  0  0  0  0  0  0  0  0  0  0
  1  2  1  0  0  0  0
  2  3  1  0  0  0  0
  3  4  1  0  0  0  0
  4  5  1  0  0  0  0
  5  6  1  0  0  0  0
  6  7  1  0  0  0  0
  7  8  1  0  0  0  0
  8  9  1  0  0  0  0
  9 10  1  0  0  0  0
 10 11  1  0  0  0  0
 11 12  1  0  0  0  0
 12 13  1  0  0  0  0
 13 14  1  0  0  0  0
M  END
>  <CHROM.1>
178.86897910,66.24062555,173.75346612,-132.12744394,171.29586254,177.62172519
62.90308908,175.57585491,-153.83425234,178.78696593,-178.39297678,45.61482578
4.17681736,18.05133044,-2.62955974,1.49789852,1.39379502

>  <Name>
ligand

>  <RI>
0

>  <Rbt.Current_Directory>
/home/itssahil/PROJECTS/Mol_Feturizer/New_Systems/rnas/1TN1

>  <Rbt.Executable>
rbdock ($Id: //depot/dev/client3/rdock/2013.1/src/exe/rbdock.cxx#4 $)

>  <Rbt.Library>
libRbt.so (2013.1, Build901 2013/11/27)

>  <Rbt.Parameter_File>
/export/apps/rDock/src/rDock_2013.1_src/data/scripts/dock_solv.prm

>  <Rbt.Receptor>
prm/pocket_docking_5.prm

>  <SCORE>
-9.80503

>  <SCORE.INTER>
-6.59534

>  <SCORE.INTER.CONST>
1

>  <SCORE.INTER.POLAR>
0

>  <SCORE.INTER.ROT>
11

>  <SCORE.INTER.SOLV>
10.9404

>  <SCORE.INTER.VDW>
-18.977

>  <SCORE.INTER.norm>
-0.471096

>  <SCORE.INTRA>
-3.20968

>  <SCORE.INTRA.DIHEDRAL>
-5.68016

>  <SCORE.INTRA.DIHEDRAL.0>
7.79482

>  <SCORE.INTRA.POLAR>
0

>  <SCORE.INTRA.POLAR.0>
0

>  <SCORE.INTRA.REPUL>
0

>  <SCORE.INTRA.REPUL.0>
0

>  <SCORE.INTRA.SOLV>
0.659847

>  <SCORE.INTRA.SOLV.lig_0>
-49.456

>  <SCORE.INTRA.VDW>
-0.699528

>  <SCORE.INTRA.VDW.0>
-0.478406

>  <SCORE.INTRA.norm>
-0.229263

>  <SCORE.RESTR>
0

>  <SCORE.RESTR.CAVITY>
0

>  <SCORE.RESTR.norm>
0

>  <SCORE.SYSTEM>
0

>  <SCORE.SYSTEM.CONST>
0

>  <SCORE.SYSTEM.DIHEDRAL>
0

>  <SCORE.SYSTEM.SOLV>
0

>  <SCORE.SYSTEM.norm>
0

>  <SCORE.heavy>
14

>  <SCORE.norm>
-0.700359

>  <RMSD>
2.965

$$$$
ligand
 OpenBabel11021811413D
libRbt.so/2013.1/901 2013/11/27
 14 13  0  0  0  0  0  0  0  0999 V2000
   46.0615   10.4687   17.8666 N   0  0  0  0  0  0  0  0  0  0  0  0
   45.9511    9.0644   18.3170 C   0  0  0  0  0  0  0  0  0  0  0  0
   46.3807    8.9163   19.7926 C   0  0  0  0  0  0  0  0  0  0  0  0
   46.3395    7.4762   20.3296 C   0  0  0  0  0  0  0  0  0  0  0  0
   44.9542    6.9322   20.2946 N   0  0  0  0  0  0  0  0  0  0  0  0
   44.8773    5.6725   21.0782 C   0  0  0  0  0  0  0  0  0  0  0  0
   44.9079    4.3507   20.2391 C   0  0  0  0  0  0  0  0  0  0  0  0
   46.1149    4.2458   19.2631 C   0  0  0  0  0  0  0  0  0  0  0  0
   46.3686    2.8431   18.7464 C   0  0  0  0  0  0  0  0  0  0  0  0
   45.2145    2.4487   17.9610 N   0  0  0  0  0  0  0  0  0  0  0  0
   45.3622    1.0232   17.7246 C   0  0  0  0  0  0  0  0  0  0  0  0
   45.2008    0.6833   16.2475 C   0  0  0  0  0  0  0  0  0  0  0  0
   45.5007   -0.8140   16.0798 C   0  0  0  0  0  0  0  0  0  0  0  0
   45.3854   -1.2503   14.6801 N   0  0  0  0  0  0  0  0  0  0  0  0
  1  2  1  0  0  0  0
  2  3  1  0  0  0  0
  3  4  1  0  0  0  0
  4  5  1  0  0  0  0
  5  6  1  0  0  0  0
  6  7  1  0  0  0  0
  7  8  1  0  0  0  0
  8  9  1  0  0  0  0
  9 10  1  0  0  0  0
 10 11  1  0  0  0  0
 11 12  1  0  0  0  0
 12 13  1  0  0  0  0
 13 14  1  0  0  0  0
M  END
>  <CHROM.1>
-178.11512326,-62.20777592,-167.72471594,-100.45002928,53.44670962,163.77419388
63.97003487,-168.27831448,-129.49916337,174.85752581,-179.47716691,45.61574756
4.43283304,18.47318579,-1.24797824,-1.40515075,-2.47129149

>  <Name>
ligand

>  <RI>
0

>  <Rbt.Current_Directory>
/home/itssahil/PROJECTS/Mol_Feturizer/New_Systems/rnas/1TN1

>  <Rbt.Executable>
rbdock ($Id: //depot/dev/client3/rdock/2013.1/src/exe/rbdock.cxx#4 $)

>  <Rbt.Library>
libRbt.so (2013.1, Build901 2013/11/27)

>  <Rbt.Parameter_File>
/export/apps/rDock/src/rDock_2013.1_src/data/scripts/dock_solv.prm

>  <Rbt.Receptor>
prm/pocket_docking_8.prm

>  <SCORE>
-10.0249

>  <SCORE.INTER>
-7.76884

>  <SCORE.INTER.CONST>
1

>  <SCORE.INTER.POLAR>
0

>  <SCORE.INTER.ROT>
11

>  <SCORE.INTER.SOLV>
10.7911

>  <SCORE.INTER.VDW>
-19.7096

>  <SCORE.INTER.norm>
-0.554917

>  <SCORE.INTRA>
-2.2561

>  <SCORE.INTRA.DIHEDRAL>
-4.134

>  <SCORE.INTRA.DIHEDRAL.0>
7.79482

>  <SCORE.INTRA.POLAR>
0

>  <SCORE.INTRA.POLAR.0>
0

>  <SCORE.INTRA.REPUL>
0

>  <SCORE.INTRA.REPUL.0>
0

>  <SCORE.INTRA.SOLV>
1.0018

>  <SCORE.INTRA.SOLV.lig_0>
-49.456

>  <SCORE.INTRA.VDW>
-0.689992

>  <SCORE.INTRA.VDW.0>
-0.478406

>  <SCORE.INTRA.norm>
-0.16115

>  <SCORE.RESTR>
0

>  <SCORE.RESTR.CAVITY>
0

>  <SCORE.RESTR.norm>
0

>  <SCORE.SYSTEM>
0

>  <SCORE.SYSTEM.CONST>
0

>  <SCORE.SYSTEM.DIHEDRAL>
0

>  <SCORE.SYSTEM.SOLV>
0

>  <SCORE.SYSTEM.norm>
0

>  <SCORE.heavy>
14

>  <SCORE.norm>
-0.716067

>  <RMSD>
2.970

$$$$
ligand
 OpenBabel11021811413D
libRbt.so/2013.1/901 2013/11/27
 14 13  0  0  0  0  0  0  0  0999 V2000
   45.2479   10.7020   18.1506 N   0  0  0  0  0  0  0  0  0  0  0  0
   45.1108    9.5576   19.0772 C   0  0  0  0  0  0  0  0  0  0  0  0
   46.4925    9.0126   19.4991 C   0  0  0  0  0  0  0  0  0  0  0  0
   46.4410    7.8073   20.4523 C   0  0  0  0  0  0  0  0  0  0  0  0
   45.7618    6.6478   19.8115 N   0  0  0  0  0  0  0  0  0  0  0  0
   45.5763    5.5523   20.7976 C   0  0  0  0  0  0  0  0  0  0  0  0
   44.9238    4.2428   20.2395 C   0  0  0  0  0  0  0  0  0  0  0  0
   45.7358    3.5650   19.0986 C   0  0  0  0  0  0  0  0  0  0  0  0
   45.1592    2.2414   18.6353 C   0  0  0  0  0  0  0  0  0  0  0  0
   45.8924    1.8329   17.4521 N   0  0  0  0  0  0  0  0  0  0  0  0
   45.4612    0.4759   17.1654 C   0  0  0  0  0  0  0  0  0  0  0  0
   45.6992    0.1119   15.7045 C   0  0  0  0  0  0  0  0  0  0  0  0
   45.4665   -1.3995   15.5582 C   0  0  0  0  0  0  0  0  0  0  0  0
   45.6478   -1.8579   14.1727 N   0  0  0  0  0  0  0  0  0  0  0  0
  1  2  1  0  0  0  0
  2  3  1  0  0  0  0
  3  4  1  0  0  0  0
  4  5  1  0  0  0  0
  5  6  1  0  0  0  0
  6  7  1  0  0  0  0
  7  8  1  0  0  0  0
  8  9  1  0  0  0  0
  9 10  1  0  0  0  0
 10 11  1  0  0  0  0
 11 12  1  0  0  0  0
 12 13  1  0  0  0  0
 13 14  1  0  0  0  0
M  END
>  <CHROM.1>
-179.31607245,61.85222023,-173.22451395,-177.57614474,60.36717396,175.45709923
171.60981952,171.20935664,157.62308351,169.53638486,178.99679931,45.61543343
4.17794229,18.27283498,-0.44282628,-1.55490290,-1.63701217

>  <Name>
ligand

>  <RI>
0

>  <Rbt.Current_Directory>
/home/itssahil/PROJECTS/Mol_Feturizer/New_Systems/rnas/1TN1

>  <Rbt.Executable>
rbdock ($Id: //depot/dev/client3/rdock/2013.1/src/exe/rbdock.cxx#4 $)

>  <Rbt.Library>
libRbt.so (2013.1, Build901 2013/11/27)

>  <Rbt.Parameter_File>
/export/apps/rDock/src/rDock_2013.1_src/data/scripts/dock_solv.prm

>  <Rbt.Receptor>
prm/pocket_docking_8.prm

>  <SCORE>
-11.3513

>  <SCORE.INTER>
-7.54896

>  <SCORE.INTER.CONST>
1

>  <SCORE.INTER.POLAR>
0

>  <SCORE.INTER.ROT>
11

>  <SCORE.INTER.SOLV>
10.5642

>  <SCORE.INTER.VDW>
-19.4874

>  <SCORE.INTER.norm>
-0.539211

>  <SCORE.INTRA>
-3.80235

>  <SCORE.INTRA.DIHEDRAL>
-6.55211

>  <SCORE.INTRA.DIHEDRAL.0>
7.79482

>  <SCORE.INTRA.POLAR>
0

>  <SCORE.INTRA.POLAR.0>
0

>  <SCORE.INTRA.REPUL>
0

>  <SCORE.INTRA.REPUL.0>
0

>  <SCORE.INTRA.SOLV>
0.60505

>  <SCORE.INTRA.SOLV.lig_0>
-49.456

>  <SCORE.INTRA.VDW>
-0.828822

>  <SCORE.INTRA.VDW.0>
-0.478406

>  <SCORE.INTRA.norm>
-0.271596

>  <SCORE.RESTR>
0

>  <SCORE.RESTR.CAVITY>
0

>  <SCORE.RESTR.norm>
0

>  <SCORE.SYSTEM>
0

>  <SCORE.SYSTEM.CONST>
0

>  <SCORE.SYSTEM.DIHEDRAL>
0

>  <SCORE.SYSTEM.SOLV>
0

>  <SCORE.SYSTEM.norm>
0

>  <SCORE.heavy>
14

>  <SCORE.norm>
-0.810808

>  <RMSD>
2.970

$$$$
ligand
 OpenBabel11021811413D
libRbt.so/2013.1/901 2013/11/27
 14 13  0  0  0  0  0  0  0  0999 V2000
   45.3100   -0.8787   15.2108 N   0  0  0  0  0  0  0  0  0  0  0  0
   45.4083   -0.4661   16.6275 C   0  0  0  0  0  0  0  0  0  0  0  0
   45.7369    1.0376   16.7493 C   0  0  0  0  0  0  0  0  0  0  0  0
   45.8819    1.5460   18.1930 C   0  0  0  0  0  0  0  0  0  0  0  0
   46.2552    2.9870   18.2172 N   0  0  0  0  0  0  0  0  0  0  0  0
   45.6994    3.6411   19.4297 C   0  0  0  0  0  0  0  0  0  0  0  0
   45.8113    5.2026   19.4677 C   0  0  0  0  0  0  0  0  0  0  0  0
   45.1518    5.8563   20.7159 C   0  0  0  0  0  0  0  0  0  0  0  0
   45.1215    7.3716   20.6735 C   0  0  0  0  0  0  0  0  0  0  0  0
   46.4946    7.8393   20.6946 N   0  0  0  0  0  0  0  0  0  0  0  0
   46.5611    8.9222   19.7290 C   0  0  0  0  0  0  0  0  0  0  0  0
   47.3919    8.5336   18.5116 C   0  0  0  0  0  0  0  0  0  0  0  0
   47.4509    9.7540   17.5804 C   0  0  0  0  0  0  0  0  0  0  0  0
   48.2407    9.4902   16.3682 N   0  0  0  0  0  0  0  0  0  0  0  0
  1  2  1  0  0  0  0
  2  3  1  0  0  0  0
  3  4  1  0  0  0  0
  4  5  1  0  0  0  0
  5  6  1  0  0  0  0
  6  7  1  0  0  0  0
  7  8  1  0  0  0  0
  8  9  1  0  0  0  0
  9 10  1  0  0  0  0
 10 11  1  0  0  0  0
 11 12  1  0  0  0  0
 12 13  1  0  0  0  0
 13 14  1  0  0  0  0
M  END
>  <CHROM.1>
-178.97268609,177.55356386,149.24764795,-170.28719507,176.92136789,-173.39336671
-64.35283458,137.88016676,-111.07115038,-177.75396290,179.67450445,46.17951343
5.05986185,18.44092804,-1.93541989,1.12641389,0.58334771

>  <Name>
ligand

>  <RI>
0

>  <Rbt.Current_Directory>
/home/itssahil/PROJECTS/Mol_Feturizer/New_Systems/rnas/1TN1

>  <Rbt.Executable>
rbdock ($Id: //depot/dev/client3/rdock/2013.1/src/exe/rbdock.cxx#4 $)

>  <Rbt.Library>
libRbt.so (2013.1, Build901 2013/11/27)

>  <Rbt.Parameter_File>
/export/apps/rDock/src/rDock_2013.1_src/data/scripts/dock_solv.prm

>  <Rbt.Receptor>
prm/pocket_docking_8.prm

>  <SCORE>
-9.69495

>  <SCORE.INTER>
-6.71883

>  <SCORE.INTER.CONST>
1

>  <SCORE.INTER.POLAR>
0

>  <SCORE.INTER.ROT>
11

>  <SCORE.INTER.SOLV>
12.875

>  <SCORE.INTER.VDW>
-19.7042

>  <SCORE.INTER.norm>
-0.479916

>  <SCORE.INTRA>
-2.97613

>  <SCORE.INTRA.DIHEDRAL>
-4.66944

>  <SCORE.INTRA.DIHEDRAL.0>
7.79482

>  <SCORE.INTRA.POLAR>
0

>  <SCORE.INTRA.POLAR.0>
0

>  <SCORE.INTRA.REPUL>
0

>  <SCORE.INTRA.REPUL.0>
0

>  <SCORE.INTRA.SOLV>
0.315161

>  <SCORE.INTRA.SOLV.lig_0>
-49.456

>  <SCORE.INTRA.VDW>
-0.798985

>  <SCORE.INTRA.VDW.0>
-0.478406

>  <SCORE.INTRA.norm>
-0.21258

>  <SCORE.RESTR>
0

>  <SCORE.RESTR.CAVITY>
0

>  <SCORE.RESTR.norm>
0

>  <SCORE.SYSTEM>
0

>  <SCORE.SYSTEM.CONST>
0

>  <SCORE.SYSTEM.DIHEDRAL>
0

>  <SCORE.SYSTEM.SOLV>
0

>  <SCORE.SYSTEM.norm>
0

>  <SCORE.heavy>
14

>  <SCORE.norm>
-0.692497

>  <RMSD>
2.988

$$$$
ligand
 OpenBabel11021811413D
libRbt.so/2013.1/901 2013/11/27
 14 13  0  0  0  0  0  0  0  0999 V2000
   47.0863   10.5635   17.2701 N   0  0  0  0  0  0  0  0  0  0  0  0
   46.5377    9.8838   18.4636 C   0  0  0  0  0  0  0  0  0  0  0  0
   47.0942    8.4495   18.5941 C   0  0  0  0  0  0  0  0  0  0  0  0
   46.5299    7.6496   19.7796 C   0  0  0  0  0  0  0  0  0  0  0  0
   45.0735    7.3935   19.6066 N   0  0  0  0  0  0  0  0  0  0  0  0
   44.4589    7.0248   20.9078 C   0  0  0  0  0  0  0  0  0  0  0  0
   44.4143    5.4919   21.2249 C   0  0  0  0  0  0  0  0  0  0  0  0
   45.7844    4.7712   21.0702 C   0  0  0  0  0  0  0  0  0  0  0  0
   46.0220    4.1906   19.6899 C   0  0  0  0  0  0  0  0  0  0  0  0
   45.0633    3.1199   19.4926 N   0  0  0  0  0  0  0  0  0  0  0  0
   45.3121    2.6039   18.1578 C   0  0  0  0  0  0  0  0  0  0  0  0
   44.2906    1.5404   17.7718 C   0  0  0  0  0  0  0  0  0  0  0  0
   44.4828    1.2316   16.2792 C   0  0  0  0  0  0  0  0  0  0  0  0
   45.7698    0.5732   16.0093 N   0  0  0  0  0  0  0  0  0  0  0  0
  1  2  1  0  0  0  0
  2  3  1  0  0  0  0
  3  4  1  0  0  0  0
  4  5  1  0  0  0  0
  5  6  1  0  0  0  0
  6  7  1  0  0  0  0
  7  8  1  0  0  0  0
  8  9  1  0  0  0  0
  9 10  1  0  0  0  0
 10 11  1  0  0  0  0
 11 12  1  0  0  0  0
 12 13  1  0  0  0  0
 13 14  1  0  0  0  0
M  END
>  <CHROM.1>
-177.62501620,65.49763782,-161.86731339,-91.58259987,51.46294393,-91.39363983
-66.33990344,179.28916220,-175.28024918,170.52808734,67.20723266,45.56562994
5.32050040,18.88013195,-1.04318345,-1.20645044,-2.44293752

>  <Name>
ligand

>  <RI>
0

>  <Rbt.Current_Directory>
/home/itssahil/PROJECTS/Mol_Feturizer/New_Systems/rnas/1TN1

>  <Rbt.Executable>
rbdock ($Id: //depot/dev/client3/rdock/2013.1/src/exe/rbdock.cxx#4 $)

>  <Rbt.Library>
libRbt.so (2013.1, Build901 2013/11/27)

>  <Rbt.Parameter_File>
/export/apps/rDock/src/rDock_2013.1_src/data/scripts/dock_solv.prm

>  <Rbt.Receptor>
prm/pocket_docking_4.prm

>  <SCORE>
-7.92985

>  <SCORE.INTER>
-7.26526

>  <SCORE.INTER.CONST>
1

>  <SCORE.INTER.POLAR>
0

>  <SCORE.INTER.ROT>
11

>  <SCORE.INTER.SOLV>
11.6696

>  <SCORE.INTER.VDW>
-19.6667

>  <SCORE.INTER.norm>
-0.518947

>  <SCORE.INTRA>
-0.664588

>  <SCORE.INTRA.DIHEDRAL>
-2.50925

>  <SCORE.INTRA.DIHEDRAL.0>
7.79482

>  <SCORE.INTRA.POLAR>
0

>  <SCORE.INTRA.POLAR.0>
0

>  <SCORE.INTRA.REPUL>
0

>  <SCORE.INTRA.REPUL.0>
0

>  <SCORE.INTRA.SOLV>
2.34357

>  <SCORE.INTRA.SOLV.lig_0>
-49.456

>  <SCORE.INTRA.VDW>
-0.581746

>  <SCORE.INTRA.VDW.0>
-0.478406

>  <SCORE.INTRA.norm>
-0.0474706

>  <SCORE.RESTR>
0

>  <SCORE.RESTR.CAVITY>
0

>  <SCORE.RESTR.norm>
0

>  <SCORE.SYSTEM>
0

>  <SCORE.SYSTEM.CONST>
0

>  <SCORE.SYSTEM.DIHEDRAL>
0

>  <SCORE.SYSTEM.SOLV>
0

>  <SCORE.SYSTEM.norm>
0

>  <SCORE.heavy>
14

>  <SCORE.norm>
-0.566418

>  <RMSD>
2.990

$$$$
ligand
 OpenBabel11021811413D
libRbt.so/2013.1/901 2013/11/27
 14 13  0  0  0  0  0  0  0  0999 V2000
   45.3781   -1.2672   15.6574 N   0  0  0  0  0  0  0  0  0  0  0  0
   44.6606   -0.0924   15.1168 C   0  0  0  0  0  0  0  0  0  0  0  0
   44.3039    0.9079   16.2376 C   0  0  0  0  0  0  0  0  0  0  0  0
   45.5160    1.5131   16.9646 C   0  0  0  0  0  0  0  0  0  0  0  0
   45.0908    2.5674   17.9260 N   0  0  0  0  0  0  0  0  0  0  0  0
   46.2765    3.1545   18.6015 C   0  0  0  0  0  0  0  0  0  0  0  0
   46.0307    4.5134   19.3398 C   0  0  0  0  0  0  0  0  0  0  0  0
   44.9754    4.4347   20.4803 C   0  0  0  0  0  0  0  0  0  0  0  0
   44.7141    5.7597   21.1695 C   0  0  0  0  0  0  0  0  0  0  0  0
   44.0605    6.6317   20.2120 N   0  0  0  0  0  0  0  0  0  0  0  0
   44.9832    7.7288   19.9783 C   0  0  0  0  0  0  0  0  0  0  0  0
   44.3198    8.8594   19.2006 C   0  0  0  0  0  0  0  0  0  0  0  0
   45.3906    9.9268   18.9281 C   0  0  0  0  0  0  0  0  0  0  0  0
   46.4402    9.4414   18.0196 N   0  0  0  0  0  0  0  0  0  0  0  0
  1  2  1  0  0  0  0
  2  3  1  0  0  0  0
  3  4  1  0  0  0  0
  4  5  1  0  0  0  0
  5  6  1  0  0  0  0
  6  7  1  0  0  0  0
  7  8  1  0  0  0  0
  8  9  1  0  0  0  0
  9 10  1  0  0  0  0
 10 11  1  0  0  0  0
 11 12  1  0  0  0  0
 12 13  1  0  0  0  0
 13 14  1  0  0  0  0
M  END
>  <CHROM.1>
62.37906234,174.03959944,-179.08121075,164.24792944,60.57677065,-178.52143989
67.61907396,-115.48915456,-168.97124916,-176.54446705,66.31283793,45.15286008
4.57718850,18.41677915,-1.62136473,1.41836890,0.43190291

>  <Name>
ligand

>  <RI>
0

>  <Rbt.Current_Directory>
/home/itssahil/PROJECTS/Mol_Feturizer/New_Systems/rnas/1TN1

>  <Rbt.Executable>
rbdock ($Id: //depot/dev/client3/rdock/2013.1/src/exe/rbdock.cxx#4 $)

>  <Rbt.Library>
libRbt.so (2013.1, Build901 2013/11/27)

>  <Rbt.Parameter_File>
/export/apps/rDock/src/rDock_2013.1_src/data/scripts/dock_solv.prm

>  <Rbt.Receptor>
prm/blind_docking_100.prm

>  <SCORE>
-7.95885

>  <SCORE.INTER>
-5.66596

>  <SCORE.INTER.CONST>
1

>  <SCORE.INTER.POLAR>
0

>  <SCORE.INTER.ROT>
11

>  <SCORE.INTER.SOLV>
12.824

>  <SCORE.INTER.VDW>
-18.9853

>  <SCORE.INTER.norm>
-0.404711

>  <SCORE.INTRA>
-2.29289

>  <SCORE.INTRA.DIHEDRAL>
-5.74441

>  <SCORE.INTRA.DIHEDRAL.0>
7.79482

>  <SCORE.INTRA.POLAR>
0

>  <SCORE.INTRA.POLAR.0>
0

>  <SCORE.INTRA.REPUL>
0

>  <SCORE.INTRA.REPUL.0>
0

>  <SCORE.INTRA.SOLV>
2.19342

>  <SCORE.INTRA.SOLV.lig_0>
-49.456

>  <SCORE.INTRA.VDW>
-0.51739

>  <SCORE.INTRA.VDW.0>
-0.478406

>  <SCORE.INTRA.norm>
-0.163778

>  <SCORE.RESTR>
0

>  <SCORE.RESTR.CAVITY>
0

>  <SCORE.RESTR.norm>
0

>  <SCORE.SYSTEM>
0

>  <SCORE.SYSTEM.CONST>
0

>  <SCORE.SYSTEM.DIHEDRAL>
0

>  <SCORE.SYSTEM.SOLV>
0

>  <SCORE.SYSTEM.norm>
0

>  <SCORE.heavy>
14

>  <SCORE.norm>
-0.568489

>  <RMSD>
2.993

$$$$
ligand
 OpenBabel11021811413D
libRbt.so/2013.1/901 2013/11/27
 14 13  0  0  0  0  0  0  0  0999 V2000
   44.9277   -0.3626   14.2051 N   0  0  0  0  0  0  0  0  0  0  0  0
   46.0747   -0.4863   15.1304 C   0  0  0  0  0  0  0  0  0  0  0  0
   45.6002   -0.7617   16.5737 C   0  0  0  0  0  0  0  0  0  0  0  0
   44.7775    0.3737   17.2044 C   0  0  0  0  0  0  0  0  0  0  0  0
   45.6481    1.5242   17.5717 N   0  0  0  0  0  0  0  0  0  0  0  0
   45.0154    2.3220   18.6533 C   0  0  0  0  0  0  0  0  0  0  0  0
   45.7890    3.6143   19.0820 C   0  0  0  0  0  0  0  0  0  0  0  0
   45.1287    4.3888   20.2586 C   0  0  0  0  0  0  0  0  0  0  0  0
   45.9109    5.6069   20.7096 C   0  0  0  0  0  0  0  0  0  0  0  0
   45.8098    6.6062   19.6629 N   0  0  0  0  0  0  0  0  0  0  0  0
   46.5887    7.7432   20.1215 C   0  0  0  0  0  0  0  0  0  0  0  0
   45.9457    9.0623   19.7096 C   0  0  0  0  0  0  0  0  0  0  0  0
   45.9923    9.1432   18.1762 C   0  0  0  0  0  0  0  0  0  0  0  0
   45.4982   10.4336   17.6728 N   0  0  0  0  0  0  0  0  0  0  0  0
  1  2  1  0  0  0  0
  2  3  1  0  0  0  0
  3  4  1  0  0  0  0
  4  5  1  0  0  0  0
  5  6  1  0  0  0  0
  6  7  1  0  0  0  0
  7  8  1  0  0  0  0
  8  9  1  0  0  0  0
  9 10  1  0  0  0  0
 10 11  1  0  0  0  0
 11 12  1  0  0  0  0
 12 13  1  0  0  0  0
 13 14  1  0  0  0  0
M  END
>  <CHROM.1>
-64.08788960,-73.82936273,-155.84765564,-176.64724203,-177.44234732,177.56618887
70.12379713,-179.01703019,-143.58717785,-65.46594925,-175.14855268,45.62197350
4.22900580,18.19549085,3.08387722,1.51189153,1.97625676

>  <Name>
ligand

>  <RI>
0

>  <Rbt.Current_Directory>
/home/itssahil/PROJECTS/Mol_Feturizer/New_Systems/rnas/1TN1

>  <Rbt.Executable>
rbdock ($Id: //depot/dev/client3/rdock/2013.1/src/exe/rbdock.cxx#4 $)

>  <Rbt.Library>
libRbt.so (2013.1, Build901 2013/11/27)

>  <Rbt.Parameter_File>
/export/apps/rDock/src/rDock_2013.1_src/data/scripts/dock_solv.prm

>  <Rbt.Receptor>
prm/blind_docking_60.prm

>  <SCORE>
-9.31471

>  <SCORE.INTER>
-7.19605

>  <SCORE.INTER.CONST>
1

>  <SCORE.INTER.POLAR>
0

>  <SCORE.INTER.ROT>
11

>  <SCORE.INTER.SOLV>
10.4575

>  <SCORE.INTER.VDW>
-19.2165

>  <SCORE.INTER.norm>
-0.514003

>  <SCORE.INTRA>
-2.11866

>  <SCORE.INTRA.DIHEDRAL>
-5.18335

>  <SCORE.INTRA.DIHEDRAL.0>
7.79482

>  <SCORE.INTRA.POLAR>
0

>  <SCORE.INTRA.POLAR.0>
0

>  <SCORE.INTRA.REPUL>
0

>  <SCORE.INTRA.REPUL.0>
0

>  <SCORE.INTRA.SOLV>
2.13579

>  <SCORE.INTRA.SOLV.lig_0>
-49.456

>  <SCORE.INTRA.VDW>
-0.594884

>  <SCORE.INTRA.VDW.0>
-0.478406

>  <SCORE.INTRA.norm>
-0.151333

>  <SCORE.RESTR>
0

>  <SCORE.RESTR.CAVITY>
0

>  <SCORE.RESTR.norm>
0

>  <SCORE.SYSTEM>
0

>  <SCORE.SYSTEM.CONST>
0

>  <SCORE.SYSTEM.DIHEDRAL>
0

>  <SCORE.SYSTEM.SOLV>
0

>  <SCORE.SYSTEM.norm>
0

>  <SCORE.heavy>
14

>  <SCORE.norm>
-0.665336

>  <RMSD>
2.996

$$$$
ligand
 OpenBabel11021811413D
libRbt.so/2013.1/901 2013/11/27
 14 13  0  0  0  0  0  0  0  0999 V2000
   45.6653   -0.5759   16.9707 N   0  0  0  0  0  0  0  0  0  0  0  0
   44.9943    0.6791   17.3730 C   0  0  0  0  0  0  0  0  0  0  0  0
   45.9093    1.5374   18.2731 C   0  0  0  0  0  0  0  0  0  0  0  0
   45.2993    2.8788   18.7118 C   0  0  0  0  0  0  0  0  0  0  0  0
   46.2856    3.6894   19.4776 N   0  0  0  0  0  0  0  0  0  0  0  0
   45.7175    5.0251   19.7937 C   0  0  0  0  0  0  0  0  0  0  0  0
   44.9429    5.1271   21.1508 C   0  0  0  0  0  0  0  0  0  0  0  0
   44.1069    6.4297   21.3085 C   0  0  0  0  0  0  0  0  0  0  0  0
   42.9131    6.5114   20.3775 C   0  0  0  0  0  0  0  0  0  0  0  0
   42.2810    7.8004   20.5856 N   0  0  0  0  0  0  0  0  0  0  0  0
   42.7059    8.6358   19.4760 C   0  0  0  0  0  0  0  0  0  0  0  0
   41.8995    9.9276   19.4098 C   0  0  0  0  0  0  0  0  0  0  0  0
   42.4676   10.7716   18.2588 C   0  0  0  0  0  0  0  0  0  0  0  0
   41.7836   12.0671   18.1297 N   0  0  0  0  0  0  0  0  0  0  0  0
  1  2  1  0  0  0  0
  2  3  1  0  0  0  0
  3  4  1  0  0  0  0
  4  5  1  0  0  0  0
  5  6  1  0  0  0  0
  6  7  1  0  0  0  0
  7  8  1  0  0  0  0
  8  9  1  0  0  0  0
  9 10  1  0  0  0  0
 10 11  1  0  0  0  0
 11 12  1  0  0  0  0
 12 13  1  0  0  0  0
 13 14  1  0  0  0  0
M  END
>  <CHROM.1>
178.66299491,-175.23915189,175.26654006,90.28829298,-167.42151686,68.56108339
-176.88668531,101.75964171,168.50247519,177.06264250,-178.30645907,44.06943327
5.75033260,19.23565544,0.60486418,1.11857633,-2.10816095

>  <Name>
ligand

>  <RI>
0

>  <Rbt.Current_Directory>
/home/itssahil/PROJECTS/Mol_Feturizer/New_Systems/rnas/1TN1

>  <Rbt.Executable>
rbdock ($Id: //depot/dev/client3/rdock/2013.1/src/exe/rbdock.cxx#4 $)

>  <Rbt.Library>
libRbt.so (2013.1, Build901 2013/11/27)

>  <Rbt.Parameter_File>
/export/apps/rDock/src/rDock_2013.1_src/data/scripts/dock_solv.prm

>  <Rbt.Receptor>
prm/blind_docking_80.prm

>  <SCORE>
-12.3002

>  <SCORE.INTER>
-9.60366

>  <SCORE.INTER.CONST>
1

>  <SCORE.INTER.POLAR>
0

>  <SCORE.INTER.ROT>
11

>  <SCORE.INTER.SOLV>
22.1461

>  <SCORE.INTER.VDW>
-24.7178

>  <SCORE.INTER.norm>
-0.685976

>  <SCORE.INTRA>
-2.69656

>  <SCORE.INTRA.DIHEDRAL>
-5.06375

>  <SCORE.INTRA.DIHEDRAL.0>
7.79482

>  <SCORE.INTRA.POLAR>
0

>  <SCORE.INTRA.POLAR.0>
0

>  <SCORE.INTRA.REPUL>
0

>  <SCORE.INTRA.REPUL.0>
0

>  <SCORE.INTRA.SOLV>
0.117202

>  <SCORE.INTRA.SOLV.lig_0>
-49.456

>  <SCORE.INTRA.VDW>
-0.223291

>  <SCORE.INTRA.VDW.0>
-0.478406

>  <SCORE.INTRA.norm>
-0.192612

>  <SCORE.RESTR>
0

>  <SCORE.RESTR.CAVITY>
0

>  <SCORE.RESTR.norm>
0

>  <SCORE.SYSTEM>
0

>  <SCORE.SYSTEM.CONST>
0

>  <SCORE.SYSTEM.DIHEDRAL>
0

>  <SCORE.SYSTEM.SOLV>
0

>  <SCORE.SYSTEM.norm>
0

>  <SCORE.heavy>
14

>  <SCORE.norm>
-0.878587

>  <RMSD>
2.996

$$$$
ligand
 OpenBabel11021811413D
libRbt.so/2013.1/901 2013/11/27
 14 13  0  0  0  0  0  0  0  0999 V2000
   41.2585    9.7903   18.9403 N   0  0  0  0  0  0  0  0  0  0  0  0
   42.4719    9.1993   19.5450 C   0  0  0  0  0  0  0  0  0  0  0  0
   42.1935    7.7773   20.0783 C   0  0  0  0  0  0  0  0  0  0  0  0
   43.3922    7.1071   20.7697 C   0  0  0  0  0  0  0  0  0  0  0  0
   44.5440    6.9772   19.8353 N   0  0  0  0  0  0  0  0  0  0  0  0
   45.6931    6.3346   20.5232 C   0  0  0  0  0  0  0  0  0  0  0  0
   45.7431    4.7716   20.4409 C   0  0  0  0  0  0  0  0  0  0  0  0
   45.8228    4.2142   18.9906 C   0  0  0  0  0  0  0  0  0  0  0  0
   45.7551    2.7018   18.9079 C   0  0  0  0  0  0  0  0  0  0  0  0
   45.7936    2.3363   17.5045 N   0  0  0  0  0  0  0  0  0  0  0  0
   45.6433    0.8922   17.4651 C   0  0  0  0  0  0  0  0  0  0  0  0
   45.5790    0.3771   16.0319 C   0  0  0  0  0  0  0  0  0  0  0  0
   45.6090   -1.1578   16.0879 C   0  0  0  0  0  0  0  0  0  0  0  0
   45.5445   -1.7638   14.7495 N   0  0  0  0  0  0  0  0  0  0  0  0
  1  2  1  0  0  0  0
  2  3  1  0  0  0  0
  3  4  1  0  0  0  0
  4  5  1  0  0  0  0
  5  6  1  0  0  0  0
  6  7  1  0  0  0  0
  7  8  1  0  0  0  0
  8  9  1  0  0  0  0
  9 10  1  0  0  0  0
 10 11  1  0  0  0  0
 11 12  1  0  0  0  0
 12 13  1  0  0  0  0
 13 14  1  0  0  0  0
M  END
>  <CHROM.1>
-177.93503675,-59.92949851,179.71291222,89.68775625,59.85564572,-175.19930033
178.05674590,-176.55416839,176.43992054,172.62329038,179.71932402,44.64612417
4.25405585,18.56247615,1.94739232,-0.67047777,0.65011426

>  <Name>
ligand

>  <RI>
0

>  <Rbt.Current_Directory>
/home/itssahil/PROJECTS/Mol_Feturizer/New_Systems/rnas/1TN1

>  <Rbt.Executable>
rbdock ($Id: //depot/dev/client3/rdock/2013.1/src/exe/rbdock.cxx#4 $)

>  <Rbt.Library>
libRbt.so (2013.1, Build901 2013/11/27)

>  <Rbt.Parameter_File>
/export/apps/rDock/src/rDock_2013.1_src/data/scripts/dock_solv.prm

>  <Rbt.Receptor>
prm/blind_docking_60.prm

>  <SCORE>
-13.0485

>  <SCORE.INTER>
-9.20349

>  <SCORE.INTER.CONST>
1

>  <SCORE.INTER.POLAR>
0

>  <SCORE.INTER.ROT>
11

>  <SCORE.INTER.SOLV>
18.9406

>  <SCORE.INTER.VDW>
-23.3825

>  <SCORE.INTER.norm>
-0.657392

>  <SCORE.INTRA>
-3.84499

>  <SCORE.INTRA.DIHEDRAL>
-6.85415

>  <SCORE.INTRA.DIHEDRAL.0>
7.79482

>  <SCORE.INTRA.POLAR>
0

>  <SCORE.INTRA.POLAR.0>
0

>  <SCORE.INTRA.REPUL>
0

>  <SCORE.INTRA.REPUL.0>
0

>  <SCORE.INTRA.SOLV>
0.630565

>  <SCORE.INTRA.SOLV.lig_0>
-49.456

>  <SCORE.INTRA.VDW>
-0.733199

>  <SCORE.INTRA.VDW.0>
-0.478406

>  <SCORE.INTRA.norm>
-0.274642

>  <SCORE.RESTR>
0

>  <SCORE.RESTR.CAVITY>
0

>  <SCORE.RESTR.norm>
0

>  <SCORE.SYSTEM>
0

>  <SCORE.SYSTEM.CONST>
0

>  <SCORE.SYSTEM.DIHEDRAL>
0

>  <SCORE.SYSTEM.SOLV>
0

>  <SCORE.SYSTEM.norm>
0

>  <SCORE.heavy>
14

>  <SCORE.norm>
-0.932034

>  <RMSD>
3.000

$$$$
ligand
 OpenBabel11021811413D
libRbt.so/2013.1/901 2013/11/27
 14 13  0  0  0  0  0  0  0  0999 V2000
   45.0580   -0.1654   15.9535 N   0  0  0  0  0  0  0  0  0  0  0  0
   44.9297    1.0270   16.8188 C   0  0  0  0  0  0  0  0  0  0  0  0
   46.0516    1.0707   17.8787 C   0  0  0  0  0  0  0  0  0  0  0  0
   46.1524    2.3972   18.6495 C   0  0  0  0  0  0  0  0  0  0  0  0
   44.9563    2.6069   19.5108 N   0  0  0  0  0  0  0  0  0  0  0  0
   44.7053    4.0593   19.6959 C   0  0  0  0  0  0  0  0  0  0  0  0
   45.7235    4.8097   20.6192 C   0  0  0  0  0  0  0  0  0  0  0  0
   45.5147    6.3505   20.6743 C   0  0  0  0  0  0  0  0  0  0  0  0
   44.1892    6.7708   21.2785 C   0  0  0  0  0  0  0  0  0  0  0  0
   43.1814    6.6707   20.2399 N   0  0  0  0  0  0  0  0  0  0  0  0
   42.1941    7.6918   20.5436 C   0  0  0  0  0  0  0  0  0  0  0  0
   42.0848    8.7140   19.4182 C   0  0  0  0  0  0  0  0  0  0  0  0
   43.4631    9.3720   19.2525 C   0  0  0  0  0  0  0  0  0  0  0  0
   43.4525   10.4353   18.2367 N   0  0  0  0  0  0  0  0  0  0  0  0
  1  2  1  0  0  0  0
  2  3  1  0  0  0  0
  3  4  1  0  0  0  0
  4  5  1  0  0  0  0
  5  6  1  0  0  0  0
  6  7  1  0  0  0  0
  7  8  1  0  0  0  0
  8  9  1  0  0  0  0
  9 10  1  0  0  0  0
 10 11  1  0  0  0  0
 11 12  1  0  0  0  0
 12 13  1  0  0  0  0
 13 14  1  0  0  0  0
M  END
>  <CHROM.1>
169.23259694,66.96842056,-151.66060815,-71.88634583,174.13075072,63.95352156
-81.84906513,-149.47188659,118.84892287,-60.11343590,-176.78636669,44.40413468
5.12941656,19.19815142,0.96837823,1.05482010,-2.32485629

>  <Name>
ligand

>  <RI>
0

>  <Rbt.Current_Directory>
/home/itssahil/PROJECTS/Mol_Feturizer/New_Systems/rnas/1TN1

>  <Rbt.Executable>
rbdock ($Id: //depot/dev/client3/rdock/2013.1/src/exe/rbdock.cxx#4 $)

>  <Rbt.Library>
libRbt.so (2013.1, Build901 2013/11/27)

>  <Rbt.Parameter_File>
/export/apps/rDock/src/rDock_2013.1_src/data/scripts/dock_solv.prm

>  <Rbt.Receptor>
prm/pocket_docking_5.prm

>  <SCORE>
-9.41046

>  <SCORE.INTER>
-8.86201

>  <SCORE.INTER.CONST>
1

>  <SCORE.INTER.POLAR>
0

>  <SCORE.INTER.ROT>
11

>  <SCORE.INTER.SOLV>
17.5541

>  <SCORE.INTER.VDW>
-22.6927

>  <SCORE.INTER.norm>
-0.633001

>  <SCORE.INTRA>
-0.548443

>  <SCORE.INTRA.DIHEDRAL>
-2.85892

>  <SCORE.INTRA.DIHEDRAL.0>
7.79482

>  <SCORE.INTRA.POLAR>
0

>  <SCORE.INTRA.POLAR.0>
0

>  <SCORE.INTRA.REPUL>
0

>  <SCORE.INTRA.REPUL.0>
0

>  <SCORE.INTRA.SOLV>
1.57052

>  <SCORE.INTRA.SOLV.lig_0>
-49.456

>  <SCORE.INTRA.VDW>
0.0957597

>  <SCORE.INTRA.VDW.0>
-0.478406

>  <SCORE.INTRA.norm>
-0.0391745

>  <SCORE.RESTR>
0

>  <SCORE.RESTR.CAVITY>
0

>  <SCORE.RESTR.norm>
0

>  <SCORE.SYSTEM>
0

>  <SCORE.SYSTEM.CONST>
0

>  <SCORE.SYSTEM.DIHEDRAL>
0

>  <SCORE.SYSTEM.SOLV>
0

>  <SCORE.SYSTEM.norm>
0

>  <SCORE.heavy>
14

>  <SCORE.norm>
-0.672175

>  <RMSD>
3.000

$$$$
ligand
 OpenBabel11021811413D
libRbt.so/2013.1/901 2013/11/27
 14 13  0  0  0  0  0  0  0  0999 V2000
   44.3149    1.4833   19.0826 N   0  0  0  0  0  0  0  0  0  0  0  0
   45.6350    1.5284   18.4173 C   0  0  0  0  0  0  0  0  0  0  0  0
   46.0256    2.9764   18.0502 C   0  0  0  0  0  0  0  0  0  0  0  0
   46.2183    3.9121   19.2549 C   0  0  0  0  0  0  0  0  0  0  0  0
   44.9429    4.0916   20.0015 N   0  0  0  0  0  0  0  0  0  0  0  0
   45.1464    5.0083   21.1526 C   0  0  0  0  0  0  0  0  0  0  0  0
   45.2455    6.5300   20.7965 C   0  0  0  0  0  0  0  0  0  0  0  0
   43.9337    7.1335   20.2174 C   0  0  0  0  0  0  0  0  0  0  0  0
   44.0441    8.5976   19.8392 C   0  0  0  0  0  0  0  0  0  0  0  0
   42.7292    9.0433   19.4190 N   0  0  0  0  0  0  0  0  0  0  0  0
   42.9438   10.2751   18.6799 C   0  0  0  0  0  0  0  0  0  0  0  0
   41.6233   10.9264   18.2859 C   0  0  0  0  0  0  0  0  0  0  0  0
   41.9519   12.2132   17.5138 C   0  0  0  0  0  0  0  0  0  0  0  0
   42.7202   11.9452   16.2889 N   0  0  0  0  0  0  0  0  0  0  0  0
  1  2  1  0  0  0  0
  2  3  1  0  0  0  0
  3  4  1  0  0  0  0
  4  5  1  0  0  0  0
  5  6  1  0  0  0  0
  6  7  1  0  0  0  0
  7  8  1  0  0  0  0
  8  9  1  0  0  0  0
  9 10  1  0  0  0  0
 10 11  1  0  0  0  0
 11 12  1  0  0  0  0
 12 13  1  0  0  0  0
 13 14  1  0  0  0  0
M  END
>  <CHROM.1>
63.93798135,-63.97943890,-179.44811570,76.30003899,65.53047586,-178.45371391
-175.58892504,-162.39473348,-174.71884171,-179.99533254,60.87909626,44.10551844
6.83324791,19.07155261,0.32901809,1.20704015,-2.07394761

>  <Name>
ligand

>  <RI>
0

>  <Rbt.Current_Directory>
/home/itssahil/PROJECTS/Mol_Feturizer/New_Systems/rnas/1TN1

>  <Rbt.Executable>
rbdock ($Id: //depot/dev/client3/rdock/2013.1/src/exe/rbdock.cxx#4 $)

>  <Rbt.Library>
libRbt.so (2013.1, Build901 2013/11/27)

>  <Rbt.Parameter_File>
/export/apps/rDock/src/rDock_2013.1_src/data/scripts/dock_solv.prm

>  <Rbt.Receptor>
prm/pocket_docking_6.prm

>  <SCORE>
-10.5747

>  <SCORE.INTER>
-8.74576

>  <SCORE.INTER.CONST>
1

>  <SCORE.INTER.POLAR>
0

>  <SCORE.INTER.ROT>
11

>  <SCORE.INTER.SOLV>
21.0717

>  <SCORE.INTER.VDW>
-23.7877

>  <SCORE.INTER.norm>
-0.624697

>  <SCORE.INTRA>
-1.82895

>  <SCORE.INTRA.DIHEDRAL>
-7.00952

>  <SCORE.INTRA.DIHEDRAL.0>
7.79482

>  <SCORE.INTRA.POLAR>
0

>  <SCORE.INTRA.POLAR.0>
0

>  <SCORE.INTRA.REPUL>
0

>  <SCORE.INTRA.REPUL.0>
0

>  <SCORE.INTRA.SOLV>
4.1124

>  <SCORE.INTRA.SOLV.lig_0>
-49.456

>  <SCORE.INTRA.VDW>
-0.380396

>  <SCORE.INTRA.VDW.0>
-0.478406

>  <SCORE.INTRA.norm>
-0.13064

>  <SCORE.RESTR>
0

>  <SCORE.RESTR.CAVITY>
0

>  <SCORE.RESTR.norm>
0

>  <SCORE.SYSTEM>
0

>  <SCORE.SYSTEM.CONST>
0

>  <SCORE.SYSTEM.DIHEDRAL>
0

>  <SCORE.SYSTEM.SOLV>
0

>  <SCORE.SYSTEM.norm>
0

>  <SCORE.heavy>
14

>  <SCORE.norm>
-0.755337

>  <RMSD>
3.002

$$$$
ligand
 OpenBabel11021811413D
libRbt.so/2013.1/901 2013/11/27
 14 13  0  0  0  0  0  0  0  0999 V2000
   46.5491    9.8491   17.8445 N   0  0  0  0  0  0  0  0  0  0  0  0
   45.2862    9.2897   18.3731 C   0  0  0  0  0  0  0  0  0  0  0  0
   45.4453    8.8440   19.8428 C   0  0  0  0  0  0  0  0  0  0  0  0
   46.4604    7.7101   20.0613 C   0  0  0  0  0  0  0  0  0  0  0  0
   46.0305    6.4664   19.3650 N   0  0  0  0  0  0  0  0  0  0  0  0
   45.5419    5.4687   20.3511 C   0  0  0  0  0  0  0  0  0  0  0  0
   45.1707    4.0645   19.7658 C   0  0  0  0  0  0  0  0  0  0  0  0
   46.3314    3.3696   18.9975 C   0  0  0  0  0  0  0  0  0  0  0  0
   46.0211    1.9493   18.5669 C   0  0  0  0  0  0  0  0  0  0  0  0
   45.0292    2.0172   17.5105 N   0  0  0  0  0  0  0  0  0  0  0  0
   44.4345    0.6941   17.4373 C   0  0  0  0  0  0  0  0  0  0  0  0
   45.2101   -0.2142   16.4903 C   0  0  0  0  0  0  0  0  0  0  0  0
   45.0061    0.3189   15.0640 C   0  0  0  0  0  0  0  0  0  0  0  0
   45.6764   -0.5177   14.0572 N   0  0  0  0  0  0  0  0  0  0  0  0
  1  2  1  0  0  0  0
  2  3  1  0  0  0  0
  3  4  1  0  0  0  0
  4  5  1  0  0  0  0
  5  6  1  0  0  0  0
  6  7  1  0  0  0  0
  7  8  1  0  0  0  0
  8  9  1  0  0  0  0
  9 10  1  0  0  0  0
 10 11  1  0  0  0  0
 11 12  1  0  0  0  0
 12 13  1  0  0  0  0
 13 14  1  0  0  0  0
M  END
>  <CHROM.1>
-63.03339811,-63.15894124,-106.48011731,-175.00100668,56.89233952,173.50707842
70.24374261,-161.35037872,-88.48762992,-68.46312404,-177.92612007,45.58510733
4.23632513,18.12376291,-0.43377028,-1.48583371,-1.63590511

>  <Name>
ligand

>  <RI>
0

>  <Rbt.Current_Directory>
/home/itssahil/PROJECTS/Mol_Feturizer/New_Systems/rnas/1TN1

>  <Rbt.Executable>
rbdock ($Id: //depot/dev/client3/rdock/2013.1/src/exe/rbdock.cxx#4 $)

>  <Rbt.Library>
libRbt.so (2013.1, Build901 2013/11/27)

>  <Rbt.Parameter_File>
/export/apps/rDock/src/rDock_2013.1_src/data/scripts/dock_solv.prm

>  <Rbt.Receptor>
prm/blind_docking_100.prm

>  <SCORE>
-8.3409

>  <SCORE.INTER>
-7.11653

>  <SCORE.INTER.CONST>
1

>  <SCORE.INTER.POLAR>
0

>  <SCORE.INTER.ROT>
11

>  <SCORE.INTER.SOLV>
8.93614

>  <SCORE.INTER.VDW>
-18.6564

>  <SCORE.INTER.norm>
-0.508324

>  <SCORE.INTRA>
-1.22437

>  <SCORE.INTRA.DIHEDRAL>
-4.94756

>  <SCORE.INTRA.DIHEDRAL.0>
7.79482

>  <SCORE.INTRA.POLAR>
0

>  <SCORE.INTRA.POLAR.0>
0

>  <SCORE.INTRA.REPUL>
0

>  <SCORE.INTRA.REPUL.0>
0

>  <SCORE.INTRA.SOLV>
2.68602

>  <SCORE.INTRA.SOLV.lig_0>
-49.456

>  <SCORE.INTRA.VDW>
-0.0936011

>  <SCORE.INTRA.VDW.0>
-0.478406

>  <SCORE.INTRA.norm>
-0.0874549

>  <SCORE.RESTR>
0

>  <SCORE.RESTR.CAVITY>
0

>  <SCORE.RESTR.norm>
0

>  <SCORE.SYSTEM>
0

>  <SCORE.SYSTEM.CONST>
0

>  <SCORE.SYSTEM.DIHEDRAL>
0

>  <SCORE.SYSTEM.SOLV>
0

>  <SCORE.SYSTEM.norm>
0

>  <SCORE.heavy>
14

>  <SCORE.norm>
-0.595779

>  <RMSD>
3.016

$$$$
ligand
 OpenBabel11021811413D
libRbt.so/2013.1/901 2013/11/27
 14 13  0  0  0  0  0  0  0  0999 V2000
   41.0802   10.3170   18.9554 N   0  0  0  0  0  0  0  0  0  0  0  0
   41.3754    9.1706   19.8418 C   0  0  0  0  0  0  0  0  0  0  0  0
   42.8006    8.6291   19.5977 C   0  0  0  0  0  0  0  0  0  0  0  0
   43.1673    7.3924   20.4345 C   0  0  0  0  0  0  0  0  0  0  0  0
   44.5444    6.9229   20.1190 N   0  0  0  0  0  0  0  0  0  0  0  0
   44.9495    5.8494   21.0626 C   0  0  0  0  0  0  0  0  0  0  0  0
   45.8543    4.7232   20.4583 C   0  0  0  0  0  0  0  0  0  0  0  0
   45.1895    3.9289   19.2974 C   0  0  0  0  0  0  0  0  0  0  0  0
   46.0253    2.7721   18.7854 C   0  0  0  0  0  0  0  0  0  0  0  0
   45.3759    2.2533   17.5965 N   0  0  0  0  0  0  0  0  0  0  0  0
   45.7113    0.8411   17.5439 C   0  0  0  0  0  0  0  0  0  0  0  0
   45.3082    0.2213   16.2110 C   0  0  0  0  0  0  0  0  0  0  0  0
   45.7109   -1.2607   16.2469 C   0  0  0  0  0  0  0  0  0  0  0  0
   45.3834   -1.9558   14.9929 N   0  0  0  0  0  0  0  0  0  0  0  0
  1  2  1  0  0  0  0
  2  3  1  0  0  0  0
  3  4  1  0  0  0  0
  4  5  1  0  0  0  0
  5  6  1  0  0  0  0
  6  7  1  0  0  0  0
  7  8  1  0  0  0  0
  8  9  1  0  0  0  0
  9 10  1  0  0  0  0
 10 11  1  0  0  0  0
 11 12  1  0  0  0  0
 12 13  1  0  0  0  0
 13 14  1  0  0  0  0
M  END
>  <CHROM.1>
-177.31751578,178.93617745,172.27306826,145.06336485,-61.09458429,-175.58877667
-171.98397456,-150.57755902,-169.57153606,179.56300458,-179.15655617,44.46274352
4.27173642,18.65339460,1.99379781,-0.73469818,0.66347501

>  <Name>
ligand

>  <RI>
0

>  <Rbt.Current_Directory>
/home/itssahil/PROJECTS/Mol_Feturizer/New_Systems/rnas/1TN1

>  <Rbt.Executable>
rbdock ($Id: //depot/dev/client3/rdock/2013.1/src/exe/rbdock.cxx#4 $)

>  <Rbt.Library>
libRbt.so (2013.1, Build901 2013/11/27)

>  <Rbt.Parameter_File>
/export/apps/rDock/src/rDock_2013.1_src/data/scripts/dock_solv.prm

>  <Rbt.Receptor>
prm/pocket_docking_6.prm

>  <SCORE>
-13.4978

>  <SCORE.INTER>
-9.78133

>  <SCORE.INTER.CONST>
1

>  <SCORE.INTER.POLAR>
0

>  <SCORE.INTER.ROT>
11

>  <SCORE.INTER.SOLV>
21.0136

>  <SCORE.INTER.VDW>
-24.4587

>  <SCORE.INTER.norm>
-0.698667

>  <SCORE.INTRA>
-3.71648

>  <SCORE.INTRA.DIHEDRAL>
-5.96369

>  <SCORE.INTRA.DIHEDRAL.0>
7.79482

>  <SCORE.INTRA.POLAR>
0

>  <SCORE.INTRA.POLAR.0>
0

>  <SCORE.INTRA.REPUL>
0

>  <SCORE.INTRA.REPUL.0>
0

>  <SCORE.INTRA.SOLV>
0.277939

>  <SCORE.INTRA.SOLV.lig_0>
-49.456

>  <SCORE.INTRA.VDW>
-0.873604

>  <SCORE.INTRA.VDW.0>
-0.478406

>  <SCORE.INTRA.norm>
-0.265463

>  <SCORE.RESTR>
0

>  <SCORE.RESTR.CAVITY>
0

>  <SCORE.RESTR.norm>
0

>  <SCORE.SYSTEM>
0

>  <SCORE.SYSTEM.CONST>
0

>  <SCORE.SYSTEM.DIHEDRAL>
0

>  <SCORE.SYSTEM.SOLV>
0

>  <SCORE.SYSTEM.norm>
0

>  <SCORE.heavy>
14

>  <SCORE.norm>
-0.964129

>  <RMSD>
3.029

$$$$
ligand
 OpenBabel11021811413D
libRbt.so/2013.1/901 2013/11/27
 14 13  0  0  0  0  0  0  0  0999 V2000
   45.3994    1.1892   16.0690 N   0  0  0  0  0  0  0  0  0  0  0  0
   45.0826    0.7506   17.4454 C   0  0  0  0  0  0  0  0  0  0  0  0
   46.1611    1.2236   18.4440 C   0  0  0  0  0  0  0  0  0  0  0  0
   46.2269    2.7471   18.6408 C   0  0  0  0  0  0  0  0  0  0  0  0
   44.9518    3.2685   19.2052 N   0  0  0  0  0  0  0  0  0  0  0  0
   45.2258    4.3819   20.1497 C   0  0  0  0  0  0  0  0  0  0  0  0
   45.6306    5.7438   19.4913 C   0  0  0  0  0  0  0  0  0  0  0  0
   45.9184    6.8820   20.5120 C   0  0  0  0  0  0  0  0  0  0  0  0
   46.2994    8.2021   19.8708 C   0  0  0  0  0  0  0  0  0  0  0  0
   47.5153    7.9861   19.1097 N   0  0  0  0  0  0  0  0  0  0  0  0
   47.4487    8.9024   17.9847 C   0  0  0  0  0  0  0  0  0  0  0  0
   48.6022    8.6784   17.0139 C   0  0  0  0  0  0  0  0  0  0  0  0
   48.4085    9.6405   15.8321 C   0  0  0  0  0  0  0  0  0  0  0  0
   48.5361   11.0489   16.2356 N   0  0  0  0  0  0  0  0  0  0  0  0
  1  2  1  0  0  0  0
  2  3  1  0  0  0  0
  3  4  1  0  0  0  0
  4  5  1  0  0  0  0
  5  6  1  0  0  0  0
  6  7  1  0  0  0  0
  7  8  1  0  0  0  0
  8  9  1  0  0  0  0
  9 10  1  0  0  0  0
 10 11  1  0  0  0  0
 11 12  1  0  0  0  0
 12 13  1  0  0  0  0
 13 14  1  0  0  0  0
M  END
>  <CHROM.1>
66.77859530,62.25026605,143.91722951,74.54343041,-179.62006316,-179.54509601
-61.08661503,148.60028189,-173.99748856,177.30147705,65.62844539,46.52901728
5.76031337,18.28627267,-2.35518148,1.11436461,0.63439881

>  <Name>
ligand

>  <RI>
0

>  <Rbt.Current_Directory>
/home/itssahil/PROJECTS/Mol_Feturizer/New_Systems/rnas/1TN1

>  <Rbt.Executable>
rbdock ($Id: //depot/dev/client3/rdock/2013.1/src/exe/rbdock.cxx#4 $)

>  <Rbt.Library>
libRbt.so (2013.1, Build901 2013/11/27)

>  <Rbt.Parameter_File>
/export/apps/rDock/src/rDock_2013.1_src/data/scripts/dock_solv.prm

>  <Rbt.Receptor>
prm/pocket_docking_3.prm

>  <SCORE>
-7.36381

>  <SCORE.INTER>
-5.65017

>  <SCORE.INTER.CONST>
1

>  <SCORE.INTER.POLAR>
0

>  <SCORE.INTER.ROT>
11

>  <SCORE.INTER.SOLV>
10.3612

>  <SCORE.INTER.VDW>
-18.1539

>  <SCORE.INTER.norm>
-0.403584

>  <SCORE.INTRA>
-1.71363

>  <SCORE.INTRA.DIHEDRAL>
-5.82436

>  <SCORE.INTRA.DIHEDRAL.0>
7.79482

>  <SCORE.INTRA.POLAR>
0

>  <SCORE.INTRA.POLAR.0>
0

>  <SCORE.INTRA.REPUL>
0

>  <SCORE.INTRA.REPUL.0>
0

>  <SCORE.INTRA.SOLV>
2.76895

>  <SCORE.INTRA.SOLV.lig_0>
-49.456

>  <SCORE.INTRA.VDW>
-0.185929

>  <SCORE.INTRA.VDW.0>
-0.478406

>  <SCORE.INTRA.norm>
-0.122402

>  <SCORE.RESTR>
0

>  <SCORE.RESTR.CAVITY>
0

>  <SCORE.RESTR.norm>
0

>  <SCORE.SYSTEM>
0

>  <SCORE.SYSTEM.CONST>
0

>  <SCORE.SYSTEM.DIHEDRAL>
0

>  <SCORE.SYSTEM.SOLV>
0

>  <SCORE.SYSTEM.norm>
0

>  <SCORE.heavy>
14

>  <SCORE.norm>
-0.525986

>  <RMSD>
3.030

$$$$
ligand
 OpenBabel11021811413D
libRbt.so/2013.1/901 2013/11/27
 14 13  0  0  0  0  0  0  0  0999 V2000
   45.2328   -0.6122   14.5775 N   0  0  0  0  0  0  0  0  0  0  0  0
   45.6724    0.4461   15.5123 C   0  0  0  0  0  0  0  0  0  0  0  0
   45.4071    0.0411   16.9784 C   0  0  0  0  0  0  0  0  0  0  0  0
   45.8485    1.0826   18.0198 C   0  0  0  0  0  0  0  0  0  0  0  0
   45.1333    2.3732   17.8213 N   0  0  0  0  0  0  0  0  0  0  0  0
   44.9802    3.0801   19.1188 C   0  0  0  0  0  0  0  0  0  0  0  0
   46.0965    4.1253   19.4559 C   0  0  0  0  0  0  0  0  0  0  0  0
   45.9175    4.8233   20.8347 C   0  0  0  0  0  0  0  0  0  0  0  0
   44.7031    5.7276   20.9138 C   0  0  0  0  0  0  0  0  0  0  0  0
   44.8404    6.7388   19.8829 N   0  0  0  0  0  0  0  0  0  0  0  0
   45.4917    7.8704   20.5194 C   0  0  0  0  0  0  0  0  0  0  0  0
   46.5124    8.5202   19.5925 C   0  0  0  0  0  0  0  0  0  0  0  0
   45.7390    9.1918   18.4476 C   0  0  0  0  0  0  0  0  0  0  0  0
   46.6309    9.8878   17.5080 N   0  0  0  0  0  0  0  0  0  0  0  0
  1  2  1  0  0  0  0
  2  3  1  0  0  0  0
  3  4  1  0  0  0  0
  4  5  1  0  0  0  0
  5  6  1  0  0  0  0
  6  7  1  0  0  0  0
  7  8  1  0  0  0  0
  8  9  1  0  0  0  0
  9 10  1  0  0  0  0
 10 11  1  0  0  0  0
 11 12  1  0  0  0  0
 12 13  1  0  0  0  0
 13 14  1  0  0  0  0
M  END
>  <CHROM.1>
179.43271530,60.27337163,150.23732990,93.93699108,-178.81051095,-66.89582279
-58.81568941,-92.83654365,140.69156340,68.68274750,178.34876413,45.58618351
4.52112361,18.51349918,-1.84049967,1.38276255,0.63086949

>  <Name>
ligand

>  <RI>
0

>  <Rbt.Current_Directory>
/home/itssahil/PROJECTS/Mol_Feturizer/New_Systems/rnas/1TN1

>  <Rbt.Executable>
rbdock ($Id: //depot/dev/client3/rdock/2013.1/src/exe/rbdock.cxx#4 $)

>  <Rbt.Library>
libRbt.so (2013.1, Build901 2013/11/27)

>  <Rbt.Parameter_File>
/export/apps/rDock/src/rDock_2013.1_src/data/scripts/dock_solv.prm

>  <Rbt.Receptor>
prm/pocket_docking_4.prm

>  <SCORE>
-9.30456

>  <SCORE.INTER>
-8.03105

>  <SCORE.INTER.CONST>
1

>  <SCORE.INTER.POLAR>
0

>  <SCORE.INTER.ROT>
11

>  <SCORE.INTER.SOLV>
10.1419

>  <SCORE.INTER.VDW>
-19.668

>  <SCORE.INTER.norm>
-0.573646

>  <SCORE.INTRA>
-1.27351

>  <SCORE.INTRA.DIHEDRAL>
-4.40957

>  <SCORE.INTRA.DIHEDRAL.0>
7.79482

>  <SCORE.INTRA.POLAR>
0

>  <SCORE.INTRA.POLAR.0>
0

>  <SCORE.INTRA.REPUL>
0

>  <SCORE.INTRA.REPUL.0>
0

>  <SCORE.INTRA.SOLV>
1.32043

>  <SCORE.INTRA.SOLV.lig_0>
-49.456

>  <SCORE.INTRA.VDW>
0.271062

>  <SCORE.INTRA.VDW.0>
-0.478406

>  <SCORE.INTRA.norm>
-0.0909649

>  <SCORE.RESTR>
0

>  <SCORE.RESTR.CAVITY>
0

>  <SCORE.RESTR.norm>
0

>  <SCORE.SYSTEM>
0

>  <SCORE.SYSTEM.CONST>
0

>  <SCORE.SYSTEM.DIHEDRAL>
0

>  <SCORE.SYSTEM.SOLV>
0

>  <SCORE.SYSTEM.norm>
0

>  <SCORE.heavy>
14

>  <SCORE.norm>
-0.664611

>  <RMSD>
3.032

$$$$
ligand
 OpenBabel11021811413D
libRbt.so/2013.1/901 2013/11/27
 14 13  0  0  0  0  0  0  0  0999 V2000
   44.9000    1.3475   16.4120 N   0  0  0  0  0  0  0  0  0  0  0  0
   45.6277    0.7600   17.5576 C   0  0  0  0  0  0  0  0  0  0  0  0
   45.6195    1.7134   18.7721 C   0  0  0  0  0  0  0  0  0  0  0  0
   46.2582    3.0874   18.5112 C   0  0  0  0  0  0  0  0  0  0  0  0
   46.3859    3.8657   19.7739 N   0  0  0  0  0  0  0  0  0  0  0  0
   45.5332    5.0808   19.7165 C   0  0  0  0  0  0  0  0  0  0  0  0
   45.0375    5.6255   21.0984 C   0  0  0  0  0  0  0  0  0  0  0  0
   44.2094    6.9391   21.0033 C   0  0  0  0  0  0  0  0  0  0  0  0
   42.8904    6.7836   20.2719 C   0  0  0  0  0  0  0  0  0  0  0  0
   42.1627    8.0311   20.4081 N   0  0  0  0  0  0  0  0  0  0  0  0
   42.5524    8.8455   19.2704 C   0  0  0  0  0  0  0  0  0  0  0  0
   41.8030   10.1727   19.2517 C   0  0  0  0  0  0  0  0  0  0  0  0
   42.4113   11.0342   18.1347 C   0  0  0  0  0  0  0  0  0  0  0  0
   41.9006   12.4132   18.1562 N   0  0  0  0  0  0  0  0  0  0  0  0
  1  2  1  0  0  0  0
  2  3  1  0  0  0  0
  3  4  1  0  0  0  0
  4  5  1  0  0  0  0
  5  6  1  0  0  0  0
  6  7  1  0  0  0  0
  7  8  1  0  0  0  0
  8  9  1  0  0  0  0
  9 10  1  0  0  0  0
 10 11  1  0  0  0  0
 11 12  1  0  0  0  0
 12 13  1  0  0  0  0
 13 14  1  0  0  0  0
M  END
>  <CHROM.1>
-59.33015887,-171.83662652,-115.35659986,152.97142000,177.00295665,65.06893390
172.97342891,90.24524943,177.23324519,172.55551661,-171.44049071,44.09237478
6.12129847,19.16719606,0.60398165,1.08095561,-2.14133920

>  <Name>
ligand

>  <RI>
0

>  <Rbt.Current_Directory>
/home/itssahil/PROJECTS/Mol_Feturizer/New_Systems/rnas/1TN1

>  <Rbt.Executable>
rbdock ($Id: //depot/dev/client3/rdock/2013.1/src/exe/rbdock.cxx#4 $)

>  <Rbt.Library>
libRbt.so (2013.1, Build901 2013/11/27)

>  <Rbt.Parameter_File>
/export/apps/rDock/src/rDock_2013.1_src/data/scripts/dock_solv.prm

>  <Rbt.Receptor>
prm/pocket_docking_7.prm

>  <SCORE>
-12.1186

>  <SCORE.INTER>
-10.5027

>  <SCORE.INTER.CONST>
1

>  <SCORE.INTER.POLAR>
0

>  <SCORE.INTER.ROT>
11

>  <SCORE.INTER.SOLV>
17.828

>  <SCORE.INTER.VDW>
-23.8778

>  <SCORE.INTER.norm>
-0.750192

>  <SCORE.INTRA>
-1.61588

>  <SCORE.INTRA.DIHEDRAL>
-4.43607

>  <SCORE.INTRA.DIHEDRAL.0>
7.79482

>  <SCORE.INTRA.POLAR>
0

>  <SCORE.INTRA.POLAR.0>
0

>  <SCORE.INTRA.REPUL>
0

>  <SCORE.INTRA.REPUL.0>
0

>  <SCORE.INTRA.SOLV>
0.790475

>  <SCORE.INTRA.SOLV.lig_0>
-49.456

>  <SCORE.INTRA.VDW>
0.206916

>  <SCORE.INTRA.VDW.0>
-0.478406

>  <SCORE.INTRA.norm>
-0.11542

>  <SCORE.RESTR>
0

>  <SCORE.RESTR.CAVITY>
0

>  <SCORE.RESTR.norm>
0

>  <SCORE.SYSTEM>
0

>  <SCORE.SYSTEM.CONST>
0

>  <SCORE.SYSTEM.DIHEDRAL>
0

>  <SCORE.SYSTEM.SOLV>
0

>  <SCORE.SYSTEM.norm>
0

>  <SCORE.heavy>
14

>  <SCORE.norm>
-0.865612

>  <RMSD>
3.032

$$$$
ligand
 OpenBabel11021811413D
libRbt.so/2013.1/901 2013/11/27
 14 13  0  0  0  0  0  0  0  0999 V2000
   41.1027   10.5820   18.9100 N   0  0  0  0  0  0  0  0  0  0  0  0
   41.2106    9.3435   19.7110 C   0  0  0  0  0  0  0  0  0  0  0  0
   42.6088    8.7049   19.5655 C   0  0  0  0  0  0  0  0  0  0  0  0
   42.8259    7.4402   20.4125 C   0  0  0  0  0  0  0  0  0  0  0  0
   44.1753    6.8598   20.1700 N   0  0  0  0  0  0  0  0  0  0  0  0
   44.4032    5.6980   21.0673 C   0  0  0  0  0  0  0  0  0  0  0  0
   45.7660    4.9512   20.8745 C   0  0  0  0  0  0  0  0  0  0  0  0
   45.9183    4.2544   19.4918 C   0  0  0  0  0  0  0  0  0  0  0  0
   44.9128    3.1463   19.2469 C   0  0  0  0  0  0  0  0  0  0  0  0
   45.2328    2.5371   17.9699 N   0  0  0  0  0  0  0  0  0  0  0  0
   44.0997    1.6913   17.6374 C   0  0  0  0  0  0  0  0  0  0  0  0
   44.3510    0.8992   16.3596 C   0  0  0  0  0  0  0  0  0  0  0  0
   45.4035   -0.1738   16.6774 C   0  0  0  0  0  0  0  0  0  0  0  0
   45.7395   -0.9882   15.4999 N   0  0  0  0  0  0  0  0  0  0  0  0
  1  2  1  0  0  0  0
  2  3  1  0  0  0  0
  3  4  1  0  0  0  0
  4  5  1  0  0  0  0
  5  6  1  0  0  0  0
  6  7  1  0  0  0  0
  7  8  1  0  0  0  0
  8  9  1  0  0  0  0
  9 10  1  0  0  0  0
 10 11  1  0  0  0  0
 11 12  1  0  0  0  0
 12 13  1  0  0  0  0
 13 14  1  0  0  0  0
M  END
>  <CHROM.1>
177.64544202,177.65912521,175.93421944,177.48306396,-64.99309383,-63.33733318
-176.24291678,-168.10185217,-175.54870431,71.20571027,-179.07507879,44.12503156
4.63895484,18.82840377,2.02877582,-0.77708421,0.68242558

>  <Name>
ligand

>  <RI>
0

>  <Rbt.Current_Directory>
/home/itssahil/PROJECTS/Mol_Feturizer/New_Systems/rnas/1TN1

>  <Rbt.Executable>
rbdock ($Id: //depot/dev/client3/rdock/2013.1/src/exe/rbdock.cxx#4 $)

>  <Rbt.Library>
libRbt.so (2013.1, Build901 2013/11/27)

>  <Rbt.Parameter_File>
/export/apps/rDock/src/rDock_2013.1_src/data/scripts/dock_solv.prm

>  <Rbt.Receptor>
prm/pocket_docking_6.prm

>  <SCORE>
-13.4279

>  <SCORE.INTER>
-9.92118

>  <SCORE.INTER.CONST>
1

>  <SCORE.INTER.POLAR>
0

>  <SCORE.INTER.ROT>
11

>  <SCORE.INTER.SOLV>
21.2907

>  <SCORE.INTER.VDW>
-24.6444

>  <SCORE.INTER.norm>
-0.708656

>  <SCORE.INTRA>
-3.50672

>  <SCORE.INTRA.DIHEDRAL>
-6.94703

>  <SCORE.INTRA.DIHEDRAL.0>
7.79482

>  <SCORE.INTRA.POLAR>
0

>  <SCORE.INTRA.POLAR.0>
0

>  <SCORE.INTRA.REPUL>
0

>  <SCORE.INTRA.REPUL.0>
0

>  <SCORE.INTRA.SOLV>
0.957807

>  <SCORE.INTRA.SOLV.lig_0>
-49.456

>  <SCORE.INTRA.VDW>
-0.512107

>  <SCORE.INTRA.VDW.0>
-0.478406

>  <SCORE.INTRA.norm>
-0.25048

>  <SCORE.RESTR>
0

>  <SCORE.RESTR.CAVITY>
0

>  <SCORE.RESTR.norm>
0

>  <SCORE.SYSTEM>
0

>  <SCORE.SYSTEM.CONST>
0

>  <SCORE.SYSTEM.DIHEDRAL>
0

>  <SCORE.SYSTEM.SOLV>
0

>  <SCORE.SYSTEM.norm>
0

>  <SCORE.heavy>
14

>  <SCORE.norm>
-0.959136

>  <RMSD>
3.041

$$$$
ligand
 OpenBabel11021811413D
libRbt.so/2013.1/901 2013/11/27
 14 13  0  0  0  0  0  0  0  0999 V2000
   46.1306   10.7392   18.8667 N   0  0  0  0  0  0  0  0  0  0  0  0
   44.9147    9.9311   18.6310 C   0  0  0  0  0  0  0  0  0  0  0  0
   44.8200    8.7601   19.6328 C   0  0  0  0  0  0  0  0  0  0  0  0
   46.0427    7.8279   19.6449 C   0  0  0  0  0  0  0  0  0  0  0  0
   45.7249    6.5385   20.3179 N   0  0  0  0  0  0  0  0  0  0  0  0
   46.3896    5.4133   19.6116 C   0  0  0  0  0  0  0  0  0  0  0  0
   45.5766    4.0763   19.5532 C   0  0  0  0  0  0  0  0  0  0  0  0
   46.2376    2.9685   18.6836 C   0  0  0  0  0  0  0  0  0  0  0  0
   45.4334    1.6855   18.6054 C   0  0  0  0  0  0  0  0  0  0  0  0
   46.1232    0.7892   17.6971 N   0  0  0  0  0  0  0  0  0  0  0  0
   45.1123   -0.1262   17.1971 C   0  0  0  0  0  0  0  0  0  0  0  0
   45.7215   -1.1875   16.2884 C   0  0  0  0  0  0  0  0  0  0  0  0
   46.0320   -0.5216   14.9392 C   0  0  0  0  0  0  0  0  0  0  0  0
   46.5211   -1.4865   13.9430 N   0  0  0  0  0  0  0  0  0  0  0  0
  1  2  1  0  0  0  0
  2  3  1  0  0  0  0
  3  4  1  0  0  0  0
  4  5  1  0  0  0  0
  5  6  1  0  0  0  0
  6  7  1  0  0  0  0
  7  8  1  0  0  0  0
  8  9  1  0  0  0  0
  9 10  1  0  0  0  0
 10 11  1  0  0  0  0
 11 12  1  0  0  0  0
 12 13  1  0  0  0  0
 13 14  1  0  0  0  0
M  END
>  <CHROM.1>
-55.99239812,-163.53342662,141.69176130,-143.93633035,174.05781056,-178.77851006
176.21940707,-155.97216139,-176.47160215,-75.49548075,-175.14739922,45.76987879
3.95763790,18.11529884,-2.15129007,-1.50560827,2.90886576

>  <Name>
ligand

>  <RI>
0

>  <Rbt.Current_Directory>
/home/itssahil/PROJECTS/Mol_Feturizer/New_Systems/rnas/1TN1

>  <Rbt.Executable>
rbdock ($Id: //depot/dev/client3/rdock/2013.1/src/exe/rbdock.cxx#4 $)

>  <Rbt.Library>
libRbt.so (2013.1, Build901 2013/11/27)

>  <Rbt.Parameter_File>
/export/apps/rDock/src/rDock_2013.1_src/data/scripts/dock_solv.prm

>  <Rbt.Receptor>
prm/pocket_docking_3.prm

>  <SCORE>
-8.74374

>  <SCORE.INTER>
-6.78027

>  <SCORE.INTER.CONST>
1

>  <SCORE.INTER.POLAR>
0

>  <SCORE.INTER.ROT>
11

>  <SCORE.INTER.SOLV>
13.2503

>  <SCORE.INTER.VDW>
-19.8703

>  <SCORE.INTER.norm>
-0.484305

>  <SCORE.INTRA>
-1.96347

>  <SCORE.INTRA.DIHEDRAL>
-3.56368

>  <SCORE.INTRA.DIHEDRAL.0>
7.79482

>  <SCORE.INTRA.POLAR>
0

>  <SCORE.INTRA.POLAR.0>
0

>  <SCORE.INTRA.REPUL>
0

>  <SCORE.INTRA.REPUL.0>
0

>  <SCORE.INTRA.SOLV>
0.985145

>  <SCORE.INTRA.SOLV.lig_0>
-49.456

>  <SCORE.INTRA.VDW>
-0.674207

>  <SCORE.INTRA.VDW.0>
-0.478406

>  <SCORE.INTRA.norm>
-0.140248

>  <SCORE.RESTR>
0

>  <SCORE.RESTR.CAVITY>
0

>  <SCORE.RESTR.norm>
0

>  <SCORE.SYSTEM>
0

>  <SCORE.SYSTEM.CONST>
0

>  <SCORE.SYSTEM.DIHEDRAL>
0

>  <SCORE.SYSTEM.SOLV>
0

>  <SCORE.SYSTEM.norm>
0

>  <SCORE.heavy>
14

>  <SCORE.norm>
-0.624553

>  <RMSD>
3.043

$$$$
ligand
 OpenBabel11021811413D
libRbt.so/2013.1/901 2013/11/27
 14 13  0  0  0  0  0  0  0  0999 V2000
   46.2857   11.2708   18.0763 N   0  0  0  0  0  0  0  0  0  0  0  0
   46.1693   10.2520   19.1419 C   0  0  0  0  0  0  0  0  0  0  0  0
   46.2705    8.8244   18.5624 C   0  0  0  0  0  0  0  0  0  0  0  0
   46.1440    7.7006   19.6041 C   0  0  0  0  0  0  0  0  0  0  0  0
   46.2436    6.3618   18.9605 N   0  0  0  0  0  0  0  0  0  0  0  0
   45.7599    5.3083   19.8896 C   0  0  0  0  0  0  0  0  0  0  0  0
   46.2679    3.8575   19.5910 C   0  0  0  0  0  0  0  0  0  0  0  0
   45.7493    3.2668   18.2483 C   0  0  0  0  0  0  0  0  0  0  0  0
   46.1159    1.8113   18.0338 C   0  0  0  0  0  0  0  0  0  0  0  0
   45.5424    1.3957   16.7679 N   0  0  0  0  0  0  0  0  0  0  0  0
   45.5155   -0.0561   16.8006 C   0  0  0  0  0  0  0  0  0  0  0  0
   45.0063   -0.6343   15.4854 C   0  0  0  0  0  0  0  0  0  0  0  0
   46.0771   -0.3699   14.4160 C   0  0  0  0  0  0  0  0  0  0  0  0
   47.2452   -1.2500   14.5700 N   0  0  0  0  0  0  0  0  0  0  0  0
  1  2  1  0  0  0  0
  2  3  1  0  0  0  0
  3  4  1  0  0  0  0
  4  5  1  0  0  0  0
  5  6  1  0  0  0  0
  6  7  1  0  0  0  0
  7  8  1  0  0  0  0
  8  9  1  0  0  0  0
  9 10  1  0  0  0  0
 10 11  1  0  0  0  0
 11 12  1  0  0  0  0
 12 13  1  0  0  0  0
 13 14  1  0  0  0  0
M  END
>  <CHROM.1>
-179.38273022,179.62523087,-164.68910195,-158.61098929,-65.73073309,-173.61259179
178.66982967,-161.44261791,-176.64548618,69.45630388,74.02201959,46.02791771
4.12407608,17.72509236,-1.40353847,-1.43800556,-2.64169139

>  <Name>
ligand

>  <RI>
0

>  <Rbt.Current_Directory>
/home/itssahil/PROJECTS/Mol_Feturizer/New_Systems/rnas/1TN1

>  <Rbt.Executable>
rbdock ($Id: //depot/dev/client3/rdock/2013.1/src/exe/rbdock.cxx#4 $)

>  <Rbt.Library>
libRbt.so (2013.1, Build901 2013/11/27)

>  <Rbt.Parameter_File>
/export/apps/rDock/src/rDock_2013.1_src/data/scripts/dock_solv.prm

>  <Rbt.Receptor>
prm/pocket_docking_3.prm

>  <SCORE>
-6.50448

>  <SCORE.INTER>
-3.83916

>  <SCORE.INTER.CONST>
1

>  <SCORE.INTER.POLAR>
0

>  <SCORE.INTER.ROT>
11

>  <SCORE.INTER.SOLV>
12.2063

>  <SCORE.INTER.VDW>
-17.5615

>  <SCORE.INTER.norm>
-0.274226

>  <SCORE.INTRA>
-2.66532

>  <SCORE.INTRA.DIHEDRAL>
-5.65866

>  <SCORE.INTRA.DIHEDRAL.0>
7.79482

>  <SCORE.INTRA.POLAR>
0

>  <SCORE.INTRA.POLAR.0>
0

>  <SCORE.INTRA.REPUL>
0

>  <SCORE.INTRA.REPUL.0>
0

>  <SCORE.INTRA.SOLV>
1.74984

>  <SCORE.INTRA.SOLV.lig_0>
-49.456

>  <SCORE.INTRA.VDW>
-0.710912

>  <SCORE.INTRA.VDW.0>
-0.478406

>  <SCORE.INTRA.norm>
-0.19038

>  <SCORE.RESTR>
0

>  <SCORE.RESTR.CAVITY>
0

>  <SCORE.RESTR.norm>
0

>  <SCORE.SYSTEM>
0

>  <SCORE.SYSTEM.CONST>
0

>  <SCORE.SYSTEM.DIHEDRAL>
0

>  <SCORE.SYSTEM.SOLV>
0

>  <SCORE.SYSTEM.norm>
0

>  <SCORE.heavy>
14

>  <SCORE.norm>
-0.464606

>  <RMSD>
3.044

$$$$
ligand
 OpenBabel11021811413D
libRbt.so/2013.1/901 2013/11/27
 14 13  0  0  0  0  0  0  0  0999 V2000
   45.6641   10.9828   18.4639 N   0  0  0  0  0  0  0  0  0  0  0  0
   46.2509    9.8937   19.2742 C   0  0  0  0  0  0  0  0  0  0  0  0
   45.2259    8.7650   19.5179 C   0  0  0  0  0  0  0  0  0  0  0  0
   45.7664    7.5731   20.3249 C   0  0  0  0  0  0  0  0  0  0  0  0
   44.7374    6.5052   20.4550 N   0  0  0  0  0  0  0  0  0  0  0  0
   45.3134    5.3174   21.1363 C   0  0  0  0  0  0  0  0  0  0  0  0
   46.2347    4.4108   20.2524 C   0  0  0  0  0  0  0  0  0  0  0  0
   45.4815    3.6475   19.1252 C   0  0  0  0  0  0  0  0  0  0  0  0
   46.3527    2.6791   18.3493 C   0  0  0  0  0  0  0  0  0  0  0  0
   45.5251    2.0641   17.3289 N   0  0  0  0  0  0  0  0  0  0  0  0
   45.6640    0.6303   17.5146 C   0  0  0  0  0  0  0  0  0  0  0  0
   45.1023   -0.1428   16.3271 C   0  0  0  0  0  0  0  0  0  0  0  0
   45.9723    0.1867   15.1046 C   0  0  0  0  0  0  0  0  0  0  0  0
   45.5172   -0.5133   13.8940 N   0  0  0  0  0  0  0  0  0  0  0  0
  1  2  1  0  0  0  0
  2  3  1  0  0  0  0
  3  4  1  0  0  0  0
  4  5  1  0  0  0  0
  5  6  1  0  0  0  0
  6  7  1  0  0  0  0
  7  8  1  0  0  0  0
  8  9  1  0  0  0  0
  9 10  1  0  0  0  0
 10 11  1  0  0  0  0
 11 12  1  0  0  0  0
 12 13  1  0  0  0  0
 13 14  1  0  0  0  0
M  END
>  <CHROM.1>
178.53766303,-177.18604142,175.22471465,-77.02508491,-68.31497163,-174.92819135
-179.11213601,-125.87034059,-167.25850223,65.34636587,179.89686874,45.62924773
4.42840531,18.36236240,-1.54396538,-1.52806721,-2.69920978

>  <Name>
ligand

>  <RI>
0

>  <Rbt.Current_Directory>
/home/itssahil/PROJECTS/Mol_Feturizer/New_Systems/rnas/1TN1

>  <Rbt.Executable>
rbdock ($Id: //depot/dev/client3/rdock/2013.1/src/exe/rbdock.cxx#4 $)

>  <Rbt.Library>
libRbt.so (2013.1, Build901 2013/11/27)

>  <Rbt.Parameter_File>
/export/apps/rDock/src/rDock_2013.1_src/data/scripts/dock_solv.prm

>  <Rbt.Receptor>
prm/pocket_docking_5.prm

>  <SCORE>
-10.4187

>  <SCORE.INTER>
-7.46796

>  <SCORE.INTER.CONST>
1

>  <SCORE.INTER.POLAR>
0

>  <SCORE.INTER.ROT>
11

>  <SCORE.INTER.SOLV>
9.44874

>  <SCORE.INTER.VDW>
-19.0616

>  <SCORE.INTER.norm>
-0.533426

>  <SCORE.INTRA>
-2.95072

>  <SCORE.INTRA.DIHEDRAL>
-5.73943

>  <SCORE.INTRA.DIHEDRAL.0>
7.79482

>  <SCORE.INTRA.POLAR>
0

>  <SCORE.INTRA.POLAR.0>
0

>  <SCORE.INTRA.REPUL>
0

>  <SCORE.INTRA.REPUL.0>
0

>  <SCORE.INTRA.SOLV>
0.666568

>  <SCORE.INTRA.SOLV.lig_0>
-49.456

>  <SCORE.INTRA.VDW>
-0.414289

>  <SCORE.INTRA.VDW.0>
-0.478406

>  <SCORE.INTRA.norm>
-0.210766

>  <SCORE.RESTR>
0

>  <SCORE.RESTR.CAVITY>
0

>  <SCORE.RESTR.norm>
0

>  <SCORE.SYSTEM>
0

>  <SCORE.SYSTEM.CONST>
0

>  <SCORE.SYSTEM.DIHEDRAL>
0

>  <SCORE.SYSTEM.SOLV>
0

>  <SCORE.SYSTEM.norm>
0

>  <SCORE.heavy>
14

>  <SCORE.norm>
-0.744192

>  <RMSD>
3.048

$$$$
ligand
 OpenBabel11021811413D
libRbt.so/2013.1/901 2013/11/27
 14 13  0  0  0  0  0  0  0  0999 V2000
   45.7755   -1.8782   13.9934 N   0  0  0  0  0  0  0  0  0  0  0  0
   45.2863   -0.6847   14.7168 C   0  0  0  0  0  0  0  0  0  0  0  0
   45.5551   -0.8019   16.2327 C   0  0  0  0  0  0  0  0  0  0  0  0
   45.1102    0.4170   17.0575 C   0  0  0  0  0  0  0  0  0  0  0  0
   45.8080    1.6519   16.6052 N   0  0  0  0  0  0  0  0  0  0  0  0
   45.4353    2.7991   17.4723 C   0  0  0  0  0  0  0  0  0  0  0  0
   46.1563    2.8599   18.8610 C   0  0  0  0  0  0  0  0  0  0  0  0
   45.6642    4.0130   19.7822 C   0  0  0  0  0  0  0  0  0  0  0  0
   46.1233    5.3899   19.3436 C   0  0  0  0  0  0  0  0  0  0  0  0
   45.6781    6.3410   20.3443 N   0  0  0  0  0  0  0  0  0  0  0  0
   46.3973    7.5728   20.0705 C   0  0  0  0  0  0  0  0  0  0  0  0
   45.5065    8.5961   19.3759 C   0  0  0  0  0  0  0  0  0  0  0  0
   46.3756    9.8178   19.0413 C   0  0  0  0  0  0  0  0  0  0  0  0
   45.6142   10.8684   18.3490 N   0  0  0  0  0  0  0  0  0  0  0  0
  1  2  1  0  0  0  0
  2  3  1  0  0  0  0
  3  4  1  0  0  0  0
  4  5  1  0  0  0  0
  5  6  1  0  0  0  0
  6  7  1  0  0  0  0
  7  8  1  0  0  0  0
  8  9  1  0  0  0  0
  9 10  1  0  0  0  0
 10 11  1  0  0  0  0
 11 12  1  0  0  0  0
 12 13  1  0  0  0  0
 13 14  1  0  0  0  0
M  END
>  <CHROM.1>
178.43981439,-59.63337746,-176.16144760,78.36176513,-175.70354423,-72.74350292
-175.74532976,166.60937613,103.23729774,-176.09647079,179.31781374,45.74899807
4.06866350,17.94637853,2.28494998,1.50897932,2.81437955

>  <Name>
ligand

>  <RI>
0

>  <Rbt.Current_Directory>
/home/itssahil/PROJECTS/Mol_Feturizer/New_Systems/rnas/1TN1

>  <Rbt.Executable>
rbdock ($Id: //depot/dev/client3/rdock/2013.1/src/exe/rbdock.cxx#4 $)

>  <Rbt.Library>
libRbt.so (2013.1, Build901 2013/11/27)

>  <Rbt.Parameter_File>
/export/apps/rDock/src/rDock_2013.1_src/data/scripts/dock_solv.prm

>  <Rbt.Receptor>
prm/blind_docking_100.prm

>  <SCORE>
-9.56226

>  <SCORE.INTER>
-6.85016

>  <SCORE.INTER.CONST>
1

>  <SCORE.INTER.POLAR>
0

>  <SCORE.INTER.ROT>
11

>  <SCORE.INTER.SOLV>
9.8307

>  <SCORE.INTER.VDW>
-18.777

>  <SCORE.INTER.norm>
-0.489297

>  <SCORE.INTRA>
-2.7121

>  <SCORE.INTRA.DIHEDRAL>
-5.53831

>  <SCORE.INTRA.DIHEDRAL.0>
7.79482

>  <SCORE.INTRA.POLAR>
0

>  <SCORE.INTRA.POLAR.0>
0

>  <SCORE.INTRA.REPUL>
0

>  <SCORE.INTRA.REPUL.0>
0

>  <SCORE.INTRA.SOLV>
0.374573

>  <SCORE.INTRA.SOLV.lig_0>
-49.456

>  <SCORE.INTRA.VDW>
-0.130232

>  <SCORE.INTRA.VDW.0>
-0.478406

>  <SCORE.INTRA.norm>
-0.193721

>  <SCORE.RESTR>
0

>  <SCORE.RESTR.CAVITY>
0

>  <SCORE.RESTR.norm>
0

>  <SCORE.SYSTEM>
0

>  <SCORE.SYSTEM.CONST>
0

>  <SCORE.SYSTEM.DIHEDRAL>
0

>  <SCORE.SYSTEM.SOLV>
0

>  <SCORE.SYSTEM.norm>
0

>  <SCORE.heavy>
14

>  <SCORE.norm>
-0.683019

>  <RMSD>
3.051

$$$$
ligand
 OpenBabel11021811413D
libRbt.so/2013.1/901 2013/11/27
 14 13  0  0  0  0  0  0  0  0999 V2000
   45.2841   10.6823   18.3284 N   0  0  0  0  0  0  0  0  0  0  0  0
   45.9552    9.9047   19.3924 C   0  0  0  0  0  0  0  0  0  0  0  0
   45.3827    8.4737   19.4833 C   0  0  0  0  0  0  0  0  0  0  0  0
   46.0904    7.5649   20.5019 C   0  0  0  0  0  0  0  0  0  0  0  0
   45.5986    6.1634   20.3998 N   0  0  0  0  0  0  0  0  0  0  0  0
   46.2157    5.4867   19.2302 C   0  0  0  0  0  0  0  0  0  0  0  0
   46.2351    3.9219   19.2863 C   0  0  0  0  0  0  0  0  0  0  0  0
   44.8253    3.2667   19.2253 C   0  0  0  0  0  0  0  0  0  0  0  0
   44.8476    1.7886   18.8883 C   0  0  0  0  0  0  0  0  0  0  0  0
   45.3597    1.6536   17.5377 N   0  0  0  0  0  0  0  0  0  0  0  0
   45.2852    0.2374   17.2236 C   0  0  0  0  0  0  0  0  0  0  0  0
   45.5884   -0.0242   15.7529 C   0  0  0  0  0  0  0  0  0  0  0  0
   45.5494   -1.5442   15.5336 C   0  0  0  0  0  0  0  0  0  0  0  0
   45.7861   -1.9091   14.1288 N   0  0  0  0  0  0  0  0  0  0  0  0
  1  2  1  0  0  0  0
  2  3  1  0  0  0  0
  3  4  1  0  0  0  0
  4  5  1  0  0  0  0
  5  6  1  0  0  0  0
  6  7  1  0  0  0  0
  7  8  1  0  0  0  0
  8  9  1  0  0  0  0
  9 10  1  0  0  0  0
 10 11  1  0  0  0  0
 11 12  1  0  0  0  0
 12 13  1  0  0  0  0
 13 14  1  0  0  0  0
M  END
>  <CHROM.1>
176.05070967,-172.57453554,77.79051617,158.03284058,66.36172806,163.68003210
-65.06703603,-176.46649713,171.07645178,177.43723887,178.09641105,45.57171065
3.97609813,18.20827552,-1.16533601,-1.52175244,-2.37149816

>  <Name>
ligand

>  <RI>
0

>  <Rbt.Current_Directory>
/home/itssahil/PROJECTS/Mol_Feturizer/New_Systems/rnas/1TN1

>  <Rbt.Executable>
rbdock ($Id: //depot/dev/client3/rdock/2013.1/src/exe/rbdock.cxx#4 $)

>  <Rbt.Library>
libRbt.so (2013.1, Build901 2013/11/27)

>  <Rbt.Parameter_File>
/export/apps/rDock/src/rDock_2013.1_src/data/scripts/dock_solv.prm

>  <Rbt.Receptor>
prm/blind_docking_80.prm

>  <SCORE>
-9.52216

>  <SCORE.INTER>
-6.83369

>  <SCORE.INTER.CONST>
1

>  <SCORE.INTER.POLAR>
0

>  <SCORE.INTER.ROT>
11

>  <SCORE.INTER.SOLV>
11.5135

>  <SCORE.INTER.VDW>
-19.327

>  <SCORE.INTER.norm>
-0.488121

>  <SCORE.INTRA>
-2.68847

>  <SCORE.INTRA.DIHEDRAL>
-5.52081

>  <SCORE.INTRA.DIHEDRAL.0>
7.79482

>  <SCORE.INTRA.POLAR>
0

>  <SCORE.INTRA.POLAR.0>
0

>  <SCORE.INTRA.REPUL>
0

>  <SCORE.INTRA.REPUL.0>
0

>  <SCORE.INTRA.SOLV>
0.678302

>  <SCORE.INTRA.SOLV.lig_0>
-49.456

>  <SCORE.INTRA.VDW>
-0.267213

>  <SCORE.INTRA.VDW.0>
-0.478406

>  <SCORE.INTRA.norm>
-0.192033

>  <SCORE.RESTR>
0

>  <SCORE.RESTR.CAVITY>
0

>  <SCORE.RESTR.norm>
0

>  <SCORE.SYSTEM>
0

>  <SCORE.SYSTEM.CONST>
0

>  <SCORE.SYSTEM.DIHEDRAL>
0

>  <SCORE.SYSTEM.SOLV>
0

>  <SCORE.SYSTEM.norm>
0

>  <SCORE.heavy>
14

>  <SCORE.norm>
-0.680154

>  <RMSD>
3.068

$$$$
ligand
 OpenBabel11021811413D
libRbt.so/2013.1/901 2013/11/27
 14 13  0  0  0  0  0  0  0  0999 V2000
   45.9628   10.7922   18.5707 N   0  0  0  0  0  0  0  0  0  0  0  0
   46.6001    9.5785   19.1255 C   0  0  0  0  0  0  0  0  0  0  0  0
   45.5607    8.4619   19.3640 C   0  0  0  0  0  0  0  0  0  0  0  0
   46.1447    7.1516   19.9171 C   0  0  0  0  0  0  0  0  0  0  0  0
   45.0832    6.1208   20.0816 N   0  0  0  0  0  0  0  0  0  0  0  0
   45.6686    4.8602   20.6060 C   0  0  0  0  0  0  0  0  0  0  0  0
   46.3907    3.9583   19.5489 C   0  0  0  0  0  0  0  0  0  0  0  0
   45.4844    3.5202   18.3628 C   0  0  0  0  0  0  0  0  0  0  0  0
   46.1688    2.5974   17.3733 C   0  0  0  0  0  0  0  0  0  0  0  0
   46.0921    1.2495   17.9040 N   0  0  0  0  0  0  0  0  0  0  0  0
   44.8221    0.7134   17.4466 C   0  0  0  0  0  0  0  0  0  0  0  0
   44.9100    0.2232   16.0060 C   0  0  0  0  0  0  0  0  0  0  0  0
   45.7406   -1.0691   16.0047 C   0  0  0  0  0  0  0  0  0  0  0  0
   45.8756   -1.6414   14.6568 N   0  0  0  0  0  0  0  0  0  0  0  0
  1  2  1  0  0  0  0
  2  3  1  0  0  0  0
  3  4  1  0  0  0  0
  4  5  1  0  0  0  0
  5  6  1  0  0  0  0
  6  7  1  0  0  0  0
  7  8  1  0  0  0  0
  8  9  1  0  0  0  0
  9 10  1  0  0  0  0
 10 11  1  0  0  0  0
 11 12  1  0  0  0  0
 12 13  1  0  0  0  0
 13 14  1  0  0  0  0
M  END
>  <CHROM.1>
178.92197103,-178.45427267,179.53979500,-79.51458135,-58.01440878,-177.44310078
82.78578977,87.02447035,80.33656678,72.10106740,179.28654512,45.75031428
4.03685885,18.21217057,-1.05156620,-1.48597282,-2.27869511

>  <Name>
ligand

>  <RI>
0

>  <Rbt.Current_Directory>
/home/itssahil/PROJECTS/Mol_Feturizer/New_Systems/rnas/1TN1

>  <Rbt.Executable>
rbdock ($Id: //depot/dev/client3/rdock/2013.1/src/exe/rbdock.cxx#4 $)

>  <Rbt.Library>
libRbt.so (2013.1, Build901 2013/11/27)

>  <Rbt.Parameter_File>
/export/apps/rDock/src/rDock_2013.1_src/data/scripts/dock_solv.prm

>  <Rbt.Receptor>
prm/pocket_docking_3.prm

>  <SCORE>
-7.03547

>  <SCORE.INTER>
-6.41693

>  <SCORE.INTER.CONST>
1

>  <SCORE.INTER.POLAR>
0

>  <SCORE.INTER.ROT>
11

>  <SCORE.INTER.SOLV>
12.8555

>  <SCORE.INTER.VDW>
-19.4964

>  <SCORE.INTER.norm>
-0.458352

>  <SCORE.INTRA>
-0.624537

>  <SCORE.INTRA.DIHEDRAL>
-4.35621

>  <SCORE.INTRA.DIHEDRAL.0>
7.79482

>  <SCORE.INTRA.POLAR>
0

>  <SCORE.INTRA.POLAR.0>
0

>  <SCORE.INTRA.REPUL>
0

>  <SCORE.INTRA.REPUL.0>
0

>  <SCORE.INTRA.SOLV>
0.921298

>  <SCORE.INTRA.SOLV.lig_0>
-49.456

>  <SCORE.INTRA.VDW>
1.09292

>  <SCORE.INTRA.VDW.0>
-0.478406

>  <SCORE.INTRA.norm>
-0.0446098

>  <SCORE.RESTR>
0.00599567

>  <SCORE.RESTR.CAVITY>
0.00599567

>  <SCORE.RESTR.norm>
0.000428262

>  <SCORE.SYSTEM>
0

>  <SCORE.SYSTEM.CONST>
0

>  <SCORE.SYSTEM.DIHEDRAL>
0

>  <SCORE.SYSTEM.SOLV>
0

>  <SCORE.SYSTEM.norm>
0

>  <SCORE.heavy>
14

>  <SCORE.norm>
-0.502533

>  <RMSD>
3.069

$$$$
ligand
 OpenBabel11021811413D
libRbt.so/2013.1/901 2013/11/27
 14 13  0  0  0  0  0  0  0  0999 V2000
   48.3406    9.7357   16.4639 N   0  0  0  0  0  0  0  0  0  0  0  0
   48.1759    9.1313   17.8035 C   0  0  0  0  0  0  0  0  0  0  0  0
   46.7961    9.4753   18.4051 C   0  0  0  0  0  0  0  0  0  0  0  0
   46.5469    8.8955   19.8072 C   0  0  0  0  0  0  0  0  0  0  0  0
   46.7078    7.4155   19.8098 N   0  0  0  0  0  0  0  0  0  0  0  0
   45.5752    6.7772   20.5285 C   0  0  0  0  0  0  0  0  0  0  0  0
   45.6110    5.2130   20.5944 C   0  0  0  0  0  0  0  0  0  0  0  0
   45.6554    4.5196   19.2024 C   0  0  0  0  0  0  0  0  0  0  0  0
   45.3858    3.0283   19.2488 C   0  0  0  0  0  0  0  0  0  0  0  0
   45.4320    2.5308   17.8869 N   0  0  0  0  0  0  0  0  0  0  0  0
   44.8169    1.2155   17.9225 C   0  0  0  0  0  0  0  0  0  0  0  0
   45.4048    0.2959   16.8586 C   0  0  0  0  0  0  0  0  0  0  0  0
   45.0399    0.8807   15.4857 C   0  0  0  0  0  0  0  0  0  0  0  0
   45.5469    0.0565   14.3783 N   0  0  0  0  0  0  0  0  0  0  0  0
  1  2  1  0  0  0  0
  2  3  1  0  0  0  0
  3  4  1  0  0  0  0
  4  5  1  0  0  0  0
  5  6  1  0  0  0  0
  6  7  1  0  0  0  0
  7  8  1  0  0  0  0
  8  9  1  0  0  0  0
  9 10  1  0  0  0  0
 10 11  1  0  0  0  0
 11 12  1  0  0  0  0
 12 13  1  0  0  0  0
 13 14  1  0  0  0  0
M  END
>  <CHROM.1>
-179.44101256,-56.63252666,-133.48847602,179.40514906,-57.72794836,-167.33222939
178.80833212,-164.62741275,-149.88264789,-64.87005200,-179.26762190,46.07376694
4.94076786,18.17153847,-0.98648843,-1.14830676,-2.32576853

>  <Name>
ligand

>  <RI>
0

>  <Rbt.Current_Directory>
/home/itssahil/PROJECTS/Mol_Feturizer/New_Systems/rnas/1TN1

>  <Rbt.Executable>
rbdock ($Id: //depot/dev/client3/rdock/2013.1/src/exe/rbdock.cxx#4 $)

>  <Rbt.Library>
libRbt.so (2013.1, Build901 2013/11/27)

>  <Rbt.Parameter_File>
/export/apps/rDock/src/rDock_2013.1_src/data/scripts/dock_solv.prm

>  <Rbt.Receptor>
prm/pocket_docking_3.prm

>  <SCORE>
-8.38029

>  <SCORE.INTER>
-5.72516

>  <SCORE.INTER.CONST>
1

>  <SCORE.INTER.POLAR>
0

>  <SCORE.INTER.ROT>
11

>  <SCORE.INTER.SOLV>
9.55435

>  <SCORE.INTER.VDW>
-17.9349

>  <SCORE.INTER.norm>
-0.40894

>  <SCORE.INTRA>
-2.66438

>  <SCORE.INTRA.DIHEDRAL>
-5.14135

>  <SCORE.INTRA.DIHEDRAL.0>
7.79482

>  <SCORE.INTRA.POLAR>
0

>  <SCORE.INTRA.POLAR.0>
0

>  <SCORE.INTRA.REPUL>
0

>  <SCORE.INTRA.REPUL.0>
0

>  <SCORE.INTRA.SOLV>
1.06969

>  <SCORE.INTRA.SOLV.lig_0>
-49.456

>  <SCORE.INTRA.VDW>
-0.628556

>  <SCORE.INTRA.VDW.0>
-0.478406

>  <SCORE.INTRA.norm>
-0.190313

>  <SCORE.RESTR>
0.00925617

>  <SCORE.RESTR.CAVITY>
0.00925617

>  <SCORE.RESTR.norm>
0.000661155

>  <SCORE.SYSTEM>
0

>  <SCORE.SYSTEM.CONST>
0

>  <SCORE.SYSTEM.DIHEDRAL>
0

>  <SCORE.SYSTEM.SOLV>
0

>  <SCORE.SYSTEM.norm>
0

>  <SCORE.heavy>
14

>  <SCORE.norm>
-0.598592

>  <RMSD>
3.076

$$$$
ligand
 OpenBabel11021811413D
libRbt.so/2013.1/901 2013/11/27
 14 13  0  0  0  0  0  0  0  0999 V2000
   45.6492   -1.9986   16.7590 N   0  0  0  0  0  0  0  0  0  0  0  0
   45.6821   -0.8949   15.7752 C   0  0  0  0  0  0  0  0  0  0  0  0
   44.7547    0.2627   16.2041 C   0  0  0  0  0  0  0  0  0  0  0  0
   45.1479    0.9414   17.5265 C   0  0  0  0  0  0  0  0  0  0  0  0
   44.2649    2.1052   17.8131 N   0  0  0  0  0  0  0  0  0  0  0  0
   44.7513    2.8358   19.0117 C   0  0  0  0  0  0  0  0  0  0  0  0
   46.0371    3.7040   18.7994 C   0  0  0  0  0  0  0  0  0  0  0  0
   46.3613    4.6589   19.9841 C   0  0  0  0  0  0  0  0  0  0  0  0
   45.5555    5.9433   19.9777 C   0  0  0  0  0  0  0  0  0  0  0  0
   46.0681    6.7782   18.9078 N   0  0  0  0  0  0  0  0  0  0  0  0
   45.4717    8.0879   19.1045 C   0  0  0  0  0  0  0  0  0  0  0  0
   45.7906    9.0256   17.9459 C   0  0  0  0  0  0  0  0  0  0  0  0
   47.3009    9.3045   17.9760 C   0  0  0  0  0  0  0  0  0  0  0  0
   48.0872    8.1586   17.4950 N   0  0  0  0  0  0  0  0  0  0  0  0
  1  2  1  0  0  0  0
  2  3  1  0  0  0  0
  3  4  1  0  0  0  0
  4  5  1  0  0  0  0
  5  6  1  0  0  0  0
  6  7  1  0  0  0  0
  7  8  1  0  0  0  0
  8  9  1  0  0  0  0
  9 10  1  0  0  0  0
 10 11  1  0  0  0  0
 11 12  1  0  0  0  0
 12 13  1  0  0  0  0
 13 14  1  0  0  0  0
M  END
>  <CHROM.1>
62.80916089,175.82908300,-173.78382783,74.30199603,168.97055070,-80.91034073
-72.79281455,-168.60023775,-172.97086100,-66.90144763,74.68060407,45.78007779
4.20822927,18.09157045,-1.88462610,1.06624317,0.47287536

>  <Name>
ligand

>  <RI>
0

>  <Rbt.Current_Directory>
/home/itssahil/PROJECTS/Mol_Feturizer/New_Systems/rnas/1TN1

>  <Rbt.Executable>
rbdock ($Id: //depot/dev/client3/rdock/2013.1/src/exe/rbdock.cxx#4 $)

>  <Rbt.Library>
libRbt.so (2013.1, Build901 2013/11/27)

>  <Rbt.Parameter_File>
/export/apps/rDock/src/rDock_2013.1_src/data/scripts/dock_solv.prm

>  <Rbt.Receptor>
prm/pocket_docking_2.prm

>  <SCORE>
-3.3823

>  <SCORE.INTER>
-3.30732

>  <SCORE.INTER.CONST>
1

>  <SCORE.INTER.POLAR>
0

>  <SCORE.INTER.ROT>
11

>  <SCORE.INTER.SOLV>
19.3532

>  <SCORE.INTER.VDW>
-19.5893

>  <SCORE.INTER.norm>
-0.236237

>  <SCORE.INTRA>
-0.0794877

>  <SCORE.INTRA.DIHEDRAL>
-3.70729

>  <SCORE.INTRA.DIHEDRAL.0>
7.79482

>  <SCORE.INTRA.POLAR>
0

>  <SCORE.INTRA.POLAR.0>
0

>  <SCORE.INTRA.REPUL>
0

>  <SCORE.INTRA.REPUL.0>
0

>  <SCORE.INTRA.SOLV>
4.03571

>  <SCORE.INTRA.SOLV.lig_0>
-49.456

>  <SCORE.INTRA.VDW>
-0.243697

>  <SCORE.INTRA.VDW.0>
-0.478406

>  <SCORE.INTRA.norm>
-0.0056777

>  <SCORE.RESTR>
0.0045047

>  <SCORE.RESTR.CAVITY>
0.0045047

>  <SCORE.RESTR.norm>
0.000321764

>  <SCORE.SYSTEM>
0

>  <SCORE.SYSTEM.CONST>
0

>  <SCORE.SYSTEM.DIHEDRAL>
0

>  <SCORE.SYSTEM.SOLV>
0

>  <SCORE.SYSTEM.norm>
0

>  <SCORE.heavy>
14

>  <SCORE.norm>
-0.241593

>  <RMSD>
3.080

$$$$
ligand
 OpenBabel11021811413D
libRbt.so/2013.1/901 2013/11/27
 14 13  0  0  0  0  0  0  0  0999 V2000
   48.0301    9.3882   16.6278 N   0  0  0  0  0  0  0  0  0  0  0  0
   47.9644    8.9040   18.0236 C   0  0  0  0  0  0  0  0  0  0  0  0
   46.6150    9.2704   18.6785 C   0  0  0  0  0  0  0  0  0  0  0  0
   46.4848    8.8525   20.1525 C   0  0  0  0  0  0  0  0  0  0  0  0
   46.6424    7.3802   20.3064 N   0  0  0  0  0  0  0  0  0  0  0  0
   45.3290    6.7510   20.5992 C   0  0  0  0  0  0  0  0  0  0  0  0
   45.3175    5.1852   20.6167 C   0  0  0  0  0  0  0  0  0  0  0  0
   45.7825    4.5318   19.2836 C   0  0  0  0  0  0  0  0  0  0  0  0
   45.5581    3.0336   19.2213 C   0  0  0  0  0  0  0  0  0  0  0  0
   46.0512    2.5683   17.9389 N   0  0  0  0  0  0  0  0  0  0  0  0
   45.9431    1.1203   17.9724 C   0  0  0  0  0  0  0  0  0  0  0  0
   44.6351    0.6442   17.3513 C   0  0  0  0  0  0  0  0  0  0  0  0
   44.7092    0.9217   15.8421 C   0  0  0  0  0  0  0  0  0  0  0  0
   45.6685    0.0391   15.1614 N   0  0  0  0  0  0  0  0  0  0  0  0
  1  2  1  0  0  0  0
  2  3  1  0  0  0  0
  3  4  1  0  0  0  0
  4  5  1  0  0  0  0
  5  6  1  0  0  0  0
  6  7  1  0  0  0  0
  7  8  1  0  0  0  0
  8  9  1  0  0  0  0
  9 10  1  0  0  0  0
 10 11  1  0  0  0  0
 11 12  1  0  0  0  0
 12 13  1  0  0  0  0
 13 14  1  0  0  0  0
M  END
>  <CHROM.1>
-177.66031798,-59.34107684,-106.92020901,172.99776642,-58.37667491,-170.54843765
-179.30577673,174.41942791,94.38833683,69.05632538,70.26951627,46.05198146
4.89934117,18.41292259,-1.05011147,-1.15592032,-2.38459748

>  <Name>
ligand

>  <RI>
0

>  <Rbt.Current_Directory>
/home/itssahil/PROJECTS/Mol_Feturizer/New_Systems/rnas/1TN1

>  <Rbt.Executable>
rbdock ($Id: //depot/dev/client3/rdock/2013.1/src/exe/rbdock.cxx#4 $)

>  <Rbt.Library>
libRbt.so (2013.1, Build901 2013/11/27)

>  <Rbt.Parameter_File>
/export/apps/rDock/src/rDock_2013.1_src/data/scripts/dock_solv.prm

>  <Rbt.Receptor>
prm/pocket_docking_6.prm

>  <SCORE>
-8.89895

>  <SCORE.INTER>
-7.30387

>  <SCORE.INTER.CONST>
1

>  <SCORE.INTER.POLAR>
0

>  <SCORE.INTER.ROT>
11

>  <SCORE.INTER.SOLV>
11.2015

>  <SCORE.INTER.VDW>
-19.5364

>  <SCORE.INTER.norm>
-0.521705

>  <SCORE.INTRA>
-1.59509

>  <SCORE.INTRA.DIHEDRAL>
-4.8329

>  <SCORE.INTRA.DIHEDRAL.0>
7.79482

>  <SCORE.INTRA.POLAR>
0

>  <SCORE.INTRA.POLAR.0>
0

>  <SCORE.INTRA.REPUL>
0

>  <SCORE.INTRA.REPUL.0>
0

>  <SCORE.INTRA.SOLV>
2.22037

>  <SCORE.INTRA.SOLV.lig_0>
-49.456

>  <SCORE.INTRA.VDW>
-0.288821

>  <SCORE.INTRA.VDW.0>
-0.478406

>  <SCORE.INTRA.norm>
-0.113935

>  <SCORE.RESTR>
0

>  <SCORE.RESTR.CAVITY>
0

>  <SCORE.RESTR.norm>
0

>  <SCORE.SYSTEM>
0

>  <SCORE.SYSTEM.CONST>
0

>  <SCORE.SYSTEM.DIHEDRAL>
0

>  <SCORE.SYSTEM.SOLV>
0

>  <SCORE.SYSTEM.norm>
0

>  <SCORE.heavy>
14

>  <SCORE.norm>
-0.63564

>  <RMSD>
3.087

$$$$
ligand
 OpenBabel11021811413D
libRbt.so/2013.1/901 2013/11/27
 14 13  0  0  0  0  0  0  0  0999 V2000
   45.5919   10.9286   18.5237 N   0  0  0  0  0  0  0  0  0  0  0  0
   46.2468    9.8530   19.2991 C   0  0  0  0  0  0  0  0  0  0  0  0
   45.2517    8.7208   19.6334 C   0  0  0  0  0  0  0  0  0  0  0  0
   45.8752    7.5117   20.3497 C   0  0  0  0  0  0  0  0  0  0  0  0
   44.8742    6.4253   20.5343 N   0  0  0  0  0  0  0  0  0  0  0  0
   45.5230    5.2230   21.1176 C   0  0  0  0  0  0  0  0  0  0  0  0
   46.2700    4.2964   20.1000 C   0  0  0  0  0  0  0  0  0  0  0  0
   45.3279    3.5398   19.1200 C   0  0  0  0  0  0  0  0  0  0  0  0
   46.0411    2.5450   18.2252 C   0  0  0  0  0  0  0  0  0  0  0  0
   45.0548    1.9776   17.3254 N   0  0  0  0  0  0  0  0  0  0  0  0
   45.6317    0.7391   16.8323 C   0  0  0  0  0  0  0  0  0  0  0  0
   44.7540    0.1028   15.7608 C   0  0  0  0  0  0  0  0  0  0  0  0
   45.4401   -1.1951   15.3085 C   0  0  0  0  0  0  0  0  0  0  0  0
   46.6857   -0.9370   14.5705 N   0  0  0  0  0  0  0  0  0  0  0  0
  1  2  1  0  0  0  0
  2  3  1  0  0  0  0
  3  4  1  0  0  0  0
  4  5  1  0  0  0  0
  5  6  1  0  0  0  0
  6  7  1  0  0  0  0
  7  8  1  0  0  0  0
  8  9  1  0  0  0  0
  9 10  1  0  0  0  0
 10 11  1  0  0  0  0
 11 12  1  0  0  0  0
 12 13  1  0  0  0  0
 13 14  1  0  0  0  0
M  END
>  <CHROM.1>
175.70452217,-175.38936173,174.99766005,-81.92453327,-69.03059165,-174.48017244
-176.91841825,-160.42307637,-174.26208722,-179.78885192,-68.57227074,45.61202900
4.26636778,18.33599897,-1.56313949,-1.49977812,-2.72472647

>  <Name>
ligand

>  <RI>
0

>  <Rbt.Current_Directory>
/home/itssahil/PROJECTS/Mol_Feturizer/New_Systems/rnas/1TN1

>  <Rbt.Executable>
rbdock ($Id: //depot/dev/client3/rdock/2013.1/src/exe/rbdock.cxx#4 $)

>  <Rbt.Library>
libRbt.so (2013.1, Build901 2013/11/27)

>  <Rbt.Parameter_File>
/export/apps/rDock/src/rDock_2013.1_src/data/scripts/dock_solv.prm

>  <Rbt.Receptor>
prm/pocket_docking_5.prm

>  <SCORE>
-10.0392

>  <SCORE.INTER>
-6.83724

>  <SCORE.INTER.CONST>
1

>  <SCORE.INTER.POLAR>
0

>  <SCORE.INTER.ROT>
11

>  <SCORE.INTER.SOLV>
11.8842

>  <SCORE.INTER.VDW>
-19.4529

>  <SCORE.INTER.norm>
-0.488375

>  <SCORE.INTRA>
-3.20199

>  <SCORE.INTRA.DIHEDRAL>
-6.21643

>  <SCORE.INTRA.DIHEDRAL.0>
7.79482

>  <SCORE.INTRA.POLAR>
0

>  <SCORE.INTRA.POLAR.0>
0

>  <SCORE.INTRA.REPUL>
0

>  <SCORE.INTRA.REPUL.0>
0

>  <SCORE.INTRA.SOLV>
0.983781

>  <SCORE.INTRA.SOLV.lig_0>
-49.456

>  <SCORE.INTRA.VDW>
-0.58567

>  <SCORE.INTRA.VDW.0>
-0.478406

>  <SCORE.INTRA.norm>
-0.228714

>  <SCORE.RESTR>
0

>  <SCORE.RESTR.CAVITY>
0

>  <SCORE.RESTR.norm>
0

>  <SCORE.SYSTEM>
0

>  <SCORE.SYSTEM.CONST>
0

>  <SCORE.SYSTEM.DIHEDRAL>
0

>  <SCORE.SYSTEM.SOLV>
0

>  <SCORE.SYSTEM.norm>
0

>  <SCORE.heavy>
14

>  <SCORE.norm>
-0.717088

>  <RMSD>
3.088

$$$$
ligand
 OpenBabel11021811413D
libRbt.so/2013.1/901 2013/11/27
 14 13  0  0  0  0  0  0  0  0999 V2000
   40.7816    7.1990   20.5075 N   0  0  0  0  0  0  0  0  0  0  0  0
   40.7548    8.6595   20.2764 C   0  0  0  0  0  0  0  0  0  0  0  0
   41.8364    9.0834   19.2594 C   0  0  0  0  0  0  0  0  0  0  0  0
   43.2821    8.8500   19.7281 C   0  0  0  0  0  0  0  0  0  0  0  0
   43.5828    7.3955   19.8294 N   0  0  0  0  0  0  0  0  0  0  0  0
   44.9476    7.1905   20.3789 C   0  0  0  0  0  0  0  0  0  0  0  0
   45.7724    6.0300   19.7269 C   0  0  0  0  0  0  0  0  0  0  0  0
   45.1057    4.6297   19.8505 C   0  0  0  0  0  0  0  0  0  0  0  0
   45.8027    3.5437   19.0546 C   0  0  0  0  0  0  0  0  0  0  0  0
   45.0111    2.3340   19.1748 N   0  0  0  0  0  0  0  0  0  0  0  0
   45.7280    1.3136   18.4301 C   0  0  0  0  0  0  0  0  0  0  0  0
   44.8840    0.7607   17.2876 C   0  0  0  0  0  0  0  0  0  0  0  0
   45.6157   -0.4651   16.7203 C   0  0  0  0  0  0  0  0  0  0  0  0
   44.9896   -0.9641   15.4867 N   0  0  0  0  0  0  0  0  0  0  0  0
  1  2  1  0  0  0  0
  2  3  1  0  0  0  0
  3  4  1  0  0  0  0
  4  5  1  0  0  0  0
  5  6  1  0  0  0  0
  6  7  1  0  0  0  0
  7  8  1  0  0  0  0
  8  9  1  0  0  0  0
  9 10  1  0  0  0  0
 10 11  1  0  0  0  0
 11 12  1  0  0  0  0
 12 13  1  0  0  0  0
 13 14  1  0  0  0  0
M  END
>  <CHROM.1>
-64.50570602,67.77907289,-175.80909813,-140.47861064,-59.60376286,171.84567252
-175.26035894,-178.57375322,-119.60792403,-170.28212456,-171.69771839,44.14983161
4.68316918,18.97946302,1.92738181,-0.26896861,0.44702044

>  <Name>
ligand

>  <RI>
0

>  <Rbt.Current_Directory>
/home/itssahil/PROJECTS/Mol_Feturizer/New_Systems/rnas/1TN1

>  <Rbt.Executable>
rbdock ($Id: //depot/dev/client3/rdock/2013.1/src/exe/rbdock.cxx#4 $)

>  <Rbt.Library>
libRbt.so (2013.1, Build901 2013/11/27)

>  <Rbt.Parameter_File>
/export/apps/rDock/src/rDock_2013.1_src/data/scripts/dock_solv.prm

>  <Rbt.Receptor>
prm/blind_docking_100.prm

>  <SCORE>
-13.1731

>  <SCORE.INTER>
-11.7025

>  <SCORE.INTER.CONST>
1

>  <SCORE.INTER.POLAR>
0

>  <SCORE.INTER.ROT>
11

>  <SCORE.INTER.SOLV>
16.0864

>  <SCORE.INTER.VDW>
-24.0972

>  <SCORE.INTER.norm>
-0.835894

>  <SCORE.INTRA>
-1.47063

>  <SCORE.INTRA.DIHEDRAL>
-4.42356

>  <SCORE.INTRA.DIHEDRAL.0>
7.79482

>  <SCORE.INTRA.POLAR>
0

>  <SCORE.INTRA.POLAR.0>
0

>  <SCORE.INTRA.REPUL>
0

>  <SCORE.INTRA.REPUL.0>
0

>  <SCORE.INTRA.SOLV>
3.20711

>  <SCORE.INTRA.SOLV.lig_0>
-49.456

>  <SCORE.INTRA.VDW>
-0.862403

>  <SCORE.INTRA.VDW.0>
-0.478406

>  <SCORE.INTRA.norm>
-0.105045

>  <SCORE.RESTR>
0

>  <SCORE.RESTR.CAVITY>
0

>  <SCORE.RESTR.norm>
0

>  <SCORE.SYSTEM>
0

>  <SCORE.SYSTEM.CONST>
0

>  <SCORE.SYSTEM.DIHEDRAL>
0

>  <SCORE.SYSTEM.SOLV>
0

>  <SCORE.SYSTEM.norm>
0

>  <SCORE.heavy>
14

>  <SCORE.norm>
-0.940939

>  <RMSD>
3.107

$$$$
ligand
 OpenBabel11021811413D
libRbt.so/2013.1/901 2013/11/27
 14 13  0  0  0  0  0  0  0  0999 V2000
   47.6002    8.2930   17.7051 N   0  0  0  0  0  0  0  0  0  0  0  0
   46.7163    9.4336   18.0288 C   0  0  0  0  0  0  0  0  0  0  0  0
   46.4351    9.5090   19.5451 C   0  0  0  0  0  0  0  0  0  0  0  0
   45.6071    8.3389   20.1012 C   0  0  0  0  0  0  0  0  0  0  0  0
   46.3005    7.0403   19.8788 N   0  0  0  0  0  0  0  0  0  0  0  0
   45.6581    5.9706   20.6850 C   0  0  0  0  0  0  0  0  0  0  0  0
   46.1476    4.5131   20.3880 C   0  0  0  0  0  0  0  0  0  0  0  0
   45.7992    4.0049   18.9595 C   0  0  0  0  0  0  0  0  0  0  0  0
   46.2006    2.5654   18.7034 C   0  0  0  0  0  0  0  0  0  0  0  0
   45.6395    2.1737   17.4243 N   0  0  0  0  0  0  0  0  0  0  0  0
   45.6913    0.7224   17.3946 C   0  0  0  0  0  0  0  0  0  0  0  0
   45.3865    0.1819   16.0024 C   0  0  0  0  0  0  0  0  0  0  0  0
   45.6046   -1.3384   16.0361 C   0  0  0  0  0  0  0  0  0  0  0  0
   45.3908   -1.9596   14.7204 N   0  0  0  0  0  0  0  0  0  0  0  0
  1  2  1  0  0  0  0
  2  3  1  0  0  0  0
  3  4  1  0  0  0  0
  4  5  1  0  0  0  0
  5  6  1  0  0  0  0
  6  7  1  0  0  0  0
  7  8  1  0  0  0  0
  8  9  1  0  0  0  0
  9 10  1  0  0  0  0
 10 11  1  0  0  0  0
 11 12  1  0  0  0  0
 12 13  1  0  0  0  0
 13 14  1  0  0  0  0
M  END
>  <CHROM.1>
-66.62819287,60.06903637,166.91609567,171.25240136,-65.40398402,-176.53147191
171.54885189,-163.43302276,-168.87049097,174.33260130,-177.62414364,46.01259943
4.24648217,18.25552955,-1.16969445,-1.32960837,-2.40393692

>  <Name>
ligand

>  <RI>
0

>  <Rbt.Current_Directory>
/home/itssahil/PROJECTS/Mol_Feturizer/New_Systems/rnas/1TN1

>  <Rbt.Executable>
rbdock ($Id: //depot/dev/client3/rdock/2013.1/src/exe/rbdock.cxx#4 $)

>  <Rbt.Library>
libRbt.so (2013.1, Build901 2013/11/27)

>  <Rbt.Parameter_File>
/export/apps/rDock/src/rDock_2013.1_src/data/scripts/dock_solv.prm

>  <Rbt.Receptor>
prm/blind_docking_60.prm

>  <SCORE>
-10.2411

>  <SCORE.INTER>
-7.62453

>  <SCORE.INTER.CONST>
1

>  <SCORE.INTER.POLAR>
0

>  <SCORE.INTER.ROT>
11

>  <SCORE.INTER.SOLV>
12.7118

>  <SCORE.INTER.VDW>
-20.2536

>  <SCORE.INTER.norm>
-0.544609

>  <SCORE.INTRA>
-2.6166

>  <SCORE.INTRA.DIHEDRAL>
-6.5542

>  <SCORE.INTRA.DIHEDRAL.0>
7.79482

>  <SCORE.INTRA.POLAR>
0

>  <SCORE.INTRA.POLAR.0>
0

>  <SCORE.INTRA.REPUL>
0

>  <SCORE.INTRA.REPUL.0>
0

>  <SCORE.INTRA.SOLV>
3.16227

>  <SCORE.INTRA.SOLV.lig_0>
-49.456

>  <SCORE.INTRA.VDW>
-0.920633

>  <SCORE.INTRA.VDW.0>
-0.478406

>  <SCORE.INTRA.norm>
-0.1869

>  <SCORE.RESTR>
0

>  <SCORE.RESTR.CAVITY>
0

>  <SCORE.RESTR.norm>
0

>  <SCORE.SYSTEM>
0

>  <SCORE.SYSTEM.CONST>
0

>  <SCORE.SYSTEM.DIHEDRAL>
0

>  <SCORE.SYSTEM.SOLV>
0

>  <SCORE.SYSTEM.norm>
0

>  <SCORE.heavy>
14

>  <SCORE.norm>
-0.731509

>  <RMSD>
3.111

$$$$
ligand
 OpenBabel11021811413D
libRbt.so/2013.1/901 2013/11/27
 14 13  0  0  0  0  0  0  0  0999 V2000
   45.6404   -1.2919   15.4894 N   0  0  0  0  0  0  0  0  0  0  0  0
   45.1035    0.0684   15.2694 C   0  0  0  0  0  0  0  0  0  0  0  0
   44.4522    0.6256   16.5536 C   0  0  0  0  0  0  0  0  0  0  0  0
   45.4300    0.8620   17.7164 C   0  0  0  0  0  0  0  0  0  0  0  0
   46.3053    2.0360   17.4482 N   0  0  0  0  0  0  0  0  0  0  0  0
   46.4145    2.8832   18.6636 C   0  0  0  0  0  0  0  0  0  0  0  0
   45.1083    3.6394   19.0809 C   0  0  0  0  0  0  0  0  0  0  0  0
   45.2665    4.5290   20.3474 C   0  0  0  0  0  0  0  0  0  0  0  0
   46.2323    5.6845   20.1713 C   0  0  0  0  0  0  0  0  0  0  0  0
   45.6387    6.6135   19.2285 N   0  0  0  0  0  0  0  0  0  0  0  0
   46.6854    7.5627   18.8923 C   0  0  0  0  0  0  0  0  0  0  0  0
   46.1174    8.7995   18.2061 C   0  0  0  0  0  0  0  0  0  0  0  0
   47.3028    9.6435   17.7137 C   0  0  0  0  0  0  0  0  0  0  0  0
   48.0733    8.9601   16.6640 N   0  0  0  0  0  0  0  0  0  0  0  0
  1  2  1  0  0  0  0
  2  3  1  0  0  0  0
  3  4  1  0  0  0  0
  4  5  1  0  0  0  0
  5  6  1  0  0  0  0
  6  7  1  0  0  0  0
  7  8  1  0  0  0  0
  8  9  1  0  0  0  0
  9 10  1  0  0  0  0
 10 11  1  0  0  0  0
 11 12  1  0  0  0  0
 12 13  1  0  0  0  0
 13 14  1  0  0  0  0
M  END
>  <CHROM.1>
65.44192951,71.97357253,135.90865114,-68.73171545,-179.30699890,64.43806940
67.91378519,-169.41632715,-164.99198125,-172.10032258,65.55085643,45.98343684
4.32978003,17.96064369,-2.10901530,1.21907805,0.73194495

>  <Name>
ligand

>  <RI>
0

>  <Rbt.Current_Directory>
/home/itssahil/PROJECTS/Mol_Feturizer/New_Systems/rnas/1TN1

>  <Rbt.Executable>
rbdock ($Id: //depot/dev/client3/rdock/2013.1/src/exe/rbdock.cxx#4 $)

>  <Rbt.Library>
libRbt.so (2013.1, Build901 2013/11/27)

>  <Rbt.Parameter_File>
/export/apps/rDock/src/rDock_2013.1_src/data/scripts/dock_solv.prm

>  <Rbt.Receptor>
prm/pocket_docking_2.prm

>  <SCORE>
-4.71246

>  <SCORE.INTER>
-4.32069

>  <SCORE.INTER.CONST>
1

>  <SCORE.INTER.POLAR>
0

>  <SCORE.INTER.ROT>
11

>  <SCORE.INTER.SOLV>
11.4032

>  <SCORE.INTER.VDW>
-17.6149

>  <SCORE.INTER.norm>
-0.308621

>  <SCORE.INTRA>
-1.03504

>  <SCORE.INTRA.DIHEDRAL>
-5.16158

>  <SCORE.INTRA.DIHEDRAL.0>
7.79482

>  <SCORE.INTRA.POLAR>
0

>  <SCORE.INTRA.POLAR.0>
0

>  <SCORE.INTRA.REPUL>
0

>  <SCORE.INTRA.REPUL.0>
0

>  <SCORE.INTRA.SOLV>
2.90582

>  <SCORE.INTRA.SOLV.lig_0>
-49.456

>  <SCORE.INTRA.VDW>
0.0928387

>  <SCORE.INTRA.VDW.0>
-0.478406

>  <SCORE.INTRA.norm>
-0.0739314

>  <SCORE.RESTR>
0.643265

>  <SCORE.RESTR.CAVITY>
0.643265

>  <SCORE.RESTR.norm>
0.0459475

>  <SCORE.SYSTEM>
0

>  <SCORE.SYSTEM.CONST>
0

>  <SCORE.SYSTEM.DIHEDRAL>
0

>  <SCORE.SYSTEM.SOLV>
0

>  <SCORE.SYSTEM.norm>
0

>  <SCORE.heavy>
14

>  <SCORE.norm>
-0.336605

>  <RMSD>
3.123

$$$$
ligand
 OpenBabel11021811413D
libRbt.so/2013.1/901 2013/11/27
 14 13  0  0  0  0  0  0  0  0999 V2000
   45.8585   -1.7274   14.1501 N   0  0  0  0  0  0  0  0  0  0  0  0
   45.5291   -1.0375   15.4160 C   0  0  0  0  0  0  0  0  0  0  0  0
   44.9430    0.3661   15.1505 C   0  0  0  0  0  0  0  0  0  0  0  0
   44.6266    1.1775   16.4175 C   0  0  0  0  0  0  0  0  0  0  0  0
   45.8614    1.4389   17.2070 N   0  0  0  0  0  0  0  0  0  0  0  0
   45.5474    1.4618   18.6587 C   0  0  0  0  0  0  0  0  0  0  0  0
   44.9989    2.8205   19.2112 C   0  0  0  0  0  0  0  0  0  0  0  0
   46.0460    3.9712   19.2207 C   0  0  0  0  0  0  0  0  0  0  0  0
   45.5334    5.2648   19.8230 C   0  0  0  0  0  0  0  0  0  0  0  0
   46.6051    6.2396   19.7474 N   0  0  0  0  0  0  0  0  0  0  0  0
   45.9689    7.5402   19.8635 C   0  0  0  0  0  0  0  0  0  0  0  0
   46.8801    8.6536   19.3600 C   0  0  0  0  0  0  0  0  0  0  0  0
   46.1358    9.9842   19.5485 C   0  0  0  0  0  0  0  0  0  0  0  0
   44.9669   10.0971   18.6632 N   0  0  0  0  0  0  0  0  0  0  0  0
  1  2  1  0  0  0  0
  2  3  1  0  0  0  0
  3  4  1  0  0  0  0
  4  5  1  0  0  0  0
  5  6  1  0  0  0  0
  6  7  1  0  0  0  0
  7  8  1  0  0  0  0
  8  9  1  0  0  0  0
  9 10  1  0  0  0  0
 10 11  1  0  0  0  0
 11 12  1  0  0  0  0
 12 13  1  0  0  0  0
 13 14  1  0  0  0  0
M  END
>  <CHROM.1>
-177.56738133,62.19938386,-146.80529080,-83.18520683,-68.53037850,-176.97189803
-179.28859439,159.91027779,-161.62232781,-178.88433558,-67.73178342,45.67858658
4.01790906,18.03146361,2.17758748,1.46371079,2.93923086

>  <Name>
ligand

>  <RI>
0

>  <Rbt.Current_Directory>
/home/itssahil/PROJECTS/Mol_Feturizer/New_Systems/rnas/1TN1

>  <Rbt.Executable>
rbdock ($Id: //depot/dev/client3/rdock/2013.1/src/exe/rbdock.cxx#4 $)

>  <Rbt.Library>
libRbt.so (2013.1, Build901 2013/11/27)

>  <Rbt.Parameter_File>
/export/apps/rDock/src/rDock_2013.1_src/data/scripts/dock_solv.prm

>  <Rbt.Receptor>
prm/blind_docking_80.prm

>  <SCORE>
-9.22977

>  <SCORE.INTER>
-6.52428

>  <SCORE.INTER.CONST>
1

>  <SCORE.INTER.POLAR>
0

>  <SCORE.INTER.ROT>
11

>  <SCORE.INTER.SOLV>
12.4874

>  <SCORE.INTER.VDW>
-19.4453

>  <SCORE.INTER.norm>
-0.46602

>  <SCORE.INTRA>
-2.70549

>  <SCORE.INTRA.DIHEDRAL>
-5.56556

>  <SCORE.INTRA.DIHEDRAL.0>
7.79482

>  <SCORE.INTRA.POLAR>
0

>  <SCORE.INTRA.POLAR.0>
0

>  <SCORE.INTRA.REPUL>
0

>  <SCORE.INTRA.REPUL.0>
0

>  <SCORE.INTRA.SOLV>
1.32758

>  <SCORE.INTRA.SOLV.lig_0>
-49.456

>  <SCORE.INTRA.VDW>
-0.5865

>  <SCORE.INTRA.VDW.0>
-0.478406

>  <SCORE.INTRA.norm>
-0.193249

>  <SCORE.RESTR>
0

>  <SCORE.RESTR.CAVITY>
0

>  <SCORE.RESTR.norm>
0

>  <SCORE.SYSTEM>
0

>  <SCORE.SYSTEM.CONST>
0

>  <SCORE.SYSTEM.DIHEDRAL>
0

>  <SCORE.SYSTEM.SOLV>
0

>  <SCORE.SYSTEM.norm>
0

>  <SCORE.heavy>
14

>  <SCORE.norm>
-0.659269

>  <RMSD>
3.126

$$$$
ligand
 OpenBabel11021811413D
libRbt.so/2013.1/901 2013/11/27
 14 13  0  0  0  0  0  0  0  0999 V2000
   45.3333   -1.7627   15.0657 N   0  0  0  0  0  0  0  0  0  0  0  0
   45.5272   -0.5753   15.9257 C   0  0  0  0  0  0  0  0  0  0  0  0
   44.6595    0.6085   15.4464 C   0  0  0  0  0  0  0  0  0  0  0  0
   44.8874    1.9209   16.2143 C   0  0  0  0  0  0  0  0  0  0  0  0
   44.5141    1.7730   17.6479 N   0  0  0  0  0  0  0  0  0  0  0  0
   45.7206    1.8872   18.5070 C   0  0  0  0  0  0  0  0  0  0  0  0
   46.0673    3.3332   18.9980 C   0  0  0  0  0  0  0  0  0  0  0  0
   44.9612    3.9887   19.8739 C   0  0  0  0  0  0  0  0  0  0  0  0
   45.4175    5.2312   20.6134 C   0  0  0  0  0  0  0  0  0  0  0  0
   45.7274    6.2437   19.6219 N   0  0  0  0  0  0  0  0  0  0  0  0
   46.2259    7.3884   20.3642 C   0  0  0  0  0  0  0  0  0  0  0  0
   46.7357    8.4797   19.4303 C   0  0  0  0  0  0  0  0  0  0  0  0
   45.5150    9.1144   18.7471 C   0  0  0  0  0  0  0  0  0  0  0  0
   45.8906   10.2228   17.8565 N   0  0  0  0  0  0  0  0  0  0  0  0
  1  2  1  0  0  0  0
  2  3  1  0  0  0  0
  3  4  1  0  0  0  0
  4  5  1  0  0  0  0
  5  6  1  0  0  0  0
  6  7  1  0  0  0  0
  7  8  1  0  0  0  0
  8  9  1  0  0  0  0
  9 10  1  0  0  0  0
 10 11  1  0  0  0  0
 11 12  1  0  0  0  0
 12 13  1  0  0  0  0
 13 14  1  0  0  0  0
M  END
>  <CHROM.1>
-175.15074197,-63.13390678,113.60548836,90.36493997,61.25604882,166.30433779
65.18243340,-177.06162728,173.78076766,71.25246627,177.78410964,45.51312110
4.13241371,18.16541465,2.77976622,1.47269448,2.29980140

>  <Name>
ligand

>  <RI>
0

>  <Rbt.Current_Directory>
/home/itssahil/PROJECTS/Mol_Feturizer/New_Systems/rnas/1TN1

>  <Rbt.Executable>
rbdock ($Id: //depot/dev/client3/rdock/2013.1/src/exe/rbdock.cxx#4 $)

>  <Rbt.Library>
libRbt.so (2013.1, Build901 2013/11/27)

>  <Rbt.Parameter_File>
/export/apps/rDock/src/rDock_2013.1_src/data/scripts/dock_solv.prm

>  <Rbt.Receptor>
prm/pocket_docking_6.prm

>  <SCORE>
-8.91792

>  <SCORE.INTER>
-6.69817

>  <SCORE.INTER.CONST>
1

>  <SCORE.INTER.POLAR>
0

>  <SCORE.INTER.ROT>
11

>  <SCORE.INTER.SOLV>
12.8375

>  <SCORE.INTER.VDW>
-19.678

>  <SCORE.INTER.norm>
-0.478441

>  <SCORE.INTRA>
-2.21975

>  <SCORE.INTRA.DIHEDRAL>
-4.50799

>  <SCORE.INTRA.DIHEDRAL.0>
7.79482

>  <SCORE.INTRA.POLAR>
0

>  <SCORE.INTRA.POLAR.0>
0

>  <SCORE.INTRA.REPUL>
0

>  <SCORE.INTRA.REPUL.0>
0

>  <SCORE.INTRA.SOLV>
1.29205

>  <SCORE.INTRA.SOLV.lig_0>
-49.456

>  <SCORE.INTRA.VDW>
-0.611775

>  <SCORE.INTRA.VDW.0>
-0.478406

>  <SCORE.INTRA.norm>
-0.158553

>  <SCORE.RESTR>
0

>  <SCORE.RESTR.CAVITY>
0

>  <SCORE.RESTR.norm>
0

>  <SCORE.SYSTEM>
0

>  <SCORE.SYSTEM.CONST>
0

>  <SCORE.SYSTEM.DIHEDRAL>
0

>  <SCORE.SYSTEM.SOLV>
0

>  <SCORE.SYSTEM.norm>
0

>  <SCORE.heavy>
14

>  <SCORE.norm>
-0.636994

>  <RMSD>
3.126

$$$$
ligand
 OpenBabel11021811413D
libRbt.so/2013.1/901 2013/11/27
 14 13  0  0  0  0  0  0  0  0999 V2000
   45.4502    0.5690   15.8358 N   0  0  0  0  0  0  0  0  0  0  0  0
   45.7803    1.9339   15.3717 C   0  0  0  0  0  0  0  0  0  0  0  0
   46.3954    2.7767   16.5098 C   0  0  0  0  0  0  0  0  0  0  0  0
   45.4748    2.9810   17.7242 C   0  0  0  0  0  0  0  0  0  0  0  0
   46.1077    3.8782   18.7296 N   0  0  0  0  0  0  0  0  0  0  0  0
   45.2110    4.0492   19.9016 C   0  0  0  0  0  0  0  0  0  0  0  0
   45.7081    5.0565   20.9927 C   0  0  0  0  0  0  0  0  0  0  0  0
   45.6844    6.5450   20.5408 C   0  0  0  0  0  0  0  0  0  0  0  0
   46.5934    6.8459   19.3652 C   0  0  0  0  0  0  0  0  0  0  0  0
   46.4932    8.2656   19.0845 N   0  0  0  0  0  0  0  0  0  0  0  0
   47.2904    8.4927   17.8918 C   0  0  0  0  0  0  0  0  0  0  0  0
   47.4057    9.9787   17.5726 C   0  0  0  0  0  0  0  0  0  0  0  0
   48.1729   10.1114   16.2483 C   0  0  0  0  0  0  0  0  0  0  0  0
   49.5529    9.6140   16.3535 N   0  0  0  0  0  0  0  0  0  0  0  0
  1  2  1  0  0  0  0
  2  3  1  0  0  0  0
  3  4  1  0  0  0  0
  4  5  1  0  0  0  0
  5  6  1  0  0  0  0
  6  7  1  0  0  0  0
  7  8  1  0  0  0  0
  8  9  1  0  0  0  0
  9 10  1  0  0  0  0
 10 11  1  0  0  0  0
 11 12  1  0  0  0  0
 12 13  1  0  0  0  0
 13 14  1  0  0  0  0
M  END
>  <CHROM.1>
-61.13409737,-176.11721871,-179.28625738,-175.65294647,69.65350328,-62.29026179
-178.47858748,-175.54408144,-173.41587181,-175.92634663,-63.91678173,46.52273592
5.79278475,18.00892461,-2.30909777,1.11989469,0.74997151

>  <Name>
ligand

>  <RI>
0

>  <Rbt.Current_Directory>
/home/itssahil/PROJECTS/Mol_Feturizer/New_Systems/rnas/1TN1

>  <Rbt.Executable>
rbdock ($Id: //depot/dev/client3/rdock/2013.1/src/exe/rbdock.cxx#4 $)

>  <Rbt.Library>
libRbt.so (2013.1, Build901 2013/11/27)

>  <Rbt.Parameter_File>
/export/apps/rDock/src/rDock_2013.1_src/data/scripts/dock_solv.prm

>  <Rbt.Receptor>
prm/pocket_docking_6.prm

>  <SCORE>
-5.61209

>  <SCORE.INTER>
-2.86571

>  <SCORE.INTER.CONST>
1

>  <SCORE.INTER.POLAR>
0

>  <SCORE.INTER.ROT>
11

>  <SCORE.INTER.SOLV>
8.76842

>  <SCORE.INTER.VDW>
-15.7666

>  <SCORE.INTER.norm>
-0.204694

>  <SCORE.INTRA>
-2.74638

>  <SCORE.INTRA.DIHEDRAL>
-7.16942

>  <SCORE.INTRA.DIHEDRAL.0>
7.79482

>  <SCORE.INTRA.POLAR>
0

>  <SCORE.INTRA.POLAR.0>
0

>  <SCORE.INTRA.REPUL>
0

>  <SCORE.INTRA.REPUL.0>
0

>  <SCORE.INTRA.SOLV>
2.41619

>  <SCORE.INTRA.SOLV.lig_0>
-49.456

>  <SCORE.INTRA.VDW>
-0.369765

>  <SCORE.INTRA.VDW.0>
-0.478406

>  <SCORE.INTRA.norm>
-0.19617

>  <SCORE.RESTR>
0

>  <SCORE.RESTR.CAVITY>
0

>  <SCORE.RESTR.norm>
0

>  <SCORE.SYSTEM>
0

>  <SCORE.SYSTEM.CONST>
0

>  <SCORE.SYSTEM.DIHEDRAL>
0

>  <SCORE.SYSTEM.SOLV>
0

>  <SCORE.SYSTEM.norm>
0

>  <SCORE.heavy>
14

>  <SCORE.norm>
-0.400864

>  <RMSD>
3.147

$$$$
ligand
 OpenBabel11021811413D
libRbt.so/2013.1/901 2013/11/27
 14 13  0  0  0  0  0  0  0  0999 V2000
   45.4408   -0.2101   15.9057 N   0  0  0  0  0  0  0  0  0  0  0  0
   44.8178    0.5875   16.9841 C   0  0  0  0  0  0  0  0  0  0  0  0
   45.8259    1.5859   17.5933 C   0  0  0  0  0  0  0  0  0  0  0  0
   45.2359    2.5174   18.6648 C   0  0  0  0  0  0  0  0  0  0  0  0
   46.2514    3.4973   19.1389 N   0  0  0  0  0  0  0  0  0  0  0  0
   45.5861    4.7401   19.6074 C   0  0  0  0  0  0  0  0  0  0  0  0
   44.8207    4.6260   20.9688 C   0  0  0  0  0  0  0  0  0  0  0  0
   44.1392    5.9474   21.4270 C   0  0  0  0  0  0  0  0  0  0  0  0
   43.0359    6.4236   20.5025 C   0  0  0  0  0  0  0  0  0  0  0  0
   42.4746    7.6327   21.0746 N   0  0  0  0  0  0  0  0  0  0  0  0
   41.7330    8.2733   20.0025 C   0  0  0  0  0  0  0  0  0  0  0  0
   42.4867    9.4741   19.4431 C   0  0  0  0  0  0  0  0  0  0  0  0
   41.4814   10.3283   18.6559 C   0  0  0  0  0  0  0  0  0  0  0  0
   42.1049   11.5280   18.0773 N   0  0  0  0  0  0  0  0  0  0  0  0
  1  2  1  0  0  0  0
  2  3  1  0  0  0  0
  3  4  1  0  0  0  0
  4  5  1  0  0  0  0
  5  6  1  0  0  0  0
  6  7  1  0  0  0  0
  7  8  1  0  0  0  0
  8  9  1  0  0  0  0
  9 10  1  0  0  0  0
 10 11  1  0  0  0  0
 11 12  1  0  0  0  0
 12 13  1  0  0  0  0
 13 14  1  0  0  0  0
M  END
>  <CHROM.1>
176.39833364,-176.63700634,152.16545318,72.54267307,179.91992110,64.20881608
178.39193073,163.13436416,-104.25045538,-162.69099091,179.54844699,43.95955364
5.49649265,19.14637830,0.59525591,1.10536528,-1.99619215

>  <Name>
ligand

>  <RI>
0

>  <Rbt.Current_Directory>
/home/itssahil/PROJECTS/Mol_Feturizer/New_Systems/rnas/1TN1

>  <Rbt.Executable>
rbdock ($Id: //depot/dev/client3/rdock/2013.1/src/exe/rbdock.cxx#4 $)

>  <Rbt.Library>
libRbt.so (2013.1, Build901 2013/11/27)

>  <Rbt.Parameter_File>
/export/apps/rDock/src/rDock_2013.1_src/data/scripts/dock_solv.prm

>  <Rbt.Receptor>
prm/pocket_docking_6.prm

>  <SCORE>
-12.6821

>  <SCORE.INTER>
-10.415

>  <SCORE.INTER.CONST>
1

>  <SCORE.INTER.POLAR>
0

>  <SCORE.INTER.ROT>
11

>  <SCORE.INTER.SOLV>
19.0704

>  <SCORE.INTER.VDW>
-24.2335

>  <SCORE.INTER.norm>
-0.743931

>  <SCORE.INTRA>
-2.26707

>  <SCORE.INTRA.DIHEDRAL>
-4.67728

>  <SCORE.INTRA.DIHEDRAL.0>
7.79482

>  <SCORE.INTRA.POLAR>
0

>  <SCORE.INTRA.POLAR.0>
0

>  <SCORE.INTRA.REPUL>
0

>  <SCORE.INTRA.REPUL.0>
0

>  <SCORE.INTRA.SOLV>
0.0885677

>  <SCORE.INTRA.SOLV.lig_0>
-49.456

>  <SCORE.INTRA.VDW>
0.0272893

>  <SCORE.INTRA.VDW.0>
-0.478406

>  <SCORE.INTRA.norm>
-0.161933

>  <SCORE.RESTR>
0

>  <SCORE.RESTR.CAVITY>
0

>  <SCORE.RESTR.norm>
0

>  <SCORE.SYSTEM>
0

>  <SCORE.SYSTEM.CONST>
0

>  <SCORE.SYSTEM.DIHEDRAL>
0

>  <SCORE.SYSTEM.SOLV>
0

>  <SCORE.SYSTEM.norm>
0

>  <SCORE.heavy>
14

>  <SCORE.norm>
-0.905865

>  <RMSD>
3.154

$$$$
ligand
 OpenBabel11021811413D
libRbt.so/2013.1/901 2013/11/27
 14 13  0  0  0  0  0  0  0  0999 V2000
   42.2959   10.6582   18.3826 N   0  0  0  0  0  0  0  0  0  0  0  0
   42.8174    9.5868   19.2586 C   0  0  0  0  0  0  0  0  0  0  0  0
   41.7322    8.5285   19.5523 C   0  0  0  0  0  0  0  0  0  0  0  0
   42.1505    7.4458   20.5606 C   0  0  0  0  0  0  0  0  0  0  0  0
   43.3402    6.6941   20.0747 N   0  0  0  0  0  0  0  0  0  0  0  0
   43.7225    5.6474   21.0570 C   0  0  0  0  0  0  0  0  0  0  0  0
   45.2518    5.3202   21.1366 C   0  0  0  0  0  0  0  0  0  0  0  0
   45.8797    4.8860   19.7810 C   0  0  0  0  0  0  0  0  0  0  0  0
   45.3385    3.5757   19.2436 C   0  0  0  0  0  0  0  0  0  0  0  0
   46.0348    3.2881   18.0039 N   0  0  0  0  0  0  0  0  0  0  0  0
   45.3954    2.1059   17.4533 C   0  0  0  0  0  0  0  0  0  0  0  0
   45.9999    1.7202   16.1083 C   0  0  0  0  0  0  0  0  0  0  0  0
   45.3054    0.4330   15.6385 C   0  0  0  0  0  0  0  0  0  0  0  0
   45.8372   -0.0484   14.3547 N   0  0  0  0  0  0  0  0  0  0  0  0
  1  2  1  0  0  0  0
  2  3  1  0  0  0  0
  3  4  1  0  0  0  0
  4  5  1  0  0  0  0
  5  6  1  0  0  0  0
  6  7  1  0  0  0  0
  7  8  1  0  0  0  0
  8  9  1  0  0  0  0
  9 10  1  0  0  0  0
 10 11  1  0  0  0  0
 11 12  1  0  0  0  0
 12 13  1  0  0  0  0
 13 14  1  0  0  0  0
M  END
>  <CHROM.1>
-174.65190834,-59.79197394,-179.59320595,-148.29632027,-56.69314389,-65.05661633
-178.63191166,-174.27115316,177.79036997,177.58345906,-178.72106058,44.36438282
4.98860811,18.61505422,2.35021100,-1.04337618,1.16007341

>  <Name>
ligand

>  <RI>
0

>  <Rbt.Current_Directory>
/home/itssahil/PROJECTS/Mol_Feturizer/New_Systems/rnas/1TN1

>  <Rbt.Executable>
rbdock ($Id: //depot/dev/client3/rdock/2013.1/src/exe/rbdock.cxx#4 $)

>  <Rbt.Library>
libRbt.so (2013.1, Build901 2013/11/27)

>  <Rbt.Parameter_File>
/export/apps/rDock/src/rDock_2013.1_src/data/scripts/dock_solv.prm

>  <Rbt.Receptor>
prm/pocket_docking_8.prm

>  <SCORE>
-11.5782

>  <SCORE.INTER>
-8.07375

>  <SCORE.INTER.CONST>
1

>  <SCORE.INTER.POLAR>
0

>  <SCORE.INTER.ROT>
11

>  <SCORE.INTER.SOLV>
15.3185

>  <SCORE.INTER.VDW>
-21.422

>  <SCORE.INTER.norm>
-0.576696

>  <SCORE.INTRA>
-3.50448

>  <SCORE.INTRA.DIHEDRAL>
-6.81953

>  <SCORE.INTRA.DIHEDRAL.0>
7.79482

>  <SCORE.INTRA.POLAR>
0

>  <SCORE.INTRA.POLAR.0>
0

>  <SCORE.INTRA.REPUL>
0

>  <SCORE.INTRA.REPUL.0>
0

>  <SCORE.INTRA.SOLV>
0.97398

>  <SCORE.INTRA.SOLV.lig_0>
-49.456

>  <SCORE.INTRA.VDW>
-0.581702

>  <SCORE.INTRA.VDW.0>
-0.478406

>  <SCORE.INTRA.norm>
-0.25032

>  <SCORE.RESTR>
0

>  <SCORE.RESTR.CAVITY>
0

>  <SCORE.RESTR.norm>
0

>  <SCORE.SYSTEM>
0

>  <SCORE.SYSTEM.CONST>
0

>  <SCORE.SYSTEM.DIHEDRAL>
0

>  <SCORE.SYSTEM.SOLV>
0

>  <SCORE.SYSTEM.norm>
0

>  <SCORE.heavy>
14

>  <SCORE.norm>
-0.827016

>  <RMSD>
3.158

$$$$
ligand
 OpenBabel11021811413D
libRbt.so/2013.1/901 2013/11/27
 14 13  0  0  0  0  0  0  0  0999 V2000
   46.0569    8.9756   16.7173 N   0  0  0  0  0  0  0  0  0  0  0  0
   45.8294    9.1927   18.1624 C   0  0  0  0  0  0  0  0  0  0  0  0
   47.0007    8.6376   19.0013 C   0  0  0  0  0  0  0  0  0  0  0  0
   47.0605    7.1033   19.0803 C   0  0  0  0  0  0  0  0  0  0  0  0
   45.9761    6.5703   19.9500 N   0  0  0  0  0  0  0  0  0  0  0  0
   46.0868    5.0932   20.0617 C   0  0  0  0  0  0  0  0  0  0  0  0
   45.9567    4.3012   18.7170 C   0  0  0  0  0  0  0  0  0  0  0  0
   45.7902    2.7651   18.8983 C   0  0  0  0  0  0  0  0  0  0  0  0
   45.8256    1.9846   17.5989 C   0  0  0  0  0  0  0  0  0  0  0  0
   45.0797    0.7572   17.8031 N   0  0  0  0  0  0  0  0  0  0  0  0
   44.3046    0.5563   16.5912 C   0  0  0  0  0  0  0  0  0  0  0  0
   45.1469   -0.0747   15.4887 C   0  0  0  0  0  0  0  0  0  0  0  0
   45.7189   -1.3910   16.0365 C   0  0  0  0  0  0  0  0  0  0  0  0
   46.9294   -1.8132   15.3159 N   0  0  0  0  0  0  0  0  0  0  0  0
  1  2  1  0  0  0  0
  2  3  1  0  0  0  0
  3  4  1  0  0  0  0
  4  5  1  0  0  0  0
  5  6  1  0  0  0  0
  6  7  1  0  0  0  0
  7  8  1  0  0  0  0
  8  9  1  0  0  0  0
  9 10  1  0  0  0  0
 10 11  1  0  0  0  0
 11 12  1  0  0  0  0
 12 13  1  0  0  0  0
 13 14  1  0  0  0  0
M  END
>  <CHROM.1>
-72.66287537,-72.45266537,-177.51433835,-61.06382865,-168.33275611,-173.29820057
-154.15663486,138.90958583,81.26192138,56.59509878,-157.24642751,45.91155135
3.76135968,17.81604057,0.01291692,-1.48963469,-1.28136229

>  <Name>
ligand

>  <RI>
0

>  <Rbt.Current_Directory>
/home/itssahil/PROJECTS/Mol_Feturizer/New_Systems/rnas/1TN1

>  <Rbt.Executable>
rbdock ($Id: //depot/dev/client3/rdock/2013.1/src/exe/rbdock.cxx#4 $)

>  <Rbt.Library>
libRbt.so (2013.1, Build901 2013/11/27)

>  <Rbt.Parameter_File>
/export/apps/rDock/src/rDock_2013.1_src/data/scripts/dock_solv.prm

>  <Rbt.Receptor>
prm/pocket_docking_2.prm

>  <SCORE>
-1.11233

>  <SCORE.INTER>
-2.98906

>  <SCORE.INTER.CONST>
1

>  <SCORE.INTER.POLAR>
0

>  <SCORE.INTER.ROT>
11

>  <SCORE.INTER.SOLV>
18.1066

>  <SCORE.INTER.VDW>
-18.9616

>  <SCORE.INTER.norm>
-0.213504

>  <SCORE.INTRA>
1.75347

>  <SCORE.INTRA.DIHEDRAL>
-0.74256

>  <SCORE.INTRA.DIHEDRAL.0>
7.79482

>  <SCORE.INTRA.POLAR>
0

>  <SCORE.INTRA.POLAR.0>
0

>  <SCORE.INTRA.REPUL>
0

>  <SCORE.INTRA.REPUL.0>
0

>  <SCORE.INTRA.SOLV>
2.13288

>  <SCORE.INTRA.SOLV.lig_0>
-49.456

>  <SCORE.INTRA.VDW>
1.05831

>  <SCORE.INTRA.VDW.0>
-0.478406

>  <SCORE.INTRA.norm>
0.125248

>  <SCORE.RESTR>
0.123263

>  <SCORE.RESTR.CAVITY>
0.123263

>  <SCORE.RESTR.norm>
0.00880451

>  <SCORE.SYSTEM>
0

>  <SCORE.SYSTEM.CONST>
0

>  <SCORE.SYSTEM.DIHEDRAL>
0

>  <SCORE.SYSTEM.SOLV>
0

>  <SCORE.SYSTEM.norm>
0

>  <SCORE.heavy>
14

>  <SCORE.norm>
-0.0794521

>  <RMSD>
3.166

$$$$
ligand
 OpenBabel11021811413D
libRbt.so/2013.1/901 2013/11/27
 14 13  0  0  0  0  0  0  0  0999 V2000
   45.5572   -1.9097   14.2616 N   0  0  0  0  0  0  0  0  0  0  0  0
   45.1254   -0.5947   14.7825 C   0  0  0  0  0  0  0  0  0  0  0  0
   45.4659   -0.4491   16.2814 C   0  0  0  0  0  0  0  0  0  0  0  0
   45.1375    0.9279   16.8814 C   0  0  0  0  0  0  0  0  0  0  0  0
   45.5692    1.0078   18.3040 N   0  0  0  0  0  0  0  0  0  0  0  0
   46.2388    2.3078   18.5651 C   0  0  0  0  0  0  0  0  0  0  0  0
   45.3885    3.3608   19.3528 C   0  0  0  0  0  0  0  0  0  0  0  0
   46.2192    4.5400   19.9358 C   0  0  0  0  0  0  0  0  0  0  0  0
   45.4090    5.5073   20.7764 C   0  0  0  0  0  0  0  0  0  0  0  0
   44.4760    6.1816   19.8937 N   0  0  0  0  0  0  0  0  0  0  0  0
   43.9508    7.3037   20.6519 C   0  0  0  0  0  0  0  0  0  0  0  0
   43.9346    8.5804   19.8194 C   0  0  0  0  0  0  0  0  0  0  0  0
   45.3900    8.9248   19.4683 C   0  0  0  0  0  0  0  0  0  0  0  0
   45.4896   10.1334   18.6363 N   0  0  0  0  0  0  0  0  0  0  0  0
  1  2  1  0  0  0  0
  2  3  1  0  0  0  0
  3  4  1  0  0  0  0
  4  5  1  0  0  0  0
  5  6  1  0  0  0  0
  6  7  1  0  0  0  0
  7  8  1  0  0  0  0
  8  9  1  0  0  0  0
  9 10  1  0  0  0  0
 10 11  1  0  0  0  0
 11 12  1  0  0  0  0
 12 13  1  0  0  0  0
 13 14  1  0  0  0  0
M  END
>  <CHROM.1>
176.01820185,-176.67491111,136.19085161,104.36385999,164.54365074,-176.08668778
-66.87632358,-166.84418679,134.58583991,-63.24197668,178.80332973,45.23940178
3.98734282,18.40101466,1.04845031,1.44603208,-2.19191514

>  <Name>
ligand

>  <RI>
0

>  <Rbt.Current_Directory>
/home/itssahil/PROJECTS/Mol_Feturizer/New_Systems/rnas/1TN1

>  <Rbt.Executable>
rbdock ($Id: //depot/dev/client3/rdock/2013.1/src/exe/rbdock.cxx#4 $)

>  <Rbt.Library>
libRbt.so (2013.1, Build901 2013/11/27)

>  <Rbt.Parameter_File>
/export/apps/rDock/src/rDock_2013.1_src/data/scripts/dock_solv.prm

>  <Rbt.Receptor>
prm/pocket_docking_5.prm

>  <SCORE>
-10.164

>  <SCORE.INTER>
-8.30447

>  <SCORE.INTER.CONST>
1

>  <SCORE.INTER.POLAR>
0

>  <SCORE.INTER.ROT>
11

>  <SCORE.INTER.SOLV>
12.623

>  <SCORE.INTER.VDW>
-20.6773

>  <SCORE.INTER.norm>
-0.593177

>  <SCORE.INTRA>
-1.85948

>  <SCORE.INTRA.DIHEDRAL>
-3.37462

>  <SCORE.INTRA.DIHEDRAL.0>
7.79482

>  <SCORE.INTRA.POLAR>
0

>  <SCORE.INTRA.POLAR.0>
0

>  <SCORE.INTRA.REPUL>
0

>  <SCORE.INTRA.REPUL.0>
0

>  <SCORE.INTRA.SOLV>
0.784874

>  <SCORE.INTRA.SOLV.lig_0>
-49.456

>  <SCORE.INTRA.VDW>
-0.564613

>  <SCORE.INTRA.VDW.0>
-0.478406

>  <SCORE.INTRA.norm>
-0.13282

>  <SCORE.RESTR>
0

>  <SCORE.RESTR.CAVITY>
0

>  <SCORE.RESTR.norm>
0

>  <SCORE.SYSTEM>
0

>  <SCORE.SYSTEM.CONST>
0

>  <SCORE.SYSTEM.DIHEDRAL>
0

>  <SCORE.SYSTEM.SOLV>
0

>  <SCORE.SYSTEM.norm>
0

>  <SCORE.heavy>
14

>  <SCORE.norm>
-0.725997

>  <RMSD>
3.170

$$$$
ligand
 OpenBabel11021811413D
libRbt.so/2013.1/901 2013/11/27
 14 13  0  0  0  0  0  0  0  0999 V2000
   45.5600   -1.8381   14.4143 N   0  0  0  0  0  0  0  0  0  0  0  0
   45.6893   -0.8388   15.4968 C   0  0  0  0  0  0  0  0  0  0  0  0
   44.4455    0.0734   15.5656 C   0  0  0  0  0  0  0  0  0  0  0  0
   44.5846    1.2745   16.5154 C   0  0  0  0  0  0  0  0  0  0  0  0
   44.9470    0.8301   17.8893 N   0  0  0  0  0  0  0  0  0  0  0  0
   44.9931    1.9948   18.8102 C   0  0  0  0  0  0  0  0  0  0  0  0
   46.2716    2.8925   18.7025 C   0  0  0  0  0  0  0  0  0  0  0  0
   46.3498    4.0177   19.7741 C   0  0  0  0  0  0  0  0  0  0  0  0
   45.2947    5.0947   19.6139 C   0  0  0  0  0  0  0  0  0  0  0  0
   45.5580    6.1189   20.6069 N   0  0  0  0  0  0  0  0  0  0  0  0
   44.8801    7.3139   20.1355 C   0  0  0  0  0  0  0  0  0  0  0  0
   45.8699    8.3422   19.6007 C   0  0  0  0  0  0  0  0  0  0  0  0
   45.0650    9.5687   19.1449 C   0  0  0  0  0  0  0  0  0  0  0  0
   45.9234   10.6118   18.5635 N   0  0  0  0  0  0  0  0  0  0  0  0
  1  2  1  0  0  0  0
  2  3  1  0  0  0  0
  3  4  1  0  0  0  0
  4  5  1  0  0  0  0
  5  6  1  0  0  0  0
  6  7  1  0  0  0  0
  7  8  1  0  0  0  0
  8  9  1  0  0  0  0
  9 10  1  0  0  0  0
 10 11  1  0  0  0  0
 11 12  1  0  0  0  0
 12 13  1  0  0  0  0
 13 14  1  0  0  0  0
M  END
>  <CHROM.1>
-171.05143764,-55.50154807,-176.45697482,-77.35806366,-174.30482025,-67.49132917
-175.49424425,159.85542932,-106.46685489,-179.31937560,-177.98900809,45.38796096
3.96117549,18.20254464,1.97849997,1.48304801,3.12106013

>  <Name>
ligand

>  <RI>
0

>  <Rbt.Current_Directory>
/home/itssahil/PROJECTS/Mol_Feturizer/New_Systems/rnas/1TN1

>  <Rbt.Executable>
rbdock ($Id: //depot/dev/client3/rdock/2013.1/src/exe/rbdock.cxx#4 $)

>  <Rbt.Library>
libRbt.so (2013.1, Build901 2013/11/27)

>  <Rbt.Parameter_File>
/export/apps/rDock/src/rDock_2013.1_src/data/scripts/dock_solv.prm

>  <Rbt.Receptor>
prm/pocket_docking_3.prm

>  <SCORE>
-8.32159

>  <SCORE.INTER>
-5.74663

>  <SCORE.INTER.CONST>
1

>  <SCORE.INTER.POLAR>
0

>  <SCORE.INTER.ROT>
11

>  <SCORE.INTER.SOLV>
12.9752

>  <SCORE.INTER.VDW>
-19.0895

>  <SCORE.INTER.norm>
-0.410474

>  <SCORE.INTRA>
-2.57495

>  <SCORE.INTRA.DIHEDRAL>
-5.37244

>  <SCORE.INTRA.DIHEDRAL.0>
7.79482

>  <SCORE.INTRA.POLAR>
0

>  <SCORE.INTRA.POLAR.0>
0

>  <SCORE.INTRA.REPUL>
0

>  <SCORE.INTRA.REPUL.0>
0

>  <SCORE.INTRA.SOLV>
0.407703

>  <SCORE.INTRA.SOLV.lig_0>
-49.456

>  <SCORE.INTRA.VDW>
-0.0925864

>  <SCORE.INTRA.VDW.0>
-0.478406

>  <SCORE.INTRA.norm>
-0.183925

>  <SCORE.RESTR>
0

>  <SCORE.RESTR.CAVITY>
0

>  <SCORE.RESTR.norm>
0

>  <SCORE.SYSTEM>
0

>  <SCORE.SYSTEM.CONST>
0

>  <SCORE.SYSTEM.DIHEDRAL>
0

>  <SCORE.SYSTEM.SOLV>
0

>  <SCORE.SYSTEM.norm>
0

>  <SCORE.heavy>
14

>  <SCORE.norm>
-0.594399

>  <RMSD>
3.178

$$$$
ligand
 OpenBabel11021811413D
libRbt.so/2013.1/901 2013/11/27
 14 13  0  0  0  0  0  0  0  0999 V2000
   46.4007    0.8123   14.4367 N   0  0  0  0  0  0  0  0  0  0  0  0
   45.8698   -0.4184   15.0618 C   0  0  0  0  0  0  0  0  0  0  0  0
   44.8640   -0.0847   16.1848 C   0  0  0  0  0  0  0  0  0  0  0  0
   45.4843    0.5888   17.4199 C   0  0  0  0  0  0  0  0  0  0  0  0
   46.0221    1.9350   17.0810 N   0  0  0  0  0  0  0  0  0  0  0  0
   46.5277    2.6089   18.3045 C   0  0  0  0  0  0  0  0  0  0  0  0
   45.5345    3.6103   18.9849 C   0  0  0  0  0  0  0  0  0  0  0  0
   46.1563    4.4246   20.1557 C   0  0  0  0  0  0  0  0  0  0  0  0
   45.1680    5.3222   20.8743 C   0  0  0  0  0  0  0  0  0  0  0  0
   44.6474    6.2674   19.9047 N   0  0  0  0  0  0  0  0  0  0  0  0
   44.1559    7.3970   20.6742 C   0  0  0  0  0  0  0  0  0  0  0  0
   43.4089    8.3902   19.7918 C   0  0  0  0  0  0  0  0  0  0  0  0
   44.4138    8.9590   18.7786 C   0  0  0  0  0  0  0  0  0  0  0  0
   45.4979    9.7078   19.4319 N   0  0  0  0  0  0  0  0  0  0  0  0
  1  2  1  0  0  0  0
  2  3  1  0  0  0  0
  3  4  1  0  0  0  0
  4  5  1  0  0  0  0
  5  6  1  0  0  0  0
  6  7  1  0  0  0  0
  7  8  1  0  0  0  0
  8  9  1  0  0  0  0
  9 10  1  0  0  0  0
 10 11  1  0  0  0  0
 11 12  1  0  0  0  0
 12 13  1  0  0  0  0
 13 14  1  0  0  0  0
M  END
>  <CHROM.1>
-67.80688004,65.28363614,175.92318320,-96.84813591,-172.86373854,-175.97515375
-60.53998528,-157.87560996,-172.37870361,-63.66613938,-62.97894733,45.29637204
4.25129204,18.36346983,0.52749573,1.40306815,-1.63394243

>  <Name>
ligand

>  <RI>
0

>  <Rbt.Current_Directory>
/home/itssahil/PROJECTS/Mol_Feturizer/New_Systems/rnas/1TN1

>  <Rbt.Executable>
rbdock ($Id: //depot/dev/client3/rdock/2013.1/src/exe/rbdock.cxx#4 $)

>  <Rbt.Library>
libRbt.so (2013.1, Build901 2013/11/27)

>  <Rbt.Parameter_File>
/export/apps/rDock/src/rDock_2013.1_src/data/scripts/dock_solv.prm

>  <Rbt.Receptor>
prm/pocket_docking_5.prm

>  <SCORE>
-8.0612

>  <SCORE.INTER>
-7.3358

>  <SCORE.INTER.CONST>
1

>  <SCORE.INTER.POLAR>
0

>  <SCORE.INTER.ROT>
11

>  <SCORE.INTER.SOLV>
11.5732

>  <SCORE.INTER.VDW>
-19.6816

>  <SCORE.INTER.norm>
-0.523986

>  <SCORE.INTRA>
-0.725392

>  <SCORE.INTRA.DIHEDRAL>
-5.88818

>  <SCORE.INTRA.DIHEDRAL.0>
7.79482

>  <SCORE.INTRA.POLAR>
0

>  <SCORE.INTRA.POLAR.0>
0

>  <SCORE.INTRA.REPUL>
0

>  <SCORE.INTRA.REPUL.0>
0

>  <SCORE.INTRA.SOLV>
5.09432

>  <SCORE.INTRA.SOLV.lig_0>
-49.456

>  <SCORE.INTRA.VDW>
-0.328459

>  <SCORE.INTRA.VDW.0>
-0.478406

>  <SCORE.INTRA.norm>
-0.0518137

>  <SCORE.RESTR>
0

>  <SCORE.RESTR.CAVITY>
0

>  <SCORE.RESTR.norm>
0

>  <SCORE.SYSTEM>
0

>  <SCORE.SYSTEM.CONST>
0

>  <SCORE.SYSTEM.DIHEDRAL>
0

>  <SCORE.SYSTEM.SOLV>
0

>  <SCORE.SYSTEM.norm>
0

>  <SCORE.heavy>
14

>  <SCORE.norm>
-0.5758

>  <RMSD>
3.178

$$$$
ligand
 OpenBabel11021811413D
libRbt.so/2013.1/901 2013/11/27
 14 13  0  0  0  0  0  0  0  0999 V2000
   48.2529    9.5641   16.4385 N   0  0  0  0  0  0  0  0  0  0  0  0
   47.4555    9.8211   17.6572 C   0  0  0  0  0  0  0  0  0  0  0  0
   47.3842    8.5652   18.5525 C   0  0  0  0  0  0  0  0  0  0  0  0
   46.5403    8.7347   19.8265 C   0  0  0  0  0  0  0  0  0  0  0  0
   46.5553    7.4923   20.6467 N   0  0  0  0  0  0  0  0  0  0  0  0
   45.8104    6.4103   19.9530 C   0  0  0  0  0  0  0  0  0  0  0  0
   45.4638    5.1588   20.8282 C   0  0  0  0  0  0  0  0  0  0  0  0
   44.8523    3.9734   20.0273 C   0  0  0  0  0  0  0  0  0  0  0  0
   45.8033    3.3547   19.0214 C   0  0  0  0  0  0  0  0  0  0  0  0
   45.0800    2.3140   18.3156 N   0  0  0  0  0  0  0  0  0  0  0  0
   45.9877    1.1830   18.2350 C   0  0  0  0  0  0  0  0  0  0  0  0
   45.4753    0.1247   17.2651 C   0  0  0  0  0  0  0  0  0  0  0  0
   45.5905    0.7005   15.8456 C   0  0  0  0  0  0  0  0  0  0  0  0
   44.6777    1.8331   15.6298 N   0  0  0  0  0  0  0  0  0  0  0  0
  1  2  1  0  0  0  0
  2  3  1  0  0  0  0
  3  4  1  0  0  0  0
  4  5  1  0  0  0  0
  5  6  1  0  0  0  0
  6  7  1  0  0  0  0
  7  8  1  0  0  0  0
  8  9  1  0  0  0  0
  9 10  1  0  0  0  0
 10 11  1  0  0  0  0
 11 12  1  0  0  0  0
 12 13  1  0  0  0  0
 13 14  1  0  0  0  0
M  END
>  <CHROM.1>
-178.44764604,-178.48296729,-68.85098758,-166.60633787,-172.39847819,65.25792523
-177.41926453,-136.38013505,-167.87529112,69.92506222,-66.84807329,46.06634350
4.94485352,18.44616006,-0.86224945,-1.20927775,-2.28159166

>  <Name>
ligand

>  <RI>
0

>  <Rbt.Current_Directory>
/home/itssahil/PROJECTS/Mol_Feturizer/New_Systems/rnas/1TN1

>  <Rbt.Executable>
rbdock ($Id: //depot/dev/client3/rdock/2013.1/src/exe/rbdock.cxx#4 $)

>  <Rbt.Library>
libRbt.so (2013.1, Build901 2013/11/27)

>  <Rbt.Parameter_File>
/export/apps/rDock/src/rDock_2013.1_src/data/scripts/dock_solv.prm

>  <Rbt.Receptor>
prm/blind_docking_60.prm

>  <SCORE>
-6.99935

>  <SCORE.INTER>
-6.44501

>  <SCORE.INTER.CONST>
1

>  <SCORE.INTER.POLAR>
0

>  <SCORE.INTER.ROT>
11

>  <SCORE.INTER.SOLV>
12.5729

>  <SCORE.INTER.VDW>
-19.421

>  <SCORE.INTER.norm>
-0.460358

>  <SCORE.INTRA>
-0.554339

>  <SCORE.INTRA.DIHEDRAL>
-5.56666

>  <SCORE.INTRA.DIHEDRAL.0>
7.79482

>  <SCORE.INTRA.POLAR>
0

>  <SCORE.INTRA.POLAR.0>
0

>  <SCORE.INTRA.REPUL>
0

>  <SCORE.INTRA.REPUL.0>
0

>  <SCORE.INTRA.SOLV>
3.33449

>  <SCORE.INTRA.SOLV.lig_0>
-49.456

>  <SCORE.INTRA.VDW>
0.561744

>  <SCORE.INTRA.VDW.0>
-0.478406

>  <SCORE.INTRA.norm>
-0.0395956

>  <SCORE.RESTR>
0

>  <SCORE.RESTR.CAVITY>
0

>  <SCORE.RESTR.norm>
0

>  <SCORE.SYSTEM>
0

>  <SCORE.SYSTEM.CONST>
0

>  <SCORE.SYSTEM.DIHEDRAL>
0

>  <SCORE.SYSTEM.SOLV>
0

>  <SCORE.SYSTEM.norm>
0

>  <SCORE.heavy>
14

>  <SCORE.norm>
-0.499953

>  <RMSD>
3.209

$$$$
ligand
 OpenBabel11021811413D
libRbt.so/2013.1/901 2013/11/27
 14 13  0  0  0  0  0  0  0  0999 V2000
   48.1641    8.1107   17.1956 N   0  0  0  0  0  0  0  0  0  0  0  0
   46.9120    8.7531   17.6502 C   0  0  0  0  0  0  0  0  0  0  0  0
   46.7589    8.6542   19.1834 C   0  0  0  0  0  0  0  0  0  0  0  0
   45.4614    9.2653   19.7376 C   0  0  0  0  0  0  0  0  0  0  0  0
   44.2655    8.5714   19.1857 N   0  0  0  0  0  0  0  0  0  0  0  0
   43.6151    7.7521   20.2405 C   0  0  0  0  0  0  0  0  0  0  0  0
   44.0599    6.2519   20.3026 C   0  0  0  0  0  0  0  0  0  0  0  0
   45.5591    6.0485   20.6652 C   0  0  0  0  0  0  0  0  0  0  0  0
   46.0546    4.6300   20.4620 C   0  0  0  0  0  0  0  0  0  0  0  0
   46.0101    4.3486   19.0397 N   0  0  0  0  0  0  0  0  0  0  0  0
   45.9308    2.9030   18.9223 C   0  0  0  0  0  0  0  0  0  0  0  0
   45.8469    2.4656   17.4646 C   0  0  0  0  0  0  0  0  0  0  0  0
   45.6595    0.9410   17.4469 C   0  0  0  0  0  0  0  0  0  0  0  0
   45.5850    0.4063   16.0789 N   0  0  0  0  0  0  0  0  0  0  0  0
  1  2  1  0  0  0  0
  2  3  1  0  0  0  0
  3  4  1  0  0  0  0
  4  5  1  0  0  0  0
  5  6  1  0  0  0  0
  6  7  1  0  0  0  0
  7  8  1  0  0  0  0
  8  9  1  0  0  0  0
  9 10  1  0  0  0  0
 10 11  1  0  0  0  0
 11 12  1  0  0  0  0
 12 13  1  0  0  0  0
 13 14  1  0  0  0  0
M  END
>  <CHROM.1>
-178.41401648,61.26727429,108.79213130,-93.67992662,64.01036277,-168.67646999
65.89919335,-156.58730642,178.77235797,-175.77032949,-179.18384092,45.70581033
5.65025048,18.82718376,-1.58693364,-0.83741899,-2.90635615

>  <Name>
ligand

>  <RI>
0

>  <Rbt.Current_Directory>
/home/itssahil/PROJECTS/Mol_Feturizer/New_Systems/rnas/1TN1

>  <Rbt.Executable>
rbdock ($Id: //depot/dev/client3/rdock/2013.1/src/exe/rbdock.cxx#4 $)

>  <Rbt.Library>
libRbt.so (2013.1, Build901 2013/11/27)

>  <Rbt.Parameter_File>
/export/apps/rDock/src/rDock_2013.1_src/data/scripts/dock_solv.prm

>  <Rbt.Receptor>
prm/pocket_docking_5.prm

>  <SCORE>
-9.61983

>  <SCORE.INTER>
-6.97603

>  <SCORE.INTER.CONST>
1

>  <SCORE.INTER.POLAR>
0

>  <SCORE.INTER.ROT>
11

>  <SCORE.INTER.SOLV>
12.998

>  <SCORE.INTER.VDW>
-19.9167

>  <SCORE.INTER.norm>
-0.498288

>  <SCORE.INTRA>
-2.6438

>  <SCORE.INTRA.DIHEDRAL>
-4.78291

>  <SCORE.INTRA.DIHEDRAL.0>
7.79482

>  <SCORE.INTRA.POLAR>
0

>  <SCORE.INTRA.POLAR.0>
0

>  <SCORE.INTRA.REPUL>
0

>  <SCORE.INTRA.REPUL.0>
0

>  <SCORE.INTRA.SOLV>
1.13872

>  <SCORE.INTRA.SOLV.lig_0>
-49.456

>  <SCORE.INTRA.VDW>
-0.821706

>  <SCORE.INTRA.VDW.0>
-0.478406

>  <SCORE.INTRA.norm>
-0.188843

>  <SCORE.RESTR>
0

>  <SCORE.RESTR.CAVITY>
0

>  <SCORE.RESTR.norm>
0

>  <SCORE.SYSTEM>
0

>  <SCORE.SYSTEM.CONST>
0

>  <SCORE.SYSTEM.DIHEDRAL>
0

>  <SCORE.SYSTEM.SOLV>
0

>  <SCORE.SYSTEM.norm>
0

>  <SCORE.heavy>
14

>  <SCORE.norm>
-0.687131

>  <RMSD>
3.212

$$$$
ligand
 OpenBabel11021811413D
libRbt.so/2013.1/901 2013/11/27
 14 13  0  0  0  0  0  0  0  0999 V2000
   46.4904   10.4023   18.1313 N   0  0  0  0  0  0  0  0  0  0  0  0
   46.1211    9.8477   19.4516 C   0  0  0  0  0  0  0  0  0  0  0  0
   45.7404    8.3553   19.3433 C   0  0  0  0  0  0  0  0  0  0  0  0
   46.9093    7.4208   18.9903 C   0  0  0  0  0  0  0  0  0  0  0  0
   46.4217    6.0485   18.6810 N   0  0  0  0  0  0  0  0  0  0  0  0
   46.1474    5.3057   19.9379 C   0  0  0  0  0  0  0  0  0  0  0  0
   45.3130    3.9903   19.7781 C   0  0  0  0  0  0  0  0  0  0  0  0
   45.9926    2.9115   18.8865 C   0  0  0  0  0  0  0  0  0  0  0  0
   45.1815    1.6397   18.7331 C   0  0  0  0  0  0  0  0  0  0  0  0
   45.9508    0.7244   17.9117 N   0  0  0  0  0  0  0  0  0  0  0  0
   45.0592    0.3004   16.8463 C   0  0  0  0  0  0  0  0  0  0  0  0
   45.7219   -0.7328   15.9426 C   0  0  0  0  0  0  0  0  0  0  0  0
   44.7962   -0.9582   14.7375 C   0  0  0  0  0  0  0  0  0  0  0  0
   45.3695   -1.9010   13.7653 N   0  0  0  0  0  0  0  0  0  0  0  0
  1  2  1  0  0  0  0
  2  3  1  0  0  0  0
  3  4  1  0  0  0  0
  4  5  1  0  0  0  0
  5  6  1  0  0  0  0
  6  7  1  0  0  0  0
  7  8  1  0  0  0  0
  8  9  1  0  0  0  0
  9 10  1  0  0  0  0
 10 11  1  0  0  0  0
 11 12  1  0  0  0  0
 12 13  1  0  0  0  0
 13 14  1  0  0  0  0
M  END
>  <CHROM.1>
68.02417697,-170.42559227,-79.82117868,165.87402205,61.30707444,-179.95352460
-178.58145352,-128.01075959,-176.89258032,-171.54239805,177.53890491,45.80096791
3.81103748,17.93866119,-0.41759772,-1.46506784,-1.63835220

>  <Name>
ligand

>  <RI>
0

>  <Rbt.Current_Directory>
/home/itssahil/PROJECTS/Mol_Feturizer/New_Systems/rnas/1TN1

>  <Rbt.Executable>
rbdock ($Id: //depot/dev/client3/rdock/2013.1/src/exe/rbdock.cxx#4 $)

>  <Rbt.Library>
libRbt.so (2013.1, Build901 2013/11/27)

>  <Rbt.Parameter_File>
/export/apps/rDock/src/rDock_2013.1_src/data/scripts/dock_solv.prm

>  <Rbt.Receptor>
prm/pocket_docking_4.prm

>  <SCORE>
-9.68164

>  <SCORE.INTER>
-7.18947

>  <SCORE.INTER.CONST>
1

>  <SCORE.INTER.POLAR>
0

>  <SCORE.INTER.ROT>
11

>  <SCORE.INTER.SOLV>
12.7518

>  <SCORE.INTER.VDW>
-19.9769

>  <SCORE.INTER.norm>
-0.513533

>  <SCORE.INTRA>
-2.49218

>  <SCORE.INTRA.DIHEDRAL>
-5.30414

>  <SCORE.INTRA.DIHEDRAL.0>
7.79482

>  <SCORE.INTRA.POLAR>
0

>  <SCORE.INTRA.POLAR.0>
0

>  <SCORE.INTRA.REPUL>
0

>  <SCORE.INTRA.REPUL.0>
0

>  <SCORE.INTRA.SOLV>
0.952768

>  <SCORE.INTRA.SOLV.lig_0>
-49.456

>  <SCORE.INTRA.VDW>
-0.316491

>  <SCORE.INTRA.VDW.0>
-0.478406

>  <SCORE.INTRA.norm>
-0.178013

>  <SCORE.RESTR>
0

>  <SCORE.RESTR.CAVITY>
0

>  <SCORE.RESTR.norm>
0

>  <SCORE.SYSTEM>
0

>  <SCORE.SYSTEM.CONST>
0

>  <SCORE.SYSTEM.DIHEDRAL>
0

>  <SCORE.SYSTEM.SOLV>
0

>  <SCORE.SYSTEM.norm>
0

>  <SCORE.heavy>
14

>  <SCORE.norm>
-0.691546

>  <RMSD>
3.215

$$$$
ligand
 OpenBabel11021811413D
libRbt.so/2013.1/901 2013/11/27
 14 13  0  0  0  0  0  0  0  0999 V2000
   48.5957    7.5315   16.1057 N   0  0  0  0  0  0  0  0  0  0  0  0
   48.7692    8.9028   16.6316 C   0  0  0  0  0  0  0  0  0  0  0  0
   48.1369    9.0471   18.0329 C   0  0  0  0  0  0  0  0  0  0  0  0
   46.6124    8.8510   18.0702 C   0  0  0  0  0  0  0  0  0  0  0  0
   46.0792    9.0676   19.4433 N   0  0  0  0  0  0  0  0  0  0  0  0
   46.2915    7.8544   20.2738 C   0  0  0  0  0  0  0  0  0  0  0  0
   45.5274    6.5707   19.8041 C   0  0  0  0  0  0  0  0  0  0  0  0
   45.6595    5.3622   20.7749 C   0  0  0  0  0  0  0  0  0  0  0  0
   44.9891    4.0966   20.2771 C   0  0  0  0  0  0  0  0  0  0  0  0
   45.7738    3.5914   19.1665 N   0  0  0  0  0  0  0  0  0  0  0  0
   45.2068    2.2958   18.8354 C   0  0  0  0  0  0  0  0  0  0  0  0
   45.7791    1.7534   17.5310 C   0  0  0  0  0  0  0  0  0  0  0  0
   45.0262    0.4568   17.1966 C   0  0  0  0  0  0  0  0  0  0  0  0
   45.4352   -0.1047   15.9005 N   0  0  0  0  0  0  0  0  0  0  0  0
  1  2  1  0  0  0  0
  2  3  1  0  0  0  0
  3  4  1  0  0  0  0
  4  5  1  0  0  0  0
  5  6  1  0  0  0  0
  6  7  1  0  0  0  0
  7  8  1  0  0  0  0
  8  9  1  0  0  0  0
  9 10  1  0  0  0  0
 10 11  1  0  0  0  0
 11 12  1  0  0  0  0
 12 13  1  0  0  0  0
 13 14  1  0  0  0  0
M  END
>  <CHROM.1>
-63.65220018,-177.42677429,-80.27211820,-64.03584715,-174.18382339,-176.49755079
70.95703746,172.63197112,170.19239903,-174.61053039,175.95022285,46.27721284
5.37704838,18.43200011,-1.05194084,-1.00515603,-2.60643141

>  <Name>
ligand

>  <RI>
0

>  <Rbt.Current_Directory>
/home/itssahil/PROJECTS/Mol_Feturizer/New_Systems/rnas/1TN1

>  <Rbt.Executable>
rbdock ($Id: //depot/dev/client3/rdock/2013.1/src/exe/rbdock.cxx#4 $)

>  <Rbt.Library>
libRbt.so (2013.1, Build901 2013/11/27)

>  <Rbt.Parameter_File>
/export/apps/rDock/src/rDock_2013.1_src/data/scripts/dock_solv.prm

>  <Rbt.Receptor>
prm/pocket_docking_4.prm

>  <SCORE>
-7.61911

>  <SCORE.INTER>
-5.15328

>  <SCORE.INTER.CONST>
1

>  <SCORE.INTER.POLAR>
0

>  <SCORE.INTER.ROT>
11

>  <SCORE.INTER.SOLV>
11.3375

>  <SCORE.INTER.VDW>
-18.148

>  <SCORE.INTER.norm>
-0.368091

>  <SCORE.INTRA>
-2.46583

>  <SCORE.INTRA.DIHEDRAL>
-6.48604

>  <SCORE.INTRA.DIHEDRAL.0>
7.79482

>  <SCORE.INTRA.POLAR>
0

>  <SCORE.INTRA.POLAR.0>
0

>  <SCORE.INTRA.REPUL>
0

>  <SCORE.INTRA.REPUL.0>
0

>  <SCORE.INTRA.SOLV>
1.0028

>  <SCORE.INTRA.SOLV.lig_0>
-49.456

>  <SCORE.INTRA.VDW>
0.27579

>  <SCORE.INTRA.VDW.0>
-0.478406

>  <SCORE.INTRA.norm>
-0.176131

>  <SCORE.RESTR>
0

>  <SCORE.RESTR.CAVITY>
0

>  <SCORE.RESTR.norm>
0

>  <SCORE.SYSTEM>
0

>  <SCORE.SYSTEM.CONST>
0

>  <SCORE.SYSTEM.DIHEDRAL>
0

>  <SCORE.SYSTEM.SOLV>
0

>  <SCORE.SYSTEM.norm>
0

>  <SCORE.heavy>
14

>  <SCORE.norm>
-0.544222

>  <RMSD>
3.216

$$$$
ligand
 OpenBabel11021811413D
libRbt.so/2013.1/901 2013/11/27
 14 13  0  0  0  0  0  0  0  0999 V2000
   47.9703    8.2626   14.0446 N   0  0  0  0  0  0  0  0  0  0  0  0
   47.3596    8.3431   15.3891 C   0  0  0  0  0  0  0  0  0  0  0  0
   47.7319    9.6661   16.0928 C   0  0  0  0  0  0  0  0  0  0  0  0
   47.2054    9.7958   17.5315 C   0  0  0  0  0  0  0  0  0  0  0  0
   47.8287    8.7788   18.4224 N   0  0  0  0  0  0  0  0  0  0  0  0
   46.8303    7.7453   18.7989 C   0  0  0  0  0  0  0  0  0  0  0  0
   46.3784    7.7555   20.2982 C   0  0  0  0  0  0  0  0  0  0  0  0
   45.3182    6.6724   20.6494 C   0  0  0  0  0  0  0  0  0  0  0  0
   45.8640    5.2579   20.6614 C   0  0  0  0  0  0  0  0  0  0  0  0
   46.1762    4.8957   19.2918 N   0  0  0  0  0  0  0  0  0  0  0  0
   45.9275    3.4682   19.1910 C   0  0  0  0  0  0  0  0  0  0  0  0
   46.1015    2.9715   17.7605 C   0  0  0  0  0  0  0  0  0  0  0  0
   45.6623    1.4999   17.7229 C   0  0  0  0  0  0  0  0  0  0  0  0
   45.7266    0.9355   16.3665 N   0  0  0  0  0  0  0  0  0  0  0  0
  1  2  1  0  0  0  0
  2  3  1  0  0  0  0
  3  4  1  0  0  0  0
  4  5  1  0  0  0  0
  5  6  1  0  0  0  0
  6  7  1  0  0  0  0
  7  8  1  0  0  0  0
  8  9  1  0  0  0  0
  9 10  1  0  0  0  0
 10 11  1  0  0  0  0
 11 12  1  0  0  0  0
 12 13  1  0  0  0  0
 13 14  1  0  0  0  0
M  END
>  <CHROM.1>
-176.56922090,64.82256077,-108.96404609,-110.64130285,179.18759436,71.25555398
-69.22519929,-147.34379577,175.05502938,-173.54153356,177.15529323,46.57705183
6.14647558,18.01618799,-0.61288925,-1.26412903,-2.41558921

>  <Name>
ligand

>  <RI>
0

>  <Rbt.Current_Directory>
/home/itssahil/PROJECTS/Mol_Feturizer/New_Systems/rnas/1TN1

>  <Rbt.Executable>
rbdock ($Id: //depot/dev/client3/rdock/2013.1/src/exe/rbdock.cxx#4 $)

>  <Rbt.Library>
libRbt.so (2013.1, Build901 2013/11/27)

>  <Rbt.Parameter_File>
/export/apps/rDock/src/rDock_2013.1_src/data/scripts/dock_solv.prm

>  <Rbt.Receptor>
prm/blind_docking_60.prm

>  <SCORE>
-6.61586

>  <SCORE.INTER>
-4.93275

>  <SCORE.INTER.CONST>
1

>  <SCORE.INTER.POLAR>
0

>  <SCORE.INTER.ROT>
11

>  <SCORE.INTER.SOLV>
10.9359

>  <SCORE.INTER.VDW>
-17.8671

>  <SCORE.INTER.norm>
-0.352339

>  <SCORE.INTRA>
-1.68311

>  <SCORE.INTRA.DIHEDRAL>
-3.70639

>  <SCORE.INTRA.DIHEDRAL.0>
7.79482

>  <SCORE.INTRA.POLAR>
0

>  <SCORE.INTRA.POLAR.0>
0

>  <SCORE.INTRA.REPUL>
0

>  <SCORE.INTRA.REPUL.0>
0

>  <SCORE.INTRA.SOLV>
1.26074

>  <SCORE.INTRA.SOLV.lig_0>
-49.456

>  <SCORE.INTRA.VDW>
-0.460286

>  <SCORE.INTRA.VDW.0>
-0.478406

>  <SCORE.INTRA.norm>
-0.120222

>  <SCORE.RESTR>
0

>  <SCORE.RESTR.CAVITY>
0

>  <SCORE.RESTR.norm>
0

>  <SCORE.SYSTEM>
0

>  <SCORE.SYSTEM.CONST>
0

>  <SCORE.SYSTEM.DIHEDRAL>
0

>  <SCORE.SYSTEM.SOLV>
0

>  <SCORE.SYSTEM.norm>
0

>  <SCORE.heavy>
14

>  <SCORE.norm>
-0.472562

>  <RMSD>
3.218

$$$$
ligand
 OpenBabel11021811413D
libRbt.so/2013.1/901 2013/11/27
 14 13  0  0  0  0  0  0  0  0999 V2000
   45.6988   10.4210   18.4707 N   0  0  0  0  0  0  0  0  0  0  0  0
   44.9103    9.3907   19.1806 C   0  0  0  0  0  0  0  0  0  0  0  0
   45.8043    8.2145   19.6291 C   0  0  0  0  0  0  0  0  0  0  0  0
   45.0475    7.0526   20.2933 C   0  0  0  0  0  0  0  0  0  0  0  0
   45.9722    5.9351   20.6292 N   0  0  0  0  0  0  0  0  0  0  0  0
   45.2021    4.6908   20.8851 C   0  0  0  0  0  0  0  0  0  0  0  0
   44.9156    3.8018   19.6282 C   0  0  0  0  0  0  0  0  0  0  0  0
   46.1956    3.2855   18.9104 C   0  0  0  0  0  0  0  0  0  0  0  0
   45.9163    2.4927   17.6485 C   0  0  0  0  0  0  0  0  0  0  0  0
   45.2411    1.2694   18.0386 N   0  0  0  0  0  0  0  0  0  0  0  0
   44.9335    0.5728   16.8017 C   0  0  0  0  0  0  0  0  0  0  0  0
   45.6444   -0.7735   16.7283 C   0  0  0  0  0  0  0  0  0  0  0  0
   45.3452   -1.3825   15.3500 C   0  0  0  0  0  0  0  0  0  0  0  0
   45.9170   -0.5852   14.2545 N   0  0  0  0  0  0  0  0  0  0  0  0
  1  2  1  0  0  0  0
  2  3  1  0  0  0  0
  3  4  1  0  0  0  0
  4  5  1  0  0  0  0
  5  6  1  0  0  0  0
  6  7  1  0  0  0  0
  7  8  1  0  0  0  0
  8  9  1  0  0  0  0
  9 10  1  0  0  0  0
 10 11  1  0  0  0  0
 11 12  1  0  0  0  0
 12 13  1  0  0  0  0
 13 14  1  0  0  0  0
M  END
>  <CHROM.1>
-176.09427645,177.04817322,-163.21382510,88.78653846,60.57726797,-176.62882407
-66.29573393,177.26229061,117.58920635,-175.79439389,64.79038961,45.48161846
3.88454036,18.31790486,-1.72367244,-1.51090840,-2.90373492

>  <Name>
ligand

>  <RI>
0

>  <Rbt.Current_Directory>
/home/itssahil/PROJECTS/Mol_Feturizer/New_Systems/rnas/1TN1

>  <Rbt.Executable>
rbdock ($Id: //depot/dev/client3/rdock/2013.1/src/exe/rbdock.cxx#4 $)

>  <Rbt.Library>
libRbt.so (2013.1, Build901 2013/11/27)

>  <Rbt.Parameter_File>
/export/apps/rDock/src/rDock_2013.1_src/data/scripts/dock_solv.prm

>  <Rbt.Receptor>
prm/pocket_docking_5.prm

>  <SCORE>
-9.96358

>  <SCORE.INTER>
-7.57809

>  <SCORE.INTER.CONST>
1

>  <SCORE.INTER.POLAR>
0

>  <SCORE.INTER.ROT>
11

>  <SCORE.INTER.SOLV>
10.7419

>  <SCORE.INTER.VDW>
-19.566

>  <SCORE.INTER.norm>
-0.541292

>  <SCORE.INTRA>
-2.38549

>  <SCORE.INTRA.DIHEDRAL>
-5.37349

>  <SCORE.INTRA.DIHEDRAL.0>
7.79482

>  <SCORE.INTRA.POLAR>
0

>  <SCORE.INTRA.POLAR.0>
0

>  <SCORE.INTRA.REPUL>
0

>  <SCORE.INTRA.REPUL.0>
0

>  <SCORE.INTRA.SOLV>
1.61821

>  <SCORE.INTRA.SOLV.lig_0>
-49.456

>  <SCORE.INTRA.VDW>
-0.507853

>  <SCORE.INTRA.VDW.0>
-0.478406

>  <SCORE.INTRA.norm>
-0.170392

>  <SCORE.RESTR>
0

>  <SCORE.RESTR.CAVITY>
0

>  <SCORE.RESTR.norm>
0

>  <SCORE.SYSTEM>
0

>  <SCORE.SYSTEM.CONST>
0

>  <SCORE.SYSTEM.DIHEDRAL>
0

>  <SCORE.SYSTEM.SOLV>
0

>  <SCORE.SYSTEM.norm>
0

>  <SCORE.heavy>
14

>  <SCORE.norm>
-0.711684

>  <RMSD>
3.234

$$$$
ligand
 OpenBabel11021811413D
libRbt.so/2013.1/901 2013/11/27
 14 13  0  0  0  0  0  0  0  0999 V2000
   45.3678   -1.3547   14.8641 N   0  0  0  0  0  0  0  0  0  0  0  0
   45.4990   -0.9414   16.2780 C   0  0  0  0  0  0  0  0  0  0  0  0
   45.6718    0.5881   16.3986 C   0  0  0  0  0  0  0  0  0  0  0  0
   45.8210    1.1036   17.8394 C   0  0  0  0  0  0  0  0  0  0  0  0
   46.0701    2.5712   17.8588 N   0  0  0  0  0  0  0  0  0  0  0  0
   45.6063    3.1537   19.1443 C   0  0  0  0  0  0  0  0  0  0  0  0
   45.8239    4.6960   19.3059 C   0  0  0  0  0  0  0  0  0  0  0  0
   45.2731    5.2789   20.6391 C   0  0  0  0  0  0  0  0  0  0  0  0
   45.3212    6.7924   20.7156 C   0  0  0  0  0  0  0  0  0  0  0  0
   44.4260    7.3123   19.6994 N   0  0  0  0  0  0  0  0  0  0  0  0
   43.1784    7.6084   20.3818 C   0  0  0  0  0  0  0  0  0  0  0  0
   42.2549    8.4546   19.5133 C   0  0  0  0  0  0  0  0  0  0  0  0
   40.9836    8.7397   20.3273 C   0  0  0  0  0  0  0  0  0  0  0  0
   40.2351    7.5122   20.6367 N   0  0  0  0  0  0  0  0  0  0  0  0
  1  2  1  0  0  0  0
  2  3  1  0  0  0  0
  3  4  1  0  0  0  0
  4  5  1  0  0  0  0
  5  6  1  0  0  0  0
  6  7  1  0  0  0  0
  7  8  1  0  0  0  0
  8  9  1  0  0  0  0
  9 10  1  0  0  0  0
 10 11  1  0  0  0  0
 11 12  1  0  0  0  0
 12 13  1  0  0  0  0
 13 14  1  0  0  0  0
M  END
>  <CHROM.1>
-179.78383838,176.33237870,154.12265831,179.34175824,177.60985399,-172.45071611
64.82719662,97.33007517,166.91079736,-178.77503117,-63.83848880,44.39531274
4.39409223,18.82895307,1.19661768,0.28754877,-2.57271480

>  <Name>
ligand

>  <RI>
0

>  <Rbt.Current_Directory>
/home/itssahil/PROJECTS/Mol_Feturizer/New_Systems/rnas/1TN1

>  <Rbt.Executable>
rbdock ($Id: //depot/dev/client3/rdock/2013.1/src/exe/rbdock.cxx#4 $)

>  <Rbt.Library>
libRbt.so (2013.1, Build901 2013/11/27)

>  <Rbt.Parameter_File>
/export/apps/rDock/src/rDock_2013.1_src/data/scripts/dock_solv.prm

>  <Rbt.Receptor>
prm/blind_docking_100.prm

>  <SCORE>
-13.1777

>  <SCORE.INTER>
-10.6746

>  <SCORE.INTER.CONST>
1

>  <SCORE.INTER.POLAR>
0

>  <SCORE.INTER.ROT>
11

>  <SCORE.INTER.SOLV>
14.3312

>  <SCORE.INTER.VDW>
-22.8268

>  <SCORE.INTER.norm>
-0.762471

>  <SCORE.INTRA>
-2.50312

>  <SCORE.INTRA.DIHEDRAL>
-5.90545

>  <SCORE.INTRA.DIHEDRAL.0>
7.79482

>  <SCORE.INTRA.POLAR>
0

>  <SCORE.INTRA.POLAR.0>
0

>  <SCORE.INTRA.REPUL>
0

>  <SCORE.INTRA.REPUL.0>
0

>  <SCORE.INTRA.SOLV>
1.18538

>  <SCORE.INTRA.SOLV.lig_0>
-49.456

>  <SCORE.INTRA.VDW>
-0.143089

>  <SCORE.INTRA.VDW.0>
-0.478406

>  <SCORE.INTRA.norm>
-0.178794

>  <SCORE.RESTR>
0

>  <SCORE.RESTR.CAVITY>
0

>  <SCORE.RESTR.norm>
0

>  <SCORE.SYSTEM>
0

>  <SCORE.SYSTEM.CONST>
0

>  <SCORE.SYSTEM.DIHEDRAL>
0

>  <SCORE.SYSTEM.SOLV>
0

>  <SCORE.SYSTEM.norm>
0

>  <SCORE.heavy>
14

>  <SCORE.norm>
-0.941266

>  <RMSD>
3.239

$$$$
ligand
 OpenBabel11021811413D
libRbt.so/2013.1/901 2013/11/27
 14 13  0  0  0  0  0  0  0  0999 V2000
   45.2488   -0.3951   14.1012 N   0  0  0  0  0  0  0  0  0  0  0  0
   46.2344   -0.9245   15.0684 C   0  0  0  0  0  0  0  0  0  0  0  0
   45.6121   -1.0745   16.4735 C   0  0  0  0  0  0  0  0  0  0  0  0
   45.0413    0.2259   17.0627 C   0  0  0  0  0  0  0  0  0  0  0  0
   46.1249    1.2095   17.3362 N   0  0  0  0  0  0  0  0  0  0  0  0
   45.8316    1.9632   18.5822 C   0  0  0  0  0  0  0  0  0  0  0  0
   45.9724    3.5195   18.4807 C   0  0  0  0  0  0  0  0  0  0  0  0
   45.5649    4.2798   19.7754 C   0  0  0  0  0  0  0  0  0  0  0  0
   45.6419    5.7891   19.6529 C   0  0  0  0  0  0  0  0  0  0  0  0
   45.0654    6.3576   20.8566 N   0  0  0  0  0  0  0  0  0  0  0  0
   44.4525    7.6104   20.4510 C   0  0  0  0  0  0  0  0  0  0  0  0
   42.9678    7.4346   20.1545 C   0  0  0  0  0  0  0  0  0  0  0  0
   42.3821    8.8266   19.8727 C   0  0  0  0  0  0  0  0  0  0  0  0
   43.0171    9.4723   18.7140 N   0  0  0  0  0  0  0  0  0  0  0  0
  1  2  1  0  0  0  0
  2  3  1  0  0  0  0
  3  4  1  0  0  0  0
  4  5  1  0  0  0  0
  5  6  1  0  0  0  0
  6  7  1  0  0  0  0
  7  8  1  0  0  0  0
  8  9  1  0  0  0  0
  9 10  1  0  0  0  0
 10 11  1  0  0  0  0
 11 12  1  0  0  0  0
 12 13  1  0  0  0  0
 13 14  1  0  0  0  0
M  END
>  <CHROM.1>
-57.94879978,-66.40338756,-143.03572223,-131.50165048,176.07897126,-177.35642404
172.32879888,-147.93309121,95.14359316,174.48195352,60.67503569,44.93984400
3.87805011,18.32750963,1.20645280,0.89933575,-2.39995729

>  <Name>
ligand

>  <RI>
0

>  <Rbt.Current_Directory>
/home/itssahil/PROJECTS/Mol_Feturizer/New_Systems/rnas/1TN1

>  <Rbt.Executable>
rbdock ($Id: //depot/dev/client3/rdock/2013.1/src/exe/rbdock.cxx#4 $)

>  <Rbt.Library>
libRbt.so (2013.1, Build901 2013/11/27)

>  <Rbt.Parameter_File>
/export/apps/rDock/src/rDock_2013.1_src/data/scripts/dock_solv.prm

>  <Rbt.Receptor>
prm/blind_docking_80.prm

>  <SCORE>
-9.49184

>  <SCORE.INTER>
-8.62216

>  <SCORE.INTER.CONST>
1

>  <SCORE.INTER.POLAR>
0

>  <SCORE.INTER.ROT>
11

>  <SCORE.INTER.SOLV>
15.7906

>  <SCORE.INTER.VDW>
-21.945

>  <SCORE.INTER.norm>
-0.615869

>  <SCORE.INTRA>
-0.869675

>  <SCORE.INTRA.DIHEDRAL>
-3.86935

>  <SCORE.INTRA.DIHEDRAL.0>
7.79482

>  <SCORE.INTRA.POLAR>
0

>  <SCORE.INTRA.POLAR.0>
0

>  <SCORE.INTRA.REPUL>
0

>  <SCORE.INTRA.REPUL.0>
0

>  <SCORE.INTRA.SOLV>
2.61876

>  <SCORE.INTRA.SOLV.lig_0>
-49.456

>  <SCORE.INTRA.VDW>
-0.244384

>  <SCORE.INTRA.VDW.0>
-0.478406

>  <SCORE.INTRA.norm>
-0.0621197

>  <SCORE.RESTR>
0

>  <SCORE.RESTR.CAVITY>
0

>  <SCORE.RESTR.norm>
0

>  <SCORE.SYSTEM>
0

>  <SCORE.SYSTEM.CONST>
0

>  <SCORE.SYSTEM.DIHEDRAL>
0

>  <SCORE.SYSTEM.SOLV>
0

>  <SCORE.SYSTEM.norm>
0

>  <SCORE.heavy>
14

>  <SCORE.norm>
-0.677988

>  <RMSD>
3.239

$$$$
ligand
 OpenBabel11021811413D
libRbt.so/2013.1/901 2013/11/27
 14 13  0  0  0  0  0  0  0  0999 V2000
   45.0480   -1.4452   14.9847 N   0  0  0  0  0  0  0  0  0  0  0  0
   45.7502   -0.3483   15.6854 C   0  0  0  0  0  0  0  0  0  0  0  0
   45.0133    0.0466   16.9835 C   0  0  0  0  0  0  0  0  0  0  0  0
   45.6856    1.1748   17.7830 C   0  0  0  0  0  0  0  0  0  0  0  0
   44.8750    1.5398   18.9772 N   0  0  0  0  0  0  0  0  0  0  0  0
   44.8843    3.0123   19.1734 C   0  0  0  0  0  0  0  0  0  0  0  0
   44.0125    3.5421   20.3614 C   0  0  0  0  0  0  0  0  0  0  0  0
   44.0600    5.0863   20.5447 C   0  0  0  0  0  0  0  0  0  0  0  0
   45.4339    5.6224   20.8967 C   0  0  0  0  0  0  0  0  0  0  0  0
   45.3426    7.0694   20.9421 N   0  0  0  0  0  0  0  0  0  0  0  0
   46.3693    7.5615   20.0401 C   0  0  0  0  0  0  0  0  0  0  0  0
   46.0386    8.9585   19.5279 C   0  0  0  0  0  0  0  0  0  0  0  0
   47.0763    9.3171   18.4534 C   0  0  0  0  0  0  0  0  0  0  0  0
   46.8355   10.6455   17.8701 N   0  0  0  0  0  0  0  0  0  0  0  0
  1  2  1  0  0  0  0
  2  3  1  0  0  0  0
  3  4  1  0  0  0  0
  4  5  1  0  0  0  0
  5  6  1  0  0  0  0
  6  7  1  0  0  0  0
  7  8  1  0  0  0  0
  8  9  1  0  0  0  0
  9 10  1  0  0  0  0
 10 11  1  0  0  0  0
 11 12  1  0  0  0  0
 12 13  1  0  0  0  0
 13 14  1  0  0  0  0
M  END
>  <CHROM.1>
179.45838709,177.04013861,-140.38645069,177.28519563,179.36348506,-63.33101485
176.06810600,-125.56528429,155.91701445,-172.86876993,178.98526488,45.45890266
4.41304335,18.73047186,-1.83618875,1.11856950,0.54346755

>  <Name>
ligand

>  <RI>
0

>  <Rbt.Current_Directory>
/home/itssahil/PROJECTS/Mol_Feturizer/New_Systems/rnas/1TN1

>  <Rbt.Executable>
rbdock ($Id: //depot/dev/client3/rdock/2013.1/src/exe/rbdock.cxx#4 $)

>  <Rbt.Library>
libRbt.so (2013.1, Build901 2013/11/27)

>  <Rbt.Parameter_File>
/export/apps/rDock/src/rDock_2013.1_src/data/scripts/dock_solv.prm

>  <Rbt.Receptor>
prm/blind_docking_80.prm

>  <SCORE>
-8.45021

>  <SCORE.INTER>
-5.54575

>  <SCORE.INTER.CONST>
1

>  <SCORE.INTER.POLAR>
0

>  <SCORE.INTER.ROT>
11

>  <SCORE.INTER.SOLV>
14.4256

>  <SCORE.INTER.VDW>
-19.439

>  <SCORE.INTER.norm>
-0.396125

>  <SCORE.INTRA>
-2.90446

>  <SCORE.INTRA.DIHEDRAL>
-4.97307

>  <SCORE.INTRA.DIHEDRAL.0>
7.79482

>  <SCORE.INTRA.POLAR>
0

>  <SCORE.INTRA.POLAR.0>
0

>  <SCORE.INTRA.REPUL>
0

>  <SCORE.INTRA.REPUL.0>
0

>  <SCORE.INTRA.SOLV>
0.0983086

>  <SCORE.INTRA.SOLV.lig_0>
-49.456

>  <SCORE.INTRA.VDW>
-0.467081

>  <SCORE.INTRA.VDW.0>
-0.478406

>  <SCORE.INTRA.norm>
-0.207461

>  <SCORE.RESTR>
0

>  <SCORE.RESTR.CAVITY>
0

>  <SCORE.RESTR.norm>
0

>  <SCORE.SYSTEM>
0

>  <SCORE.SYSTEM.CONST>
0

>  <SCORE.SYSTEM.DIHEDRAL>
0

>  <SCORE.SYSTEM.SOLV>
0

>  <SCORE.SYSTEM.norm>
0

>  <SCORE.heavy>
14

>  <SCORE.norm>
-0.603586

>  <RMSD>
3.253

$$$$
ligand
 OpenBabel11021811413D
libRbt.so/2013.1/901 2013/11/27
 14 13  0  0  0  0  0  0  0  0999 V2000
   48.3799    9.0870   16.6589 N   0  0  0  0  0  0  0  0  0  0  0  0
   47.3731    8.3654   17.4668 C   0  0  0  0  0  0  0  0  0  0  0  0
   47.1059    9.0909   18.8033 C   0  0  0  0  0  0  0  0  0  0  0  0
   46.1197    8.3698   19.7368 C   0  0  0  0  0  0  0  0  0  0  0  0
   46.6217    7.0166   20.1019 N   0  0  0  0  0  0  0  0  0  0  0  0
   45.5236    6.2007   20.6811 C   0  0  0  0  0  0  0  0  0  0  0  0
   45.6928    4.6493   20.5522 C   0  0  0  0  0  0  0  0  0  0  0  0
   45.7598    4.1375   19.0846 C   0  0  0  0  0  0  0  0  0  0  0  0
   45.7926    2.6268   18.9604 C   0  0  0  0  0  0  0  0  0  0  0  0
   45.7696    2.3014   17.5469 N   0  0  0  0  0  0  0  0  0  0  0  0
   45.7111    0.8520   17.4730 C   0  0  0  0  0  0  0  0  0  0  0  0
   45.5424    0.3733   16.0358 C   0  0  0  0  0  0  0  0  0  0  0  0
   45.6531   -1.1589   16.0403 C   0  0  0  0  0  0  0  0  0  0  0  0
   45.5157   -1.7298   14.6919 N   0  0  0  0  0  0  0  0  0  0  0  0
  1  2  1  0  0  0  0
  2  3  1  0  0  0  0
  3  4  1  0  0  0  0
  4  5  1  0  0  0  0
  5  6  1  0  0  0  0
  6  7  1  0  0  0  0
  7  8  1  0  0  0  0
  8  9  1  0  0  0  0
  9 10  1  0  0  0  0
 10 11  1  0  0  0  0
 11 12  1  0  0  0  0
 12 13  1  0  0  0  0
 13 14  1  0  0  0  0
M  END
>  <CHROM.1>
-177.16348758,60.13764350,-164.59113664,155.07535205,-61.29668464,-174.56924383
176.50542938,-176.26735181,174.36331911,173.61453213,-179.49583276,46.18276946
4.29876830,18.13134251,-1.19314646,-1.16047371,-2.48516298

>  <Name>
ligand

>  <RI>
0

>  <Rbt.Current_Directory>
/home/itssahil/PROJECTS/Mol_Feturizer/New_Systems/rnas/1TN1

>  <Rbt.Executable>
rbdock ($Id: //depot/dev/client3/rdock/2013.1/src/exe/rbdock.cxx#4 $)

>  <Rbt.Library>
libRbt.so (2013.1, Build901 2013/11/27)

>  <Rbt.Parameter_File>
/export/apps/rDock/src/rDock_2013.1_src/data/scripts/dock_solv.prm

>  <Rbt.Receptor>
prm/pocket_docking_4.prm

>  <SCORE>
-11.1631

>  <SCORE.INTER>
-7.17383

>  <SCORE.INTER.CONST>
1

>  <SCORE.INTER.POLAR>
0

>  <SCORE.INTER.ROT>
11

>  <SCORE.INTER.SOLV>
11.2884

>  <SCORE.INTER.VDW>
-19.4787

>  <SCORE.INTER.norm>
-0.512417

>  <SCORE.INTRA>
-3.98925

>  <SCORE.INTRA.DIHEDRAL>
-6.77055

>  <SCORE.INTRA.DIHEDRAL.0>
7.79482

>  <SCORE.INTRA.POLAR>
0

>  <SCORE.INTRA.POLAR.0>
0

>  <SCORE.INTRA.REPUL>
0

>  <SCORE.INTRA.REPUL.0>
0

>  <SCORE.INTRA.SOLV>
0.619845

>  <SCORE.INTRA.SOLV.lig_0>
-49.456

>  <SCORE.INTRA.VDW>
-0.913895

>  <SCORE.INTRA.VDW.0>
-0.478406

>  <SCORE.INTRA.norm>
-0.284946

>  <SCORE.RESTR>
0

>  <SCORE.RESTR.CAVITY>
0

>  <SCORE.RESTR.norm>
0

>  <SCORE.SYSTEM>
0

>  <SCORE.SYSTEM.CONST>
0

>  <SCORE.SYSTEM.DIHEDRAL>
0

>  <SCORE.SYSTEM.SOLV>
0

>  <SCORE.SYSTEM.norm>
0

>  <SCORE.heavy>
14

>  <SCORE.norm>
-0.797363

>  <RMSD>
3.255

$$$$
ligand
 OpenBabel11021811413D
libRbt.so/2013.1/901 2013/11/27
 14 13  0  0  0  0  0  0  0  0999 V2000
   48.6440    9.4080   16.3748 N   0  0  0  0  0  0  0  0  0  0  0  0
   47.7096    9.6546   17.4943 C   0  0  0  0  0  0  0  0  0  0  0  0
   47.5723    8.4058   18.3919 C   0  0  0  0  0  0  0  0  0  0  0  0
   46.5424    8.5426   19.5253 C   0  0  0  0  0  0  0  0  0  0  0  0
   46.5337    7.3298   20.3887 N   0  0  0  0  0  0  0  0  0  0  0  0
   45.7576    6.2426   19.7389 C   0  0  0  0  0  0  0  0  0  0  0  0
   45.5406    4.9557   20.6043 C   0  0  0  0  0  0  0  0  0  0  0  0
   44.7113    3.8462   19.8959 C   0  0  0  0  0  0  0  0  0  0  0  0
   45.4621    3.1262   18.7929 C   0  0  0  0  0  0  0  0  0  0  0  0
   44.5365    2.2064   18.1593 N   0  0  0  0  0  0  0  0  0  0  0  0
   45.3445    1.1041   17.6677 C   0  0  0  0  0  0  0  0  0  0  0  0
   44.7057    0.4432   16.4518 C   0  0  0  0  0  0  0  0  0  0  0  0
   45.5707   -0.7687   16.0734 C   0  0  0  0  0  0  0  0  0  0  0  0
   45.1156   -1.4097   14.8306 N   0  0  0  0  0  0  0  0  0  0  0  0
  1  2  1  0  0  0  0
  2  3  1  0  0  0  0
  3  4  1  0  0  0  0
  4  5  1  0  0  0  0
  5  6  1  0  0  0  0
  6  7  1  0  0  0  0
  7  8  1  0  0  0  0
  8  9  1  0  0  0  0
  9 10  1  0  0  0  0
 10 11  1  0  0  0  0
 11 12  1  0  0  0  0
 12 13  1  0  0  0  0
 13 14  1  0  0  0  0
M  END
>  <CHROM.1>
-175.89344470,-176.53737843,-79.36416791,-173.89915554,179.38896559,72.84242082
-175.45630849,-150.67930399,-152.03911859,-175.73546458,-174.58394090,45.98180741
4.50625631,18.17100135,-1.03270594,-1.07159258,-2.42556653

>  <Name>
ligand

>  <RI>
0

>  <Rbt.Current_Directory>
/home/itssahil/PROJECTS/Mol_Feturizer/New_Systems/rnas/1TN1

>  <Rbt.Executable>
rbdock ($Id: //depot/dev/client3/rdock/2013.1/src/exe/rbdock.cxx#4 $)

>  <Rbt.Library>
libRbt.so (2013.1, Build901 2013/11/27)

>  <Rbt.Parameter_File>
/export/apps/rDock/src/rDock_2013.1_src/data/scripts/dock_solv.prm

>  <Rbt.Receptor>
prm/pocket_docking_3.prm

>  <SCORE>
-9.27894

>  <SCORE.INTER>
-6.46654

>  <SCORE.INTER.CONST>
1

>  <SCORE.INTER.POLAR>
0

>  <SCORE.INTER.ROT>
11

>  <SCORE.INTER.SOLV>
12.1766

>  <SCORE.INTER.VDW>
-19.3032

>  <SCORE.INTER.norm>
-0.461896

>  <SCORE.INTRA>
-2.81674

>  <SCORE.INTRA.DIHEDRAL>
-5.33404

>  <SCORE.INTRA.DIHEDRAL.0>
7.79482

>  <SCORE.INTRA.POLAR>
0

>  <SCORE.INTRA.POLAR.0>
0

>  <SCORE.INTRA.REPUL>
0

>  <SCORE.INTRA.REPUL.0>
0

>  <SCORE.INTRA.SOLV>
0.0576364

>  <SCORE.INTRA.SOLV.lig_0>
-49.456

>  <SCORE.INTRA.VDW>
-0.178541

>  <SCORE.INTRA.VDW.0>
-0.478406

>  <SCORE.INTRA.norm>
-0.201196

>  <SCORE.RESTR>
0.00434815

>  <SCORE.RESTR.CAVITY>
0.00434815

>  <SCORE.RESTR.norm>
0.000310582

>  <SCORE.SYSTEM>
0

>  <SCORE.SYSTEM.CONST>
0

>  <SCORE.SYSTEM.DIHEDRAL>
0

>  <SCORE.SYSTEM.SOLV>
0

>  <SCORE.SYSTEM.norm>
0

>  <SCORE.heavy>
14

>  <SCORE.norm>
-0.662781

>  <RMSD>
3.266

$$$$
ligand
 OpenBabel11021811413D
libRbt.so/2013.1/901 2013/11/27
 14 13  0  0  0  0  0  0  0  0999 V2000
   45.6025    0.2266   14.3864 N   0  0  0  0  0  0  0  0  0  0  0  0
   44.3866    0.0369   15.2066 C   0  0  0  0  0  0  0  0  0  0  0  0
   44.5139    0.7551   16.5675 C   0  0  0  0  0  0  0  0  0  0  0  0
   45.6756    0.2612   17.4454 C   0  0  0  0  0  0  0  0  0  0  0  0
   45.7894    1.0737   18.6877 N   0  0  0  0  0  0  0  0  0  0  0  0
   46.5508    2.3204   18.4178 C   0  0  0  0  0  0  0  0  0  0  0  0
   45.6939    3.6265   18.3088 C   0  0  0  0  0  0  0  0  0  0  0  0
   45.0408    4.0713   19.6490 C   0  0  0  0  0  0  0  0  0  0  0  0
   45.9919    4.7842   20.5903 C   0  0  0  0  0  0  0  0  0  0  0  0
   46.4564    5.9840   19.9201 N   0  0  0  0  0  0  0  0  0  0  0  0
   45.7303    7.0856   20.5273 C   0  0  0  0  0  0  0  0  0  0  0  0
   46.2601    8.4329   20.0506 C   0  0  0  0  0  0  0  0  0  0  0  0
   45.9169    8.5658   18.5591 C   0  0  0  0  0  0  0  0  0  0  0  0
   46.3907    9.8369   17.9911 N   0  0  0  0  0  0  0  0  0  0  0  0
  1  2  1  0  0  0  0
  2  3  1  0  0  0  0
  3  4  1  0  0  0  0
  4  5  1  0  0  0  0
  5  6  1  0  0  0  0
  6  7  1  0  0  0  0
  7  8  1  0  0  0  0
  8  9  1  0  0  0  0
  9 10  1  0  0  0  0
 10 11  1  0  0  0  0
 11 12  1  0  0  0  0
 12 13  1  0  0  0  0
 13 14  1  0  0  0  0
M  END
>  <CHROM.1>
-60.79649684,175.65193704,-82.77805184,104.08158777,68.02267784,78.94015479
61.25176797,103.86065899,172.13287439,67.51132926,-179.77035455,45.71412801
4.07571484,18.30793529,2.60424775,1.44292096,2.50398762

>  <Name>
ligand

>  <RI>
0

>  <Rbt.Current_Directory>
/home/itssahil/PROJECTS/Mol_Feturizer/New_Systems/rnas/1TN1

>  <Rbt.Executable>
rbdock ($Id: //depot/dev/client3/rdock/2013.1/src/exe/rbdock.cxx#4 $)

>  <Rbt.Library>
libRbt.so (2013.1, Build901 2013/11/27)

>  <Rbt.Parameter_File>
/export/apps/rDock/src/rDock_2013.1_src/data/scripts/dock_solv.prm

>  <Rbt.Receptor>
prm/pocket_docking_3.prm

>  <SCORE>
-8.22133

>  <SCORE.INTER>
-7.5694

>  <SCORE.INTER.CONST>
1

>  <SCORE.INTER.POLAR>
0

>  <SCORE.INTER.ROT>
11

>  <SCORE.INTER.SOLV>
12.7102

>  <SCORE.INTER.VDW>
-20.2163

>  <SCORE.INTER.norm>
-0.540671

>  <SCORE.INTRA>
-0.651935

>  <SCORE.INTRA.DIHEDRAL>
-3.44877

>  <SCORE.INTRA.DIHEDRAL.0>
7.79482

>  <SCORE.INTRA.POLAR>
0

>  <SCORE.INTRA.POLAR.0>
0

>  <SCORE.INTRA.REPUL>
0

>  <SCORE.INTRA.REPUL.0>
0

>  <SCORE.INTRA.SOLV>
2.1237

>  <SCORE.INTRA.SOLV.lig_0>
-49.456

>  <SCORE.INTRA.VDW>
0.010597

>  <SCORE.INTRA.VDW.0>
-0.478406

>  <SCORE.INTRA.norm>
-0.0465668

>  <SCORE.RESTR>
0

>  <SCORE.RESTR.CAVITY>
0

>  <SCORE.RESTR.norm>
0

>  <SCORE.SYSTEM>
0

>  <SCORE.SYSTEM.CONST>
0

>  <SCORE.SYSTEM.DIHEDRAL>
0

>  <SCORE.SYSTEM.SOLV>
0

>  <SCORE.SYSTEM.norm>
0

>  <SCORE.heavy>
14

>  <SCORE.norm>
-0.587238

>  <RMSD>
3.268

$$$$
ligand
 OpenBabel11021811413D
libRbt.so/2013.1/901 2013/11/27
 14 13  0  0  0  0  0  0  0  0999 V2000
   45.0380   -0.9069   13.7438 N   0  0  0  0  0  0  0  0  0  0  0  0
   44.7098   -0.1086   14.9447 C   0  0  0  0  0  0  0  0  0  0  0  0
   45.5788   -0.5299   16.1494 C   0  0  0  0  0  0  0  0  0  0  0  0
   45.3426    0.2919   17.4273 C   0  0  0  0  0  0  0  0  0  0  0  0
   45.7225    1.7170   17.2240 N   0  0  0  0  0  0  0  0  0  0  0  0
   46.2111    2.3047   18.4978 C   0  0  0  0  0  0  0  0  0  0  0  0
   45.8248    3.8021   18.7442 C   0  0  0  0  0  0  0  0  0  0  0  0
   46.2945    4.3615   20.1178 C   0  0  0  0  0  0  0  0  0  0  0  0
   45.8387    5.7811   20.3927 C   0  0  0  0  0  0  0  0  0  0  0  0
   46.4423    6.6384   19.3902 N   0  0  0  0  0  0  0  0  0  0  0  0
   46.4505    7.9739   19.9611 C   0  0  0  0  0  0  0  0  0  0  0  0
   46.4969    9.0438   18.8765 C   0  0  0  0  0  0  0  0  0  0  0  0
   47.8155    8.8695   18.1079 C   0  0  0  0  0  0  0  0  0  0  0  0
   47.9397    9.8223   16.9945 N   0  0  0  0  0  0  0  0  0  0  0  0
  1  2  1  0  0  0  0
  2  3  1  0  0  0  0
  3  4  1  0  0  0  0
  4  5  1  0  0  0  0
  5  6  1  0  0  0  0
  6  7  1  0  0  0  0
  7  8  1  0  0  0  0
  8  9  1  0  0  0  0
  9 10  1  0  0  0  0
 10 11  1  0  0  0  0
 11 12  1  0  0  0  0
 12 13  1  0  0  0  0
 13 14  1  0  0  0  0
M  END
>  <CHROM.1>
177.56685538,-63.89249607,-148.84872021,-143.64342833,177.18233867,-176.09571431
-63.02316360,-157.62362345,-156.21122403,-62.69710117,177.63343647,46.12175641
4.21858543,17.89842450,-2.42763632,1.31742523,1.19047931

>  <Name>
ligand

>  <RI>
0

>  <Rbt.Current_Directory>
/home/itssahil/PROJECTS/Mol_Feturizer/New_Systems/rnas/1TN1

>  <Rbt.Executable>
rbdock ($Id: //depot/dev/client3/rdock/2013.1/src/exe/rbdock.cxx#4 $)

>  <Rbt.Library>
libRbt.so (2013.1, Build901 2013/11/27)

>  <Rbt.Parameter_File>
/export/apps/rDock/src/rDock_2013.1_src/data/scripts/dock_solv.prm

>  <Rbt.Receptor>
prm/pocket_docking_5.prm

>  <SCORE>
-10.2207

>  <SCORE.INTER>
-7.63089

>  <SCORE.INTER.CONST>
1

>  <SCORE.INTER.POLAR>
0

>  <SCORE.INTER.ROT>
11

>  <SCORE.INTER.SOLV>
10.1599

>  <SCORE.INTER.VDW>
-19.4072

>  <SCORE.INTER.norm>
-0.545064

>  <SCORE.INTRA>
-2.58985

>  <SCORE.INTRA.DIHEDRAL>
-5.33121

>  <SCORE.INTRA.DIHEDRAL.0>
7.79482

>  <SCORE.INTRA.POLAR>
0

>  <SCORE.INTRA.POLAR.0>
0

>  <SCORE.INTRA.REPUL>
0

>  <SCORE.INTRA.REPUL.0>
0

>  <SCORE.INTRA.SOLV>
1.12616

>  <SCORE.INTRA.SOLV.lig_0>
-49.456

>  <SCORE.INTRA.VDW>
-0.487321

>  <SCORE.INTRA.VDW.0>
-0.478406

>  <SCORE.INTRA.norm>
-0.184989

>  <SCORE.RESTR>
0

>  <SCORE.RESTR.CAVITY>
0

>  <SCORE.RESTR.norm>
0

>  <SCORE.SYSTEM>
0

>  <SCORE.SYSTEM.CONST>
0

>  <SCORE.SYSTEM.DIHEDRAL>
0

>  <SCORE.SYSTEM.SOLV>
0

>  <SCORE.SYSTEM.norm>
0

>  <SCORE.heavy>
14

>  <SCORE.norm>
-0.730053

>  <RMSD>
3.273

$$$$
ligand
 OpenBabel11021811413D
libRbt.so/2013.1/901 2013/11/27
 14 13  0  0  0  0  0  0  0  0999 V2000
   46.2210   -0.3660   14.4002 N   0  0  0  0  0  0  0  0  0  0  0  0
   45.4765   -1.1981   15.3700 C   0  0  0  0  0  0  0  0  0  0  0  0
   45.5689   -0.6115   16.7953 C   0  0  0  0  0  0  0  0  0  0  0  0
   44.9534    0.7887   16.9520 C   0  0  0  0  0  0  0  0  0  0  0  0
   45.0902    1.2791   18.3510 N   0  0  0  0  0  0  0  0  0  0  0  0
   46.2181    2.2407   18.4500 C   0  0  0  0  0  0  0  0  0  0  0  0
   45.8165    3.7284   18.7283 C   0  0  0  0  0  0  0  0  0  0  0  0
   44.9346    3.9218   19.9953 C   0  0  0  0  0  0  0  0  0  0  0  0
   44.5326    5.3611   20.2517 C   0  0  0  0  0  0  0  0  0  0  0  0
   45.7467    6.1236   20.4729 N   0  0  0  0  0  0  0  0  0  0  0  0
   45.4730    7.4608   19.9763 C   0  0  0  0  0  0  0  0  0  0  0  0
   46.6215    8.4152   20.2818 C   0  0  0  0  0  0  0  0  0  0  0  0
   46.2608    9.7832   19.6833 C   0  0  0  0  0  0  0  0  0  0  0  0
   46.1936    9.7467   18.2146 N   0  0  0  0  0  0  0  0  0  0  0  0
  1  2  1  0  0  0  0
  2  3  1  0  0  0  0
  3  4  1  0  0  0  0
  4  5  1  0  0  0  0
  5  6  1  0  0  0  0
  6  7  1  0  0  0  0
  7  8  1  0  0  0  0
  8  9  1  0  0  0  0
  9 10  1  0  0  0  0
 10 11  1  0  0  0  0
 11 12  1  0  0  0  0
 12 13  1  0  0  0  0
 13 14  1  0  0  0  0
M  END
>  <CHROM.1>
62.27508038,-179.78014057,101.07796111,111.27353250,55.00826112,-179.24759699
-62.07848204,148.69249215,173.95491837,178.26378394,-65.61064428,45.65045406
4.04806304,18.42328191,-1.70239147,1.24016653,0.51558016

>  <Name>
ligand

>  <RI>
0

>  <Rbt.Current_Directory>
/home/itssahil/PROJECTS/Mol_Feturizer/New_Systems/rnas/1TN1

>  <Rbt.Executable>
rbdock ($Id: //depot/dev/client3/rdock/2013.1/src/exe/rbdock.cxx#4 $)

>  <Rbt.Library>
libRbt.so (2013.1, Build901 2013/11/27)

>  <Rbt.Parameter_File>
/export/apps/rDock/src/rDock_2013.1_src/data/scripts/dock_solv.prm

>  <Rbt.Receptor>
prm/pocket_docking_4.prm

>  <SCORE>
-9.96951

>  <SCORE.INTER>
-8.23876

>  <SCORE.INTER.CONST>
1

>  <SCORE.INTER.POLAR>
0

>  <SCORE.INTER.ROT>
11

>  <SCORE.INTER.SOLV>
11.8013

>  <SCORE.INTER.VDW>
-20.3596

>  <SCORE.INTER.norm>
-0.588483

>  <SCORE.INTRA>
-1.73076

>  <SCORE.INTRA.DIHEDRAL>
-4.79486

>  <SCORE.INTRA.DIHEDRAL.0>
7.79482

>  <SCORE.INTRA.POLAR>
0

>  <SCORE.INTRA.POLAR.0>
0

>  <SCORE.INTRA.REPUL>
0

>  <SCORE.INTRA.REPUL.0>
0

>  <SCORE.INTRA.SOLV>
2.25863

>  <SCORE.INTRA.SOLV.lig_0>
-49.456

>  <SCORE.INTRA.VDW>
-0.462642

>  <SCORE.INTRA.VDW.0>
-0.478406

>  <SCORE.INTRA.norm>
-0.123625

>  <SCORE.RESTR>
0

>  <SCORE.RESTR.CAVITY>
0

>  <SCORE.RESTR.norm>
0

>  <SCORE.SYSTEM>
0

>  <SCORE.SYSTEM.CONST>
0

>  <SCORE.SYSTEM.DIHEDRAL>
0

>  <SCORE.SYSTEM.SOLV>
0

>  <SCORE.SYSTEM.norm>
0

>  <SCORE.heavy>
14

>  <SCORE.norm>
-0.712108

>  <RMSD>
3.282

$$$$
ligand
 OpenBabel11021811413D
libRbt.so/2013.1/901 2013/11/27
 14 13  0  0  0  0  0  0  0  0999 V2000
   45.7125   -0.4995   17.0438 N   0  0  0  0  0  0  0  0  0  0  0  0
   45.0868    0.7931   17.3973 C   0  0  0  0  0  0  0  0  0  0  0  0
   45.9889    1.6077   18.3496 C   0  0  0  0  0  0  0  0  0  0  0  0
   45.4400    2.9954   18.7198 C   0  0  0  0  0  0  0  0  0  0  0  0
   46.4215    3.7567   19.5405 N   0  0  0  0  0  0  0  0  0  0  0  0
   45.8089    5.0158   20.0365 C   0  0  0  0  0  0  0  0  0  0  0  0
   44.8383    4.8616   21.2557 C   0  0  0  0  0  0  0  0  0  0  0  0
   43.9587    6.1153   21.5297 C   0  0  0  0  0  0  0  0  0  0  0  0
   42.9316    6.3944   20.4498 C   0  0  0  0  0  0  0  0  0  0  0  0
   42.1910    7.5781   20.8433 N   0  0  0  0  0  0  0  0  0  0  0  0
   42.2529    8.4819   19.7079 C   0  0  0  0  0  0  0  0  0  0  0  0
   41.2286    9.6039   19.8318 C   0  0  0  0  0  0  0  0  0  0  0  0
   41.3828   10.5118   18.6022 C   0  0  0  0  0  0  0  0  0  0  0  0
   42.7166   11.1269   18.5296 N   0  0  0  0  0  0  0  0  0  0  0  0
  1  2  1  0  0  0  0
  2  3  1  0  0  0  0
  3  4  1  0  0  0  0
  4  5  1  0  0  0  0
  5  6  1  0  0  0  0
  6  7  1  0  0  0  0
  7  8  1  0  0  0  0
  8  9  1  0  0  0  0
  9 10  1  0  0  0  0
 10 11  1  0  0  0  0
 11 12  1  0  0  0  0
 12 13  1  0  0  0  0
 13 14  1  0  0  0  0
M  END
>  <CHROM.1>
177.46759516,-175.05164084,-172.60736315,77.78463698,-165.93378623,67.55343457
179.77633092,127.61423562,165.23247590,179.26471915,-61.59090219,43.99697758
5.59597635,19.41715242,0.64587177,1.03169450,-2.12773510

>  <Name>
ligand

>  <RI>
0

>  <Rbt.Current_Directory>
/home/itssahil/PROJECTS/Mol_Feturizer/New_Systems/rnas/1TN1

>  <Rbt.Executable>
rbdock ($Id: //depot/dev/client3/rdock/2013.1/src/exe/rbdock.cxx#4 $)

>  <Rbt.Library>
libRbt.so (2013.1, Build901 2013/11/27)

>  <Rbt.Parameter_File>
/export/apps/rDock/src/rDock_2013.1_src/data/scripts/dock_solv.prm

>  <Rbt.Receptor>
prm/pocket_docking_6.prm

>  <SCORE>
-13.021

>  <SCORE.INTER>
-10.8837

>  <SCORE.INTER.CONST>
1

>  <SCORE.INTER.POLAR>
0

>  <SCORE.INTER.ROT>
11

>  <SCORE.INTER.SOLV>
22.882

>  <SCORE.INTER.VDW>
-25.8165

>  <SCORE.INTER.norm>
-0.777405

>  <SCORE.INTRA>
-2.13734

>  <SCORE.INTRA.DIHEDRAL>
-5.1053

>  <SCORE.INTRA.DIHEDRAL.0>
7.79482

>  <SCORE.INTRA.POLAR>
0

>  <SCORE.INTRA.POLAR.0>
0

>  <SCORE.INTRA.REPUL>
0

>  <SCORE.INTRA.REPUL.0>
0

>  <SCORE.INTRA.SOLV>
0.999939

>  <SCORE.INTRA.SOLV.lig_0>
-49.456

>  <SCORE.INTRA.VDW>
-0.084664

>  <SCORE.INTRA.VDW.0>
-0.478406

>  <SCORE.INTRA.norm>
-0.152667

>  <SCORE.RESTR>
0

>  <SCORE.RESTR.CAVITY>
0

>  <SCORE.RESTR.norm>
0

>  <SCORE.SYSTEM>
0

>  <SCORE.SYSTEM.CONST>
0

>  <SCORE.SYSTEM.DIHEDRAL>
0

>  <SCORE.SYSTEM.SOLV>
0

>  <SCORE.SYSTEM.norm>
0

>  <SCORE.heavy>
14

>  <SCORE.norm>
-0.930072

>  <RMSD>
3.285

$$$$
ligand
 OpenBabel11021811413D
libRbt.so/2013.1/901 2013/11/27
 14 13  0  0  0  0  0  0  0  0999 V2000
   48.0056    8.1140   17.3230 N   0  0  0  0  0  0  0  0  0  0  0  0
   47.2939    8.4105   18.5850 C   0  0  0  0  0  0  0  0  0  0  0  0
   45.7917    8.6623   18.3326 C   0  0  0  0  0  0  0  0  0  0  0  0
   44.9806    9.0091   19.5919 C   0  0  0  0  0  0  0  0  0  0  0  0
   45.1001    7.9360   20.6169 N   0  0  0  0  0  0  0  0  0  0  0  0
   44.1498    6.8337   20.3194 C   0  0  0  0  0  0  0  0  0  0  0  0
   44.2794    5.5648   21.2278 C   0  0  0  0  0  0  0  0  0  0  0  0
   45.7153    4.9685   21.2848 C   0  0  0  0  0  0  0  0  0  0  0  0
   46.2303    4.4749   19.9469 C   0  0  0  0  0  0  0  0  0  0  0  0
   45.4189    3.3376   19.5563 N   0  0  0  0  0  0  0  0  0  0  0  0
   45.9425    2.8964   18.2753 C   0  0  0  0  0  0  0  0  0  0  0  0
   45.2212    1.6492   17.7778 C   0  0  0  0  0  0  0  0  0  0  0  0
   45.7910    1.3040   16.3935 C   0  0  0  0  0  0  0  0  0  0  0  0
   45.1782    0.0932   15.8268 N   0  0  0  0  0  0  0  0  0  0  0  0
  1  2  1  0  0  0  0
  2  3  1  0  0  0  0
  3  4  1  0  0  0  0
  4  5  1  0  0  0  0
  5  6  1  0  0  0  0
  6  7  1  0  0  0  0
  7  8  1  0  0  0  0
  8  9  1  0  0  0  0
  9 10  1  0  0  0  0
 10 11  1  0  0  0  0
 11 12  1  0  0  0  0
 12 13  1  0  0  0  0
 13 14  1  0  0  0  0
M  END
>  <CHROM.1>
-178.72416054,-57.36867094,-82.26188535,173.48183034,-53.48924341,-62.46798979
-66.40756903,179.99951970,176.99721021,177.14353016,178.95166172,45.64978059
5.23257748,18.93296124,-1.48256231,-1.05893567,-2.73903600

>  <Name>
ligand

>  <RI>
0

>  <Rbt.Current_Directory>
/home/itssahil/PROJECTS/Mol_Feturizer/New_Systems/rnas/1TN1

>  <Rbt.Executable>
rbdock ($Id: //depot/dev/client3/rdock/2013.1/src/exe/rbdock.cxx#4 $)

>  <Rbt.Library>
libRbt.so (2013.1, Build901 2013/11/27)

>  <Rbt.Parameter_File>
/export/apps/rDock/src/rDock_2013.1_src/data/scripts/dock_solv.prm

>  <Rbt.Receptor>
prm/blind_docking_100.prm

>  <SCORE>
-10.0585

>  <SCORE.INTER>
-6.94716

>  <SCORE.INTER.CONST>
1

>  <SCORE.INTER.POLAR>
0

>  <SCORE.INTER.ROT>
11

>  <SCORE.INTER.SOLV>
12.8703

>  <SCORE.INTER.VDW>
-19.8549

>  <SCORE.INTER.norm>
-0.496226

>  <SCORE.INTRA>
-3.11138

>  <SCORE.INTRA.DIHEDRAL>
-6.98381

>  <SCORE.INTRA.DIHEDRAL.0>
7.79482

>  <SCORE.INTRA.POLAR>
0

>  <SCORE.INTRA.POLAR.0>
0

>  <SCORE.INTRA.REPUL>
0

>  <SCORE.INTRA.REPUL.0>
0

>  <SCORE.INTRA.SOLV>
1.58138

>  <SCORE.INTRA.SOLV.lig_0>
-49.456

>  <SCORE.INTRA.VDW>
-0.410162

>  <SCORE.INTRA.VDW.0>
-0.478406

>  <SCORE.INTRA.norm>
-0.222241

>  <SCORE.RESTR>
0

>  <SCORE.RESTR.CAVITY>
0

>  <SCORE.RESTR.norm>
0

>  <SCORE.SYSTEM>
0

>  <SCORE.SYSTEM.CONST>
0

>  <SCORE.SYSTEM.DIHEDRAL>
0

>  <SCORE.SYSTEM.SOLV>
0

>  <SCORE.SYSTEM.norm>
0

>  <SCORE.heavy>
14

>  <SCORE.norm>
-0.718467

>  <RMSD>
3.293

$$$$
ligand
 OpenBabel11021811413D
libRbt.so/2013.1/901 2013/11/27
 14 13  0  0  0  0  0  0  0  0999 V2000
   46.6004    9.3037   17.7466 N   0  0  0  0  0  0  0  0  0  0  0  0
   47.0981    8.1108   18.4653 C   0  0  0  0  0  0  0  0  0  0  0  0
   46.7422    8.1748   19.9664 C   0  0  0  0  0  0  0  0  0  0  0  0
   45.2373    8.0961   20.2711 C   0  0  0  0  0  0  0  0  0  0  0  0
   44.6944    6.7503   19.9387 N   0  0  0  0  0  0  0  0  0  0  0  0
   45.1364    5.7547   20.9487 C   0  0  0  0  0  0  0  0  0  0  0  0
   45.9638    4.5475   20.3918 C   0  0  0  0  0  0  0  0  0  0  0  0
   45.2550    3.7649   19.2491 C   0  0  0  0  0  0  0  0  0  0  0  0
   46.0605    2.5991   18.7098 C   0  0  0  0  0  0  0  0  0  0  0  0
   45.3332    2.0464   17.5830 N   0  0  0  0  0  0  0  0  0  0  0  0
   45.7443    0.6566   17.4869 C   0  0  0  0  0  0  0  0  0  0  0  0
   45.2385    0.0131   16.2011 C   0  0  0  0  0  0  0  0  0  0  0  0
   45.7191   -1.4460   16.1914 C   0  0  0  0  0  0  0  0  0  0  0  0
   45.2952   -2.1625   14.9791 N   0  0  0  0  0  0  0  0  0  0  0  0
  1  2  1  0  0  0  0
  2  3  1  0  0  0  0
  3  4  1  0  0  0  0
  4  5  1  0  0  0  0
  5  6  1  0  0  0  0
  6  7  1  0  0  0  0
  7  8  1  0  0  0  0
  8  9  1  0  0  0  0
  9 10  1  0  0  0  0
 10 11  1  0  0  0  0
 11 12  1  0  0  0  0
 12 13  1  0  0  0  0
 13 14  1  0  0  0  0
M  END
>  <CHROM.1>
66.19694385,67.85478093,73.67274767,-120.87430743,-54.83106576,179.84705857
-175.00442114,-154.40939030,-170.31496652,-179.92458946,-179.42013643,45.72283146
4.01498326,18.43814184,-1.38994794,-1.22422706,-2.60564609

>  <Name>
ligand

>  <RI>
0

>  <Rbt.Current_Directory>
/home/itssahil/PROJECTS/Mol_Feturizer/New_Systems/rnas/1TN1

>  <Rbt.Executable>
rbdock ($Id: //depot/dev/client3/rdock/2013.1/src/exe/rbdock.cxx#4 $)

>  <Rbt.Library>
libRbt.so (2013.1, Build901 2013/11/27)

>  <Rbt.Parameter_File>
/export/apps/rDock/src/rDock_2013.1_src/data/scripts/dock_solv.prm

>  <Rbt.Receptor>
prm/blind_docking_80.prm

>  <SCORE>
-10.2676

>  <SCORE.INTER>
-8.15484

>  <SCORE.INTER.CONST>
1

>  <SCORE.INTER.POLAR>
0

>  <SCORE.INTER.ROT>
11

>  <SCORE.INTER.SOLV>
13.686

>  <SCORE.INTER.VDW>
-20.9319

>  <SCORE.INTER.norm>
-0.582488

>  <SCORE.INTRA>
-2.11279

>  <SCORE.INTRA.DIHEDRAL>
-5.34003

>  <SCORE.INTRA.DIHEDRAL.0>
7.79482

>  <SCORE.INTRA.POLAR>
0

>  <SCORE.INTRA.POLAR.0>
0

>  <SCORE.INTRA.REPUL>
0

>  <SCORE.INTRA.REPUL.0>
0

>  <SCORE.INTRA.SOLV>
1.82347

>  <SCORE.INTRA.SOLV.lig_0>
-49.456

>  <SCORE.INTRA.VDW>
-0.354506

>  <SCORE.INTRA.VDW.0>
-0.478406

>  <SCORE.INTRA.norm>
-0.150913

>  <SCORE.RESTR>
0

>  <SCORE.RESTR.CAVITY>
0

>  <SCORE.RESTR.norm>
0

>  <SCORE.SYSTEM>
0

>  <SCORE.SYSTEM.CONST>
0

>  <SCORE.SYSTEM.DIHEDRAL>
0

>  <SCORE.SYSTEM.SOLV>
0

>  <SCORE.SYSTEM.norm>
0

>  <SCORE.heavy>
14

>  <SCORE.norm>
-0.733401

>  <RMSD>
3.294

$$$$
ligand
 OpenBabel11021811413D
libRbt.so/2013.1/901 2013/11/27
 14 13  0  0  0  0  0  0  0  0999 V2000
   49.0161    9.6819   16.4481 N   0  0  0  0  0  0  0  0  0  0  0  0
   48.6687    9.0939   17.7599 C   0  0  0  0  0  0  0  0  0  0  0  0
   47.2576    8.4677   17.7346 C   0  0  0  0  0  0  0  0  0  0  0  0
   46.7786    7.9149   19.0869 C   0  0  0  0  0  0  0  0  0  0  0  0
   45.4087    7.3426   18.9753 N   0  0  0  0  0  0  0  0  0  0  0  0
   44.8546    7.0700   20.3264 C   0  0  0  0  0  0  0  0  0  0  0  0
   44.5399    5.5681   20.6384 C   0  0  0  0  0  0  0  0  0  0  0  0
   45.7848    4.6361   20.5948 C   0  0  0  0  0  0  0  0  0  0  0  0
   46.2380    4.2796   19.1925 C   0  0  0  0  0  0  0  0  0  0  0  0
   45.3571    3.2389   18.6973 N   0  0  0  0  0  0  0  0  0  0  0  0
   46.1577    2.0278   18.6522 C   0  0  0  0  0  0  0  0  0  0  0  0
   45.5604    0.9997   17.6985 C   0  0  0  0  0  0  0  0  0  0  0  0
   45.6477    1.5778   16.2779 C   0  0  0  0  0  0  0  0  0  0  0  0
   45.1630    0.6312   15.2622 N   0  0  0  0  0  0  0  0  0  0  0  0
  1  2  1  0  0  0  0
  2  3  1  0  0  0  0
  3  4  1  0  0  0  0
  4  5  1  0  0  0  0
  5  6  1  0  0  0  0
  6  7  1  0  0  0  0
  7  8  1  0  0  0  0
  8  9  1  0  0  0  0
  9 10  1  0  0  0  0
 10 11  1  0  0  0  0
 11 12  1  0  0  0  0
 12 13  1  0  0  0  0
 13 14  1  0  0  0  0
M  END
>  <CHROM.1>
-176.13812221,179.49064782,-168.45004445,-117.38984701,61.68600471,-77.22005239
-78.77411610,-109.53841277,-158.93059733,65.74252619,176.86516460,46.17374526
5.18069781,18.38220463,-1.05823650,-0.99303847,-2.57974807

>  <Name>
ligand

>  <RI>
0

>  <Rbt.Current_Directory>
/home/itssahil/PROJECTS/Mol_Feturizer/New_Systems/rnas/1TN1

>  <Rbt.Executable>
rbdock ($Id: //depot/dev/client3/rdock/2013.1/src/exe/rbdock.cxx#4 $)

>  <Rbt.Library>
libRbt.so (2013.1, Build901 2013/11/27)

>  <Rbt.Parameter_File>
/export/apps/rDock/src/rDock_2013.1_src/data/scripts/dock_solv.prm

>  <Rbt.Receptor>
prm/pocket_docking_3.prm

>  <SCORE>
-7.06925

>  <SCORE.INTER>
-6.09984

>  <SCORE.INTER.CONST>
1

>  <SCORE.INTER.POLAR>
0

>  <SCORE.INTER.ROT>
11

>  <SCORE.INTER.SOLV>
10.325

>  <SCORE.INTER.VDW>
-18.4416

>  <SCORE.INTER.norm>
-0.435703

>  <SCORE.INTRA>
-1.03516

>  <SCORE.INTRA.DIHEDRAL>
-2.43202

>  <SCORE.INTRA.DIHEDRAL.0>
7.79482

>  <SCORE.INTRA.POLAR>
0

>  <SCORE.INTRA.POLAR.0>
0

>  <SCORE.INTRA.REPUL>
0

>  <SCORE.INTRA.REPUL.0>
0

>  <SCORE.INTRA.SOLV>
1.79195

>  <SCORE.INTRA.SOLV.lig_0>
-49.456

>  <SCORE.INTRA.VDW>
-0.715125

>  <SCORE.INTRA.VDW.0>
-0.478406

>  <SCORE.INTRA.norm>
-0.07394

>  <SCORE.RESTR>
0.0657478

>  <SCORE.RESTR.CAVITY>
0.0657478

>  <SCORE.RESTR.norm>
0.00469627

>  <SCORE.SYSTEM>
0

>  <SCORE.SYSTEM.CONST>
0

>  <SCORE.SYSTEM.DIHEDRAL>
0

>  <SCORE.SYSTEM.SOLV>
0

>  <SCORE.SYSTEM.norm>
0

>  <SCORE.heavy>
14

>  <SCORE.norm>
-0.504947

>  <RMSD>
3.298

$$$$
ligand
 OpenBabel11021811413D
libRbt.so/2013.1/901 2013/11/27
 14 13  0  0  0  0  0  0  0  0999 V2000
   46.3273   -1.5664   14.5029 N   0  0  0  0  0  0  0  0  0  0  0  0
   44.9226   -1.1115   14.5854 C   0  0  0  0  0  0  0  0  0  0  0  0
   44.8238    0.2764   15.2548 C   0  0  0  0  0  0  0  0  0  0  0  0
   45.1731    0.2909   16.7521 C   0  0  0  0  0  0  0  0  0  0  0  0
   45.1483    1.6776   17.2932 N   0  0  0  0  0  0  0  0  0  0  0  0
   44.7716    1.6614   18.7300 C   0  0  0  0  0  0  0  0  0  0  0  0
   44.7175    3.0605   19.4313 C   0  0  0  0  0  0  0  0  0  0  0  0
   46.0877    3.7951   19.4894 C   0  0  0  0  0  0  0  0  0  0  0  0
   46.1304    4.9405   20.4819 C   0  0  0  0  0  0  0  0  0  0  0  0
   45.2747    5.9953   19.9727 N   0  0  0  0  0  0  0  0  0  0  0  0
   46.0705    7.2096   20.0170 C   0  0  0  0  0  0  0  0  0  0  0  0
   45.3902    8.3498   19.2683 C   0  0  0  0  0  0  0  0  0  0  0  0
   46.3485    9.5505   19.2801 C   0  0  0  0  0  0  0  0  0  0  0  0
   45.7928   10.7118   18.5692 N   0  0  0  0  0  0  0  0  0  0  0  0
  1  2  1  0  0  0  0
  2  3  1  0  0  0  0
  3  4  1  0  0  0  0
  4  5  1  0  0  0  0
  5  6  1  0  0  0  0
  6  7  1  0  0  0  0
  7  8  1  0  0  0  0
  8  9  1  0  0  0  0
  9 10  1  0  0  0  0
 10 11  1  0  0  0  0
 11 12  1  0  0  0  0
 12 13  1  0  0  0  0
 13 14  1  0  0  0  0
M  END
>  <CHROM.1>
-68.62739235,175.89048958,150.21694617,179.55080330,-63.38443074,-163.86128063
-68.99459707,-129.57599468,169.27224517,-175.81646019,179.50189028,45.49844615
3.91712787,18.11652446,-2.21050522,1.47189169,1.04291125

>  <Name>
ligand

>  <RI>
0

>  <Rbt.Current_Directory>
/home/itssahil/PROJECTS/Mol_Feturizer/New_Systems/rnas/1TN1

>  <Rbt.Executable>
rbdock ($Id: //depot/dev/client3/rdock/2013.1/src/exe/rbdock.cxx#4 $)

>  <Rbt.Library>
libRbt.so (2013.1, Build901 2013/11/27)

>  <Rbt.Parameter_File>
/export/apps/rDock/src/rDock_2013.1_src/data/scripts/dock_solv.prm

>  <Rbt.Receptor>
prm/pocket_docking_3.prm

>  <SCORE>
-8.56526

>  <SCORE.INTER>
-6.35503

>  <SCORE.INTER.CONST>
1

>  <SCORE.INTER.POLAR>
0

>  <SCORE.INTER.ROT>
11

>  <SCORE.INTER.SOLV>
11.7948

>  <SCORE.INTER.VDW>
-19.1016

>  <SCORE.INTER.norm>
-0.45393

>  <SCORE.INTRA>
-2.22096

>  <SCORE.INTRA.DIHEDRAL>
-4.20303

>  <SCORE.INTRA.DIHEDRAL.0>
7.79482

>  <SCORE.INTRA.POLAR>
0

>  <SCORE.INTRA.POLAR.0>
0

>  <SCORE.INTRA.REPUL>
0

>  <SCORE.INTRA.REPUL.0>
0

>  <SCORE.INTRA.SOLV>
1.22914

>  <SCORE.INTRA.SOLV.lig_0>
-49.456

>  <SCORE.INTRA.VDW>
-0.734022

>  <SCORE.INTRA.VDW.0>
-0.478406

>  <SCORE.INTRA.norm>
-0.15864

>  <SCORE.RESTR>
0.0107276

>  <SCORE.RESTR.CAVITY>
0.0107276

>  <SCORE.RESTR.norm>
0.000766258

>  <SCORE.SYSTEM>
0

>  <SCORE.SYSTEM.CONST>
0

>  <SCORE.SYSTEM.DIHEDRAL>
0

>  <SCORE.SYSTEM.SOLV>
0

>  <SCORE.SYSTEM.norm>
0

>  <SCORE.heavy>
14

>  <SCORE.norm>
-0.611804

>  <RMSD>
3.299

$$$$
ligand
 OpenBabel11021811413D
libRbt.so/2013.1/901 2013/11/27
 14 13  0  0  0  0  0  0  0  0999 V2000
   47.6901    7.7634   17.2263 N   0  0  0  0  0  0  0  0  0  0  0  0
   47.8533    8.9901   18.0361 C   0  0  0  0  0  0  0  0  0  0  0  0
   46.7640    9.0882   19.1259 C   0  0  0  0  0  0  0  0  0  0  0  0
   45.3329    9.2501   18.5875 C   0  0  0  0  0  0  0  0  0  0  0  0
   44.3615    9.4379   19.7000 N   0  0  0  0  0  0  0  0  0  0  0  0
   43.4210    8.2896   19.7597 C   0  0  0  0  0  0  0  0  0  0  0  0
   43.9040    7.0627   20.6045 C   0  0  0  0  0  0  0  0  0  0  0  0
   45.1109    6.3009   19.9854 C   0  0  0  0  0  0  0  0  0  0  0  0
   45.5421    5.0826   20.7782 C   0  0  0  0  0  0  0  0  0  0  0  0
   46.4134    4.2919   19.9297 N   0  0  0  0  0  0  0  0  0  0  0  0
   45.5464    3.3665   19.2213 C   0  0  0  0  0  0  0  0  0  0  0  0
   46.3179    2.5675   18.1775 C   0  0  0  0  0  0  0  0  0  0  0  0
   45.3131    1.6612   17.4500 C   0  0  0  0  0  0  0  0  0  0  0  0
   45.9306    0.9324   16.3319 N   0  0  0  0  0  0  0  0  0  0  0  0
  1  2  1  0  0  0  0
  2  3  1  0  0  0  0
  3  4  1  0  0  0  0
  4  5  1  0  0  0  0
  5  6  1  0  0  0  0
  6  7  1  0  0  0  0
  7  8  1  0  0  0  0
  8  9  1  0  0  0  0
  9 10  1  0  0  0  0
 10 11  1  0  0  0  0
 11 12  1  0  0  0  0
 12 13  1  0  0  0  0
 13 14  1  0  0  0  0
M  END
>  <CHROM.1>
-65.05623871,-175.78749965,-114.97082984,86.85986458,-68.25096262,-177.78646147
165.35833302,-90.25847453,173.95895803,-177.91695177,174.69899041,45.67848212
6.00622314,18.92268706,-1.62968612,-0.74404063,-2.99036054

>  <Name>
ligand

>  <RI>
0

>  <Rbt.Current_Directory>
/home/itssahil/PROJECTS/Mol_Feturizer/New_Systems/rnas/1TN1

>  <Rbt.Executable>
rbdock ($Id: //depot/dev/client3/rdock/2013.1/src/exe/rbdock.cxx#4 $)

>  <Rbt.Library>
libRbt.so (2013.1, Build901 2013/11/27)

>  <Rbt.Parameter_File>
/export/apps/rDock/src/rDock_2013.1_src/data/scripts/dock_solv.prm

>  <Rbt.Receptor>
prm/pocket_docking_4.prm

>  <SCORE>
-8.93793

>  <SCORE.INTER>
-7.32319

>  <SCORE.INTER.CONST>
1

>  <SCORE.INTER.POLAR>
0

>  <SCORE.INTER.ROT>
11

>  <SCORE.INTER.SOLV>
14.0243

>  <SCORE.INTER.VDW>
-20.4902

>  <SCORE.INTER.norm>
-0.523085

>  <SCORE.INTRA>
-1.61922

>  <SCORE.INTRA.DIHEDRAL>
-4.14454

>  <SCORE.INTRA.DIHEDRAL.0>
7.79482

>  <SCORE.INTRA.POLAR>
0

>  <SCORE.INTRA.POLAR.0>
0

>  <SCORE.INTRA.REPUL>
0

>  <SCORE.INTRA.REPUL.0>
0

>  <SCORE.INTRA.SOLV>
1.40905

>  <SCORE.INTRA.SOLV.lig_0>
-49.456

>  <SCORE.INTRA.VDW>
-0.251472

>  <SCORE.INTRA.VDW.0>
-0.478406

>  <SCORE.INTRA.norm>
-0.115658

>  <SCORE.RESTR>
0.00447308

>  <SCORE.RESTR.CAVITY>
0.00447308

>  <SCORE.RESTR.norm>
0.000319506

>  <SCORE.SYSTEM>
0

>  <SCORE.SYSTEM.CONST>
0

>  <SCORE.SYSTEM.DIHEDRAL>
0

>  <SCORE.SYSTEM.SOLV>
0

>  <SCORE.SYSTEM.norm>
0

>  <SCORE.heavy>
14

>  <SCORE.norm>
-0.638424

>  <RMSD>
3.309

$$$$
ligand
 OpenBabel11021811413D
libRbt.so/2013.1/901 2013/11/27
 14 13  0  0  0  0  0  0  0  0999 V2000
   45.7277    0.3492   15.6313 N   0  0  0  0  0  0  0  0  0  0  0  0
   45.3870    0.0069   17.0291 C   0  0  0  0  0  0  0  0  0  0  0  0
   44.3806    1.0169   17.6215 C   0  0  0  0  0  0  0  0  0  0  0  0
   44.9137    2.4538   17.7449 C   0  0  0  0  0  0  0  0  0  0  0  0
   46.0048    2.5341   18.7546 N   0  0  0  0  0  0  0  0  0  0  0  0
   46.0409    3.8879   19.3650 C   0  0  0  0  0  0  0  0  0  0  0  0
   44.8095    4.2608   20.2576 C   0  0  0  0  0  0  0  0  0  0  0  0
   44.9985    5.5622   21.0889 C   0  0  0  0  0  0  0  0  0  0  0  0
   45.1475    6.8143   20.2468 C   0  0  0  0  0  0  0  0  0  0  0  0
   46.4623    6.7783   19.6349 N   0  0  0  0  0  0  0  0  0  0  0  0
   46.6327    8.0644   18.9818 C   0  0  0  0  0  0  0  0  0  0  0  0
   47.8744    8.0809   18.0979 C   0  0  0  0  0  0  0  0  0  0  0  0
   47.9800    9.4793   17.4709 C   0  0  0  0  0  0  0  0  0  0  0  0
   49.1161    9.5879   16.5434 N   0  0  0  0  0  0  0  0  0  0  0  0
  1  2  1  0  0  0  0
  2  3  1  0  0  0  0
  3  4  1  0  0  0  0
  4  5  1  0  0  0  0
  5  6  1  0  0  0  0
  6  7  1  0  0  0  0
  7  8  1  0  0  0  0
  8  9  1  0  0  0  0
  9 10  1  0  0  0  0
 10 11  1  0  0  0  0
 11 12  1  0  0  0  0
 12 13  1  0  0  0  0
 13 14  1  0  0  0  0
M  END
>  <CHROM.1>
-64.07457084,-67.00010225,-151.40929167,67.32101067,169.11937010,64.21039003
-72.69745134,-172.86816531,-170.36757553,-179.18568730,-177.32164999,46.10510915
4.91981922,18.46237413,-2.14350902,0.97610717,0.59384438

>  <Name>
ligand

>  <RI>
0

>  <Rbt.Current_Directory>
/home/itssahil/PROJECTS/Mol_Feturizer/New_Systems/rnas/1TN1

>  <Rbt.Executable>
rbdock ($Id: //depot/dev/client3/rdock/2013.1/src/exe/rbdock.cxx#4 $)

>  <Rbt.Library>
libRbt.so (2013.1, Build901 2013/11/27)

>  <Rbt.Parameter_File>
/export/apps/rDock/src/rDock_2013.1_src/data/scripts/dock_solv.prm

>  <Rbt.Receptor>
prm/pocket_docking_7.prm

>  <SCORE>
-7.59432

>  <SCORE.INTER>
-6.11215

>  <SCORE.INTER.CONST>
1

>  <SCORE.INTER.POLAR>
0

>  <SCORE.INTER.ROT>
11

>  <SCORE.INTER.SOLV>
11.4739

>  <SCORE.INTER.VDW>
-18.8327

>  <SCORE.INTER.norm>
-0.436582

>  <SCORE.INTRA>
-1.48217

>  <SCORE.INTRA.DIHEDRAL>
-5.70614

>  <SCORE.INTRA.DIHEDRAL.0>
7.79482

>  <SCORE.INTRA.POLAR>
0

>  <SCORE.INTRA.POLAR.0>
0

>  <SCORE.INTRA.REPUL>
0

>  <SCORE.INTRA.REPUL.0>
0

>  <SCORE.INTRA.SOLV>
2.48247

>  <SCORE.INTRA.SOLV.lig_0>
-49.456

>  <SCORE.INTRA.VDW>
0.129659

>  <SCORE.INTRA.VDW.0>
-0.478406

>  <SCORE.INTRA.norm>
-0.10587

>  <SCORE.RESTR>
0

>  <SCORE.RESTR.CAVITY>
0

>  <SCORE.RESTR.norm>
0

>  <SCORE.SYSTEM>
0

>  <SCORE.SYSTEM.CONST>
0

>  <SCORE.SYSTEM.DIHEDRAL>
0

>  <SCORE.SYSTEM.SOLV>
0

>  <SCORE.SYSTEM.norm>
0

>  <SCORE.heavy>
14

>  <SCORE.norm>
-0.542452

>  <RMSD>
3.310

$$$$
ligand
 OpenBabel11021811413D
libRbt.so/2013.1/901 2013/11/27
 14 13  0  0  0  0  0  0  0  0999 V2000
   46.2056   10.1596   17.6374 N   0  0  0  0  0  0  0  0  0  0  0  0
   45.7036    9.1037   18.5431 C   0  0  0  0  0  0  0  0  0  0  0  0
   46.8433    8.5213   19.4068 C   0  0  0  0  0  0  0  0  0  0  0  0
   46.4067    7.4136   20.3797 C   0  0  0  0  0  0  0  0  0  0  0  0
   45.8976    6.2247   19.6423 N   0  0  0  0  0  0  0  0  0  0  0  0
   45.4106    5.1974   20.5984 C   0  0  0  0  0  0  0  0  0  0  0  0
   44.6703    3.9746   19.9588 C   0  0  0  0  0  0  0  0  0  0  0  0
   45.5843    3.0613   19.0922 C   0  0  0  0  0  0  0  0  0  0  0  0
   44.8854    1.8314   18.5463 C   0  0  0  0  0  0  0  0  0  0  0  0
   45.8979    0.9759   17.9571 N   0  0  0  0  0  0  0  0  0  0  0  0
   45.2817    0.3789   16.7851 C   0  0  0  0  0  0  0  0  0  0  0  0
   45.7261   -1.0669   16.5967 C   0  0  0  0  0  0  0  0  0  0  0  0
   45.2151   -1.5352   15.2258 C   0  0  0  0  0  0  0  0  0  0  0  0
   45.8719   -0.8273   14.1166 N   0  0  0  0  0  0  0  0  0  0  0  0
  1  2  1  0  0  0  0
  2  3  1  0  0  0  0
  3  4  1  0  0  0  0
  4  5  1  0  0  0  0
  5  6  1  0  0  0  0
  6  7  1  0  0  0  0
  7  8  1  0  0  0  0
  8  9  1  0  0  0  0
  9 10  1  0  0  0  0
 10 11  1  0  0  0  0
 11 12  1  0  0  0  0
 12 13  1  0  0  0  0
 13 14  1  0  0  0  0
M  END
>  <CHROM.1>
-179.99275291,63.57791706,-176.83295091,172.08173299,67.01436519,176.34616243
-170.71573584,-143.46314870,-142.79112299,-170.87671551,66.81552637,45.68560937
3.81507784,18.17795357,-1.21257669,-1.38546009,-2.44757103

>  <Name>
ligand

>  <RI>
0

>  <Rbt.Current_Directory>
/home/itssahil/PROJECTS/Mol_Feturizer/New_Systems/rnas/1TN1

>  <Rbt.Executable>
rbdock ($Id: //depot/dev/client3/rdock/2013.1/src/exe/rbdock.cxx#4 $)

>  <Rbt.Library>
libRbt.so (2013.1, Build901 2013/11/27)

>  <Rbt.Parameter_File>
/export/apps/rDock/src/rDock_2013.1_src/data/scripts/dock_solv.prm

>  <Rbt.Receptor>
prm/blind_docking_60.prm

>  <SCORE>
-10.5018

>  <SCORE.INTER>
-8.01999

>  <SCORE.INTER.CONST>
1

>  <SCORE.INTER.POLAR>
0

>  <SCORE.INTER.ROT>
11

>  <SCORE.INTER.SOLV>
10.7716

>  <SCORE.INTER.VDW>
-19.8705

>  <SCORE.INTER.norm>
-0.572857

>  <SCORE.INTRA>
-2.48178

>  <SCORE.INTRA.DIHEDRAL>
-5.02247

>  <SCORE.INTRA.DIHEDRAL.0>
7.79482

>  <SCORE.INTRA.POLAR>
0

>  <SCORE.INTRA.POLAR.0>
0

>  <SCORE.INTRA.REPUL>
0

>  <SCORE.INTRA.REPUL.0>
0

>  <SCORE.INTRA.SOLV>
1.42446

>  <SCORE.INTRA.SOLV.lig_0>
-49.456

>  <SCORE.INTRA.VDW>
-0.682776

>  <SCORE.INTRA.VDW.0>
-0.478406

>  <SCORE.INTRA.norm>
-0.17727

>  <SCORE.RESTR>
0

>  <SCORE.RESTR.CAVITY>
0

>  <SCORE.RESTR.norm>
0

>  <SCORE.SYSTEM>
0

>  <SCORE.SYSTEM.CONST>
0

>  <SCORE.SYSTEM.DIHEDRAL>
0

>  <SCORE.SYSTEM.SOLV>
0

>  <SCORE.SYSTEM.norm>
0

>  <SCORE.heavy>
14

>  <SCORE.norm>
-0.750127

>  <RMSD>
3.316

$$$$
ligand
 OpenBabel11021811413D
libRbt.so/2013.1/901 2013/11/27
 14 13  0  0  0  0  0  0  0  0999 V2000
   45.0706   10.0455   18.6367 N   0  0  0  0  0  0  0  0  0  0  0  0
   46.2477    9.8742   19.5155 C   0  0  0  0  0  0  0  0  0  0  0  0
   46.7289    8.4071   19.5242 C   0  0  0  0  0  0  0  0  0  0  0  0
   45.7479    7.4158   20.1714 C   0  0  0  0  0  0  0  0  0  0  0  0
   46.3080    6.0364   20.1771 N   0  0  0  0  0  0  0  0  0  0  0  0
   45.4191    5.1245   20.9419 C   0  0  0  0  0  0  0  0  0  0  0  0
   44.5780    4.1213   20.0825 C   0  0  0  0  0  0  0  0  0  0  0  0
   45.4345    3.1130   19.2639 C   0  0  0  0  0  0  0  0  0  0  0  0
   44.6171    2.0976   18.4896 C   0  0  0  0  0  0  0  0  0  0  0  0
   45.5414    1.1503   17.8958 N   0  0  0  0  0  0  0  0  0  0  0  0
   44.8000    0.4768   16.8439 C   0  0  0  0  0  0  0  0  0  0  0  0
   45.6817   -0.5050   16.0810 C   0  0  0  0  0  0  0  0  0  0  0  0
   44.8686   -1.0296   14.8879 C   0  0  0  0  0  0  0  0  0  0  0  0
   45.6378   -1.9741   14.0638 N   0  0  0  0  0  0  0  0  0  0  0  0
  1  2  1  0  0  0  0
  2  3  1  0  0  0  0
  3  4  1  0  0  0  0
  4  5  1  0  0  0  0
  5  6  1  0  0  0  0
  6  7  1  0  0  0  0
  7  8  1  0  0  0  0
  8  9  1  0  0  0  0
  9 10  1  0  0  0  0
 10 11  1  0  0  0  0
 11 12  1  0  0  0  0
 12 13  1  0  0  0  0
 13 14  1  0  0  0  0
M  END
>  <CHROM.1>
-66.84157443,-178.15165278,173.53463460,106.47558131,62.59714378,176.99818098
-174.16339374,-162.18049609,177.00862263,-172.92732780,179.00494700,45.47716341
3.88244439,18.32705482,-1.12762534,-1.42355633,-2.28675194

>  <Name>
ligand

>  <RI>
0

>  <Rbt.Current_Directory>
/home/itssahil/PROJECTS/Mol_Feturizer/New_Systems/rnas/1TN1

>  <Rbt.Executable>
rbdock ($Id: //depot/dev/client3/rdock/2013.1/src/exe/rbdock.cxx#4 $)

>  <Rbt.Library>
libRbt.so (2013.1, Build901 2013/11/27)

>  <Rbt.Parameter_File>
/export/apps/rDock/src/rDock_2013.1_src/data/scripts/dock_solv.prm

>  <Rbt.Receptor>
prm/blind_docking_80.prm

>  <SCORE>
-10.2675

>  <SCORE.INTER>
-6.98602

>  <SCORE.INTER.CONST>
1

>  <SCORE.INTER.POLAR>
0

>  <SCORE.INTER.ROT>
11

>  <SCORE.INTER.SOLV>
13.3116

>  <SCORE.INTER.VDW>
-20.0279

>  <SCORE.INTER.norm>
-0.499002

>  <SCORE.INTRA>
-3.28152

>  <SCORE.INTRA.DIHEDRAL>
-5.88487

>  <SCORE.INTRA.DIHEDRAL.0>
7.79482

>  <SCORE.INTRA.POLAR>
0

>  <SCORE.INTRA.POLAR.0>
0

>  <SCORE.INTRA.REPUL>
0

>  <SCORE.INTRA.REPUL.0>
0

>  <SCORE.INTRA.SOLV>
0.931128

>  <SCORE.INTRA.SOLV.lig_0>
-49.456

>  <SCORE.INTRA.VDW>
-0.804645

>  <SCORE.INTRA.VDW.0>
-0.478406

>  <SCORE.INTRA.norm>
-0.234394

>  <SCORE.RESTR>
0

>  <SCORE.RESTR.CAVITY>
0

>  <SCORE.RESTR.norm>
0

>  <SCORE.SYSTEM>
0

>  <SCORE.SYSTEM.CONST>
0

>  <SCORE.SYSTEM.DIHEDRAL>
0

>  <SCORE.SYSTEM.SOLV>
0

>  <SCORE.SYSTEM.norm>
0

>  <SCORE.heavy>
14

>  <SCORE.norm>
-0.733396

>  <RMSD>
3.317

$$$$
ligand
 OpenBabel11021811413D
libRbt.so/2013.1/901 2013/11/27
 14 13  0  0  0  0  0  0  0  0999 V2000
   45.5043    2.5766   17.8889 N   0  0  0  0  0  0  0  0  0  0  0  0
   45.9967    3.3208   19.0682 C   0  0  0  0  0  0  0  0  0  0  0  0
   44.8400    4.0353   19.8000 C   0  0  0  0  0  0  0  0  0  0  0  0
   45.2690    4.8541   21.0286 C   0  0  0  0  0  0  0  0  0  0  0  0
   46.2613    5.8990   20.6545 N   0  0  0  0  0  0  0  0  0  0  0  0
   45.5715    7.1830   20.3679 C   0  0  0  0  0  0  0  0  0  0  0  0
   46.4207    8.2503   19.5985 C   0  0  0  0  0  0  0  0  0  0  0  0
   45.7041    9.6188   19.4134 C   0  0  0  0  0  0  0  0  0  0  0  0
   44.3953    9.5304   18.6531 C   0  0  0  0  0  0  0  0  0  0  0  0
   43.9467   10.8849   18.3915 N   0  0  0  0  0  0  0  0  0  0  0  0
   42.5060   10.8023   18.2272 C   0  0  0  0  0  0  0  0  0  0  0  0
   41.9608   12.0084   17.4713 C   0  0  0  0  0  0  0  0  0  0  0  0
   42.2271   13.2541   18.3299 C   0  0  0  0  0  0  0  0  0  0  0  0
   41.6843   14.4765   17.7185 N   0  0  0  0  0  0  0  0  0  0  0  0
  1  2  1  0  0  0  0
  2  3  1  0  0  0  0
  3  4  1  0  0  0  0
  4  5  1  0  0  0  0
  5  6  1  0  0  0  0
  6  7  1  0  0  0  0
  7  8  1  0  0  0  0
  8  9  1  0  0  0  0
  9 10  1  0  0  0  0
 10 11  1  0  0  0  0
 11 12  1  0  0  0  0
 12 13  1  0  0  0  0
 13 14  1  0  0  0  0
M  END
>  <CHROM.1>
-179.03761700,58.52879161,93.43998994,-164.11021202,-175.52454146,-59.20039458
-171.88566591,-155.39475109,-159.54564689,-63.77522547,-177.44339821,44.44916883
8.33526687,19.04384715,1.08496491,0.71749858,-2.98935630

>  <Name>
ligand

>  <RI>
0

>  <Rbt.Current_Directory>
/home/itssahil/PROJECTS/Mol_Feturizer/New_Systems/rnas/1TN1

>  <Rbt.Executable>
rbdock ($Id: //depot/dev/client3/rdock/2013.1/src/exe/rbdock.cxx#4 $)

>  <Rbt.Library>
libRbt.so (2013.1, Build901 2013/11/27)

>  <Rbt.Parameter_File>
/export/apps/rDock/src/rDock_2013.1_src/data/scripts/dock_solv.prm

>  <Rbt.Receptor>
prm/pocket_docking_7.prm

>  <SCORE>
-9.27056

>  <SCORE.INTER>
-6.79004

>  <SCORE.INTER.CONST>
1

>  <SCORE.INTER.POLAR>
0

>  <SCORE.INTER.ROT>
11

>  <SCORE.INTER.SOLV>
13.8231

>  <SCORE.INTER.VDW>
-20.0677

>  <SCORE.INTER.norm>
-0.485003

>  <SCORE.INTRA>
-2.48052

>  <SCORE.INTRA.DIHEDRAL>
-5.73255

>  <SCORE.INTRA.DIHEDRAL.0>
7.79482

>  <SCORE.INTRA.POLAR>
0

>  <SCORE.INTRA.POLAR.0>
0

>  <SCORE.INTRA.REPUL>
0

>  <SCORE.INTRA.REPUL.0>
0

>  <SCORE.INTRA.SOLV>
0.872435

>  <SCORE.INTRA.SOLV.lig_0>
-49.456

>  <SCORE.INTRA.VDW>
-0.0504683

>  <SCORE.INTRA.VDW.0>
-0.478406

>  <SCORE.INTRA.norm>
-0.17718

>  <SCORE.RESTR>
0

>  <SCORE.RESTR.CAVITY>
0

>  <SCORE.RESTR.norm>
0

>  <SCORE.SYSTEM>
0

>  <SCORE.SYSTEM.CONST>
0

>  <SCORE.SYSTEM.DIHEDRAL>
0

>  <SCORE.SYSTEM.SOLV>
0

>  <SCORE.SYSTEM.norm>
0

>  <SCORE.heavy>
14

>  <SCORE.norm>
-0.662183

>  <RMSD>
3.320

$$$$
ligand
 OpenBabel11021811413D
libRbt.so/2013.1/901 2013/11/27
 14 13  0  0  0  0  0  0  0  0999 V2000
   46.1479    1.9964   16.7564 N   0  0  0  0  0  0  0  0  0  0  0  0
   45.9415    1.3067   18.0482 C   0  0  0  0  0  0  0  0  0  0  0  0
   44.9475    2.0803   18.9412 C   0  0  0  0  0  0  0  0  0  0  0  0
   45.4127    3.4891   19.3449 C   0  0  0  0  0  0  0  0  0  0  0  0
   44.4240    4.1402   20.2476 N   0  0  0  0  0  0  0  0  0  0  0  0
   45.1073    5.1054   21.1466 C   0  0  0  0  0  0  0  0  0  0  0  0
   45.2245    6.5695   20.6039 C   0  0  0  0  0  0  0  0  0  0  0  0
   43.8674    7.1990   20.1765 C   0  0  0  0  0  0  0  0  0  0  0  0
   43.9686    8.6515   19.7539 C   0  0  0  0  0  0  0  0  0  0  0  0
   44.9564    8.7332   18.6946 N   0  0  0  0  0  0  0  0  0  0  0  0
   45.9685    9.6627   19.1650 C   0  0  0  0  0  0  0  0  0  0  0  0
   47.0555    9.8800   18.1188 C   0  0  0  0  0  0  0  0  0  0  0  0
   47.9014    8.5993   18.0546 C   0  0  0  0  0  0  0  0  0  0  0  0
   47.1914    7.4974   17.3879 N   0  0  0  0  0  0  0  0  0  0  0  0
  1  2  1  0  0  0  0
  2  3  1  0  0  0  0
  3  4  1  0  0  0  0
  4  5  1  0  0  0  0
  5  6  1  0  0  0  0
  6  7  1  0  0  0  0
  7  8  1  0  0  0  0
  8  9  1  0  0  0  0
  9 10  1  0  0  0  0
 10 11  1  0  0  0  0
 11 12  1  0  0  0  0
 12 13  1  0  0  0  0
 13 14  1  0  0  0  0
M  END
>  <CHROM.1>
-62.56374285,-177.66928539,151.44297730,89.98248471,54.24072621,175.47982598
55.48109872,-122.04698019,-178.08480475,-72.00547541,73.26002586,45.57956540
6.06525002,19.03173865,-1.69592949,0.83199950,0.12540626

>  <Name>
ligand

>  <RI>
0

>  <Rbt.Current_Directory>
/home/itssahil/PROJECTS/Mol_Feturizer/New_Systems/rnas/1TN1

>  <Rbt.Executable>
rbdock ($Id: //depot/dev/client3/rdock/2013.1/src/exe/rbdock.cxx#4 $)

>  <Rbt.Library>
libRbt.so (2013.1, Build901 2013/11/27)

>  <Rbt.Parameter_File>
/export/apps/rDock/src/rDock_2013.1_src/data/scripts/dock_solv.prm

>  <Rbt.Receptor>
prm/pocket_docking_4.prm

>  <SCORE>
-6.82609

>  <SCORE.INTER>
-6.74922

>  <SCORE.INTER.CONST>
1

>  <SCORE.INTER.POLAR>
0

>  <SCORE.INTER.ROT>
11

>  <SCORE.INTER.SOLV>
12.2776

>  <SCORE.INTER.VDW>
-19.5254

>  <SCORE.INTER.norm>
-0.482087

>  <SCORE.INTRA>
-0.0768729

>  <SCORE.INTRA.DIHEDRAL>
-3.94248

>  <SCORE.INTRA.DIHEDRAL.0>
7.79482

>  <SCORE.INTRA.POLAR>
0

>  <SCORE.INTRA.POLAR.0>
0

>  <SCORE.INTRA.REPUL>
0

>  <SCORE.INTRA.REPUL.0>
0

>  <SCORE.INTRA.SOLV>
5.06375

>  <SCORE.INTRA.SOLV.lig_0>
-49.456

>  <SCORE.INTRA.VDW>
-0.637505

>  <SCORE.INTRA.VDW.0>
-0.478406

>  <SCORE.INTRA.norm>
-0.00549092

>  <SCORE.RESTR>
0

>  <SCORE.RESTR.CAVITY>
0

>  <SCORE.RESTR.norm>
0

>  <SCORE.SYSTEM>
0

>  <SCORE.SYSTEM.CONST>
0

>  <SCORE.SYSTEM.DIHEDRAL>
0

>  <SCORE.SYSTEM.SOLV>
0

>  <SCORE.SYSTEM.norm>
0

>  <SCORE.heavy>
14

>  <SCORE.norm>
-0.487578

>  <RMSD>
3.335

$$$$
ligand
 OpenBabel11021811413D
libRbt.so/2013.1/901 2013/11/27
 14 13  0  0  0  0  0  0  0  0999 V2000
   44.4857    0.3104   15.8070 N   0  0  0  0  0  0  0  0  0  0  0  0
   44.8443    0.7866   17.1605 C   0  0  0  0  0  0  0  0  0  0  0  0
   46.0207    1.7851   17.1072 C   0  0  0  0  0  0  0  0  0  0  0  0
   46.5120    2.2690   18.4814 C   0  0  0  0  0  0  0  0  0  0  0  0
   45.4807    3.1066   19.1531 N   0  0  0  0  0  0  0  0  0  0  0  0
   46.0506    4.4295   19.5164 C   0  0  0  0  0  0  0  0  0  0  0  0
   45.8542    4.8644   21.0078 C   0  0  0  0  0  0  0  0  0  0  0  0
   44.3656    4.9826   21.4442 C   0  0  0  0  0  0  0  0  0  0  0  0
   43.6067    6.0957   20.7486 C   0  0  0  0  0  0  0  0  0  0  0  0
   44.2447    7.3497   21.1016 N   0  0  0  0  0  0  0  0  0  0  0  0
   44.8808    7.8285   19.8867 C   0  0  0  0  0  0  0  0  0  0  0  0
   46.3319    8.2234   20.1354 C   0  0  0  0  0  0  0  0  0  0  0  0
   46.9594    8.5674   18.7760 C   0  0  0  0  0  0  0  0  0  0  0  0
   46.3815    9.7860   18.1899 N   0  0  0  0  0  0  0  0  0  0  0  0
  1  2  1  0  0  0  0
  2  3  1  0  0  0  0
  3  4  1  0  0  0  0
  4  5  1  0  0  0  0
  5  6  1  0  0  0  0
  6  7  1  0  0  0  0
  7  8  1  0  0  0  0
  8  9  1  0  0  0  0
  9 10  1  0  0  0  0
 10 11  1  0  0  0  0
 11 12  1  0  0  0  0
 12 13  1  0  0  0  0
 13 14  1  0  0  0  0
M  END
>  <CHROM.1>
-176.64224927,-67.19618599,-124.60279577,-128.21253891,-60.34928253,-66.24312996
-61.92852124,110.67022158,-130.56525011,173.95275883,67.42987423,45.43002925
5.02745220,19.17995110,-1.66768556,1.06757197,0.44486939

>  <Name>
ligand

>  <RI>
0

>  <Rbt.Current_Directory>
/home/itssahil/PROJECTS/Mol_Feturizer/New_Systems/rnas/1TN1

>  <Rbt.Executable>
rbdock ($Id: //depot/dev/client3/rdock/2013.1/src/exe/rbdock.cxx#4 $)

>  <Rbt.Library>
libRbt.so (2013.1, Build901 2013/11/27)

>  <Rbt.Parameter_File>
/export/apps/rDock/src/rDock_2013.1_src/data/scripts/dock_solv.prm

>  <Rbt.Receptor>
prm/pocket_docking_5.prm

>  <SCORE>
-9.45735

>  <SCORE.INTER>
-8.8672

>  <SCORE.INTER.CONST>
1

>  <SCORE.INTER.POLAR>
0

>  <SCORE.INTER.ROT>
11

>  <SCORE.INTER.SOLV>
15.6101

>  <SCORE.INTER.VDW>
-22.0482

>  <SCORE.INTER.norm>
-0.633372

>  <SCORE.INTRA>
-0.590149

>  <SCORE.INTRA.DIHEDRAL>
-2.4703

>  <SCORE.INTRA.DIHEDRAL.0>
7.79482

>  <SCORE.INTRA.POLAR>
0

>  <SCORE.INTRA.POLAR.0>
0

>  <SCORE.INTRA.REPUL>
0

>  <SCORE.INTRA.REPUL.0>
0

>  <SCORE.INTRA.SOLV>
2.22339

>  <SCORE.INTRA.SOLV.lig_0>
-49.456

>  <SCORE.INTRA.VDW>
-0.466695

>  <SCORE.INTRA.VDW.0>
-0.478406

>  <SCORE.INTRA.norm>
-0.0421535

>  <SCORE.RESTR>
0

>  <SCORE.RESTR.CAVITY>
0

>  <SCORE.RESTR.norm>
0

>  <SCORE.SYSTEM>
0

>  <SCORE.SYSTEM.CONST>
0

>  <SCORE.SYSTEM.DIHEDRAL>
0

>  <SCORE.SYSTEM.SOLV>
0

>  <SCORE.SYSTEM.norm>
0

>  <SCORE.heavy>
14

>  <SCORE.norm>
-0.675525

>  <RMSD>
3.336

$$$$
ligand
 OpenBabel11021811413D
libRbt.so/2013.1/901 2013/11/27
 14 13  0  0  0  0  0  0  0  0999 V2000
   48.6240    8.4638   16.6613 N   0  0  0  0  0  0  0  0  0  0  0  0
   47.5148    8.0448   17.5451 C   0  0  0  0  0  0  0  0  0  0  0  0
   47.3275    9.0363   18.7138 C   0  0  0  0  0  0  0  0  0  0  0  0
   46.2504    8.6286   19.7324 C   0  0  0  0  0  0  0  0  0  0  0  0
   46.5375    7.2845   20.3047 N   0  0  0  0  0  0  0  0  0  0  0  0
   45.2705    6.6022   20.6734 C   0  0  0  0  0  0  0  0  0  0  0  0
   45.3219    5.0371   20.6804 C   0  0  0  0  0  0  0  0  0  0  0  0
   45.6783    4.4072   19.3032 C   0  0  0  0  0  0  0  0  0  0  0  0
   45.4572    2.9087   19.2361 C   0  0  0  0  0  0  0  0  0  0  0  0
   45.8780    2.4609   17.9220 N   0  0  0  0  0  0  0  0  0  0  0  0
   46.0064    1.0172   18.0157 C   0  0  0  0  0  0  0  0  0  0  0  0
   45.1293    0.3115   16.9881 C   0  0  0  0  0  0  0  0  0  0  0  0
   45.7210    0.5950   15.5990 C   0  0  0  0  0  0  0  0  0  0  0  0
   44.9590   -0.0613   14.5261 N   0  0  0  0  0  0  0  0  0  0  0  0
  1  2  1  0  0  0  0
  2  3  1  0  0  0  0
  3  4  1  0  0  0  0
  4  5  1  0  0  0  0
  5  6  1  0  0  0  0
  6  7  1  0  0  0  0
  7  8  1  0  0  0  0
  8  9  1  0  0  0  0
  9 10  1  0  0  0  0
 10 11  1  0  0  0  0
 11 12  1  0  0  0  0
 12 13  1  0  0  0  0
 13 14  1  0  0  0  0
M  END
>  <CHROM.1>
-176.34054298,57.05484483,-150.15353101,154.06742617,-60.48912880,-168.34088288
-177.82681798,164.60139400,122.92159118,68.96059871,179.08853349,46.11954473
4.62406114,18.27903507,-1.13799061,-1.10267903,-2.41818462

>  <Name>
ligand

>  <RI>
0

>  <Rbt.Current_Directory>
/home/itssahil/PROJECTS/Mol_Feturizer/New_Systems/rnas/1TN1

>  <Rbt.Executable>
rbdock ($Id: //depot/dev/client3/rdock/2013.1/src/exe/rbdock.cxx#4 $)

>  <Rbt.Library>
libRbt.so (2013.1, Build901 2013/11/27)

>  <Rbt.Parameter_File>
/export/apps/rDock/src/rDock_2013.1_src/data/scripts/dock_solv.prm

>  <Rbt.Receptor>
prm/pocket_docking_5.prm

>  <SCORE>
-8.80642

>  <SCORE.INTER>
-6.34551

>  <SCORE.INTER.CONST>
1

>  <SCORE.INTER.POLAR>
0

>  <SCORE.INTER.ROT>
11

>  <SCORE.INTER.SOLV>
11.1241

>  <SCORE.INTER.VDW>
-18.8717

>  <SCORE.INTER.norm>
-0.45325

>  <SCORE.INTRA>
-2.46092

>  <SCORE.INTRA.DIHEDRAL>
-4.39268

>  <SCORE.INTRA.DIHEDRAL.0>
7.79482

>  <SCORE.INTRA.POLAR>
0

>  <SCORE.INTRA.POLAR.0>
0

>  <SCORE.INTRA.REPUL>
0

>  <SCORE.INTRA.REPUL.0>
0

>  <SCORE.INTRA.SOLV>
1.03829

>  <SCORE.INTRA.SOLV.lig_0>
-49.456

>  <SCORE.INTRA.VDW>
-0.783723

>  <SCORE.INTRA.VDW.0>
-0.478406

>  <SCORE.INTRA.norm>
-0.17578

>  <SCORE.RESTR>
0

>  <SCORE.RESTR.CAVITY>
0

>  <SCORE.RESTR.norm>
0

>  <SCORE.SYSTEM>
0

>  <SCORE.SYSTEM.CONST>
0

>  <SCORE.SYSTEM.DIHEDRAL>
0

>  <SCORE.SYSTEM.SOLV>
0

>  <SCORE.SYSTEM.norm>
0

>  <SCORE.heavy>
14

>  <SCORE.norm>
-0.62903

>  <RMSD>
3.342

$$$$
ligand
 OpenBabel11021811413D
libRbt.so/2013.1/901 2013/11/27
 14 13  0  0  0  0  0  0  0  0999 V2000
   47.0247    9.3573   17.2070 N   0  0  0  0  0  0  0  0  0  0  0  0
   47.5879    8.8345   18.4706 C   0  0  0  0  0  0  0  0  0  0  0  0
   46.5396    8.8658   19.6038 C   0  0  0  0  0  0  0  0  0  0  0  0
   45.3248    7.9511   19.3771 C   0  0  0  0  0  0  0  0  0  0  0  0
   44.3422    8.0826   20.4878 N   0  0  0  0  0  0  0  0  0  0  0  0
   43.4405    6.9025   20.5180 C   0  0  0  0  0  0  0  0  0  0  0  0
   43.8614    5.7541   21.4959 C   0  0  0  0  0  0  0  0  0  0  0  0
   45.1963    5.0522   21.1141 C   0  0  0  0  0  0  0  0  0  0  0  0
   45.1382    4.2897   19.8049 C   0  0  0  0  0  0  0  0  0  0  0  0
   46.4353    3.6743   19.5969 N   0  0  0  0  0  0  0  0  0  0  0  0
   46.2989    2.8502   18.4086 C   0  0  0  0  0  0  0  0  0  0  0  0
   45.7060    1.4860   18.7410 C   0  0  0  0  0  0  0  0  0  0  0  0
   45.6944    0.6567   17.4479 C   0  0  0  0  0  0  0  0  0  0  0  0
   44.8474    1.2604   16.4084 N   0  0  0  0  0  0  0  0  0  0  0  0
  1  2  1  0  0  0  0
  2  3  1  0  0  0  0
  3  4  1  0  0  0  0
  4  5  1  0  0  0  0
  5  6  1  0  0  0  0
  6  7  1  0  0  0  0
  7  8  1  0  0  0  0
  8  9  1  0  0  0  0
  9 10  1  0  0  0  0
 10 11  1  0  0  0  0
 11 12  1  0  0  0  0
 12 13  1  0  0  0  0
 13 14  1  0  0  0  0
M  END
>  <CHROM.1>
64.35352139,-177.77045181,-160.42102233,95.04209709,-65.31910912,-65.46239216
-178.95094748,174.51514409,-83.60982215,-176.03438648,-62.17688639,45.53119408
5.35829745,19.19187981,-1.49341123,-0.92024651,-2.88702040

>  <Name>
ligand

>  <RI>
0

>  <Rbt.Current_Directory>
/home/itssahil/PROJECTS/Mol_Feturizer/New_Systems/rnas/1TN1

>  <Rbt.Executable>
rbdock ($Id: //depot/dev/client3/rdock/2013.1/src/exe/rbdock.cxx#4 $)

>  <Rbt.Library>
libRbt.so (2013.1, Build901 2013/11/27)

>  <Rbt.Parameter_File>
/export/apps/rDock/src/rDock_2013.1_src/data/scripts/dock_solv.prm

>  <Rbt.Receptor>
prm/pocket_docking_7.prm

>  <SCORE>
-10.1003

>  <SCORE.INTER>
-8.47384

>  <SCORE.INTER.CONST>
1

>  <SCORE.INTER.POLAR>
0

>  <SCORE.INTER.ROT>
11

>  <SCORE.INTER.SOLV>
14.2069

>  <SCORE.INTER.VDW>
-21.3182

>  <SCORE.INTER.norm>
-0.605274

>  <SCORE.INTRA>
-1.62651

>  <SCORE.INTRA.DIHEDRAL>
-5.91989

>  <SCORE.INTRA.DIHEDRAL.0>
7.79482

>  <SCORE.INTRA.POLAR>
0

>  <SCORE.INTRA.POLAR.0>
0

>  <SCORE.INTRA.REPUL>
0

>  <SCORE.INTRA.REPUL.0>
0

>  <SCORE.INTRA.SOLV>
2.32119

>  <SCORE.INTRA.SOLV.lig_0>
-49.456

>  <SCORE.INTRA.VDW>
0.172842

>  <SCORE.INTRA.VDW.0>
-0.478406

>  <SCORE.INTRA.norm>
-0.116179

>  <SCORE.RESTR>
0

>  <SCORE.RESTR.CAVITY>
0

>  <SCORE.RESTR.norm>
0

>  <SCORE.SYSTEM>
0

>  <SCORE.SYSTEM.CONST>
0

>  <SCORE.SYSTEM.DIHEDRAL>
0

>  <SCORE.SYSTEM.SOLV>
0

>  <SCORE.SYSTEM.norm>
0

>  <SCORE.heavy>
14

>  <SCORE.norm>
-0.721453

>  <RMSD>
3.344

$$$$
ligand
 OpenBabel11021811413D
libRbt.so/2013.1/901 2013/11/27
 14 13  0  0  0  0  0  0  0  0999 V2000
   50.3835    9.2261   16.2589 N   0  0  0  0  0  0  0  0  0  0  0  0
   49.4240    9.7552   17.2521 C   0  0  0  0  0  0  0  0  0  0  0  0
   47.9665    9.5360   16.7918 C   0  0  0  0  0  0  0  0  0  0  0  0
   46.9017   10.0864   17.7547 C   0  0  0  0  0  0  0  0  0  0  0  0
   47.0343    9.4735   19.1050 N   0  0  0  0  0  0  0  0  0  0  0  0
   46.3219    8.1707   19.1496 C   0  0  0  0  0  0  0  0  0  0  0  0
   46.3127    7.4517   20.5406 C   0  0  0  0  0  0  0  0  0  0  0  0
   45.5397    6.1016   20.5527 C   0  0  0  0  0  0  0  0  0  0  0  0
   46.1621    5.0281   19.6814 C   0  0  0  0  0  0  0  0  0  0  0  0
   45.3079    3.8576   19.7487 N   0  0  0  0  0  0  0  0  0  0  0  0
   45.8530    2.9115   18.7908 C   0  0  0  0  0  0  0  0  0  0  0  0
   44.9751    1.6713   18.6705 C   0  0  0  0  0  0  0  0  0  0  0  0
   45.5844    0.7743   17.5824 C   0  0  0  0  0  0  0  0  0  0  0  0
   45.5138    1.3919   16.2496 N   0  0  0  0  0  0  0  0  0  0  0  0
  1  2  1  0  0  0  0
  2  3  1  0  0  0  0
  3  4  1  0  0  0  0
  4  5  1  0  0  0  0
  5  6  1  0  0  0  0
  6  7  1  0  0  0  0
  7  8  1  0  0  0  0
  8  9  1  0  0  0  0
  9 10  1  0  0  0  0
 10 11  1  0  0  0  0
 11 12  1  0  0  0  0
 12 13  1  0  0  0  0
 13 14  1  0  0  0  0
M  END
>  <CHROM.1>
-178.70374772,-58.34939616,-84.29235089,-176.72112421,179.13800111,64.92906151
-177.61721166,173.79489553,-175.11461628,176.73659047,-66.15574148,46.66273295
6.10260937,18.43801332,-0.93329087,-0.94087354,-2.67515266

>  <Name>
ligand

>  <RI>
0

>  <Rbt.Current_Directory>
/home/itssahil/PROJECTS/Mol_Feturizer/New_Systems/rnas/1TN1

>  <Rbt.Executable>
rbdock ($Id: //depot/dev/client3/rdock/2013.1/src/exe/rbdock.cxx#4 $)

>  <Rbt.Library>
libRbt.so (2013.1, Build901 2013/11/27)

>  <Rbt.Parameter_File>
/export/apps/rDock/src/rDock_2013.1_src/data/scripts/dock_solv.prm

>  <Rbt.Receptor>
prm/pocket_docking_5.prm

>  <SCORE>
-7.91623

>  <SCORE.INTER>
-4.97571

>  <SCORE.INTER.CONST>
1

>  <SCORE.INTER.POLAR>
0

>  <SCORE.INTER.ROT>
11

>  <SCORE.INTER.SOLV>
10.1237

>  <SCORE.INTER.VDW>
-17.6251

>  <SCORE.INTER.norm>
-0.355408

>  <SCORE.INTRA>
-2.94052

>  <SCORE.INTRA.DIHEDRAL>
-6.98715

>  <SCORE.INTRA.DIHEDRAL.0>
7.79482

>  <SCORE.INTRA.POLAR>
0

>  <SCORE.INTRA.POLAR.0>
0

>  <SCORE.INTRA.REPUL>
0

>  <SCORE.INTRA.REPUL.0>
0

>  <SCORE.INTRA.SOLV>
1.25649

>  <SCORE.INTRA.SOLV.lig_0>
-49.456

>  <SCORE.INTRA.VDW>
-0.075189

>  <SCORE.INTRA.VDW.0>
-0.478406

>  <SCORE.INTRA.norm>
-0.210037

>  <SCORE.RESTR>
0

>  <SCORE.RESTR.CAVITY>
0

>  <SCORE.RESTR.norm>
0

>  <SCORE.SYSTEM>
0

>  <SCORE.SYSTEM.CONST>
0

>  <SCORE.SYSTEM.DIHEDRAL>
0

>  <SCORE.SYSTEM.SOLV>
0

>  <SCORE.SYSTEM.norm>
0

>  <SCORE.heavy>
14

>  <SCORE.norm>
-0.565445

>  <RMSD>
3.345

$$$$
ligand
 OpenBabel11021811413D
libRbt.so/2013.1/901 2013/11/27
 14 13  0  0  0  0  0  0  0  0999 V2000
   45.5207   -0.6654   13.6056 N   0  0  0  0  0  0  0  0  0  0  0  0
   46.4341   -0.9750   14.7267 C   0  0  0  0  0  0  0  0  0  0  0  0
   45.6509   -1.2050   16.0374 C   0  0  0  0  0  0  0  0  0  0  0  0
   44.8891    0.0272   16.5522 C   0  0  0  0  0  0  0  0  0  0  0  0
   45.8244    1.0307   17.1305 N   0  0  0  0  0  0  0  0  0  0  0  0
   45.0959    1.9409   18.0511 C   0  0  0  0  0  0  0  0  0  0  0  0
   45.9701    3.0322   18.7561 C   0  0  0  0  0  0  0  0  0  0  0  0
   45.1844    3.9253   19.7588 C   0  0  0  0  0  0  0  0  0  0  0  0
   46.0512    4.9173   20.5093 C   0  0  0  0  0  0  0  0  0  0  0  0
   46.6144    5.8334   19.5357 N   0  0  0  0  0  0  0  0  0  0  0  0
   46.2585    7.1661   19.9907 C   0  0  0  0  0  0  0  0  0  0  0  0
   46.4177    8.1961   18.8785 C   0  0  0  0  0  0  0  0  0  0  0  0
   45.9980    9.5608   19.4454 C   0  0  0  0  0  0  0  0  0  0  0  0
   45.9604   10.6046   18.4102 N   0  0  0  0  0  0  0  0  0  0  0  0
  1  2  1  0  0  0  0
  2  3  1  0  0  0  0
  3  4  1  0  0  0  0
  4  5  1  0  0  0  0
  5  6  1  0  0  0  0
  6  7  1  0  0  0  0
  7  8  1  0  0  0  0
  8  9  1  0  0  0  0
  9 10  1  0  0  0  0
 10 11  1  0  0  0  0
 11 12  1  0  0  0  0
 12 13  1  0  0  0  0
 13 14  1  0  0  0  0
M  END
>  <CHROM.1>
-64.09428155,-73.66239345,-158.97563013,178.76159283,-177.45370031,176.03154176
63.46395577,125.50698741,-163.18317801,179.06503055,-173.22732379,45.84779475
3.81335426,17.95662472,-2.15432998,1.47824765,0.98500868

>  <Name>
ligand

>  <RI>
0

>  <Rbt.Current_Directory>
/home/itssahil/PROJECTS/Mol_Feturizer/New_Systems/rnas/1TN1

>  <Rbt.Executable>
rbdock ($Id: //depot/dev/client3/rdock/2013.1/src/exe/rbdock.cxx#4 $)

>  <Rbt.Library>
libRbt.so (2013.1, Build901 2013/11/27)

>  <Rbt.Parameter_File>
/export/apps/rDock/src/rDock_2013.1_src/data/scripts/dock_solv.prm

>  <Rbt.Receptor>
prm/blind_docking_100.prm

>  <SCORE>
-9.66464

>  <SCORE.INTER>
-7.40337

>  <SCORE.INTER.CONST>
1

>  <SCORE.INTER.POLAR>
0

>  <SCORE.INTER.ROT>
11

>  <SCORE.INTER.SOLV>
10.7471

>  <SCORE.INTER.VDW>
-19.4513

>  <SCORE.INTER.norm>
-0.528812

>  <SCORE.INTRA>
-2.26127

>  <SCORE.INTRA.DIHEDRAL>
-5.02169

>  <SCORE.INTRA.DIHEDRAL.0>
7.79482

>  <SCORE.INTRA.POLAR>
0

>  <SCORE.INTRA.POLAR.0>
0

>  <SCORE.INTRA.REPUL>
0

>  <SCORE.INTRA.REPUL.0>
0

>  <SCORE.INTRA.SOLV>
1.79401

>  <SCORE.INTRA.SOLV.lig_0>
-49.456

>  <SCORE.INTRA.VDW>
-0.647427

>  <SCORE.INTRA.VDW.0>
-0.478406

>  <SCORE.INTRA.norm>
-0.161519

>  <SCORE.RESTR>
0

>  <SCORE.RESTR.CAVITY>
0

>  <SCORE.RESTR.norm>
0

>  <SCORE.SYSTEM>
0

>  <SCORE.SYSTEM.CONST>
0

>  <SCORE.SYSTEM.DIHEDRAL>
0

>  <SCORE.SYSTEM.SOLV>
0

>  <SCORE.SYSTEM.norm>
0

>  <SCORE.heavy>
14

>  <SCORE.norm>
-0.690331

>  <RMSD>
3.347

$$$$
ligand
 OpenBabel11021811413D
libRbt.so/2013.1/901 2013/11/27
 14 13  0  0  0  0  0  0  0  0999 V2000
   40.0190    8.6805   20.2297 N   0  0  0  0  0  0  0  0  0  0  0  0
   41.4589    8.6444   19.8945 C   0  0  0  0  0  0  0  0  0  0  0  0
   42.1563    7.4375   20.5586 C   0  0  0  0  0  0  0  0  0  0  0  0
   43.6580    7.3173   20.2509 C   0  0  0  0  0  0  0  0  0  0  0  0
   44.2518    6.1383   20.9392 N   0  0  0  0  0  0  0  0  0  0  0  0
   45.7050    6.0495   20.6438 C   0  0  0  0  0  0  0  0  0  0  0  0
   46.0839    5.2700   19.3396 C   0  0  0  0  0  0  0  0  0  0  0  0
   45.7090    3.7604   19.3704 C   0  0  0  0  0  0  0  0  0  0  0  0
   45.9942    3.0287   18.0734 C   0  0  0  0  0  0  0  0  0  0  0  0
   45.6713    1.6294   18.2781 N   0  0  0  0  0  0  0  0  0  0  0  0
   45.5795    1.0440   16.9520 C   0  0  0  0  0  0  0  0  0  0  0  0
   45.5997   -0.4789   17.0121 C   0  0  0  0  0  0  0  0  0  0  0  0
   45.4407   -1.0028   15.5767 C   0  0  0  0  0  0  0  0  0  0  0  0
   46.5931   -0.6608   14.7296 N   0  0  0  0  0  0  0  0  0  0  0  0
  1  2  1  0  0  0  0
  2  3  1  0  0  0  0
  3  4  1  0  0  0  0
  4  5  1  0  0  0  0
  5  6  1  0  0  0  0
  6  7  1  0  0  0  0
  7  8  1  0  0  0  0
  8  9  1  0  0  0  0
  9 10  1  0  0  0  0
 10 11  1  0  0  0  0
 11 12  1  0  0  0  0
 12 13  1  0  0  0  0
 13 14  1  0  0  0  0
M  END
>  <CHROM.1>
179.48944200,179.44644208,-179.27975236,-87.04483575,-64.21777354,176.20910810
176.67101340,163.90481229,165.40732115,177.71483416,65.99805752,44.56592391
4.06128614,18.70352755,1.98747567,-0.34991237,0.63272309

>  <Name>
ligand

>  <RI>
0

>  <Rbt.Current_Directory>
/home/itssahil/PROJECTS/Mol_Feturizer/New_Systems/rnas/1TN1

>  <Rbt.Executable>
rbdock ($Id: //depot/dev/client3/rdock/2013.1/src/exe/rbdock.cxx#4 $)

>  <Rbt.Library>
libRbt.so (2013.1, Build901 2013/11/27)

>  <Rbt.Parameter_File>
/export/apps/rDock/src/rDock_2013.1_src/data/scripts/dock_solv.prm

>  <Rbt.Receptor>
prm/blind_docking_80.prm

>  <SCORE>
-12.4083

>  <SCORE.INTER>
-9.0523

>  <SCORE.INTER.CONST>
1

>  <SCORE.INTER.POLAR>
0

>  <SCORE.INTER.ROT>
11

>  <SCORE.INTER.SOLV>
18.0624

>  <SCORE.INTER.VDW>
-22.989

>  <SCORE.INTER.norm>
-0.646593

>  <SCORE.INTRA>
-3.35597

>  <SCORE.INTRA.DIHEDRAL>
-6.59352

>  <SCORE.INTRA.DIHEDRAL.0>
7.79482

>  <SCORE.INTRA.POLAR>
0

>  <SCORE.INTRA.POLAR.0>
0

>  <SCORE.INTRA.REPUL>
0

>  <SCORE.INTRA.REPUL.0>
0

>  <SCORE.INTRA.SOLV>
1.06308

>  <SCORE.INTRA.SOLV.lig_0>
-49.456

>  <SCORE.INTRA.VDW>
-0.590745

>  <SCORE.INTRA.VDW.0>
-0.478406

>  <SCORE.INTRA.norm>
-0.239712

>  <SCORE.RESTR>
0

>  <SCORE.RESTR.CAVITY>
0

>  <SCORE.RESTR.norm>
0

>  <SCORE.SYSTEM>
0

>  <SCORE.SYSTEM.CONST>
0

>  <SCORE.SYSTEM.DIHEDRAL>
0

>  <SCORE.SYSTEM.SOLV>
0

>  <SCORE.SYSTEM.norm>
0

>  <SCORE.heavy>
14

>  <SCORE.norm>
-0.886304

>  <RMSD>
3.356

$$$$
ligand
 OpenBabel11021811413D
libRbt.so/2013.1/901 2013/11/27
 14 13  0  0  0  0  0  0  0  0999 V2000
   42.0779   12.0419   18.2217 N   0  0  0  0  0  0  0  0  0  0  0  0
   42.2928   10.6105   18.5249 C   0  0  0  0  0  0  0  0  0  0  0  0
   41.0674   10.0015   19.2401 C   0  0  0  0  0  0  0  0  0  0  0  0
   41.2074    8.5114   19.5923 C   0  0  0  0  0  0  0  0  0  0  0  0
   42.2916    8.2976   20.5899 N   0  0  0  0  0  0  0  0  0  0  0  0
   43.0026    7.0236   20.3102 C   0  0  0  0  0  0  0  0  0  0  0  0
   43.7102    6.3596   21.5393 C   0  0  0  0  0  0  0  0  0  0  0  0
   44.5802    5.1213   21.1787 C   0  0  0  0  0  0  0  0  0  0  0  0
   45.8049    5.4504   20.3477 C   0  0  0  0  0  0  0  0  0  0  0  0
   46.4551    4.1988   20.0085 N   0  0  0  0  0  0  0  0  0  0  0  0
   45.9545    3.8333   18.6949 C   0  0  0  0  0  0  0  0  0  0  0  0
   46.1753    2.3532   18.4059 C   0  0  0  0  0  0  0  0  0  0  0  0
   45.5367    2.0454   17.0431 C   0  0  0  0  0  0  0  0  0  0  0  0
   45.6877    0.6322   16.6652 N   0  0  0  0  0  0  0  0  0  0  0  0
  1  2  1  0  0  0  0
  2  3  1  0  0  0  0
  3  4  1  0  0  0  0
  4  5  1  0  0  0  0
  5  6  1  0  0  0  0
  6  7  1  0  0  0  0
  7  8  1  0  0  0  0
  8  9  1  0  0  0  0
  9 10  1  0  0  0  0
 10 11  1  0  0  0  0
 11 12  1  0  0  0  0
 12 13  1  0  0  0  0
 13 14  1  0  0  0  0
M  END
>  <CHROM.1>
179.97409851,64.87347988,-143.88496532,-154.93462721,-173.22464487,67.22674111
-175.82013230,94.98448344,-161.12288251,176.42383463,-179.77211721,43.98882692
6.17714863,19.31178045,2.75005727,-1.04240350,1.26221284

>  <Name>
ligand

>  <RI>
0

>  <Rbt.Current_Directory>
/home/itssahil/PROJECTS/Mol_Feturizer/New_Systems/rnas/1TN1

>  <Rbt.Executable>
rbdock ($Id: //depot/dev/client3/rdock/2013.1/src/exe/rbdock.cxx#4 $)

>  <Rbt.Library>
libRbt.so (2013.1, Build901 2013/11/27)

>  <Rbt.Parameter_File>
/export/apps/rDock/src/rDock_2013.1_src/data/scripts/dock_solv.prm

>  <Rbt.Receptor>
prm/pocket_docking_5.prm

>  <SCORE>
-14.1764

>  <SCORE.INTER>
-11.7316

>  <SCORE.INTER.CONST>
1

>  <SCORE.INTER.POLAR>
0

>  <SCORE.INTER.ROT>
11

>  <SCORE.INTER.SOLV>
19.4336

>  <SCORE.INTER.VDW>
-25.2322

>  <SCORE.INTER.norm>
-0.837968

>  <SCORE.INTRA>
-2.44481

>  <SCORE.INTRA.DIHEDRAL>
-4.9425

>  <SCORE.INTRA.DIHEDRAL.0>
7.79482

>  <SCORE.INTRA.POLAR>
0

>  <SCORE.INTRA.POLAR.0>
0

>  <SCORE.INTRA.REPUL>
0

>  <SCORE.INTRA.REPUL.0>
0

>  <SCORE.INTRA.SOLV>
0.424984

>  <SCORE.INTRA.SOLV.lig_0>
-49.456

>  <SCORE.INTRA.VDW>
-0.186055

>  <SCORE.INTRA.VDW.0>
-0.478406

>  <SCORE.INTRA.norm>
-0.174629

>  <SCORE.RESTR>
0

>  <SCORE.RESTR.CAVITY>
0

>  <SCORE.RESTR.norm>
0

>  <SCORE.SYSTEM>
0

>  <SCORE.SYSTEM.CONST>
0

>  <SCORE.SYSTEM.DIHEDRAL>
0

>  <SCORE.SYSTEM.SOLV>
0

>  <SCORE.SYSTEM.norm>
0

>  <SCORE.heavy>
14

>  <SCORE.norm>
-1.0126

>  <RMSD>
3.356

$$$$
ligand
 OpenBabel11021811413D
libRbt.so/2013.1/901 2013/11/27
 14 13  0  0  0  0  0  0  0  0999 V2000
   46.1055   10.0251   18.3113 N   0  0  0  0  0  0  0  0  0  0  0  0
   45.8540    8.6095   18.6578 C   0  0  0  0  0  0  0  0  0  0  0  0
   44.9881    8.4920   19.9308 C   0  0  0  0  0  0  0  0  0  0  0  0
   44.7253    7.0500   20.3950 C   0  0  0  0  0  0  0  0  0  0  0  0
   45.9950    6.3701   20.7718 N   0  0  0  0  0  0  0  0  0  0  0  0
   45.8423    4.8970   20.6565 C   0  0  0  0  0  0  0  0  0  0  0  0
   45.8857    4.3241   19.1998 C   0  0  0  0  0  0  0  0  0  0  0  0
   45.5618    2.8054   19.1047 C   0  0  0  0  0  0  0  0  0  0  0  0
   45.4997    2.2770   17.6849 C   0  0  0  0  0  0  0  0  0  0  0  0
   45.1646    0.8673   17.7549 N   0  0  0  0  0  0  0  0  0  0  0  0
   44.7508    0.4895   16.4149 C   0  0  0  0  0  0  0  0  0  0  0  0
   45.5243   -0.7246   15.9138 C   0  0  0  0  0  0  0  0  0  0  0  0
   45.0291   -1.0374   14.4937 C   0  0  0  0  0  0  0  0  0  0  0  0
   45.7919   -2.1274   13.8669 N   0  0  0  0  0  0  0  0  0  0  0  0
  1  2  1  0  0  0  0
  2  3  1  0  0  0  0
  3  4  1  0  0  0  0
  4  5  1  0  0  0  0
  5  6  1  0  0  0  0
  6  7  1  0  0  0  0
  7  8  1  0  0  0  0
  8  9  1  0  0  0  0
  9 10  1  0  0  0  0
 10 11  1  0  0  0  0
 11 12  1  0  0  0  0
 12 13  1  0  0  0  0
 13 14  1  0  0  0  0
M  END
>  <CHROM.1>
-177.66494316,63.07822683,-156.00469184,76.74358441,-173.39874369,175.53966454
-178.83880228,164.51001100,127.16273148,-179.47404930,175.16687045,45.47974501
3.73695116,18.08278930,-1.05252550,-1.51712100,-2.17319459

>  <Name>
ligand

>  <RI>
0

>  <Rbt.Current_Directory>
/home/itssahil/PROJECTS/Mol_Feturizer/New_Systems/rnas/1TN1

>  <Rbt.Executable>
rbdock ($Id: //depot/dev/client3/rdock/2013.1/src/exe/rbdock.cxx#4 $)

>  <Rbt.Library>
libRbt.so (2013.1, Build901 2013/11/27)

>  <Rbt.Parameter_File>
/export/apps/rDock/src/rDock_2013.1_src/data/scripts/dock_solv.prm

>  <Rbt.Receptor>
prm/blind_docking_80.prm

>  <SCORE>
-10.0508

>  <SCORE.INTER>
-6.92663

>  <SCORE.INTER.CONST>
1

>  <SCORE.INTER.POLAR>
0

>  <SCORE.INTER.ROT>
11

>  <SCORE.INTER.SOLV>
11.7361

>  <SCORE.INTER.VDW>
-19.4631

>  <SCORE.INTER.norm>
-0.494759

>  <SCORE.INTRA>
-3.12416

>  <SCORE.INTRA.DIHEDRAL>
-5.4224

>  <SCORE.INTRA.DIHEDRAL.0>
7.79482

>  <SCORE.INTRA.POLAR>
0

>  <SCORE.INTRA.POLAR.0>
0

>  <SCORE.INTRA.REPUL>
0

>  <SCORE.INTRA.REPUL.0>
0

>  <SCORE.INTRA.SOLV>
0.279991

>  <SCORE.INTRA.SOLV.lig_0>
-49.456

>  <SCORE.INTRA.VDW>
-0.552958

>  <SCORE.INTRA.VDW.0>
-0.478406

>  <SCORE.INTRA.norm>
-0.223155

>  <SCORE.RESTR>
0

>  <SCORE.RESTR.CAVITY>
0

>  <SCORE.RESTR.norm>
0

>  <SCORE.SYSTEM>
0

>  <SCORE.SYSTEM.CONST>
0

>  <SCORE.SYSTEM.DIHEDRAL>
0

>  <SCORE.SYSTEM.SOLV>
0

>  <SCORE.SYSTEM.norm>
0

>  <SCORE.heavy>
14

>  <SCORE.norm>
-0.717914

>  <RMSD>
3.360

$$$$
ligand
 OpenBabel11021811413D
libRbt.so/2013.1/901 2013/11/27
 14 13  0  0  0  0  0  0  0  0999 V2000
   45.3687   -1.8494   13.3198 N   0  0  0  0  0  0  0  0  0  0  0  0
   45.0295   -0.9910   14.4754 C   0  0  0  0  0  0  0  0  0  0  0  0
   45.8159   -1.4144   15.7349 C   0  0  0  0  0  0  0  0  0  0  0  0
   45.5045   -0.5862   16.9922 C   0  0  0  0  0  0  0  0  0  0  0  0
   45.8878    0.8397   16.8014 N   0  0  0  0  0  0  0  0  0  0  0  0
   45.6382    1.6096   18.0471 C   0  0  0  0  0  0  0  0  0  0  0  0
   46.1662    3.0838   18.0487 C   0  0  0  0  0  0  0  0  0  0  0  0
   45.7572    3.9035   19.3062 C   0  0  0  0  0  0  0  0  0  0  0  0
   46.2801    5.3267   19.3101 C   0  0  0  0  0  0  0  0  0  0  0  0
   45.6919    6.0078   20.4478 N   0  0  0  0  0  0  0  0  0  0  0  0
   46.2260    7.3583   20.4230 C   0  0  0  0  0  0  0  0  0  0  0  0
   45.4006    8.2678   19.5203 C   0  0  0  0  0  0  0  0  0  0  0  0
   46.1089    9.6297   19.4604 C   0  0  0  0  0  0  0  0  0  0  0  0
   45.4609   10.5517   18.5155 N   0  0  0  0  0  0  0  0  0  0  0  0
  1  2  1  0  0  0  0
  2  3  1  0  0  0  0
  3  4  1  0  0  0  0
  4  5  1  0  0  0  0
  5  6  1  0  0  0  0
  6  7  1  0  0  0  0
  7  8  1  0  0  0  0
  8  9  1  0  0  0  0
  9 10  1  0  0  0  0
 10 11  1  0  0  0  0
 11 12  1  0  0  0  0
 12 13  1  0  0  0  0
 13 14  1  0  0  0  0
M  END
>  <CHROM.1>
-179.02385201,-62.98994076,-177.37530984,172.49396389,173.90960264,179.50454856
173.25847340,179.46827253,85.83875357,-175.07824182,174.81762453,45.73837371
3.69545988,17.88617380,1.77591801,1.41781698,-2.92077173

>  <Name>
ligand

>  <RI>
0

>  <Rbt.Current_Directory>
/home/itssahil/PROJECTS/Mol_Feturizer/New_Systems/rnas/1TN1

>  <Rbt.Executable>
rbdock ($Id: //depot/dev/client3/rdock/2013.1/src/exe/rbdock.cxx#4 $)

>  <Rbt.Library>
libRbt.so (2013.1, Build901 2013/11/27)

>  <Rbt.Parameter_File>
/export/apps/rDock/src/rDock_2013.1_src/data/scripts/dock_solv.prm

>  <Rbt.Receptor>
prm/blind_docking_60.prm

>  <SCORE>
-11.3032

>  <SCORE.INTER>
-7.90413

>  <SCORE.INTER.CONST>
1

>  <SCORE.INTER.POLAR>
0

>  <SCORE.INTER.ROT>
11

>  <SCORE.INTER.SOLV>
10.7432

>  <SCORE.INTER.VDW>
-19.7838

>  <SCORE.INTER.norm>
-0.564581

>  <SCORE.INTRA>
-3.39911

>  <SCORE.INTRA.DIHEDRAL>
-6.73305

>  <SCORE.INTRA.DIHEDRAL.0>
7.79482

>  <SCORE.INTRA.POLAR>
0

>  <SCORE.INTRA.POLAR.0>
0

>  <SCORE.INTRA.REPUL>
0

>  <SCORE.INTRA.REPUL.0>
0

>  <SCORE.INTRA.SOLV>
0.279442

>  <SCORE.INTRA.SOLV.lig_0>
-49.456

>  <SCORE.INTRA.VDW>
-0.172307

>  <SCORE.INTRA.VDW.0>
-0.478406

>  <SCORE.INTRA.norm>
-0.242794

>  <SCORE.RESTR>
0

>  <SCORE.RESTR.CAVITY>
0

>  <SCORE.RESTR.norm>
0

>  <SCORE.SYSTEM>
0

>  <SCORE.SYSTEM.CONST>
0

>  <SCORE.SYSTEM.DIHEDRAL>
0

>  <SCORE.SYSTEM.SOLV>
0

>  <SCORE.SYSTEM.norm>
0

>  <SCORE.heavy>
14

>  <SCORE.norm>
-0.807374

>  <RMSD>
3.368

$$$$
ligand
 OpenBabel11021811413D
libRbt.so/2013.1/901 2013/11/27
 14 13  0  0  0  0  0  0  0  0999 V2000
   47.7192    9.6406   16.9734 N   0  0  0  0  0  0  0  0  0  0  0  0
   47.6177    8.5836   18.0027 C   0  0  0  0  0  0  0  0  0  0  0  0
   46.7226    9.0331   19.1777 C   0  0  0  0  0  0  0  0  0  0  0  0
   46.5208    7.9710   20.2710 C   0  0  0  0  0  0  0  0  0  0  0  0
   45.8477    6.7613   19.7232 N   0  0  0  0  0  0  0  0  0  0  0  0
   45.7982    5.6911   20.7523 C   0  0  0  0  0  0  0  0  0  0  0  0
   44.9924    4.4082   20.3561 C   0  0  0  0  0  0  0  0  0  0  0  0
   45.5817    3.6385   19.1393 C   0  0  0  0  0  0  0  0  0  0  0  0
   44.8601    2.3433   18.8221 C   0  0  0  0  0  0  0  0  0  0  0  0
   45.5257    1.7366   17.6849 N   0  0  0  0  0  0  0  0  0  0  0  0
   44.8542    0.4684   17.4607 C   0  0  0  0  0  0  0  0  0  0  0  0
   45.5181   -0.3239   16.3406 C   0  0  0  0  0  0  0  0  0  0  0  0
   45.2603    0.4261   15.0249 C   0  0  0  0  0  0  0  0  0  0  0  0
   45.7863   -0.3001   13.8593 N   0  0  0  0  0  0  0  0  0  0  0  0
  1  2  1  0  0  0  0
  2  3  1  0  0  0  0
  3  4  1  0  0  0  0
  4  5  1  0  0  0  0
  5  6  1  0  0  0  0
  6  7  1  0  0  0  0
  7  8  1  0  0  0  0
  8  9  1  0  0  0  0
  9 10  1  0  0  0  0
 10 11  1  0  0  0  0
 11 12  1  0  0  0  0
 12 13  1  0  0  0  0
 13 14  1  0  0  0  0
M  END
>  <CHROM.1>
177.85443099,-61.58740734,173.69190771,174.30899809,62.95330751,175.73002064
-179.37095642,176.92050383,-176.23539778,-68.35338369,-176.29432100,45.90023998
4.29120070,18.11386952,-1.11851724,-1.17176611,-2.35817459

>  <Name>
ligand

>  <RI>
0

>  <Rbt.Current_Directory>
/home/itssahil/PROJECTS/Mol_Feturizer/New_Systems/rnas/1TN1

>  <Rbt.Executable>
rbdock ($Id: //depot/dev/client3/rdock/2013.1/src/exe/rbdock.cxx#4 $)

>  <Rbt.Library>
libRbt.so (2013.1, Build901 2013/11/27)

>  <Rbt.Parameter_File>
/export/apps/rDock/src/rDock_2013.1_src/data/scripts/dock_solv.prm

>  <Rbt.Receptor>
prm/pocket_docking_7.prm

>  <SCORE>
-11.2962

>  <SCORE.INTER>
-7.38696

>  <SCORE.INTER.CONST>
1

>  <SCORE.INTER.POLAR>
0

>  <SCORE.INTER.ROT>
11

>  <SCORE.INTER.SOLV>
8.22511

>  <SCORE.INTER.VDW>
-18.5997

>  <SCORE.INTER.norm>
-0.52764

>  <SCORE.INTRA>
-3.90929

>  <SCORE.INTRA.DIHEDRAL>
-7.26742

>  <SCORE.INTRA.DIHEDRAL.0>
7.79482

>  <SCORE.INTRA.POLAR>
0

>  <SCORE.INTRA.POLAR.0>
0

>  <SCORE.INTRA.REPUL>
0

>  <SCORE.INTRA.REPUL.0>
0

>  <SCORE.INTRA.SOLV>
0.960289

>  <SCORE.INTRA.SOLV.lig_0>
-49.456

>  <SCORE.INTRA.VDW>
-0.755723

>  <SCORE.INTRA.VDW.0>
-0.478406

>  <SCORE.INTRA.norm>
-0.279235

>  <SCORE.RESTR>
0

>  <SCORE.RESTR.CAVITY>
0

>  <SCORE.RESTR.norm>
0

>  <SCORE.SYSTEM>
0

>  <SCORE.SYSTEM.CONST>
0

>  <SCORE.SYSTEM.DIHEDRAL>
0

>  <SCORE.SYSTEM.SOLV>
0

>  <SCORE.SYSTEM.norm>
0

>  <SCORE.heavy>
14

>  <SCORE.norm>
-0.806875

>  <RMSD>
3.370

$$$$
ligand
 OpenBabel11021811413D
libRbt.so/2013.1/901 2013/11/27
 14 13  0  0  0  0  0  0  0  0999 V2000
   44.1117    9.4398   18.4674 N   0  0  0  0  0  0  0  0  0  0  0  0
   43.3689    8.8630   19.6087 C   0  0  0  0  0  0  0  0  0  0  0  0
   43.9081    7.4634   19.9754 C   0  0  0  0  0  0  0  0  0  0  0  0
   45.3941    7.4331   20.3689 C   0  0  0  0  0  0  0  0  0  0  0  0
   45.8407    6.0437   20.6631 N   0  0  0  0  0  0  0  0  0  0  0  0
   46.1016    5.3096   19.3983 C   0  0  0  0  0  0  0  0  0  0  0  0
   45.8595    3.7634   19.4510 C   0  0  0  0  0  0  0  0  0  0  0  0
   46.0385    3.0455   18.0824 C   0  0  0  0  0  0  0  0  0  0  0  0
   45.8607    1.5412   18.1485 C   0  0  0  0  0  0  0  0  0  0  0  0
   45.8849    1.0358   16.7890 N   0  0  0  0  0  0  0  0  0  0  0  0
   45.5831   -0.3817   16.8859 C   0  0  0  0  0  0  0  0  0  0  0  0
   45.2550   -0.9766   15.5215 C   0  0  0  0  0  0  0  0  0  0  0  0
   46.5635   -1.0511   14.7202 C   0  0  0  0  0  0  0  0  0  0  0  0
   47.0288    0.2765   14.2915 N   0  0  0  0  0  0  0  0  0  0  0  0
  1  2  1  0  0  0  0
  2  3  1  0  0  0  0
  3  4  1  0  0  0  0
  4  5  1  0  0  0  0
  5  6  1  0  0  0  0
  6  7  1  0  0  0  0
  7  8  1  0  0  0  0
  8  9  1  0  0  0  0
  9 10  1  0  0  0  0
 10 11  1  0  0  0  0
 11 12  1  0  0  0  0
 12 13  1  0  0  0  0
 13 14  1  0  0  0  0
M  END
>  <CHROM.1>
59.46843563,-178.16291014,79.31143640,-149.93546077,175.60213707,177.56112853
172.84099012,-174.61594283,166.71138673,71.92882349,-71.92362986,45.48554237
3.70018072,18.02674880,2.07637353,-1.20550482,0.93970623

>  <Name>
ligand

>  <RI>
0

>  <Rbt.Current_Directory>
/home/itssahil/PROJECTS/Mol_Feturizer/New_Systems/rnas/1TN1

>  <Rbt.Executable>
rbdock ($Id: //depot/dev/client3/rdock/2013.1/src/exe/rbdock.cxx#4 $)

>  <Rbt.Library>
libRbt.so (2013.1, Build901 2013/11/27)

>  <Rbt.Parameter_File>
/export/apps/rDock/src/rDock_2013.1_src/data/scripts/dock_solv.prm

>  <Rbt.Receptor>
prm/pocket_docking_5.prm

>  <SCORE>
-8.45452

>  <SCORE.INTER>
-7.24619

>  <SCORE.INTER.CONST>
1

>  <SCORE.INTER.POLAR>
0

>  <SCORE.INTER.ROT>
11

>  <SCORE.INTER.SOLV>
14.6023

>  <SCORE.INTER.VDW>
-20.6316

>  <SCORE.INTER.norm>
-0.517585

>  <SCORE.INTRA>
-1.20833

>  <SCORE.INTRA.DIHEDRAL>
-5.40321

>  <SCORE.INTRA.DIHEDRAL.0>
7.79482

>  <SCORE.INTRA.POLAR>
0

>  <SCORE.INTRA.POLAR.0>
0

>  <SCORE.INTRA.REPUL>
0

>  <SCORE.INTRA.REPUL.0>
0

>  <SCORE.INTRA.SOLV>
3.53299

>  <SCORE.INTRA.SOLV.lig_0>
-49.456

>  <SCORE.INTRA.VDW>
-0.273225

>  <SCORE.INTRA.VDW.0>
-0.478406

>  <SCORE.INTRA.norm>
-0.0863095

>  <SCORE.RESTR>
0

>  <SCORE.RESTR.CAVITY>
0

>  <SCORE.RESTR.norm>
0

>  <SCORE.SYSTEM>
0

>  <SCORE.SYSTEM.CONST>
0

>  <SCORE.SYSTEM.DIHEDRAL>
0

>  <SCORE.SYSTEM.SOLV>
0

>  <SCORE.SYSTEM.norm>
0

>  <SCORE.heavy>
14

>  <SCORE.norm>
-0.603895

>  <RMSD>
3.374

$$$$
ligand
 OpenBabel11021811413D
libRbt.so/2013.1/901 2013/11/27
 14 13  0  0  0  0  0  0  0  0999 V2000
   45.7537   10.6451   18.5567 N   0  0  0  0  0  0  0  0  0  0  0  0
   45.0026    9.4374   18.9619 C   0  0  0  0  0  0  0  0  0  0  0  0
   45.9283    8.4075   19.6448 C   0  0  0  0  0  0  0  0  0  0  0  0
   45.2370    7.0949   20.0490 C   0  0  0  0  0  0  0  0  0  0  0  0
   46.2154    6.1302   20.6222 N   0  0  0  0  0  0  0  0  0  0  0  0
   45.6805    4.7468   20.5402 C   0  0  0  0  0  0  0  0  0  0  0  0
   46.0706    3.9457   19.2525 C   0  0  0  0  0  0  0  0  0  0  0  0
   45.2639    2.6303   19.0541 C   0  0  0  0  0  0  0  0  0  0  0  0
   45.7606    1.7704   17.9083 C   0  0  0  0  0  0  0  0  0  0  0  0
   44.8032    0.6974   17.7171 N   0  0  0  0  0  0  0  0  0  0  0  0
   45.4951   -0.3204   16.9457 C   0  0  0  0  0  0  0  0  0  0  0  0
   44.9630   -0.3968   15.5194 C   0  0  0  0  0  0  0  0  0  0  0  0
   45.6214   -1.6084   14.8421 C   0  0  0  0  0  0  0  0  0  0  0  0
   45.1672   -1.7837   13.4544 N   0  0  0  0  0  0  0  0  0  0  0  0
  1  2  1  0  0  0  0
  2  3  1  0  0  0  0
  3  4  1  0  0  0  0
  4  5  1  0  0  0  0
  5  6  1  0  0  0  0
  6  7  1  0  0  0  0
  7  8  1  0  0  0  0
  8  9  1  0  0  0  0
  9 10  1  0  0  0  0
 10 11  1  0  0  0  0
 11 12  1  0  0  0  0
 12 13  1  0  0  0  0
 13 14  1  0  0  0  0
M  END
>  <CHROM.1>
-177.70096305,176.53062409,-159.12164380,91.98081858,-167.83042308,-172.66005541
-171.51739755,-162.02078529,-108.93836502,-172.89267318,179.52961491,45.49732160
3.67106734,18.07651064,1.21415379,-1.47487081,0.05812959

>  <Name>
ligand

>  <RI>
0

>  <Rbt.Current_Directory>
/home/itssahil/PROJECTS/Mol_Feturizer/New_Systems/rnas/1TN1

>  <Rbt.Executable>
rbdock ($Id: //depot/dev/client3/rdock/2013.1/src/exe/rbdock.cxx#4 $)

>  <Rbt.Library>
libRbt.so (2013.1, Build901 2013/11/27)

>  <Rbt.Parameter_File>
/export/apps/rDock/src/rDock_2013.1_src/data/scripts/dock_solv.prm

>  <Rbt.Receptor>
prm/pocket_docking_4.prm

>  <SCORE>
-10.0602

>  <SCORE.INTER>
-7.36914

>  <SCORE.INTER.CONST>
1

>  <SCORE.INTER.POLAR>
0

>  <SCORE.INTER.ROT>
11

>  <SCORE.INTER.SOLV>
12.738

>  <SCORE.INTER.VDW>
-20.0921

>  <SCORE.INTER.norm>
-0.526367

>  <SCORE.INTRA>
-2.6911

>  <SCORE.INTRA.DIHEDRAL>
-4.1718

>  <SCORE.INTRA.DIHEDRAL.0>
7.79482

>  <SCORE.INTRA.POLAR>
0

>  <SCORE.INTRA.POLAR.0>
0

>  <SCORE.INTRA.REPUL>
0

>  <SCORE.INTRA.REPUL.0>
0

>  <SCORE.INTRA.SOLV>
-0.050824

>  <SCORE.INTRA.SOLV.lig_0>
-49.456

>  <SCORE.INTRA.VDW>
-0.579785

>  <SCORE.INTRA.VDW.0>
-0.478406

>  <SCORE.INTRA.norm>
-0.192221

>  <SCORE.RESTR>
0

>  <SCORE.RESTR.CAVITY>
0

>  <SCORE.RESTR.norm>
0

>  <SCORE.SYSTEM>
0

>  <SCORE.SYSTEM.CONST>
0

>  <SCORE.SYSTEM.DIHEDRAL>
0

>  <SCORE.SYSTEM.SOLV>
0

>  <SCORE.SYSTEM.norm>
0

>  <SCORE.heavy>
14

>  <SCORE.norm>
-0.718588

>  <RMSD>
3.388

$$$$
ligand
 OpenBabel11021811413D
libRbt.so/2013.1/901 2013/11/27
 14 13  0  0  0  0  0  0  0  0999 V2000
   45.8676    9.8532   18.6272 N   0  0  0  0  0  0  0  0  0  0  0  0
   44.5223    9.2477   18.7310 C   0  0  0  0  0  0  0  0  0  0  0  0
   44.4389    8.2750   19.9272 C   0  0  0  0  0  0  0  0  0  0  0  0
   43.0721    7.5934   20.1036 C   0  0  0  0  0  0  0  0  0  0  0  0
   43.0357    6.7841   21.3526 N   0  0  0  0  0  0  0  0  0  0  0  0
   43.2443    5.3471   21.0395 C   0  0  0  0  0  0  0  0  0  0  0  0
   44.5888    4.7307   21.5539 C   0  0  0  0  0  0  0  0  0  0  0  0
   45.8561    5.2911   20.8466 C   0  0  0  0  0  0  0  0  0  0  0  0
   45.9535    4.9262   19.3781 C   0  0  0  0  0  0  0  0  0  0  0  0
   46.2710    3.5131   19.2967 N   0  0  0  0  0  0  0  0  0  0  0  0
   45.0146    2.8380   19.0223 C   0  0  0  0  0  0  0  0  0  0  0  0
   45.2417    1.4870   18.3540 C   0  0  0  0  0  0  0  0  0  0  0  0
   45.7131    1.7531   16.9163 C   0  0  0  0  0  0  0  0  0  0  0  0
   45.7372    0.5276   16.1038 N   0  0  0  0  0  0  0  0  0  0  0  0
  1  2  1  0  0  0  0
  2  3  1  0  0  0  0
  3  4  1  0  0  0  0
  4  5  1  0  0  0  0
  5  6  1  0  0  0  0
  6  7  1  0  0  0  0
  7  8  1  0  0  0  0
  8  9  1  0  0  0  0
  9 10  1  0  0  0  0
 10 11  1  0  0  0  0
 11 12  1  0  0  0  0
 12 13  1  0  0  0  0
 13 14  1  0  0  0  0
M  END
>  <CHROM.1>
-179.67223759,-174.22787465,-100.24483610,112.16449444,-67.52928522,-66.40298436
-71.93802839,99.81411674,156.43062553,-71.60804838,-169.96419033,44.89678507
5.15480666,19.37542045,-1.97400880,-1.09186860,3.10537694

>  <Name>
ligand

>  <RI>
0

>  <Rbt.Current_Directory>
/home/itssahil/PROJECTS/Mol_Feturizer/New_Systems/rnas/1TN1

>  <Rbt.Executable>
rbdock ($Id: //depot/dev/client3/rdock/2013.1/src/exe/rbdock.cxx#4 $)

>  <Rbt.Library>
libRbt.so (2013.1, Build901 2013/11/27)

>  <Rbt.Parameter_File>
/export/apps/rDock/src/rDock_2013.1_src/data/scripts/dock_solv.prm

>  <Rbt.Receptor>
prm/blind_docking_80.prm

>  <SCORE>
-9.84243

>  <SCORE.INTER>
-8.80682

>  <SCORE.INTER.CONST>
1

>  <SCORE.INTER.POLAR>
0

>  <SCORE.INTER.ROT>
11

>  <SCORE.INTER.SOLV>
14.3365

>  <SCORE.INTER.VDW>
-21.5834

>  <SCORE.INTER.norm>
-0.629059

>  <SCORE.INTRA>
-1.03561

>  <SCORE.INTRA.DIHEDRAL>
-2.54518

>  <SCORE.INTRA.DIHEDRAL.0>
7.79482

>  <SCORE.INTRA.POLAR>
0

>  <SCORE.INTRA.POLAR.0>
0

>  <SCORE.INTRA.REPUL>
0

>  <SCORE.INTRA.REPUL.0>
0

>  <SCORE.INTRA.SOLV>
1.33299

>  <SCORE.INTRA.SOLV.lig_0>
-49.456

>  <SCORE.INTRA.VDW>
-0.429513

>  <SCORE.INTRA.VDW.0>
-0.478406

>  <SCORE.INTRA.norm>
-0.073972

>  <SCORE.RESTR>
0

>  <SCORE.RESTR.CAVITY>
0

>  <SCORE.RESTR.norm>
0

>  <SCORE.SYSTEM>
0

>  <SCORE.SYSTEM.CONST>
0

>  <SCORE.SYSTEM.DIHEDRAL>
0

>  <SCORE.SYSTEM.SOLV>
0

>  <SCORE.SYSTEM.norm>
0

>  <SCORE.heavy>
14

>  <SCORE.norm>
-0.703031

>  <RMSD>
3.392

$$$$
ligand
 OpenBabel11021811413D
libRbt.so/2013.1/901 2013/11/27
 14 13  0  0  0  0  0  0  0  0999 V2000
   45.8381    1.9084   16.7957 N   0  0  0  0  0  0  0  0  0  0  0  0
   45.7966    1.3159   18.1501 C   0  0  0  0  0  0  0  0  0  0  0  0
   44.9692    2.1906   19.1167 C   0  0  0  0  0  0  0  0  0  0  0  0
   45.5435    3.5963   19.3583 C   0  0  0  0  0  0  0  0  0  0  0  0
   44.7198    4.3478   20.3448 N   0  0  0  0  0  0  0  0  0  0  0  0
   45.3323    5.6724   20.6220 C   0  0  0  0  0  0  0  0  0  0  0  0
   44.3381    6.7986   21.0639 C   0  0  0  0  0  0  0  0  0  0  0  0
   43.2693    7.1586   19.9923 C   0  0  0  0  0  0  0  0  0  0  0  0
   42.2555    8.1866   20.4551 C   0  0  0  0  0  0  0  0  0  0  0  0
   41.4081    8.5089   19.3227 N   0  0  0  0  0  0  0  0  0  0  0  0
   41.2378    9.9511   19.3507 C   0  0  0  0  0  0  0  0  0  0  0  0
   42.1594   10.6410   18.3518 C   0  0  0  0  0  0  0  0  0  0  0  0
   41.9851   12.1570   18.5289 C   0  0  0  0  0  0  0  0  0  0  0  0
   42.8384   12.9254   17.6101 N   0  0  0  0  0  0  0  0  0  0  0  0
  1  2  1  0  0  0  0
  2  3  1  0  0  0  0
  3  4  1  0  0  0  0
  4  5  1  0  0  0  0
  5  6  1  0  0  0  0
  6  7  1  0  0  0  0
  7  8  1  0  0  0  0
  8  9  1  0  0  0  0
  9 10  1  0  0  0  0
 10 11  1  0  0  0  0
 11 12  1  0  0  0  0
 12 13  1  0  0  0  0
 13 14  1  0  0  0  0
M  END
>  <CHROM.1>
-63.13079389,-177.50913682,176.83009818,152.69985159,-62.36133650,176.36423650
174.88503390,-137.38625105,100.21451125,-175.80701366,179.79487339,43.69222447
6.81127739,19.21907288,-0.35588893,1.16190576,-1.18750285

>  <Name>
ligand

>  <RI>
0

>  <Rbt.Current_Directory>
/home/itssahil/PROJECTS/Mol_Feturizer/New_Systems/rnas/1TN1

>  <Rbt.Executable>
rbdock ($Id: //depot/dev/client3/rdock/2013.1/src/exe/rbdock.cxx#4 $)

>  <Rbt.Library>
libRbt.so (2013.1, Build901 2013/11/27)

>  <Rbt.Parameter_File>
/export/apps/rDock/src/rDock_2013.1_src/data/scripts/dock_solv.prm

>  <Rbt.Receptor>
prm/pocket_docking_6.prm

>  <SCORE>
-13.672

>  <SCORE.INTER>
-10.9756

>  <SCORE.INTER.CONST>
1

>  <SCORE.INTER.POLAR>
0

>  <SCORE.INTER.ROT>
11

>  <SCORE.INTER.SOLV>
14.179

>  <SCORE.INTER.VDW>
-22.9767

>  <SCORE.INTER.norm>
-0.783968

>  <SCORE.INTRA>
-2.69647

>  <SCORE.INTRA.DIHEDRAL>
-5.09562

>  <SCORE.INTRA.DIHEDRAL.0>
7.79482

>  <SCORE.INTRA.POLAR>
0

>  <SCORE.INTRA.POLAR.0>
0

>  <SCORE.INTRA.REPUL>
0

>  <SCORE.INTRA.REPUL.0>
0

>  <SCORE.INTRA.SOLV>
0.980736

>  <SCORE.INTRA.SOLV.lig_0>
-49.456

>  <SCORE.INTRA.VDW>
-0.639028

>  <SCORE.INTRA.VDW.0>
-0.478406

>  <SCORE.INTRA.norm>
-0.192605

>  <SCORE.RESTR>
0

>  <SCORE.RESTR.CAVITY>
0

>  <SCORE.RESTR.norm>
0

>  <SCORE.SYSTEM>
0

>  <SCORE.SYSTEM.CONST>
0

>  <SCORE.SYSTEM.DIHEDRAL>
0

>  <SCORE.SYSTEM.SOLV>
0

>  <SCORE.SYSTEM.norm>
0

>  <SCORE.heavy>
14

>  <SCORE.norm>
-0.976573

>  <RMSD>
3.394

$$$$
ligand
 OpenBabel11021811413D
libRbt.so/2013.1/901 2013/11/27
 14 13  0  0  0  0  0  0  0  0999 V2000
   45.4878   10.5964   18.5786 N   0  0  0  0  0  0  0  0  0  0  0  0
   46.3825    9.4499   18.8470 C   0  0  0  0  0  0  0  0  0  0  0  0
   45.7050    8.4188   19.7754 C   0  0  0  0  0  0  0  0  0  0  0  0
   46.5043    7.1218   19.9824 C   0  0  0  0  0  0  0  0  0  0  0  0
   45.7414    6.1508   20.8139 N   0  0  0  0  0  0  0  0  0  0  0  0
   46.1361    4.7602   20.4714 C   0  0  0  0  0  0  0  0  0  0  0  0
   45.4571    4.1590   19.1948 C   0  0  0  0  0  0  0  0  0  0  0  0
   45.9161    2.7123   18.8529 C   0  0  0  0  0  0  0  0  0  0  0  0
   45.2042    2.1066   17.6591 C   0  0  0  0  0  0  0  0  0  0  0  0
   45.7217    0.7642   17.4736 N   0  0  0  0  0  0  0  0  0  0  0  0
   44.9008    0.1607   16.4383 C   0  0  0  0  0  0  0  0  0  0  0  0
   45.6683   -0.9098   15.6713 C   0  0  0  0  0  0  0  0  0  0  0  0
   44.7931   -1.3514   14.4886 C   0  0  0  0  0  0  0  0  0  0  0  0
   45.4903   -2.2976   13.6046 N   0  0  0  0  0  0  0  0  0  0  0  0
  1  2  1  0  0  0  0
  2  3  1  0  0  0  0
  3  4  1  0  0  0  0
  4  5  1  0  0  0  0
  5  6  1  0  0  0  0
  6  7  1  0  0  0  0
  7  8  1  0  0  0  0
  8  9  1  0  0  0  0
  9 10  1  0  0  0  0
 10 11  1  0  0  0  0
 11 12  1  0  0  0  0
 12 13  1  0  0  0  0
 13 14  1  0  0  0  0
M  END
>  <CHROM.1>
173.59788601,-176.23807686,151.91211554,-81.02190384,178.87185786,176.98802663
-179.36718678,172.89850408,152.46552488,-172.50863868,174.70682383,45.65062459
3.70294406,17.98957286,0.95594419,-1.46017865,-0.18205848

>  <Name>
ligand

>  <RI>
0

>  <Rbt.Current_Directory>
/home/itssahil/PROJECTS/Mol_Feturizer/New_Systems/rnas/1TN1

>  <Rbt.Executable>
rbdock ($Id: //depot/dev/client3/rdock/2013.1/src/exe/rbdock.cxx#4 $)

>  <Rbt.Library>
libRbt.so (2013.1, Build901 2013/11/27)

>  <Rbt.Parameter_File>
/export/apps/rDock/src/rDock_2013.1_src/data/scripts/dock_solv.prm

>  <Rbt.Receptor>
prm/pocket_docking_4.prm

>  <SCORE>
-9.99091

>  <SCORE.INTER>
-6.4525

>  <SCORE.INTER.CONST>
1

>  <SCORE.INTER.POLAR>
0

>  <SCORE.INTER.ROT>
11

>  <SCORE.INTER.SOLV>
12.3353

>  <SCORE.INTER.VDW>
-19.3468

>  <SCORE.INTER.norm>
-0.460893

>  <SCORE.INTRA>
-3.53841

>  <SCORE.INTRA.DIHEDRAL>
-5.79658

>  <SCORE.INTRA.DIHEDRAL.0>
7.79482

>  <SCORE.INTRA.POLAR>
0

>  <SCORE.INTRA.POLAR.0>
0

>  <SCORE.INTRA.REPUL>
0

>  <SCORE.INTRA.REPUL.0>
0

>  <SCORE.INTRA.SOLV>
-0.0553475

>  <SCORE.INTRA.SOLV.lig_0>
-49.456

>  <SCORE.INTRA.VDW>
-0.612444

>  <SCORE.INTRA.VDW.0>
-0.478406

>  <SCORE.INTRA.norm>
-0.252743

>  <SCORE.RESTR>
0

>  <SCORE.RESTR.CAVITY>
0

>  <SCORE.RESTR.norm>
0

>  <SCORE.SYSTEM>
0

>  <SCORE.SYSTEM.CONST>
0

>  <SCORE.SYSTEM.DIHEDRAL>
0

>  <SCORE.SYSTEM.SOLV>
0

>  <SCORE.SYSTEM.norm>
0

>  <SCORE.heavy>
14

>  <SCORE.norm>
-0.713636

>  <RMSD>
3.400

$$$$
ligand
 OpenBabel11021811413D
libRbt.so/2013.1/901 2013/11/27
 14 13  0  0  0  0  0  0  0  0999 V2000
   45.2462   -1.6748   14.5309 N   0  0  0  0  0  0  0  0  0  0  0  0
   45.7389   -1.2273   15.8516 C   0  0  0  0  0  0  0  0  0  0  0  0
   45.0601    0.0906   16.2832 C   0  0  0  0  0  0  0  0  0  0  0  0
   45.5926    0.6840   17.5978 C   0  0  0  0  0  0  0  0  0  0  0  0
   44.8577    1.9273   17.9593 N   0  0  0  0  0  0  0  0  0  0  0  0
   44.3575    1.8404   19.3554 C   0  0  0  0  0  0  0  0  0  0  0  0
   44.0048    3.2068   20.0341 C   0  0  0  0  0  0  0  0  0  0  0  0
   45.1934    4.2085   20.1003 C   0  0  0  0  0  0  0  0  0  0  0  0
   44.8772    5.4905   20.8456 C   0  0  0  0  0  0  0  0  0  0  0  0
   46.0557    6.3343   20.7880 N   0  0  0  0  0  0  0  0  0  0  0  0
   45.6788    7.4908   19.9941 C   0  0  0  0  0  0  0  0  0  0  0  0
   46.5827    8.6837   20.2824 C   0  0  0  0  0  0  0  0  0  0  0  0
   46.0929    9.8570   19.4202 C   0  0  0  0  0  0  0  0  0  0  0  0
   46.3483    9.6388   17.9884 N   0  0  0  0  0  0  0  0  0  0  0  0
  1  2  1  0  0  0  0
  2  3  1  0  0  0  0
  3  4  1  0  0  0  0
  4  5  1  0  0  0  0
  5  6  1  0  0  0  0
  6  7  1  0  0  0  0
  7  8  1  0  0  0  0
  8  9  1  0  0  0  0
  9 10  1  0  0  0  0
 10 11  1  0  0  0  0
 11 12  1  0  0  0  0
 12 13  1  0  0  0  0
 13 14  1  0  0  0  0
M  END
>  <CHROM.1>
-175.58545186,-178.29488051,128.08929065,160.10979044,-58.40592274,-175.84618304
-178.24192402,114.19489272,157.90710369,-178.99850597,-69.33237915,45.40611736
4.03931103,18.64542747,-1.81618125,1.20880268,0.60362594

>  <Name>
ligand

>  <RI>
0

>  <Rbt.Current_Directory>
/home/itssahil/PROJECTS/Mol_Feturizer/New_Systems/rnas/1TN1

>  <Rbt.Executable>
rbdock ($Id: //depot/dev/client3/rdock/2013.1/src/exe/rbdock.cxx#4 $)

>  <Rbt.Library>
libRbt.so (2013.1, Build901 2013/11/27)

>  <Rbt.Parameter_File>
/export/apps/rDock/src/rDock_2013.1_src/data/scripts/dock_solv.prm

>  <Rbt.Receptor>
prm/blind_docking_80.prm

>  <SCORE>
-8.77062

>  <SCORE.INTER>
-6.55774

>  <SCORE.INTER.CONST>
1

>  <SCORE.INTER.POLAR>
0

>  <SCORE.INTER.ROT>
11

>  <SCORE.INTER.SOLV>
13.816

>  <SCORE.INTER.VDW>
-19.9105

>  <SCORE.INTER.norm>
-0.46841

>  <SCORE.INTRA>
-2.21288

>  <SCORE.INTRA.DIHEDRAL>
-4.31512

>  <SCORE.INTRA.DIHEDRAL.0>
7.79482

>  <SCORE.INTRA.POLAR>
0

>  <SCORE.INTRA.POLAR.0>
0

>  <SCORE.INTRA.REPUL>
0

>  <SCORE.INTRA.REPUL.0>
0

>  <SCORE.INTRA.SOLV>
1.03542

>  <SCORE.INTRA.SOLV.lig_0>
-49.456

>  <SCORE.INTRA.VDW>
-0.57303

>  <SCORE.INTRA.VDW.0>
-0.478406

>  <SCORE.INTRA.norm>
-0.158063

>  <SCORE.RESTR>
0

>  <SCORE.RESTR.CAVITY>
0

>  <SCORE.RESTR.norm>
0

>  <SCORE.SYSTEM>
0

>  <SCORE.SYSTEM.CONST>
0

>  <SCORE.SYSTEM.DIHEDRAL>
0

>  <SCORE.SYSTEM.SOLV>
0

>  <SCORE.SYSTEM.norm>
0

>  <SCORE.heavy>
14

>  <SCORE.norm>
-0.626473

>  <RMSD>
3.401

$$$$
ligand
 OpenBabel11021811413D
libRbt.so/2013.1/901 2013/11/27
 14 13  0  0  0  0  0  0  0  0999 V2000
   48.3478    9.3288   16.7688 N   0  0  0  0  0  0  0  0  0  0  0  0
   47.4716    9.4400   17.9550 C   0  0  0  0  0  0  0  0  0  0  0  0
   47.2104    8.0559   18.5876 C   0  0  0  0  0  0  0  0  0  0  0  0
   46.2524    8.0724   19.7900 C   0  0  0  0  0  0  0  0  0  0  0  0
   46.0486    6.7000   20.3297 N   0  0  0  0  0  0  0  0  0  0  0  0
   44.7329    6.6073   21.0133 C   0  0  0  0  0  0  0  0  0  0  0  0
   44.3176    5.1748   21.4903 C   0  0  0  0  0  0  0  0  0  0  0  0
   44.1027    4.1575   20.3331 C   0  0  0  0  0  0  0  0  0  0  0  0
   45.3542    3.8683   19.5274 C   0  0  0  0  0  0  0  0  0  0  0  0
   44.9766    3.0064   18.4234 N   0  0  0  0  0  0  0  0  0  0  0  0
   45.2982    1.6544   18.8459 C   0  0  0  0  0  0  0  0  0  0  0  0
   45.8682    0.8316   17.6964 C   0  0  0  0  0  0  0  0  0  0  0  0
   44.7509    0.6470   16.6583 C   0  0  0  0  0  0  0  0  0  0  0  0
   45.2047   -0.1107   15.4825 N   0  0  0  0  0  0  0  0  0  0  0  0
  1  2  1  0  0  0  0
  2  3  1  0  0  0  0
  3  4  1  0  0  0  0
  4  5  1  0  0  0  0
  5  6  1  0  0  0  0
  6  7  1  0  0  0  0
  7  8  1  0  0  0  0
  8  9  1  0  0  0  0
  9 10  1  0  0  0  0
 10 11  1  0  0  0  0
 11 12  1  0  0  0  0
 12 13  1  0  0  0  0
 13 14  1  0  0  0  0
M  END
>  <CHROM.1>
-177.23959026,179.54429298,-153.96927492,173.45298904,-64.41295827,63.51790745
-174.99718639,-97.69457485,-141.15925718,-66.30776188,178.59525173,45.70959810
4.81672950,18.77911323,-1.12282020,-1.00836656,-2.55750660

>  <Name>
ligand

>  <RI>
0

>  <Rbt.Current_Directory>
/home/itssahil/PROJECTS/Mol_Feturizer/New_Systems/rnas/1TN1

>  <Rbt.Executable>
rbdock ($Id: //depot/dev/client3/rdock/2013.1/src/exe/rbdock.cxx#4 $)

>  <Rbt.Library>
libRbt.so (2013.1, Build901 2013/11/27)

>  <Rbt.Parameter_File>
/export/apps/rDock/src/rDock_2013.1_src/data/scripts/dock_solv.prm

>  <Rbt.Receptor>
prm/pocket_docking_5.prm

>  <SCORE>
-8.65155

>  <SCORE.INTER>
-6.78147

>  <SCORE.INTER.CONST>
1

>  <SCORE.INTER.POLAR>
0

>  <SCORE.INTER.ROT>
11

>  <SCORE.INTER.SOLV>
11.6312

>  <SCORE.INTER.VDW>
-19.3314

>  <SCORE.INTER.norm>
-0.484391

>  <SCORE.INTRA>
-1.87008

>  <SCORE.INTRA.DIHEDRAL>
-5.17508

>  <SCORE.INTRA.DIHEDRAL.0>
7.79482

>  <SCORE.INTRA.POLAR>
0

>  <SCORE.INTRA.POLAR.0>
0

>  <SCORE.INTRA.REPUL>
0

>  <SCORE.INTRA.REPUL.0>
0

>  <SCORE.INTRA.SOLV>
1.43603

>  <SCORE.INTRA.SOLV.lig_0>
-49.456

>  <SCORE.INTRA.VDW>
-0.000557877

>  <SCORE.INTRA.VDW.0>
-0.478406

>  <SCORE.INTRA.norm>
-0.133577

>  <SCORE.RESTR>
0

>  <SCORE.RESTR.CAVITY>
0

>  <SCORE.RESTR.norm>
0

>  <SCORE.SYSTEM>
0

>  <SCORE.SYSTEM.CONST>
0

>  <SCORE.SYSTEM.DIHEDRAL>
0

>  <SCORE.SYSTEM.SOLV>
0

>  <SCORE.SYSTEM.norm>
0

>  <SCORE.heavy>
14

>  <SCORE.norm>
-0.617968

>  <RMSD>
3.401

$$$$
ligand
 OpenBabel11021811413D
libRbt.so/2013.1/901 2013/11/27
 14 13  0  0  0  0  0  0  0  0999 V2000
   47.8381    9.5098   16.8912 N   0  0  0  0  0  0  0  0  0  0  0  0
   47.6940    8.5052   17.9668 C   0  0  0  0  0  0  0  0  0  0  0  0
   46.7449    9.0078   19.0762 C   0  0  0  0  0  0  0  0  0  0  0  0
   46.5189    8.0110   20.2249 C   0  0  0  0  0  0  0  0  0  0  0  0
   45.8298    6.7838   19.7396 N   0  0  0  0  0  0  0  0  0  0  0  0
   45.8704    5.7260   20.7819 C   0  0  0  0  0  0  0  0  0  0  0  0
   45.0814    4.4155   20.4471 C   0  0  0  0  0  0  0  0  0  0  0  0
   45.6191    3.6505   19.2037 C   0  0  0  0  0  0  0  0  0  0  0  0
   44.9079    2.3392   18.9327 C   0  0  0  0  0  0  0  0  0  0  0  0
   45.4272    1.8068   17.6873 N   0  0  0  0  0  0  0  0  0  0  0  0
   44.5383    0.7191   17.3180 C   0  0  0  0  0  0  0  0  0  0  0  0
   44.4476    0.5624   15.8045 C   0  0  0  0  0  0  0  0  0  0  0  0
   45.7678   -0.0570   15.3214 C   0  0  0  0  0  0  0  0  0  0  0  0
   45.7293   -0.4023   13.8924 N   0  0  0  0  0  0  0  0  0  0  0  0
  1  2  1  0  0  0  0
  2  3  1  0  0  0  0
  3  4  1  0  0  0  0
  4  5  1  0  0  0  0
  5  6  1  0  0  0  0
  6  7  1  0  0  0  0
  7  8  1  0  0  0  0
  8  9  1  0  0  0  0
  9 10  1  0  0  0  0
 10 11  1  0  0  0  0
 11 12  1  0  0  0  0
 12 13  1  0  0  0  0
 13 14  1  0  0  0  0
M  END
>  <CHROM.1>
178.96003730,-64.34858173,168.30752946,175.34010957,62.69936367,176.44291295
174.83522624,-168.20919552,149.17956291,73.31240575,173.15520570,45.85805016
4.32694569,18.09240649,-1.08282815,-1.14038333,-2.31535304

>  <Name>
ligand

>  <RI>
0

>  <Rbt.Current_Directory>
/home/itssahil/PROJECTS/Mol_Feturizer/New_Systems/rnas/1TN1

>  <Rbt.Executable>
rbdock ($Id: //depot/dev/client3/rdock/2013.1/src/exe/rbdock.cxx#4 $)

>  <Rbt.Library>
libRbt.so (2013.1, Build901 2013/11/27)

>  <Rbt.Parameter_File>
/export/apps/rDock/src/rDock_2013.1_src/data/scripts/dock_solv.prm

>  <Rbt.Receptor>
prm/pocket_docking_6.prm

>  <SCORE>
-10.2859

>  <SCORE.INTER>
-6.96781

>  <SCORE.INTER.CONST>
1

>  <SCORE.INTER.POLAR>
0

>  <SCORE.INTER.ROT>
11

>  <SCORE.INTER.SOLV>
8.25777

>  <SCORE.INTER.VDW>
-18.3311

>  <SCORE.INTER.norm>
-0.497701

>  <SCORE.INTRA>
-3.31805

>  <SCORE.INTRA.DIHEDRAL>
-5.85634

>  <SCORE.INTRA.DIHEDRAL.0>
7.79482

>  <SCORE.INTRA.POLAR>
0

>  <SCORE.INTRA.POLAR.0>
0

>  <SCORE.INTRA.REPUL>
0

>  <SCORE.INTRA.REPUL.0>
0

>  <SCORE.INTRA.SOLV>
0.871082

>  <SCORE.INTRA.SOLV.lig_0>
-49.456

>  <SCORE.INTRA.VDW>
-0.825419

>  <SCORE.INTRA.VDW.0>
-0.478406

>  <SCORE.INTRA.norm>
-0.237003

>  <SCORE.RESTR>
0

>  <SCORE.RESTR.CAVITY>
0

>  <SCORE.RESTR.norm>
0

>  <SCORE.SYSTEM>
0

>  <SCORE.SYSTEM.CONST>
0

>  <SCORE.SYSTEM.DIHEDRAL>
0

>  <SCORE.SYSTEM.SOLV>
0

>  <SCORE.SYSTEM.norm>
0

>  <SCORE.heavy>
14

>  <SCORE.norm>
-0.734704

>  <RMSD>
3.402

$$$$
ligand
 OpenBabel11021811413D
libRbt.so/2013.1/901 2013/11/27
 14 13  0  0  0  0  0  0  0  0999 V2000
   46.2445    9.3129   18.3204 N   0  0  0  0  0  0  0  0  0  0  0  0
   46.8782    8.0739   18.8210 C   0  0  0  0  0  0  0  0  0  0  0  0
   46.5420    7.8372   20.3093 C   0  0  0  0  0  0  0  0  0  0  0  0
   45.0462    7.6370   20.6033 C   0  0  0  0  0  0  0  0  0  0  0  0
   44.5503    6.3653   20.0090 N   0  0  0  0  0  0  0  0  0  0  0  0
   45.0158    5.2066   20.8136 C   0  0  0  0  0  0  0  0  0  0  0  0
   46.2473    4.4318   20.2347 C   0  0  0  0  0  0  0  0  0  0  0  0
   45.9665    3.7100   18.8854 C   0  0  0  0  0  0  0  0  0  0  0  0
   44.9651    2.5764   18.9905 C   0  0  0  0  0  0  0  0  0  0  0  0
   44.8791    1.9439   17.6879 N   0  0  0  0  0  0  0  0  0  0  0  0
   45.7215    0.7630   17.7623 C   0  0  0  0  0  0  0  0  0  0  0  0
   45.4128   -0.2143   16.6341 C   0  0  0  0  0  0  0  0  0  0  0  0
   45.7727    0.4760   15.3098 C   0  0  0  0  0  0  0  0  0  0  0  0
   45.5529   -0.3998   14.1491 N   0  0  0  0  0  0  0  0  0  0  0  0
  1  2  1  0  0  0  0
  2  3  1  0  0  0  0
  3  4  1  0  0  0  0
  4  5  1  0  0  0  0
  5  6  1  0  0  0  0
  6  7  1  0  0  0  0
  7  8  1  0  0  0  0
  8  9  1  0  0  0  0
  9 10  1  0  0  0  0
 10 11  1  0  0  0  0
 11 12  1  0  0  0  0
 12 13  1  0  0  0  0
 13 14  1  0  0  0  0
M  END
>  <CHROM.1>
62.35203879,67.06631489,75.19577985,-100.82614391,-65.53632172,-65.89035964
-175.99161582,99.12863049,163.01218212,64.32423720,178.16939900,45.62832982
4.12277579,18.46683881,-1.40747204,-1.27288984,-2.51835714

>  <Name>
ligand

>  <RI>
0

>  <Rbt.Current_Directory>
/home/itssahil/PROJECTS/Mol_Feturizer/New_Systems/rnas/1TN1

>  <Rbt.Executable>
rbdock ($Id: //depot/dev/client3/rdock/2013.1/src/exe/rbdock.cxx#4 $)

>  <Rbt.Library>
libRbt.so (2013.1, Build901 2013/11/27)

>  <Rbt.Parameter_File>
/export/apps/rDock/src/rDock_2013.1_src/data/scripts/dock_solv.prm

>  <Rbt.Receptor>
prm/blind_docking_100.prm

>  <SCORE>
-8.91837

>  <SCORE.INTER>
-8.14447

>  <SCORE.INTER.CONST>
1

>  <SCORE.INTER.POLAR>
0

>  <SCORE.INTER.ROT>
11

>  <SCORE.INTER.SOLV>
10.3091

>  <SCORE.INTER.VDW>
-19.7993

>  <SCORE.INTER.norm>
-0.581748

>  <SCORE.INTRA>
-0.773895

>  <SCORE.INTRA.DIHEDRAL>
-4.98353

>  <SCORE.INTRA.DIHEDRAL.0>
7.79482

>  <SCORE.INTRA.POLAR>
0

>  <SCORE.INTRA.POLAR.0>
0

>  <SCORE.INTRA.REPUL>
0

>  <SCORE.INTRA.REPUL.0>
0

>  <SCORE.INTRA.SOLV>
2.59684

>  <SCORE.INTRA.SOLV.lig_0>
-49.456

>  <SCORE.INTRA.VDW>
0.419454

>  <SCORE.INTRA.VDW.0>
-0.478406

>  <SCORE.INTRA.norm>
-0.0552782

>  <SCORE.RESTR>
0

>  <SCORE.RESTR.CAVITY>
0

>  <SCORE.RESTR.norm>
0

>  <SCORE.SYSTEM>
0

>  <SCORE.SYSTEM.CONST>
0

>  <SCORE.SYSTEM.DIHEDRAL>
0

>  <SCORE.SYSTEM.SOLV>
0

>  <SCORE.SYSTEM.norm>
0

>  <SCORE.heavy>
14

>  <SCORE.norm>
-0.637026

>  <RMSD>
3.404

$$$$
ligand
 OpenBabel11021811413D
libRbt.so/2013.1/901 2013/11/27
 14 13  0  0  0  0  0  0  0  0999 V2000
   45.1161   -1.4988   15.0203 N   0  0  0  0  0  0  0  0  0  0  0  0
   45.7251   -0.9093   16.2321 C   0  0  0  0  0  0  0  0  0  0  0  0
   44.8822    0.2705   16.7628 C   0  0  0  0  0  0  0  0  0  0  0  0
   45.5424    1.0686   17.8990 C   0  0  0  0  0  0  0  0  0  0  0  0
   44.6006    2.0744   18.4629 N   0  0  0  0  0  0  0  0  0  0  0  0
   45.3554    3.2006   19.0702 C   0  0  0  0  0  0  0  0  0  0  0  0
   44.6003    3.9968   20.1873 C   0  0  0  0  0  0  0  0  0  0  0  0
   45.3811    5.2297   20.7266 C   0  0  0  0  0  0  0  0  0  0  0  0
   45.5273    6.3541   19.7200 C   0  0  0  0  0  0  0  0  0  0  0  0
   46.3525    7.3818   20.3259 N   0  0  0  0  0  0  0  0  0  0  0  0
   46.0994    8.5942   19.5672 C   0  0  0  0  0  0  0  0  0  0  0  0
   47.3216    9.0106   18.7572 C   0  0  0  0  0  0  0  0  0  0  0  0
   47.6120    7.8915   17.7457 C   0  0  0  0  0  0  0  0  0  0  0  0
   48.8165    8.1634   16.9470 N   0  0  0  0  0  0  0  0  0  0  0  0
  1  2  1  0  0  0  0
  2  3  1  0  0  0  0
  3  4  1  0  0  0  0
  4  5  1  0  0  0  0
  5  6  1  0  0  0  0
  6  7  1  0  0  0  0
  7  8  1  0  0  0  0
  8  9  1  0  0  0  0
  9 10  1  0  0  0  0
 10 11  1  0  0  0  0
 11 12  1  0  0  0  0
 12 13  1  0  0  0  0
 13 14  1  0  0  0  0
M  END
>  <CHROM.1>
-171.70411329,-172.97993862,-154.38658415,-155.39786533,-175.81077042,68.28168933
-175.90231337,-160.88527604,-111.45642649,62.63213228,-177.39870409,45.92363003
4.34500292,18.38772770,-1.92287112,0.94067981,0.56927764

>  <Name>
ligand

>  <RI>
0

>  <Rbt.Current_Directory>
/home/itssahil/PROJECTS/Mol_Feturizer/New_Systems/rnas/1TN1

>  <Rbt.Executable>
rbdock ($Id: //depot/dev/client3/rdock/2013.1/src/exe/rbdock.cxx#4 $)

>  <Rbt.Library>
libRbt.so (2013.1, Build901 2013/11/27)

>  <Rbt.Parameter_File>
/export/apps/rDock/src/rDock_2013.1_src/data/scripts/dock_solv.prm

>  <Rbt.Receptor>
prm/pocket_docking_4.prm

>  <SCORE>
-9.37382

>  <SCORE.INTER>
-7.27469

>  <SCORE.INTER.CONST>
1

>  <SCORE.INTER.POLAR>
0

>  <SCORE.INTER.ROT>
11

>  <SCORE.INTER.SOLV>
13.2568

>  <SCORE.INTER.VDW>
-20.2021

>  <SCORE.INTER.norm>
-0.519621

>  <SCORE.INTRA>
-2.09913

>  <SCORE.INTRA.DIHEDRAL>
-4.57652

>  <SCORE.INTRA.DIHEDRAL.0>
7.79482

>  <SCORE.INTRA.POLAR>
0

>  <SCORE.INTRA.POLAR.0>
0

>  <SCORE.INTRA.REPUL>
0

>  <SCORE.INTRA.REPUL.0>
0

>  <SCORE.INTRA.SOLV>
0.612737

>  <SCORE.INTRA.SOLV.lig_0>
-49.456

>  <SCORE.INTRA.VDW>
-0.11724

>  <SCORE.INTRA.VDW.0>
-0.478406

>  <SCORE.INTRA.norm>
-0.149938

>  <SCORE.RESTR>
0

>  <SCORE.RESTR.CAVITY>
0

>  <SCORE.RESTR.norm>
0

>  <SCORE.SYSTEM>
0

>  <SCORE.SYSTEM.CONST>
0

>  <SCORE.SYSTEM.DIHEDRAL>
0

>  <SCORE.SYSTEM.SOLV>
0

>  <SCORE.SYSTEM.norm>
0

>  <SCORE.heavy>
14

>  <SCORE.norm>
-0.669559

>  <RMSD>
3.404

$$$$
ligand
 OpenBabel11021811413D
libRbt.so/2013.1/901 2013/11/27
 14 13  0  0  0  0  0  0  0  0999 V2000
   39.7916    7.2279   20.6762 N   0  0  0  0  0  0  0  0  0  0  0  0
   40.5617    8.4663   20.4301 C   0  0  0  0  0  0  0  0  0  0  0  0
   41.8912    8.1621   19.7064 C   0  0  0  0  0  0  0  0  0  0  0  0
   42.7873    9.3893   19.4717 C   0  0  0  0  0  0  0  0  0  0  0  0
   43.9645    9.0383   18.6307 N   0  0  0  0  0  0  0  0  0  0  0  0
   45.2172    9.1788   19.4167 C   0  0  0  0  0  0  0  0  0  0  0  0
   45.4901    8.0460   20.4629 C   0  0  0  0  0  0  0  0  0  0  0  0
   45.2677    6.6074   19.9139 C   0  0  0  0  0  0  0  0  0  0  0  0
   45.5774    5.5118   20.9152 C   0  0  0  0  0  0  0  0  0  0  0  0
   45.0497    4.2692   20.3841 N   0  0  0  0  0  0  0  0  0  0  0  0
   46.0399    3.7893   19.4360 C   0  0  0  0  0  0  0  0  0  0  0  0
   45.4785    2.6766   18.5585 C   0  0  0  0  0  0  0  0  0  0  0  0
   46.5757    2.2720   17.5623 C   0  0  0  0  0  0  0  0  0  0  0  0
   46.0854    1.3237   16.5508 N   0  0  0  0  0  0  0  0  0  0  0  0
  1  2  1  0  0  0  0
  2  3  1  0  0  0  0
  3  4  1  0  0  0  0
  4  5  1  0  0  0  0
  5  6  1  0  0  0  0
  6  7  1  0  0  0  0
  7  8  1  0  0  0  0
  8  9  1  0  0  0  0
  9 10  1  0  0  0  0
 10 11  1  0  0  0  0
 11 12  1  0  0  0  0
 12 13  1  0  0  0  0
 13 14  1  0  0  0  0
M  END
>  <CHROM.1>
-177.18319525,-173.22570593,-114.41556689,75.04373972,46.07396620,178.06643465
167.48499883,81.46348909,-166.35047255,178.03037610,-172.61299838,44.27006774
6.14018305,19.43699470,2.12907461,0.10668617,0.22439562

>  <Name>
ligand

>  <RI>
0

>  <Rbt.Current_Directory>
/home/itssahil/PROJECTS/Mol_Feturizer/New_Systems/rnas/1TN1

>  <Rbt.Executable>
rbdock ($Id: //depot/dev/client3/rdock/2013.1/src/exe/rbdock.cxx#4 $)

>  <Rbt.Library>
libRbt.so (2013.1, Build901 2013/11/27)

>  <Rbt.Parameter_File>
/export/apps/rDock/src/rDock_2013.1_src/data/scripts/dock_solv.prm

>  <Rbt.Receptor>
prm/pocket_docking_8.prm

>  <SCORE>
-12.2945

>  <SCORE.INTER>
-10.7924

>  <SCORE.INTER.CONST>
1

>  <SCORE.INTER.POLAR>
0

>  <SCORE.INTER.ROT>
11

>  <SCORE.INTER.SOLV>
13.7184

>  <SCORE.INTER.VDW>
-22.7011

>  <SCORE.INTER.norm>
-0.770886

>  <SCORE.INTRA>
-1.50208

>  <SCORE.INTRA.DIHEDRAL>
-4.24665

>  <SCORE.INTRA.DIHEDRAL.0>
7.79482

>  <SCORE.INTRA.POLAR>
0

>  <SCORE.INTRA.POLAR.0>
0

>  <SCORE.INTRA.REPUL>
0

>  <SCORE.INTRA.REPUL.0>
0

>  <SCORE.INTRA.SOLV>
0.3579

>  <SCORE.INTRA.SOLV.lig_0>
-49.456

>  <SCORE.INTRA.VDW>
0.442302

>  <SCORE.INTRA.VDW.0>
-0.478406

>  <SCORE.INTRA.norm>
-0.107291

>  <SCORE.RESTR>
0

>  <SCORE.RESTR.CAVITY>
0

>  <SCORE.RESTR.norm>
0

>  <SCORE.SYSTEM>
0

>  <SCORE.SYSTEM.CONST>
0

>  <SCORE.SYSTEM.DIHEDRAL>
0

>  <SCORE.SYSTEM.SOLV>
0

>  <SCORE.SYSTEM.norm>
0

>  <SCORE.heavy>
14

>  <SCORE.norm>
-0.878177

>  <RMSD>
3.410

$$$$
ligand
 OpenBabel11021811413D
libRbt.so/2013.1/901 2013/11/27
 14 13  0  0  0  0  0  0  0  0999 V2000
   42.0765   11.5727   18.2063 N   0  0  0  0  0  0  0  0  0  0  0  0
   42.2227   10.1803   18.6827 C   0  0  0  0  0  0  0  0  0  0  0  0
   40.9756    9.7266   19.4718 C   0  0  0  0  0  0  0  0  0  0  0  0
   41.0145    8.2641   19.9445 C   0  0  0  0  0  0  0  0  0  0  0  0
   42.1647    8.0287   20.8599 N   0  0  0  0  0  0  0  0  0  0  0  0
   43.2036    7.2132   20.1799 C   0  0  0  0  0  0  0  0  0  0  0  0
   44.4681    6.8748   21.0393 C   0  0  0  0  0  0  0  0  0  0  0  0
   45.5341    6.0225   20.2924 C   0  0  0  0  0  0  0  0  0  0  0  0
   45.0979    4.5973   20.0141 C   0  0  0  0  0  0  0  0  0  0  0  0
   46.2074    3.9151   19.3754 N   0  0  0  0  0  0  0  0  0  0  0  0
   45.6782    2.6456   18.9083 C   0  0  0  0  0  0  0  0  0  0  0  0
   45.5127    2.6340   17.3931 C   0  0  0  0  0  0  0  0  0  0  0  0
   46.9166    2.6869   16.7718 C   0  0  0  0  0  0  0  0  0  0  0  0
   46.8765    2.6306   15.3028 N   0  0  0  0  0  0  0  0  0  0  0  0
  1  2  1  0  0  0  0
  2  3  1  0  0  0  0
  3  4  1  0  0  0  0
  4  5  1  0  0  0  0
  5  6  1  0  0  0  0
  6  7  1  0  0  0  0
  7  8  1  0  0  0  0
  8  9  1  0  0  0  0
  9 10  1  0  0  0  0
 10 11  1  0  0  0  0
 11 12  1  0  0  0  0
 12 13  1  0  0  0  0
 13 14  1  0  0  0  0
M  END
>  <CHROM.1>
177.08765933,60.90393440,-108.31197878,-179.29405989,-179.87858007,-69.24549662
-177.41316370,-169.90838149,106.75079123,67.20492457,177.90483224,44.13914221
6.21359725,19.03183070,3.07898115,-0.99962494,1.77528780

>  <Name>
ligand

>  <RI>
0

>  <Rbt.Current_Directory>
/home/itssahil/PROJECTS/Mol_Feturizer/New_Systems/rnas/1TN1

>  <Rbt.Executable>
rbdock ($Id: //depot/dev/client3/rdock/2013.1/src/exe/rbdock.cxx#4 $)

>  <Rbt.Library>
libRbt.so (2013.1, Build901 2013/11/27)

>  <Rbt.Parameter_File>
/export/apps/rDock/src/rDock_2013.1_src/data/scripts/dock_solv.prm

>  <Rbt.Receptor>
prm/pocket_docking_6.prm

>  <SCORE>
-13.1588

>  <SCORE.INTER>
-10.7757

>  <SCORE.INTER.CONST>
1

>  <SCORE.INTER.POLAR>
0

>  <SCORE.INTER.ROT>
11

>  <SCORE.INTER.SOLV>
17.022

>  <SCORE.INTER.VDW>
-23.7911

>  <SCORE.INTER.norm>
-0.769693

>  <SCORE.INTRA>
-2.38309

>  <SCORE.INTRA.DIHEDRAL>
-4.93743

>  <SCORE.INTRA.DIHEDRAL.0>
7.79482

>  <SCORE.INTRA.POLAR>
0

>  <SCORE.INTRA.POLAR.0>
0

>  <SCORE.INTRA.REPUL>
0

>  <SCORE.INTRA.REPUL.0>
0

>  <SCORE.INTRA.SOLV>
0.795598

>  <SCORE.INTRA.SOLV.lig_0>
-49.456

>  <SCORE.INTRA.VDW>
-0.312175

>  <SCORE.INTRA.VDW.0>
-0.478406

>  <SCORE.INTRA.norm>
-0.170221

>  <SCORE.RESTR>
0

>  <SCORE.RESTR.CAVITY>
0

>  <SCORE.RESTR.norm>
0

>  <SCORE.SYSTEM>
0

>  <SCORE.SYSTEM.CONST>
0

>  <SCORE.SYSTEM.DIHEDRAL>
0

>  <SCORE.SYSTEM.SOLV>
0

>  <SCORE.SYSTEM.norm>
0

>  <SCORE.heavy>
14

>  <SCORE.norm>
-0.939913

>  <RMSD>
3.418

$$$$
ligand
 OpenBabel11021811413D
libRbt.so/2013.1/901 2013/11/27
 14 13  0  0  0  0  0  0  0  0999 V2000
   46.1815    9.2436   18.2635 N   0  0  0  0  0  0  0  0  0  0  0  0
   46.2739    9.5046   19.7163 C   0  0  0  0  0  0  0  0  0  0  0  0
   46.6871    8.2319   20.4867 C   0  0  0  0  0  0  0  0  0  0  0  0
   45.6045    7.1418   20.5489 C   0  0  0  0  0  0  0  0  0  0  0  0
   45.3172    6.5961   19.1939 N   0  0  0  0  0  0  0  0  0  0  0  0
   46.1332    5.3797   18.9467 C   0  0  0  0  0  0  0  0  0  0  0  0
   45.4172    4.0158   19.2285 C   0  0  0  0  0  0  0  0  0  0  0  0
   46.1274    2.7835   18.5980 C   0  0  0  0  0  0  0  0  0  0  0  0
   45.3727    1.4805   18.7758 C   0  0  0  0  0  0  0  0  0  0  0  0
   46.0564    0.4667   17.9953 N   0  0  0  0  0  0  0  0  0  0  0  0
   45.1794    0.1667   16.8770 C   0  0  0  0  0  0  0  0  0  0  0  0
   45.7804   -0.8983   15.9671 C   0  0  0  0  0  0  0  0  0  0  0  0
   44.9219   -0.9607   14.6947 C   0  0  0  0  0  0  0  0  0  0  0  0
   45.4263   -1.9517   13.7323 N   0  0  0  0  0  0  0  0  0  0  0  0
  1  2  1  0  0  0  0
  2  3  1  0  0  0  0
  3  4  1  0  0  0  0
  4  5  1  0  0  0  0
  5  6  1  0  0  0  0
  6  7  1  0  0  0  0
  7  8  1  0  0  0  0
  8  9  1  0  0  0  0
  9 10  1  0  0  0  0
 10 11  1  0  0  0  0
 11 12  1  0  0  0  0
 12 13  1  0  0  0  0
 13 14  1  0  0  0  0
M  END
>  <CHROM.1>
-70.73050986,65.41795162,94.12928551,96.39987821,163.75945919,-175.26054550
172.63281979,-109.41978345,-179.85886642,-169.72674562,179.26583010,45.74850476
3.65720068,18.07350658,0.09392568,-1.50199401,-1.05619327

>  <Name>
ligand

>  <RI>
0

>  <Rbt.Current_Directory>
/home/itssahil/PROJECTS/Mol_Feturizer/New_Systems/rnas/1TN1

>  <Rbt.Executable>
rbdock ($Id: //depot/dev/client3/rdock/2013.1/src/exe/rbdock.cxx#4 $)

>  <Rbt.Library>
libRbt.so (2013.1, Build901 2013/11/27)

>  <Rbt.Parameter_File>
/export/apps/rDock/src/rDock_2013.1_src/data/scripts/dock_solv.prm

>  <Rbt.Receptor>
prm/pocket_docking_6.prm

>  <SCORE>
-7.5947

>  <SCORE.INTER>
-7.05886

>  <SCORE.INTER.CONST>
1

>  <SCORE.INTER.POLAR>
0

>  <SCORE.INTER.ROT>
11

>  <SCORE.INTER.SOLV>
13.4069

>  <SCORE.INTER.VDW>
-20.1082

>  <SCORE.INTER.norm>
-0.504204

>  <SCORE.INTRA>
-0.535841

>  <SCORE.INTRA.DIHEDRAL>
-2.99638

>  <SCORE.INTRA.DIHEDRAL.0>
7.79482

>  <SCORE.INTRA.POLAR>
0

>  <SCORE.INTRA.POLAR.0>
0

>  <SCORE.INTRA.REPUL>
0

>  <SCORE.INTRA.REPUL.0>
0

>  <SCORE.INTRA.SOLV>
2.96748

>  <SCORE.INTRA.SOLV.lig_0>
-49.456

>  <SCORE.INTRA.VDW>
-0.521393

>  <SCORE.INTRA.VDW.0>
-0.478406

>  <SCORE.INTRA.norm>
-0.0382744

>  <SCORE.RESTR>
0

>  <SCORE.RESTR.CAVITY>
0

>  <SCORE.RESTR.norm>
0

>  <SCORE.SYSTEM>
0

>  <SCORE.SYSTEM.CONST>
0

>  <SCORE.SYSTEM.DIHEDRAL>
0

>  <SCORE.SYSTEM.SOLV>
0

>  <SCORE.SYSTEM.norm>
0

>  <SCORE.heavy>
14

>  <SCORE.norm>
-0.542479

>  <RMSD>
3.418

$$$$
ligand
 OpenBabel11021811413D
libRbt.so/2013.1/901 2013/11/27
 14 13  0  0  0  0  0  0  0  0999 V2000
   45.0841   10.2399   18.5802 N   0  0  0  0  0  0  0  0  0  0  0  0
   46.3247   10.0546   19.3637 C   0  0  0  0  0  0  0  0  0  0  0  0
   47.1233    8.8316   18.8631 C   0  0  0  0  0  0  0  0  0  0  0  0
   46.4323    7.4778   19.0945 C   0  0  0  0  0  0  0  0  0  0  0  0
   46.3250    7.1741   20.5480 N   0  0  0  0  0  0  0  0  0  0  0  0
   45.2092    6.2245   20.7931 C   0  0  0  0  0  0  0  0  0  0  0  0
   45.5500    4.7108   20.5816 C   0  0  0  0  0  0  0  0  0  0  0  0
   46.0158    4.3602   19.1392 C   0  0  0  0  0  0  0  0  0  0  0  0
   46.1085    2.8715   18.8671 C   0  0  0  0  0  0  0  0  0  0  0  0
   46.6773    2.7013   17.5435 N   0  0  0  0  0  0  0  0  0  0  0  0
   45.5485    2.5634   16.6399 C   0  0  0  0  0  0  0  0  0  0  0  0
   45.9844    2.6677   15.1830 C   0  0  0  0  0  0  0  0  0  0  0  0
   46.5145    4.0918   14.9573 C   0  0  0  0  0  0  0  0  0  0  0  0
   47.0401    4.2797   13.5968 N   0  0  0  0  0  0  0  0  0  0  0  0
  1  2  1  0  0  0  0
  2  3  1  0  0  0  0
  3  4  1  0  0  0  0
  4  5  1  0  0  0  0
  5  6  1  0  0  0  0
  6  7  1  0  0  0  0
  7  8  1  0  0  0  0
  8  9  1  0  0  0  0
  9 10  1  0  0  0  0
 10 11  1  0  0  0  0
 11 12  1  0  0  0  0
 12 13  1  0  0  0  0
 13 14  1  0  0  0  0
M  END
>  <CHROM.1>
-66.55387621,-66.26362116,156.17555241,83.23341156,-60.11491339,-169.73909979
-174.39440127,-94.65336235,168.13703307,-64.96030867,176.56438558,46.13834520
5.58899793,18.12530130,-1.83747581,-1.41950942,-2.82301351

>  <Name>
ligand

>  <RI>
0

>  <Rbt.Current_Directory>
/home/itssahil/PROJECTS/Mol_Feturizer/New_Systems/rnas/1TN1

>  <Rbt.Executable>
rbdock ($Id: //depot/dev/client3/rdock/2013.1/src/exe/rbdock.cxx#4 $)

>  <Rbt.Library>
libRbt.so (2013.1, Build901 2013/11/27)

>  <Rbt.Parameter_File>
/export/apps/rDock/src/rDock_2013.1_src/data/scripts/dock_solv.prm

>  <Rbt.Receptor>
prm/pocket_docking_6.prm

>  <SCORE>
-6.0803

>  <SCORE.INTER>
-4.88224

>  <SCORE.INTER.CONST>
1

>  <SCORE.INTER.POLAR>
0

>  <SCORE.INTER.ROT>
11

>  <SCORE.INTER.SOLV>
12.5455

>  <SCORE.INTER.VDW>
-18.37

>  <SCORE.INTER.norm>
-0.348731

>  <SCORE.INTRA>
-1.19806

>  <SCORE.INTRA.DIHEDRAL>
-5.14249

>  <SCORE.INTRA.DIHEDRAL.0>
7.79482

>  <SCORE.INTRA.POLAR>
0

>  <SCORE.INTRA.POLAR.0>
0

>  <SCORE.INTRA.REPUL>
0

>  <SCORE.INTRA.REPUL.0>
0

>  <SCORE.INTRA.SOLV>
2.36367

>  <SCORE.INTRA.SOLV.lig_0>
-49.456

>  <SCORE.INTRA.VDW>
0.191346

>  <SCORE.INTRA.VDW.0>
-0.478406

>  <SCORE.INTRA.norm>
-0.085576

>  <SCORE.RESTR>
0

>  <SCORE.RESTR.CAVITY>
0

>  <SCORE.RESTR.norm>
0

>  <SCORE.SYSTEM>
0

>  <SCORE.SYSTEM.CONST>
0

>  <SCORE.SYSTEM.DIHEDRAL>
0

>  <SCORE.SYSTEM.SOLV>
0

>  <SCORE.SYSTEM.norm>
0

>  <SCORE.heavy>
14

>  <SCORE.norm>
-0.434307

>  <RMSD>
3.422

$$$$
ligand
 OpenBabel11021811413D
libRbt.so/2013.1/901 2013/11/27
 14 13  0  0  0  0  0  0  0  0999 V2000
   45.6850   -1.8713   14.0688 N   0  0  0  0  0  0  0  0  0  0  0  0
   45.7037   -0.6688   14.9295 C   0  0  0  0  0  0  0  0  0  0  0  0
   45.5760   -1.0480   16.4208 C   0  0  0  0  0  0  0  0  0  0  0  0
   45.6846    0.1374   17.3940 C   0  0  0  0  0  0  0  0  0  0  0  0
   44.5905    1.1202   17.1632 N   0  0  0  0  0  0  0  0  0  0  0  0
   45.1532    2.4174   16.7079 C   0  0  0  0  0  0  0  0  0  0  0  0
   45.9539    3.2234   17.7856 C   0  0  0  0  0  0  0  0  0  0  0  0
   45.1669    3.4768   19.1035 C   0  0  0  0  0  0  0  0  0  0  0  0
   45.8677    4.4131   20.0685 C   0  0  0  0  0  0  0  0  0  0  0  0
   45.8833    5.7330   19.4669 N   0  0  0  0  0  0  0  0  0  0  0  0
   46.0216    6.6706   20.5676 C   0  0  0  0  0  0  0  0  0  0  0  0
   46.4288    8.0540   20.0740 C   0  0  0  0  0  0  0  0  0  0  0  0
   45.2521    8.6249   19.2681 C   0  0  0  0  0  0  0  0  0  0  0  0
   45.5332    9.9739   18.7544 N   0  0  0  0  0  0  0  0  0  0  0  0
  1  2  1  0  0  0  0
  2  3  1  0  0  0  0
  3  4  1  0  0  0  0
  4  5  1  0  0  0  0
  5  6  1  0  0  0  0
  6  7  1  0  0  0  0
  7  8  1  0  0  0  0
  8  9  1  0  0  0  0
  9 10  1  0  0  0  0
 10 11  1  0  0  0  0
 11 12  1  0  0  0  0
 12 13  1  0  0  0  0
 13 14  1  0  0  0  0
M  END
>  <CHROM.1>
175.96623386,61.84863726,-115.85142923,-69.81285131,-53.86644887,-172.13987639
67.62804670,156.71910345,164.55683581,67.37186384,179.31294601,45.60724704
3.58969909,17.98402010,1.93078567,1.48910988,-3.07026691

>  <Name>
ligand

>  <RI>
0

>  <Rbt.Current_Directory>
/home/itssahil/PROJECTS/Mol_Feturizer/New_Systems/rnas/1TN1

>  <Rbt.Executable>
rbdock ($Id: //depot/dev/client3/rdock/2013.1/src/exe/rbdock.cxx#4 $)

>  <Rbt.Library>
libRbt.so (2013.1, Build901 2013/11/27)

>  <Rbt.Parameter_File>
/export/apps/rDock/src/rDock_2013.1_src/data/scripts/dock_solv.prm

>  <Rbt.Receptor>
prm/pocket_docking_4.prm

>  <SCORE>
-8.47925

>  <SCORE.INTER>
-6.43064

>  <SCORE.INTER.CONST>
1

>  <SCORE.INTER.POLAR>
0

>  <SCORE.INTER.ROT>
11

>  <SCORE.INTER.SOLV>
12.0455

>  <SCORE.INTER.VDW>
-19.2356

>  <SCORE.INTER.norm>
-0.459332

>  <SCORE.INTRA>
-2.0486

>  <SCORE.INTRA.DIHEDRAL>
-5.05956

>  <SCORE.INTRA.DIHEDRAL.0>
7.79482

>  <SCORE.INTRA.POLAR>
0

>  <SCORE.INTRA.POLAR.0>
0

>  <SCORE.INTRA.REPUL>
0

>  <SCORE.INTRA.REPUL.0>
0

>  <SCORE.INTRA.SOLV>
1.4318

>  <SCORE.INTRA.SOLV.lig_0>
-49.456

>  <SCORE.INTRA.VDW>
-0.234724

>  <SCORE.INTRA.VDW.0>
-0.478406

>  <SCORE.INTRA.norm>
-0.146329

>  <SCORE.RESTR>
0

>  <SCORE.RESTR.CAVITY>
0

>  <SCORE.RESTR.norm>
0

>  <SCORE.SYSTEM>
0

>  <SCORE.SYSTEM.CONST>
0

>  <SCORE.SYSTEM.DIHEDRAL>
0

>  <SCORE.SYSTEM.SOLV>
0

>  <SCORE.SYSTEM.norm>
0

>  <SCORE.heavy>
14

>  <SCORE.norm>
-0.605661

>  <RMSD>
3.423

$$$$
ligand
 OpenBabel11021811413D
libRbt.so/2013.1/901 2013/11/27
 14 13  0  0  0  0  0  0  0  0999 V2000
   39.8457    7.2913   20.5903 N   0  0  0  0  0  0  0  0  0  0  0  0
   40.6113    8.5356   20.3612 C   0  0  0  0  0  0  0  0  0  0  0  0
   41.9774    8.2376   19.7063 C   0  0  0  0  0  0  0  0  0  0  0  0
   42.9276    7.3881   20.5662 C   0  0  0  0  0  0  0  0  0  0  0  0
   44.1984    7.1096   19.8424 N   0  0  0  0  0  0  0  0  0  0  0  0
   45.1577    6.4140   20.7383 C   0  0  0  0  0  0  0  0  0  0  0  0
   46.0938    5.3673   20.0454 C   0  0  0  0  0  0  0  0  0  0  0  0
   45.3688    4.0663   19.5958 C   0  0  0  0  0  0  0  0  0  0  0  0
   46.2441    3.1171   18.8010 C   0  0  0  0  0  0  0  0  0  0  0  0
   45.5067    1.8799   18.6283 N   0  0  0  0  0  0  0  0  0  0  0  0
   45.4657    1.6375   17.1967 C   0  0  0  0  0  0  0  0  0  0  0  0
   44.8361    0.2865   16.8777 C   0  0  0  0  0  0  0  0  0  0  0  0
   44.7449    0.1657   15.3489 C   0  0  0  0  0  0  0  0  0  0  0  0
   46.0704    0.0706   14.7191 N   0  0  0  0  0  0  0  0  0  0  0  0
  1  2  1  0  0  0  0
  2  3  1  0  0  0  0
  3  4  1  0  0  0  0
  4  5  1  0  0  0  0
  5  6  1  0  0  0  0
  6  7  1  0  0  0  0
  7  8  1  0  0  0  0
  8  9  1  0  0  0  0
  9 10  1  0  0  0  0
 10 11  1  0  0  0  0
 11 12  1  0  0  0  0
 12 13  1  0  0  0  0
 13 14  1  0  0  0  0
M  END
>  <CHROM.1>
-63.22093235,178.03272912,174.00468854,145.95178891,-71.58637701,174.08509220
171.57931791,124.70623732,174.26962636,175.99343307,67.36662894,44.21787896
4.39777365,18.78710860,2.00214243,-0.29681511,0.65225824

>  <Name>
ligand

>  <RI>
0

>  <Rbt.Current_Directory>
/home/itssahil/PROJECTS/Mol_Feturizer/New_Systems/rnas/1TN1

>  <Rbt.Executable>
rbdock ($Id: //depot/dev/client3/rdock/2013.1/src/exe/rbdock.cxx#4 $)

>  <Rbt.Library>
libRbt.so (2013.1, Build901 2013/11/27)

>  <Rbt.Parameter_File>
/export/apps/rDock/src/rDock_2013.1_src/data/scripts/dock_solv.prm

>  <Rbt.Receptor>
prm/blind_docking_80.prm

>  <SCORE>
-12.3881

>  <SCORE.INTER>
-10.2515

>  <SCORE.INTER.CONST>
1

>  <SCORE.INTER.POLAR>
0

>  <SCORE.INTER.ROT>
11

>  <SCORE.INTER.SOLV>
12.9001

>  <SCORE.INTER.VDW>
-22.0677

>  <SCORE.INTER.norm>
-0.732251

>  <SCORE.INTRA>
-2.13657

>  <SCORE.INTRA.DIHEDRAL>
-4.61147

>  <SCORE.INTRA.DIHEDRAL.0>
7.79482

>  <SCORE.INTRA.POLAR>
0

>  <SCORE.INTRA.POLAR.0>
0

>  <SCORE.INTRA.REPUL>
0

>  <SCORE.INTRA.REPUL.0>
0

>  <SCORE.INTRA.SOLV>
1.68554

>  <SCORE.INTRA.SOLV.lig_0>
-49.456

>  <SCORE.INTRA.VDW>
-0.673603

>  <SCORE.INTRA.VDW.0>
-0.478406

>  <SCORE.INTRA.norm>
-0.152612

>  <SCORE.RESTR>
0

>  <SCORE.RESTR.CAVITY>
0

>  <SCORE.RESTR.norm>
0

>  <SCORE.SYSTEM>
0

>  <SCORE.SYSTEM.CONST>
0

>  <SCORE.SYSTEM.DIHEDRAL>
0

>  <SCORE.SYSTEM.SOLV>
0

>  <SCORE.SYSTEM.norm>
0

>  <SCORE.heavy>
14

>  <SCORE.norm>
-0.884863

>  <RMSD>
3.433

$$$$
ligand
 OpenBabel11021811413D
libRbt.so/2013.1/901 2013/11/27
 14 13  0  0  0  0  0  0  0  0999 V2000
   45.5592   10.1770   18.7366 N   0  0  0  0  0  0  0  0  0  0  0  0
   45.7790    9.1105   19.7374 C   0  0  0  0  0  0  0  0  0  0  0  0
   44.7018    8.0099   19.6256 C   0  0  0  0  0  0  0  0  0  0  0  0
   44.8448    6.8687   20.6460 C   0  0  0  0  0  0  0  0  0  0  0  0
   46.1637    6.1917   20.5092 N   0  0  0  0  0  0  0  0  0  0  0  0
   45.9796    4.7196   20.4330 C   0  0  0  0  0  0  0  0  0  0  0  0
   46.0037    4.1084   18.9915 C   0  0  0  0  0  0  0  0  0  0  0  0
   45.8322    2.5625   18.9542 C   0  0  0  0  0  0  0  0  0  0  0  0
   45.8874    1.9706   17.5594 C   0  0  0  0  0  0  0  0  0  0  0  0
   45.8168    0.5277   17.6913 N   0  0  0  0  0  0  0  0  0  0  0  0
   45.3953    0.0295   16.3937 C   0  0  0  0  0  0  0  0  0  0  0  0
   45.6656   -1.4641   16.2551 C   0  0  0  0  0  0  0  0  0  0  0  0
   45.1205   -1.9104   14.8899 C   0  0  0  0  0  0  0  0  0  0  0  0
   45.8307   -1.2708   13.7722 N   0  0  0  0  0  0  0  0  0  0  0  0
  1  2  1  0  0  0  0
  2  3  1  0  0  0  0
  3  4  1  0  0  0  0
  4  5  1  0  0  0  0
  5  6  1  0  0  0  0
  6  7  1  0  0  0  0
  7  8  1  0  0  0  0
  8  9  1  0  0  0  0
  9 10  1  0  0  0  0
 10 11  1  0  0  0  0
 11 12  1  0  0  0  0
 12 13  1  0  0  0  0
 13 14  1  0  0  0  0
M  END
>  <CHROM.1>
-179.18907411,-59.04162714,-130.24951983,98.58643591,179.00753836,-178.68856414
175.72745465,160.17290073,163.36326561,176.99228075,64.07866285,45.61277694
3.54491559,18.15699230,1.66927642,-1.46583603,0.53267835

>  <Name>
ligand

>  <RI>
0

>  <Rbt.Current_Directory>
/home/itssahil/PROJECTS/Mol_Feturizer/New_Systems/rnas/1TN1

>  <Rbt.Executable>
rbdock ($Id: //depot/dev/client3/rdock/2013.1/src/exe/rbdock.cxx#4 $)

>  <Rbt.Library>
libRbt.so (2013.1, Build901 2013/11/27)

>  <Rbt.Parameter_File>
/export/apps/rDock/src/rDock_2013.1_src/data/scripts/dock_solv.prm

>  <Rbt.Receptor>
prm/pocket_docking_6.prm

>  <SCORE>
-10.9207

>  <SCORE.INTER>
-8.31915

>  <SCORE.INTER.CONST>
1

>  <SCORE.INTER.POLAR>
0

>  <SCORE.INTER.ROT>
11

>  <SCORE.INTER.SOLV>
12.7891

>  <SCORE.INTER.VDW>
-20.7425

>  <SCORE.INTER.norm>
-0.594225

>  <SCORE.INTRA>
-2.60157

>  <SCORE.INTRA.DIHEDRAL>
-5.12697

>  <SCORE.INTRA.DIHEDRAL.0>
7.79482

>  <SCORE.INTRA.POLAR>
0

>  <SCORE.INTRA.POLAR.0>
0

>  <SCORE.INTRA.REPUL>
0

>  <SCORE.INTRA.REPUL.0>
0

>  <SCORE.INTRA.SOLV>
1.09927

>  <SCORE.INTRA.SOLV.lig_0>
-49.456

>  <SCORE.INTRA.VDW>
-0.58772

>  <SCORE.INTRA.VDW.0>
-0.478406

>  <SCORE.INTRA.norm>
-0.185826

>  <SCORE.RESTR>
0

>  <SCORE.RESTR.CAVITY>
0

>  <SCORE.RESTR.norm>
0

>  <SCORE.SYSTEM>
0

>  <SCORE.SYSTEM.CONST>
0

>  <SCORE.SYSTEM.DIHEDRAL>
0

>  <SCORE.SYSTEM.SOLV>
0

>  <SCORE.SYSTEM.norm>
0

>  <SCORE.heavy>
14

>  <SCORE.norm>
-0.780052

>  <RMSD>
3.438

$$$$
ligand
 OpenBabel11021811413D
libRbt.so/2013.1/901 2013/11/27
 14 13  0  0  0  0  0  0  0  0999 V2000
   45.9608    1.8204   17.0528 N   0  0  0  0  0  0  0  0  0  0  0  0
   46.2912    2.3353   18.3992 C   0  0  0  0  0  0  0  0  0  0  0  0
   45.9289    3.8305   18.5292 C   0  0  0  0  0  0  0  0  0  0  0  0
   46.1833    4.4319   19.9212 C   0  0  0  0  0  0  0  0  0  0  0  0
   45.8076    5.8719   19.9581 N   0  0  0  0  0  0  0  0  0  0  0  0
   44.7847    6.1089   21.0089 C   0  0  0  0  0  0  0  0  0  0  0  0
   43.4743    6.8197   20.5298 C   0  0  0  0  0  0  0  0  0  0  0  0
   43.7052    8.2300   19.9148 C   0  0  0  0  0  0  0  0  0  0  0  0
   42.4316    8.9273   19.4783 C   0  0  0  0  0  0  0  0  0  0  0  0
   42.8111   10.1579   18.8105 N   0  0  0  0  0  0  0  0  0  0  0  0
   41.5689   10.7809   18.3881 C   0  0  0  0  0  0  0  0  0  0  0  0
   41.8227   11.9312   17.4207 C   0  0  0  0  0  0  0  0  0  0  0  0
   42.5519   13.0386   18.1965 C   0  0  0  0  0  0  0  0  0  0  0  0
   42.8430   14.2081   17.3537 N   0  0  0  0  0  0  0  0  0  0  0  0
  1  2  1  0  0  0  0
  2  3  1  0  0  0  0
  3  4  1  0  0  0  0
  4  5  1  0  0  0  0
  5  6  1  0  0  0  0
  6  7  1  0  0  0  0
  7  8  1  0  0  0  0
  8  9  1  0  0  0  0
  9 10  1  0  0  0  0
 10 11  1  0  0  0  0
 11 12  1  0  0  0  0
 12 13  1  0  0  0  0
 13 14  1  0  0  0  0
M  END
>  <CHROM.1>
177.43916347,-179.98247544,122.05463218,-125.66687534,-59.83687908,-178.80122166
-174.41336497,178.98884524,-168.04887450,-66.46021270,-179.74298467,44.01165967
7.74936100,18.92609530,-0.23482430,1.17258142,-1.40024986

>  <Name>
ligand

>  <RI>
0

>  <Rbt.Current_Directory>
/home/itssahil/PROJECTS/Mol_Feturizer/New_Systems/rnas/1TN1

>  <Rbt.Executable>
rbdock ($Id: //depot/dev/client3/rdock/2013.1/src/exe/rbdock.cxx#4 $)

>  <Rbt.Library>
libRbt.so (2013.1, Build901 2013/11/27)

>  <Rbt.Parameter_File>
/export/apps/rDock/src/rDock_2013.1_src/data/scripts/dock_solv.prm

>  <Rbt.Receptor>
prm/pocket_docking_4.prm

>  <SCORE>
-13.7968

>  <SCORE.INTER>
-10.9271

>  <SCORE.INTER.CONST>
1

>  <SCORE.INTER.POLAR>
0

>  <SCORE.INTER.ROT>
11

>  <SCORE.INTER.SOLV>
13.0383

>  <SCORE.INTER.VDW>
-22.5641

>  <SCORE.INTER.norm>
-0.780504

>  <SCORE.INTRA>
-2.86971

>  <SCORE.INTRA.DIHEDRAL>
-5.00519

>  <SCORE.INTRA.DIHEDRAL.0>
7.79482

>  <SCORE.INTRA.POLAR>
0

>  <SCORE.INTRA.POLAR.0>
0

>  <SCORE.INTRA.REPUL>
0

>  <SCORE.INTRA.REPUL.0>
0

>  <SCORE.INTRA.SOLV>
0.705384

>  <SCORE.INTRA.SOLV.lig_0>
-49.456

>  <SCORE.INTRA.VDW>
-0.719807

>  <SCORE.INTRA.VDW.0>
-0.478406

>  <SCORE.INTRA.norm>
-0.204979

>  <SCORE.RESTR>
0

>  <SCORE.RESTR.CAVITY>
0

>  <SCORE.RESTR.norm>
0

>  <SCORE.SYSTEM>
0

>  <SCORE.SYSTEM.CONST>
0

>  <SCORE.SYSTEM.DIHEDRAL>
0

>  <SCORE.SYSTEM.SOLV>
0

>  <SCORE.SYSTEM.norm>
0

>  <SCORE.heavy>
14

>  <SCORE.norm>
-0.985483

>  <RMSD>
3.443

$$$$
ligand
 OpenBabel11021811413D
libRbt.so/2013.1/901 2013/11/27
 14 13  0  0  0  0  0  0  0  0999 V2000
   45.2925    1.3698   16.3870 N   0  0  0  0  0  0  0  0  0  0  0  0
   45.6855    0.9619   17.7531 C   0  0  0  0  0  0  0  0  0  0  0  0
   46.6925    1.9594   18.3654 C   0  0  0  0  0  0  0  0  0  0  0  0
   46.1146    3.3539   18.6578 C   0  0  0  0  0  0  0  0  0  0  0  0
   45.0336    3.2809   19.6788 N   0  0  0  0  0  0  0  0  0  0  0  0
   44.6709    4.6454   20.1409 C   0  0  0  0  0  0  0  0  0  0  0  0
   43.5468    4.7149   21.2288 C   0  0  0  0  0  0  0  0  0  0  0  0
   43.0537    6.1570   21.5413 C   0  0  0  0  0  0  0  0  0  0  0  0
   42.3512    6.8326   20.3799 C   0  0  0  0  0  0  0  0  0  0  0  0
   41.9162    8.1410   20.8305 N   0  0  0  0  0  0  0  0  0  0  0  0
   41.7359    8.9363   19.6286 C   0  0  0  0  0  0  0  0  0  0  0  0
   43.0149    9.6746   19.2513 C   0  0  0  0  0  0  0  0  0  0  0  0
   42.6554   10.7038   18.1689 C   0  0  0  0  0  0  0  0  0  0  0  0
   41.8315   11.8012   18.6975 N   0  0  0  0  0  0  0  0  0  0  0  0
  1  2  1  0  0  0  0
  2  3  1  0  0  0  0
  3  4  1  0  0  0  0
  4  5  1  0  0  0  0
  5  6  1  0  0  0  0
  6  7  1  0  0  0  0
  7  8  1  0  0  0  0
  8  9  1  0  0  0  0
  9 10  1  0  0  0  0
 10 11  1  0  0  0  0
 11 12  1  0  0  0  0
 12 13  1  0  0  0  0
 13 14  1  0  0  0  0
M  END
>  <CHROM.1>
67.47680303,63.19494977,169.04717949,-179.59858203,-171.80458884,65.53676719
178.26129151,158.43235934,-90.51900207,-168.17632126,69.30234785,43.82835984
5.89510123,19.33659118,-0.52357191,1.08342678,-0.84460472

>  <Name>
ligand

>  <RI>
0

>  <Rbt.Current_Directory>
/home/itssahil/PROJECTS/Mol_Feturizer/New_Systems/rnas/1TN1

>  <Rbt.Executable>
rbdock ($Id: //depot/dev/client3/rdock/2013.1/src/exe/rbdock.cxx#4 $)

>  <Rbt.Library>
libRbt.so (2013.1, Build901 2013/11/27)

>  <Rbt.Parameter_File>
/export/apps/rDock/src/rDock_2013.1_src/data/scripts/dock_solv.prm

>  <Rbt.Receptor>
prm/pocket_docking_8.prm

>  <SCORE>
-10.4083

>  <SCORE.INTER>
-9.00964

>  <SCORE.INTER.CONST>
1

>  <SCORE.INTER.POLAR>
0

>  <SCORE.INTER.ROT>
11

>  <SCORE.INTER.SOLV>
18.1881

>  <SCORE.INTER.VDW>
-23.0025

>  <SCORE.INTER.norm>
-0.643546

>  <SCORE.INTRA>
-1.39867

>  <SCORE.INTRA.DIHEDRAL>
-5.26889

>  <SCORE.INTRA.DIHEDRAL.0>
7.79482

>  <SCORE.INTRA.POLAR>
0

>  <SCORE.INTRA.POLAR.0>
0

>  <SCORE.INTRA.REPUL>
0

>  <SCORE.INTRA.REPUL.0>
0

>  <SCORE.INTRA.SOLV>
2.52059

>  <SCORE.INTRA.SOLV.lig_0>
-49.456

>  <SCORE.INTRA.VDW>
-0.0245149

>  <SCORE.INTRA.VDW.0>
-0.478406

>  <SCORE.INTRA.norm>
-0.0999047

>  <SCORE.RESTR>
0

>  <SCORE.RESTR.CAVITY>
0

>  <SCORE.RESTR.norm>
0

>  <SCORE.SYSTEM>
0

>  <SCORE.SYSTEM.CONST>
0

>  <SCORE.SYSTEM.DIHEDRAL>
0

>  <SCORE.SYSTEM.SOLV>
0

>  <SCORE.SYSTEM.norm>
0

>  <SCORE.heavy>
14

>  <SCORE.norm>
-0.74345

>  <RMSD>
3.451

$$$$
ligand
 OpenBabel11021811413D
libRbt.so/2013.1/901 2013/11/27
 14 13  0  0  0  0  0  0  0  0999 V2000
   46.6417    2.2848   15.5569 N   0  0  0  0  0  0  0  0  0  0  0  0
   46.5627    3.0556   16.8166 C   0  0  0  0  0  0  0  0  0  0  0  0
   46.5685    2.1198   18.0447 C   0  0  0  0  0  0  0  0  0  0  0  0
   45.3493    1.1884   18.1453 C   0  0  0  0  0  0  0  0  0  0  0  0
   44.1040    1.9637   18.3993 N   0  0  0  0  0  0  0  0  0  0  0  0
   43.8348    2.0390   19.8583 C   0  0  0  0  0  0  0  0  0  0  0  0
   43.7996    3.4816   20.4663 C   0  0  0  0  0  0  0  0  0  0  0  0
   45.0957    4.3062   20.2205 C   0  0  0  0  0  0  0  0  0  0  0  0
   45.0356    5.7225   20.7585 C   0  0  0  0  0  0  0  0  0  0  0  0
   46.2839    6.3765   20.4147 N   0  0  0  0  0  0  0  0  0  0  0  0
   46.0146    7.8027   20.4705 C   0  0  0  0  0  0  0  0  0  0  0  0
   46.5279    8.5164   19.2254 C   0  0  0  0  0  0  0  0  0  0  0  0
   46.1590   10.0019   19.3558 C   0  0  0  0  0  0  0  0  0  0  0  0
   46.5251   10.7725   18.1579 N   0  0  0  0  0  0  0  0  0  0  0  0
  1  2  1  0  0  0  0
  2  3  1  0  0  0  0
  3  4  1  0  0  0  0
  4  5  1  0  0  0  0
  5  6  1  0  0  0  0
  6  7  1  0  0  0  0
  7  8  1  0  0  0  0
  8  9  1  0  0  0  0
  9 10  1  0  0  0  0
 10 11  1  0  0  0  0
 11 12  1  0  0  0  0
 12 13  1  0  0  0  0
 13 14  1  0  0  0  0
M  END
>  <CHROM.1>
-64.26570662,-66.94170748,-93.48045276,119.40254419,-56.38368275,177.51096262
-177.96324795,158.91413065,-131.60170824,178.22034566,-175.93855948,45.60719442
4.97352462,18.99254052,-1.83285932,1.02092214,0.39852090

>  <Name>
ligand

>  <RI>
0

>  <Rbt.Current_Directory>
/home/itssahil/PROJECTS/Mol_Feturizer/New_Systems/rnas/1TN1

>  <Rbt.Executable>
rbdock ($Id: //depot/dev/client3/rdock/2013.1/src/exe/rbdock.cxx#4 $)

>  <Rbt.Library>
libRbt.so (2013.1, Build901 2013/11/27)

>  <Rbt.Parameter_File>
/export/apps/rDock/src/rDock_2013.1_src/data/scripts/dock_solv.prm

>  <Rbt.Receptor>
prm/pocket_docking_7.prm

>  <SCORE>
-8.27922

>  <SCORE.INTER>
-6.17191

>  <SCORE.INTER.CONST>
1

>  <SCORE.INTER.POLAR>
0

>  <SCORE.INTER.ROT>
11

>  <SCORE.INTER.SOLV>
13.7847

>  <SCORE.INTER.VDW>
-19.6428

>  <SCORE.INTER.norm>
-0.440851

>  <SCORE.INTRA>
-2.10731

>  <SCORE.INTRA.DIHEDRAL>
-4.04973

>  <SCORE.INTRA.DIHEDRAL.0>
7.79482

>  <SCORE.INTRA.POLAR>
0

>  <SCORE.INTRA.POLAR.0>
0

>  <SCORE.INTRA.REPUL>
0

>  <SCORE.INTRA.REPUL.0>
0

>  <SCORE.INTRA.SOLV>
1.87719

>  <SCORE.INTRA.SOLV.lig_0>
-49.456

>  <SCORE.INTRA.VDW>
-1.02104

>  <SCORE.INTRA.VDW.0>
-0.478406

>  <SCORE.INTRA.norm>
-0.150522

>  <SCORE.RESTR>
0

>  <SCORE.RESTR.CAVITY>
0

>  <SCORE.RESTR.norm>
0

>  <SCORE.SYSTEM>
0

>  <SCORE.SYSTEM.CONST>
0

>  <SCORE.SYSTEM.DIHEDRAL>
0

>  <SCORE.SYSTEM.SOLV>
0

>  <SCORE.SYSTEM.norm>
0

>  <SCORE.heavy>
14

>  <SCORE.norm>
-0.591373

>  <RMSD>
3.455

$$$$
ligand
 OpenBabel11021811413D
libRbt.so/2013.1/901 2013/11/27
 14 13  0  0  0  0  0  0  0  0999 V2000
   46.7244    9.5005   17.7706 N   0  0  0  0  0  0  0  0  0  0  0  0
   47.2853    8.3310   18.4811 C   0  0  0  0  0  0  0  0  0  0  0  0
   46.7354    8.2363   19.9208 C   0  0  0  0  0  0  0  0  0  0  0  0
   45.2322    7.9268   20.0125 C   0  0  0  0  0  0  0  0  0  0  0  0
   44.9376    6.5551   19.5144 N   0  0  0  0  0  0  0  0  0  0  0  0
   45.1310    5.5615   20.6017 C   0  0  0  0  0  0  0  0  0  0  0  0
   44.5271    4.1414   20.3360 C   0  0  0  0  0  0  0  0  0  0  0  0
   45.3116    3.3041   19.2853 C   0  0  0  0  0  0  0  0  0  0  0  0
   44.7694    1.9023   19.0861 C   0  0  0  0  0  0  0  0  0  0  0  0
   45.7075    1.1837   18.2447 N   0  0  0  0  0  0  0  0  0  0  0  0
   44.9394    0.7102   17.1065 C   0  0  0  0  0  0  0  0  0  0  0  0
   45.5711   -0.5296   16.4844 C   0  0  0  0  0  0  0  0  0  0  0  0
   44.8834   -0.7729   15.1323 C   0  0  0  0  0  0  0  0  0  0  0  0
   45.4897   -1.8909   14.3939 N   0  0  0  0  0  0  0  0  0  0  0  0
  1  2  1  0  0  0  0
  2  3  1  0  0  0  0
  3  4  1  0  0  0  0
  4  5  1  0  0  0  0
  5  6  1  0  0  0  0
  6  7  1  0  0  0  0
  7  8  1  0  0  0  0
  8  9  1  0  0  0  0
  9 10  1  0  0  0  0
 10 11  1  0  0  0  0
 11 12  1  0  0  0  0
 12 13  1  0  0  0  0
 13 14  1  0  0  0  0
M  END
>  <CHROM.1>
66.84279183,66.80149278,85.21753132,165.51170776,72.67330742,176.82374306
-171.51660997,-123.84716408,-154.43727740,-167.88560926,175.57862250,45.51742313
3.86854483,18.31249940,-1.33716921,-1.14230514,-2.56008379

>  <Name>
ligand

>  <RI>
0

>  <Rbt.Current_Directory>
/home/itssahil/PROJECTS/Mol_Feturizer/New_Systems/rnas/1TN1

>  <Rbt.Executable>
rbdock ($Id: //depot/dev/client3/rdock/2013.1/src/exe/rbdock.cxx#4 $)

>  <Rbt.Library>
libRbt.so (2013.1, Build901 2013/11/27)

>  <Rbt.Parameter_File>
/export/apps/rDock/src/rDock_2013.1_src/data/scripts/dock_solv.prm

>  <Rbt.Receptor>
prm/pocket_docking_3.prm

>  <SCORE>
-8.41562

>  <SCORE.INTER>
-6.93063

>  <SCORE.INTER.CONST>
1

>  <SCORE.INTER.POLAR>
0

>  <SCORE.INTER.ROT>
11

>  <SCORE.INTER.SOLV>
12.3658

>  <SCORE.INTER.VDW>
-19.6757

>  <SCORE.INTER.norm>
-0.495045

>  <SCORE.INTRA>
-1.49105

>  <SCORE.INTRA.DIHEDRAL>
-3.67459

>  <SCORE.INTRA.DIHEDRAL.0>
7.79482

>  <SCORE.INTRA.POLAR>
0

>  <SCORE.INTRA.POLAR.0>
0

>  <SCORE.INTRA.REPUL>
0

>  <SCORE.INTRA.REPUL.0>
0

>  <SCORE.INTRA.SOLV>
1.73276

>  <SCORE.INTRA.SOLV.lig_0>
-49.456

>  <SCORE.INTRA.VDW>
-0.52014

>  <SCORE.INTRA.VDW.0>
-0.478406

>  <SCORE.INTRA.norm>
-0.106504

>  <SCORE.RESTR>
0.00606106

>  <SCORE.RESTR.CAVITY>
0.00606106

>  <SCORE.RESTR.norm>
0.000432933

>  <SCORE.SYSTEM>
0

>  <SCORE.SYSTEM.CONST>
0

>  <SCORE.SYSTEM.DIHEDRAL>
0

>  <SCORE.SYSTEM.SOLV>
0

>  <SCORE.SYSTEM.norm>
0

>  <SCORE.heavy>
14

>  <SCORE.norm>
-0.601116

>  <RMSD>
3.459

$$$$
ligand
 OpenBabel11021811413D
libRbt.so/2013.1/901 2013/11/27
 14 13  0  0  0  0  0  0  0  0999 V2000
   45.4871   10.0013   18.8204 N   0  0  0  0  0  0  0  0  0  0  0  0
   44.3364    9.0825   18.9570 C   0  0  0  0  0  0  0  0  0  0  0  0
   44.6134    7.9953   20.0179 C   0  0  0  0  0  0  0  0  0  0  0  0
   45.8347    7.1093   19.7225 C   0  0  0  0  0  0  0  0  0  0  0  0
   46.0223    6.0856   20.7870 N   0  0  0  0  0  0  0  0  0  0  0  0
   45.2484    4.8598   20.4624 C   0  0  0  0  0  0  0  0  0  0  0  0
   45.9360    3.8705   19.4620 C   0  0  0  0  0  0  0  0  0  0  0  0
   45.0407    2.6704   19.0393 C   0  0  0  0  0  0  0  0  0  0  0  0
   45.7349    1.6746   18.1308 C   0  0  0  0  0  0  0  0  0  0  0  0
   44.7403    0.7157   17.6886 N   0  0  0  0  0  0  0  0  0  0  0  0
   45.4733   -0.3223   16.9851 C   0  0  0  0  0  0  0  0  0  0  0  0
   45.0470   -0.4138   15.5245 C   0  0  0  0  0  0  0  0  0  0  0  0
   45.7160   -1.6587   14.9223 C   0  0  0  0  0  0  0  0  0  0  0  0
   45.4177   -1.8118   13.4904 N   0  0  0  0  0  0  0  0  0  0  0  0
  1  2  1  0  0  0  0
  2  3  1  0  0  0  0
  3  4  1  0  0  0  0
  4  5  1  0  0  0  0
  5  6  1  0  0  0  0
  6  7  1  0  0  0  0
  7  8  1  0  0  0  0
  8  9  1  0  0  0  0
  9 10  1  0  0  0  0
 10 11  1  0  0  0  0
 11 12  1  0  0  0  0
 12 13  1  0  0  0  0
 13 14  1  0  0  0  0
M  END
>  <CHROM.1>
-59.66599623,-179.59044276,88.66929366,82.09133394,-174.34853239,-176.83325285
-172.92245365,-172.00197490,-118.22458005,-171.83993998,-177.49394070,45.33198019
3.56124416,18.14377347,1.70639335,-1.44415459,0.57373580

>  <Name>
ligand

>  <RI>
0

>  <Rbt.Current_Directory>
/home/itssahil/PROJECTS/Mol_Feturizer/New_Systems/rnas/1TN1

>  <Rbt.Executable>
rbdock ($Id: //depot/dev/client3/rdock/2013.1/src/exe/rbdock.cxx#4 $)

>  <Rbt.Library>
libRbt.so (2013.1, Build901 2013/11/27)

>  <Rbt.Parameter_File>
/export/apps/rDock/src/rDock_2013.1_src/data/scripts/dock_solv.prm

>  <Rbt.Receptor>
prm/blind_docking_80.prm

>  <SCORE>
-10.2154

>  <SCORE.INTER>
-7.8133

>  <SCORE.INTER.CONST>
1

>  <SCORE.INTER.POLAR>
0

>  <SCORE.INTER.ROT>
11

>  <SCORE.INTER.SOLV>
12.6294

>  <SCORE.INTER.VDW>
-20.352

>  <SCORE.INTER.norm>
-0.558093

>  <SCORE.INTRA>
-2.40206

>  <SCORE.INTRA.DIHEDRAL>
-5.00658

>  <SCORE.INTRA.DIHEDRAL.0>
7.79482

>  <SCORE.INTRA.POLAR>
0

>  <SCORE.INTRA.POLAR.0>
0

>  <SCORE.INTRA.REPUL>
0

>  <SCORE.INTRA.REPUL.0>
0

>  <SCORE.INTRA.SOLV>
0.675557

>  <SCORE.INTRA.SOLV.lig_0>
-49.456

>  <SCORE.INTRA.VDW>
-0.23655

>  <SCORE.INTRA.VDW.0>
-0.478406

>  <SCORE.INTRA.norm>
-0.171576

>  <SCORE.RESTR>
0

>  <SCORE.RESTR.CAVITY>
0

>  <SCORE.RESTR.norm>
0

>  <SCORE.SYSTEM>
0

>  <SCORE.SYSTEM.CONST>
0

>  <SCORE.SYSTEM.DIHEDRAL>
0

>  <SCORE.SYSTEM.SOLV>
0

>  <SCORE.SYSTEM.norm>
0

>  <SCORE.heavy>
14

>  <SCORE.norm>
-0.729668

>  <RMSD>
3.460

$$$$
ligand
 OpenBabel11021811413D
libRbt.so/2013.1/901 2013/11/27
 14 13  0  0  0  0  0  0  0  0999 V2000
   47.2985    7.6066   17.2874 N   0  0  0  0  0  0  0  0  0  0  0  0
   47.6939    8.7741   18.1045 C   0  0  0  0  0  0  0  0  0  0  0  0
   46.6167    9.1077   19.1591 C   0  0  0  0  0  0  0  0  0  0  0  0
   46.4542    8.0511   20.2641 C   0  0  0  0  0  0  0  0  0  0  0  0
   45.9717    6.7597   19.7019 N   0  0  0  0  0  0  0  0  0  0  0  0
   45.9200    5.7241   20.7657 C   0  0  0  0  0  0  0  0  0  0  0  0
   45.0936    4.4397   20.4200 C   0  0  0  0  0  0  0  0  0  0  0  0
   45.6577    3.6252   19.2205 C   0  0  0  0  0  0  0  0  0  0  0  0
   44.8853    2.3553   18.9211 C   0  0  0  0  0  0  0  0  0  0  0  0
   45.4433    1.7758   17.7140 N   0  0  0  0  0  0  0  0  0  0  0  0
   44.5153    0.7356   17.3061 C   0  0  0  0  0  0  0  0  0  0  0  0
   44.5031    0.5616   15.7919 C   0  0  0  0  0  0  0  0  0  0  0  0
   45.7518   -0.2462   15.4068 C   0  0  0  0  0  0  0  0  0  0  0  0
   45.8659   -0.4330   13.9526 N   0  0  0  0  0  0  0  0  0  0  0  0
  1  2  1  0  0  0  0
  2  3  1  0  0  0  0
  3  4  1  0  0  0  0
  4  5  1  0  0  0  0
  5  6  1  0  0  0  0
  6  7  1  0  0  0  0
  7  8  1  0  0  0  0
  8  9  1  0  0  0  0
  9 10  1  0  0  0  0
 10 11  1  0  0  0  0
 11 12  1  0  0  0  0
 12 13  1  0  0  0  0
 13 14  1  0  0  0  0
M  END
>  <CHROM.1>
67.52377492,-64.25632523,175.70208693,164.76224268,62.81476184,177.85543728
174.69454314,-168.39021477,149.21401733,78.09261102,-177.95937569,45.83351800
4.20276881,18.14438296,-1.16517552,-1.12316561,-2.34920953

>  <Name>
ligand

>  <RI>
0

>  <Rbt.Current_Directory>
/home/itssahil/PROJECTS/Mol_Feturizer/New_Systems/rnas/1TN1

>  <Rbt.Executable>
rbdock ($Id: //depot/dev/client3/rdock/2013.1/src/exe/rbdock.cxx#4 $)

>  <Rbt.Library>
libRbt.so (2013.1, Build901 2013/11/27)

>  <Rbt.Parameter_File>
/export/apps/rDock/src/rDock_2013.1_src/data/scripts/dock_solv.prm

>  <Rbt.Receptor>
prm/pocket_docking_4.prm

>  <SCORE>
-8.59685

>  <SCORE.INTER>
-6.71648

>  <SCORE.INTER.CONST>
1

>  <SCORE.INTER.POLAR>
0

>  <SCORE.INTER.ROT>
11

>  <SCORE.INTER.SOLV>
10.1615

>  <SCORE.INTER.VDW>
-18.7982

>  <SCORE.INTER.norm>
-0.479749

>  <SCORE.INTRA>
-1.88037

>  <SCORE.INTRA.DIHEDRAL>
-5.2675

>  <SCORE.INTRA.DIHEDRAL.0>
7.79482

>  <SCORE.INTRA.POLAR>
0

>  <SCORE.INTRA.POLAR.0>
0

>  <SCORE.INTRA.REPUL>
0

>  <SCORE.INTRA.REPUL.0>
0

>  <SCORE.INTRA.SOLV>
3.42587

>  <SCORE.INTRA.SOLV.lig_0>
-49.456

>  <SCORE.INTRA.VDW>
-0.959553

>  <SCORE.INTRA.VDW.0>
-0.478406

>  <SCORE.INTRA.norm>
-0.134312

>  <SCORE.RESTR>
0

>  <SCORE.RESTR.CAVITY>
0

>  <SCORE.RESTR.norm>
0

>  <SCORE.SYSTEM>
0

>  <SCORE.SYSTEM.CONST>
0

>  <SCORE.SYSTEM.DIHEDRAL>
0

>  <SCORE.SYSTEM.SOLV>
0

>  <SCORE.SYSTEM.norm>
0

>  <SCORE.heavy>
14

>  <SCORE.norm>
-0.614061

>  <RMSD>
3.460

$$$$
ligand
 OpenBabel11021811413D
libRbt.so/2013.1/901 2013/11/27
 14 13  0  0  0  0  0  0  0  0999 V2000
   48.4887    9.0925   16.5398 N   0  0  0  0  0  0  0  0  0  0  0  0
   47.7712    9.3603   17.8049 C   0  0  0  0  0  0  0  0  0  0  0  0
   47.3525    8.0457   18.4981 C   0  0  0  0  0  0  0  0  0  0  0  0
   46.5499    8.2341   19.7959 C   0  0  0  0  0  0  0  0  0  0  0  0
   46.1227    6.9223   20.3553 N   0  0  0  0  0  0  0  0  0  0  0  0
   44.7332    7.0127   20.8727 C   0  0  0  0  0  0  0  0  0  0  0  0
   44.1685    5.7071   21.5274 C   0  0  0  0  0  0  0  0  0  0  0  0
   43.9881    4.5246   20.5326 C   0  0  0  0  0  0  0  0  0  0  0  0
   45.2757    4.0763   19.8694 C   0  0  0  0  0  0  0  0  0  0  0  0
   44.9463    3.0025   18.9513 N   0  0  0  0  0  0  0  0  0  0  0  0
   46.2148    2.4233   18.5447 C   0  0  0  0  0  0  0  0  0  0  0  0
   46.1467    1.8723   17.1252 C   0  0  0  0  0  0  0  0  0  0  0  0
   45.1348    0.7164   17.1234 C   0  0  0  0  0  0  0  0  0  0  0  0
   45.0752    0.0323   15.8230 N   0  0  0  0  0  0  0  0  0  0  0  0
  1  2  1  0  0  0  0
  2  3  1  0  0  0  0
  3  4  1  0  0  0  0
  4  5  1  0  0  0  0
  5  6  1  0  0  0  0
  6  7  1  0  0  0  0
  7  8  1  0  0  0  0
  8  9  1  0  0  0  0
  9 10  1  0  0  0  0
 10 11  1  0  0  0  0
 11 12  1  0  0  0  0
 12 13  1  0  0  0  0
 13 14  1  0  0  0  0
M  END
>  <CHROM.1>
-177.68814127,176.80219394,-139.46779101,-178.42286765,-65.84246083,60.69684441
-178.46801989,-168.76866117,-148.95989144,-64.23476867,-175.05540696,45.85475890
5.07315754,18.81207158,-1.16814119,-0.93916840,-2.61515973

>  <Name>
ligand

>  <RI>
0

>  <Rbt.Current_Directory>
/home/itssahil/PROJECTS/Mol_Feturizer/New_Systems/rnas/1TN1

>  <Rbt.Executable>
rbdock ($Id: //depot/dev/client3/rdock/2013.1/src/exe/rbdock.cxx#4 $)

>  <Rbt.Library>
libRbt.so (2013.1, Build901 2013/11/27)

>  <Rbt.Parameter_File>
/export/apps/rDock/src/rDock_2013.1_src/data/scripts/dock_solv.prm

>  <Rbt.Receptor>
prm/pocket_docking_7.prm

>  <SCORE>
-9.05609

>  <SCORE.INTER>
-6.52604

>  <SCORE.INTER.CONST>
1

>  <SCORE.INTER.POLAR>
0

>  <SCORE.INTER.ROT>
11

>  <SCORE.INTER.SOLV>
12.0618

>  <SCORE.INTER.VDW>
-19.3046

>  <SCORE.INTER.norm>
-0.466146

>  <SCORE.INTRA>
-2.53005

>  <SCORE.INTRA.DIHEDRAL>
-5.78756

>  <SCORE.INTRA.DIHEDRAL.0>
7.79482

>  <SCORE.INTRA.POLAR>
0

>  <SCORE.INTRA.POLAR.0>
0

>  <SCORE.INTRA.REPUL>
0

>  <SCORE.INTRA.REPUL.0>
0

>  <SCORE.INTRA.SOLV>
1.398

>  <SCORE.INTRA.SOLV.lig_0>
-49.456

>  <SCORE.INTRA.VDW>
-0.335264

>  <SCORE.INTRA.VDW.0>
-0.478406

>  <SCORE.INTRA.norm>
-0.180718

>  <SCORE.RESTR>
0

>  <SCORE.RESTR.CAVITY>
0

>  <SCORE.RESTR.norm>
0

>  <SCORE.SYSTEM>
0

>  <SCORE.SYSTEM.CONST>
0

>  <SCORE.SYSTEM.DIHEDRAL>
0

>  <SCORE.SYSTEM.SOLV>
0

>  <SCORE.SYSTEM.norm>
0

>  <SCORE.heavy>
14

>  <SCORE.norm>
-0.646864

>  <RMSD>
3.460

$$$$
ligand
 OpenBabel11021811413D
libRbt.so/2013.1/901 2013/11/27
 14 13  0  0  0  0  0  0  0  0999 V2000
   49.1368    8.9902   16.5592 N   0  0  0  0  0  0  0  0  0  0  0  0
   48.3570    7.8831   17.1536 C   0  0  0  0  0  0  0  0  0  0  0  0
   47.5578    8.3617   18.3850 C   0  0  0  0  0  0  0  0  0  0  0  0
   46.5985    7.3135   18.9722 C   0  0  0  0  0  0  0  0  0  0  0  0
   45.8557    7.8633   20.1393 N   0  0  0  0  0  0  0  0  0  0  0  0
   44.6147    7.0808   20.3729 C   0  0  0  0  0  0  0  0  0  0  0  0
   44.7704    5.8239   21.2939 C   0  0  0  0  0  0  0  0  0  0  0  0
   45.7412    4.7439   20.7356 C   0  0  0  0  0  0  0  0  0  0  0  0
   45.2118    4.0105   19.5188 C   0  0  0  0  0  0  0  0  0  0  0  0
   46.1976    3.0149   19.1425 N   0  0  0  0  0  0  0  0  0  0  0  0
   45.4437    1.8693   18.6640 C   0  0  0  0  0  0  0  0  0  0  0  0
   45.8867    1.4548   17.2658 C   0  0  0  0  0  0  0  0  0  0  0  0
   45.0279    0.2531   16.8434 C   0  0  0  0  0  0  0  0  0  0  0  0
   45.3925   -0.2489   15.5100 N   0  0  0  0  0  0  0  0  0  0  0  0
  1  2  1  0  0  0  0
  2  3  1  0  0  0  0
  3  4  1  0  0  0  0
  4  5  1  0  0  0  0
  5  6  1  0  0  0  0
  6  7  1  0  0  0  0
  7  8  1  0  0  0  0
  8  9  1  0  0  0  0
  9 10  1  0  0  0  0
 10 11  1  0  0  0  0
 11 12  1  0  0  0  0
 12 13  1  0  0  0  0
 13 14  1  0  0  0  0
M  END
>  <CHROM.1>
173.56749007,-179.13550072,158.75660662,87.67603909,-61.84537526,-70.08778936
-178.16635048,144.28380330,125.66410815,-179.42780998,-178.85248873,46.12782071
4.88670535,18.61146935,-1.16457275,-0.93975609,-2.60588489

>  <Name>
ligand

>  <RI>
0

>  <Rbt.Current_Directory>
/home/itssahil/PROJECTS/Mol_Feturizer/New_Systems/rnas/1TN1

>  <Rbt.Executable>
rbdock ($Id: //depot/dev/client3/rdock/2013.1/src/exe/rbdock.cxx#4 $)

>  <Rbt.Library>
libRbt.so (2013.1, Build901 2013/11/27)

>  <Rbt.Parameter_File>
/export/apps/rDock/src/rDock_2013.1_src/data/scripts/dock_solv.prm

>  <Rbt.Receptor>
prm/pocket_docking_6.prm

>  <SCORE>
-9.9274

>  <SCORE.INTER>
-7.6507

>  <SCORE.INTER.CONST>
1

>  <SCORE.INTER.POLAR>
0

>  <SCORE.INTER.ROT>
11

>  <SCORE.INTER.SOLV>
10.996

>  <SCORE.INTER.VDW>
-19.6991

>  <SCORE.INTER.norm>
-0.546479

>  <SCORE.INTRA>
-2.27671

>  <SCORE.INTRA.DIHEDRAL>
-4.37577

>  <SCORE.INTRA.DIHEDRAL.0>
7.79482

>  <SCORE.INTRA.POLAR>
0

>  <SCORE.INTRA.POLAR.0>
0

>  <SCORE.INTRA.REPUL>
0

>  <SCORE.INTRA.REPUL.0>
0

>  <SCORE.INTRA.SOLV>
0.726756

>  <SCORE.INTRA.SOLV.lig_0>
-49.456

>  <SCORE.INTRA.VDW>
-0.4522

>  <SCORE.INTRA.VDW.0>
-0.478406

>  <SCORE.INTRA.norm>
-0.162622

>  <SCORE.RESTR>
0

>  <SCORE.RESTR.CAVITY>
0

>  <SCORE.RESTR.norm>
0

>  <SCORE.SYSTEM>
0

>  <SCORE.SYSTEM.CONST>
0

>  <SCORE.SYSTEM.DIHEDRAL>
0

>  <SCORE.SYSTEM.SOLV>
0

>  <SCORE.SYSTEM.norm>
0

>  <SCORE.heavy>
14

>  <SCORE.norm>
-0.7091

>  <RMSD>
3.464

$$$$
ligand
 OpenBabel11021811413D
libRbt.so/2013.1/901 2013/11/27
 14 13  0  0  0  0  0  0  0  0999 V2000
   45.8878    9.3889   18.8910 N   0  0  0  0  0  0  0  0  0  0  0  0
   45.5508    8.3135   19.8486 C   0  0  0  0  0  0  0  0  0  0  0  0
   44.0227    8.1196   19.9550 C   0  0  0  0  0  0  0  0  0  0  0  0
   43.5844    7.0105   20.9254 C   0  0  0  0  0  0  0  0  0  0  0  0
   43.9415    5.6656   20.3962 N   0  0  0  0  0  0  0  0  0  0  0  0
   45.2346    5.2142   20.9714 C   0  0  0  0  0  0  0  0  0  0  0  0
   46.1820    4.4479   19.9879 C   0  0  0  0  0  0  0  0  0  0  0  0
   45.5047    3.2554   19.2534 C   0  0  0  0  0  0  0  0  0  0  0  0
   46.4516    2.4480   18.3872 C   0  0  0  0  0  0  0  0  0  0  0  0
   45.6882    1.3692   17.7891 N   0  0  0  0  0  0  0  0  0  0  0  0
   45.7956    1.5544   16.3525 C   0  0  0  0  0  0  0  0  0  0  0  0
   44.9714    0.5209   15.5937 C   0  0  0  0  0  0  0  0  0  0  0  0
   45.6151   -0.8533   15.8328 C   0  0  0  0  0  0  0  0  0  0  0  0
   45.0322   -1.8964   14.9756 N   0  0  0  0  0  0  0  0  0  0  0  0
  1  2  1  0  0  0  0
  2  3  1  0  0  0  0
  3  4  1  0  0  0  0
  4  5  1  0  0  0  0
  5  6  1  0  0  0  0
  6  7  1  0  0  0  0
  7  8  1  0  0  0  0
  8  9  1  0  0  0  0
  9 10  1  0  0  0  0
 10 11  1  0  0  0  0
 11 12  1  0  0  0  0
 12 13  1  0  0  0  0
 13 14  1  0  0  0  0
M  END
>  <CHROM.1>
179.59975439,-69.45985454,95.99035122,-141.37474729,-52.13265127,-175.36734880
179.13364091,120.14965418,-177.01723011,-66.92335151,-170.80631962,45.24738105
3.89714425,18.51161963,-1.91396199,-1.37026129,-2.99495208

>  <Name>
ligand

>  <RI>
0

>  <Rbt.Current_Directory>
/home/itssahil/PROJECTS/Mol_Feturizer/New_Systems/rnas/1TN1

>  <Rbt.Executable>
rbdock ($Id: //depot/dev/client3/rdock/2013.1/src/exe/rbdock.cxx#4 $)

>  <Rbt.Library>
libRbt.so (2013.1, Build901 2013/11/27)

>  <Rbt.Parameter_File>
/export/apps/rDock/src/rDock_2013.1_src/data/scripts/dock_solv.prm

>  <Rbt.Receptor>
prm/pocket_docking_6.prm

>  <SCORE>
-9.75932

>  <SCORE.INTER>
-7.83368

>  <SCORE.INTER.CONST>
1

>  <SCORE.INTER.POLAR>
0

>  <SCORE.INTER.ROT>
11

>  <SCORE.INTER.SOLV>
13.5765

>  <SCORE.INTER.VDW>
-20.6813

>  <SCORE.INTER.norm>
-0.559549

>  <SCORE.INTRA>
-1.92563

>  <SCORE.INTRA.DIHEDRAL>
-3.79193

>  <SCORE.INTRA.DIHEDRAL.0>
7.79482

>  <SCORE.INTRA.POLAR>
0

>  <SCORE.INTRA.POLAR.0>
0

>  <SCORE.INTRA.REPUL>
0

>  <SCORE.INTRA.REPUL.0>
0

>  <SCORE.INTRA.SOLV>
0.998141

>  <SCORE.INTRA.SOLV.lig_0>
-49.456

>  <SCORE.INTRA.VDW>
-0.528741

>  <SCORE.INTRA.VDW.0>
-0.478406

>  <SCORE.INTRA.norm>
-0.137545

>  <SCORE.RESTR>
0

>  <SCORE.RESTR.CAVITY>
0

>  <SCORE.RESTR.norm>
0

>  <SCORE.SYSTEM>
0

>  <SCORE.SYSTEM.CONST>
0

>  <SCORE.SYSTEM.DIHEDRAL>
0

>  <SCORE.SYSTEM.SOLV>
0

>  <SCORE.SYSTEM.norm>
0

>  <SCORE.heavy>
14

>  <SCORE.norm>
-0.697094

>  <RMSD>
3.466

$$$$
ligand
 OpenBabel11021811413D
libRbt.so/2013.1/901 2013/11/27
 14 13  0  0  0  0  0  0  0  0999 V2000
   46.3809    2.0458   15.5189 N   0  0  0  0  0  0  0  0  0  0  0  0
   46.0297    2.0436   16.9555 C   0  0  0  0  0  0  0  0  0  0  0  0
   46.0479    3.4740   17.5366 C   0  0  0  0  0  0  0  0  0  0  0  0
   45.7506    3.5566   19.0428 C   0  0  0  0  0  0  0  0  0  0  0  0
   45.7947    4.9662   19.5197 N   0  0  0  0  0  0  0  0  0  0  0  0
   45.6198    5.0151   20.9941 C   0  0  0  0  0  0  0  0  0  0  0  0
   44.1381    5.0626   21.4986 C   0  0  0  0  0  0  0  0  0  0  0  0
   43.5224    6.4910   21.5271 C   0  0  0  0  0  0  0  0  0  0  0  0
   43.2997    7.0929   20.1534 C   0  0  0  0  0  0  0  0  0  0  0  0
   42.7135    8.4067   20.3391 N   0  0  0  0  0  0  0  0  0  0  0  0
   41.6817    8.5293   19.3242 C   0  0  0  0  0  0  0  0  0  0  0  0
   40.9739    9.8765   19.4083 C   0  0  0  0  0  0  0  0  0  0  0  0
   41.9944   10.9619   19.0336 C   0  0  0  0  0  0  0  0  0  0  0  0
   42.3312   10.9374   17.6023 N   0  0  0  0  0  0  0  0  0  0  0  0
  1  2  1  0  0  0  0
  2  3  1  0  0  0  0
  3  4  1  0  0  0  0
  4  5  1  0  0  0  0
  5  6  1  0  0  0  0
  6  7  1  0  0  0  0
  7  8  1  0  0  0  0
  8  9  1  0  0  0  0
  9 10  1  0  0  0  0
 10 11  1  0  0  0  0
 11 12  1  0  0  0  0
 12 13  1  0  0  0  0
 13 14  1  0  0  0  0
M  END
>  <CHROM.1>
-177.56845135,179.72618350,-175.21261341,-86.92060380,-84.32636252,68.43626564
179.40268322,-138.63855769,179.83408679,66.58458066,70.87693953,44.01978130
6.31842877,19.17568961,0.11587784,1.03876135,-1.47902059

>  <Name>
ligand

>  <RI>
0

>  <Rbt.Current_Directory>
/home/itssahil/PROJECTS/Mol_Feturizer/New_Systems/rnas/1TN1

>  <Rbt.Executable>
rbdock ($Id: //depot/dev/client3/rdock/2013.1/src/exe/rbdock.cxx#4 $)

>  <Rbt.Library>
libRbt.so (2013.1, Build901 2013/11/27)

>  <Rbt.Parameter_File>
/export/apps/rDock/src/rDock_2013.1_src/data/scripts/dock_solv.prm

>  <Rbt.Receptor>
prm/pocket_docking_6.prm

>  <SCORE>
-9.91778

>  <SCORE.INTER>
-8.96518

>  <SCORE.INTER.CONST>
1

>  <SCORE.INTER.POLAR>
0

>  <SCORE.INTER.ROT>
11

>  <SCORE.INTER.SOLV>
17.6223

>  <SCORE.INTER.VDW>
-22.7842

>  <SCORE.INTER.norm>
-0.64037

>  <SCORE.INTRA>
-0.952601

>  <SCORE.INTRA.DIHEDRAL>
-3.4683

>  <SCORE.INTRA.DIHEDRAL.0>
7.79482

>  <SCORE.INTRA.POLAR>
0

>  <SCORE.INTRA.POLAR.0>
0

>  <SCORE.INTRA.REPUL>
0

>  <SCORE.INTRA.REPUL.0>
0

>  <SCORE.INTRA.SOLV>
2.36267

>  <SCORE.INTRA.SOLV.lig_0>
-49.456

>  <SCORE.INTRA.VDW>
-0.399787

>  <SCORE.INTRA.VDW.0>
-0.478406

>  <SCORE.INTRA.norm>
-0.0680429

>  <SCORE.RESTR>
0

>  <SCORE.RESTR.CAVITY>
0

>  <SCORE.RESTR.norm>
0

>  <SCORE.SYSTEM>
0

>  <SCORE.SYSTEM.CONST>
0

>  <SCORE.SYSTEM.DIHEDRAL>
0

>  <SCORE.SYSTEM.SOLV>
0

>  <SCORE.SYSTEM.norm>
0

>  <SCORE.heavy>
14

>  <SCORE.norm>
-0.708413

>  <RMSD>
3.473

$$$$
ligand
 OpenBabel11021811413D
libRbt.so/2013.1/901 2013/11/27
 14 13  0  0  0  0  0  0  0  0999 V2000
   48.3011    8.6819   16.8220 N   0  0  0  0  0  0  0  0  0  0  0  0
   47.8056    7.8533   17.9423 C   0  0  0  0  0  0  0  0  0  0  0  0
   47.0599    8.7134   18.9854 C   0  0  0  0  0  0  0  0  0  0  0  0
   46.5548    7.9363   20.2122 C   0  0  0  0  0  0  0  0  0  0  0  0
   45.5227    6.9362   19.8236 N   0  0  0  0  0  0  0  0  0  0  0  0
   45.5074    5.8110   20.7933 C   0  0  0  0  0  0  0  0  0  0  0  0
   46.2121    4.4966   20.3159 C   0  0  0  0  0  0  0  0  0  0  0  0
   45.5534    3.8398   19.0688 C   0  0  0  0  0  0  0  0  0  0  0  0
   46.1531    2.4998   18.6899 C   0  0  0  0  0  0  0  0  0  0  0  0
   45.4518    2.0213   17.5136 N   0  0  0  0  0  0  0  0  0  0  0  0
   45.7242    0.5965   17.4399 C   0  0  0  0  0  0  0  0  0  0  0  0
   45.2704    0.0102   16.1082 C   0  0  0  0  0  0  0  0  0  0  0  0
   45.6376   -1.4815   16.1079 C   0  0  0  0  0  0  0  0  0  0  0  0
   45.2654   -2.1450   14.8494 N   0  0  0  0  0  0  0  0  0  0  0  0
  1  2  1  0  0  0  0
  2  3  1  0  0  0  0
  3  4  1  0  0  0  0
  4  5  1  0  0  0  0
  5  6  1  0  0  0  0
  6  7  1  0  0  0  0
  7  8  1  0  0  0  0
  8  9  1  0  0  0  0
  9 10  1  0  0  0  0
 10 11  1  0  0  0  0
 11 12  1  0  0  0  0
 12 13  1  0  0  0  0
 13 14  1  0  0  0  0
M  END
>  <CHROM.1>
-177.88066058,-64.52165320,153.38410008,-102.42884561,-62.85894989,-174.40240124
-179.48748209,-161.82530964,-169.13714970,178.28982149,-178.88880936,46.14424390
3.98359009,18.19125672,-1.20883807,-1.10105447,-2.48710774

>  <Name>
ligand

>  <RI>
0

>  <Rbt.Current_Directory>
/home/itssahil/PROJECTS/Mol_Feturizer/New_Systems/rnas/1TN1

>  <Rbt.Executable>
rbdock ($Id: //depot/dev/client3/rdock/2013.1/src/exe/rbdock.cxx#4 $)

>  <Rbt.Library>
libRbt.so (2013.1, Build901 2013/11/27)

>  <Rbt.Parameter_File>
/export/apps/rDock/src/rDock_2013.1_src/data/scripts/dock_solv.prm

>  <Rbt.Receptor>
prm/pocket_docking_4.prm

>  <SCORE>
-11.8056

>  <SCORE.INTER>
-8.24334

>  <SCORE.INTER.CONST>
1

>  <SCORE.INTER.POLAR>
0

>  <SCORE.INTER.ROT>
11

>  <SCORE.INTER.SOLV>
12.7127

>  <SCORE.INTER.VDW>
-20.6665

>  <SCORE.INTER.norm>
-0.58881

>  <SCORE.INTRA>
-3.56229

>  <SCORE.INTRA.DIHEDRAL>
-5.7188

>  <SCORE.INTRA.DIHEDRAL.0>
7.79482

>  <SCORE.INTRA.POLAR>
0

>  <SCORE.INTRA.POLAR.0>
0

>  <SCORE.INTRA.REPUL>
0

>  <SCORE.INTRA.REPUL.0>
0

>  <SCORE.INTRA.SOLV>
0.579436

>  <SCORE.INTRA.SOLV.lig_0>
-49.456

>  <SCORE.INTRA.VDW>
-0.992607

>  <SCORE.INTRA.VDW.0>
-0.478406

>  <SCORE.INTRA.norm>
-0.254449

>  <SCORE.RESTR>
0

>  <SCORE.RESTR.CAVITY>
0

>  <SCORE.RESTR.norm>
0

>  <SCORE.SYSTEM>
0

>  <SCORE.SYSTEM.CONST>
0

>  <SCORE.SYSTEM.DIHEDRAL>
0

>  <SCORE.SYSTEM.SOLV>
0

>  <SCORE.SYSTEM.norm>
0

>  <SCORE.heavy>
14

>  <SCORE.norm>
-0.84326

>  <RMSD>
3.474

$$$$
ligand
 OpenBabel11021811413D
libRbt.so/2013.1/901 2013/11/27
 14 13  0  0  0  0  0  0  0  0999 V2000
   48.5026    8.1163   17.2603 N   0  0  0  0  0  0  0  0  0  0  0  0
   47.3790    7.9772   18.2118 C   0  0  0  0  0  0  0  0  0  0  0  0
   46.9616    9.3482   18.7866 C   0  0  0  0  0  0  0  0  0  0  0  0
   45.7802    9.2971   19.7694 C   0  0  0  0  0  0  0  0  0  0  0  0
   44.5543    8.7757   19.1047 N   0  0  0  0  0  0  0  0  0  0  0  0
   43.7186    8.0304   20.0809 C   0  0  0  0  0  0  0  0  0  0  0  0
   44.0424    6.5049   20.2231 C   0  0  0  0  0  0  0  0  0  0  0  0
   45.4843    6.2057   20.7249 C   0  0  0  0  0  0  0  0  0  0  0  0
   45.8814    4.7461   20.6218 C   0  0  0  0  0  0  0  0  0  0  0  0
   46.0578    4.4369   19.2155 N   0  0  0  0  0  0  0  0  0  0  0  0
   45.6621    3.0480   19.0607 C   0  0  0  0  0  0  0  0  0  0  0  0
   46.4888    2.3489   17.9879 C   0  0  0  0  0  0  0  0  0  0  0  0
   46.2109    3.0558   16.6526 C   0  0  0  0  0  0  0  0  0  0  0  0
   46.9533    2.4490   15.5376 N   0  0  0  0  0  0  0  0  0  0  0  0
  1  2  1  0  0  0  0
  2  3  1  0  0  0  0
  3  4  1  0  0  0  0
  4  5  1  0  0  0  0
  5  6  1  0  0  0  0
  6  7  1  0  0  0  0
  7  8  1  0  0  0  0
  8  9  1  0  0  0  0
  9 10  1  0  0  0  0
 10 11  1  0  0  0  0
 11 12  1  0  0  0  0
 12 13  1  0  0  0  0
 13 14  1  0  0  0  0
M  END
>  <CHROM.1>
179.00440085,-61.58005186,148.26214922,-88.71758782,61.76847404,-169.41630160
71.11394782,-147.55159255,-146.43109048,-62.55948275,-179.43776260,45.97673149
6.02433229,18.80312160,-1.74753582,-0.83823471,-2.94852223

>  <Name>
ligand

>  <RI>
0

>  <Rbt.Current_Directory>
/home/itssahil/PROJECTS/Mol_Feturizer/New_Systems/rnas/1TN1

>  <Rbt.Executable>
rbdock ($Id: //depot/dev/client3/rdock/2013.1/src/exe/rbdock.cxx#4 $)

>  <Rbt.Library>
libRbt.so (2013.1, Build901 2013/11/27)

>  <Rbt.Parameter_File>
/export/apps/rDock/src/rDock_2013.1_src/data/scripts/dock_solv.prm

>  <Rbt.Receptor>
prm/pocket_docking_6.prm

>  <SCORE>
-9.59254

>  <SCORE.INTER>
-7.37881

>  <SCORE.INTER.CONST>
1

>  <SCORE.INTER.POLAR>
0

>  <SCORE.INTER.ROT>
11

>  <SCORE.INTER.SOLV>
12.4926

>  <SCORE.INTER.VDW>
-20.0168

>  <SCORE.INTER.norm>
-0.527058

>  <SCORE.INTRA>
-2.21372

>  <SCORE.INTRA.DIHEDRAL>
-4.22919

>  <SCORE.INTRA.DIHEDRAL.0>
7.79482

>  <SCORE.INTRA.POLAR>
0

>  <SCORE.INTRA.POLAR.0>
0

>  <SCORE.INTRA.REPUL>
0

>  <SCORE.INTRA.REPUL.0>
0

>  <SCORE.INTRA.SOLV>
1.7309

>  <SCORE.INTRA.SOLV.lig_0>
-49.456

>  <SCORE.INTRA.VDW>
-0.964579

>  <SCORE.INTRA.VDW.0>
-0.478406

>  <SCORE.INTRA.norm>
-0.158123

>  <SCORE.RESTR>
0

>  <SCORE.RESTR.CAVITY>
0

>  <SCORE.RESTR.norm>
0

>  <SCORE.SYSTEM>
0

>  <SCORE.SYSTEM.CONST>
0

>  <SCORE.SYSTEM.DIHEDRAL>
0

>  <SCORE.SYSTEM.SOLV>
0

>  <SCORE.SYSTEM.norm>
0

>  <SCORE.heavy>
14

>  <SCORE.norm>
-0.685181

>  <RMSD>
3.484

$$$$
ligand
 OpenBabel11021811413D
libRbt.so/2013.1/901 2013/11/27
 14 13  0  0  0  0  0  0  0  0999 V2000
   45.7760   -1.8174   14.1851 N   0  0  0  0  0  0  0  0  0  0  0  0
   45.4914   -1.0524   15.4184 C   0  0  0  0  0  0  0  0  0  0  0  0
   44.8651    0.3205   15.0913 C   0  0  0  0  0  0  0  0  0  0  0  0
   44.5521    1.1901   16.3201 C   0  0  0  0  0  0  0  0  0  0  0  0
   45.8015    1.5887   17.0248 N   0  0  0  0  0  0  0  0  0  0  0  0
   45.6389    1.4220   18.4920 C   0  0  0  0  0  0  0  0  0  0  0  0
   44.9145    2.5976   19.2305 C   0  0  0  0  0  0  0  0  0  0  0  0
   45.8010    3.8590   19.4387 C   0  0  0  0  0  0  0  0  0  0  0  0
   45.1296    4.9580   20.2388 C   0  0  0  0  0  0  0  0  0  0  0  0
   46.1395    5.9495   20.5571 N   0  0  0  0  0  0  0  0  0  0  0  0
   45.7044    7.1797   19.9191 C   0  0  0  0  0  0  0  0  0  0  0  0
   46.5416    8.3697   20.3733 C   0  0  0  0  0  0  0  0  0  0  0  0
   46.0593    9.6021   19.5931 C   0  0  0  0  0  0  0  0  0  0  0  0
   46.3616    9.5038   18.1572 N   0  0  0  0  0  0  0  0  0  0  0  0
  1  2  1  0  0  0  0
  2  3  1  0  0  0  0
  3  4  1  0  0  0  0
  4  5  1  0  0  0  0
  5  6  1  0  0  0  0
  6  7  1  0  0  0  0
  7  8  1  0  0  0  0
  8  9  1  0  0  0  0
  9 10  1  0  0  0  0
 10 11  1  0  0  0  0
 11 12  1  0  0  0  0
 12 13  1  0  0  0  0
 13 14  1  0  0  0  0
M  END
>  <CHROM.1>
-179.31349418,65.49941743,-135.43839866,-82.31090745,-76.10625289,-175.93288215
169.83265744,118.10656361,169.88849618,177.01286554,-67.02922533,45.62674381
3.83363953,18.14594890,-2.18432099,1.43073211,1.06287411

>  <Name>
ligand

>  <RI>
0

>  <Rbt.Current_Directory>
/home/itssahil/PROJECTS/Mol_Feturizer/New_Systems/rnas/1TN1

>  <Rbt.Executable>
rbdock ($Id: //depot/dev/client3/rdock/2013.1/src/exe/rbdock.cxx#4 $)

>  <Rbt.Library>
libRbt.so (2013.1, Build901 2013/11/27)

>  <Rbt.Parameter_File>
/export/apps/rDock/src/rDock_2013.1_src/data/scripts/dock_solv.prm

>  <Rbt.Receptor>
prm/pocket_docking_4.prm

>  <SCORE>
-9.29855

>  <SCORE.INTER>
-7.75585

>  <SCORE.INTER.CONST>
1

>  <SCORE.INTER.POLAR>
0

>  <SCORE.INTER.ROT>
11

>  <SCORE.INTER.SOLV>
11.455

>  <SCORE.INTER.VDW>
-19.9222

>  <SCORE.INTER.norm>
-0.553989

>  <SCORE.INTRA>
-1.5427

>  <SCORE.INTRA.DIHEDRAL>
-3.42664

>  <SCORE.INTRA.DIHEDRAL.0>
7.79482

>  <SCORE.INTRA.POLAR>
0

>  <SCORE.INTRA.POLAR.0>
0

>  <SCORE.INTRA.REPUL>
0

>  <SCORE.INTRA.REPUL.0>
0

>  <SCORE.INTRA.SOLV>
1.31691

>  <SCORE.INTRA.SOLV.lig_0>
-49.456

>  <SCORE.INTRA.VDW>
-0.487839

>  <SCORE.INTRA.VDW.0>
-0.478406

>  <SCORE.INTRA.norm>
-0.110193

>  <SCORE.RESTR>
0

>  <SCORE.RESTR.CAVITY>
0

>  <SCORE.RESTR.norm>
0

>  <SCORE.SYSTEM>
0

>  <SCORE.SYSTEM.CONST>
0

>  <SCORE.SYSTEM.DIHEDRAL>
0

>  <SCORE.SYSTEM.SOLV>
0

>  <SCORE.SYSTEM.norm>
0

>  <SCORE.heavy>
14

>  <SCORE.norm>
-0.664182

>  <RMSD>
3.489

$$$$
ligand
 OpenBabel11021811413D
libRbt.so/2013.1/901 2013/11/27
 14 13  0  0  0  0  0  0  0  0999 V2000
   42.9081    9.4318   18.8286 N   0  0  0  0  0  0  0  0  0  0  0  0
   41.5515    9.7652   19.3143 C   0  0  0  0  0  0  0  0  0  0  0  0
   40.7846    8.4954   19.7427 C   0  0  0  0  0  0  0  0  0  0  0  0
   41.4192    7.7296   20.9152 C   0  0  0  0  0  0  0  0  0  0  0  0
   42.7484    7.1770   20.5356 N   0  0  0  0  0  0  0  0  0  0  0  0
   43.1389    6.0908   21.4707 C   0  0  0  0  0  0  0  0  0  0  0  0
   44.2008    5.0774   20.9252 C   0  0  0  0  0  0  0  0  0  0  0  0
   45.5792    5.7185   20.5945 C   0  0  0  0  0  0  0  0  0  0  0  0
   46.2636    5.1159   19.3831 C   0  0  0  0  0  0  0  0  0  0  0  0
   46.3361    3.6816   19.5877 N   0  0  0  0  0  0  0  0  0  0  0  0
   45.9211    3.0790   18.3330 C   0  0  0  0  0  0  0  0  0  0  0  0
   46.0687    1.5624   18.3669 C   0  0  0  0  0  0  0  0  0  0  0  0
   45.5601    1.0158   17.0243 C   0  0  0  0  0  0  0  0  0  0  0  0
   45.6666   -0.4488   16.9446 N   0  0  0  0  0  0  0  0  0  0  0  0
  1  2  1  0  0  0  0
  2  3  1  0  0  0  0
  3  4  1  0  0  0  0
  4  5  1  0  0  0  0
  5  6  1  0  0  0  0
  6  7  1  0  0  0  0
  7  8  1  0  0  0  0
  8  9  1  0  0  0  0
  9 10  1  0  0  0  0
 10 11  1  0  0  0  0
 11 12  1  0  0  0  0
 12 13  1  0  0  0  0
 13 14  1  0  0  0  0
M  END
>  <CHROM.1>
62.54680917,-65.02191154,-161.11233751,158.10491172,62.61568412,-144.11189617
-53.66143503,134.55583263,174.95069400,177.96202516,179.59071381,44.15324064
5.24950856,19.42635939,2.21147201,-0.64571384,0.71213189

>  <Name>
ligand

>  <RI>
0

>  <Rbt.Current_Directory>
/home/itssahil/PROJECTS/Mol_Feturizer/New_Systems/rnas/1TN1

>  <Rbt.Executable>
rbdock ($Id: //depot/dev/client3/rdock/2013.1/src/exe/rbdock.cxx#4 $)

>  <Rbt.Library>
libRbt.so (2013.1, Build901 2013/11/27)

>  <Rbt.Parameter_File>
/export/apps/rDock/src/rDock_2013.1_src/data/scripts/dock_solv.prm

>  <Rbt.Receptor>
prm/blind_docking_100.prm

>  <SCORE>
-10.8953

>  <SCORE.INTER>
-11.1733

>  <SCORE.INTER.CONST>
1

>  <SCORE.INTER.POLAR>
0

>  <SCORE.INTER.ROT>
11

>  <SCORE.INTER.SOLV>
21.9841

>  <SCORE.INTER.VDW>
-25.7102

>  <SCORE.INTER.norm>
-0.798093

>  <SCORE.INTRA>
0.277957

>  <SCORE.INTRA.DIHEDRAL>
-1.81606

>  <SCORE.INTRA.DIHEDRAL.0>
7.79482

>  <SCORE.INTRA.POLAR>
0

>  <SCORE.INTRA.POLAR.0>
0

>  <SCORE.INTRA.REPUL>
0

>  <SCORE.INTRA.REPUL.0>
0

>  <SCORE.INTRA.SOLV>
3.72066

>  <SCORE.INTRA.SOLV.lig_0>
-49.456

>  <SCORE.INTRA.VDW>
-0.674343

>  <SCORE.INTRA.VDW.0>
-0.478406

>  <SCORE.INTRA.norm>
0.019854

>  <SCORE.RESTR>
0

>  <SCORE.RESTR.CAVITY>
0

>  <SCORE.RESTR.norm>
0

>  <SCORE.SYSTEM>
0

>  <SCORE.SYSTEM.CONST>
0

>  <SCORE.SYSTEM.DIHEDRAL>
0

>  <SCORE.SYSTEM.SOLV>
0

>  <SCORE.SYSTEM.norm>
0

>  <SCORE.heavy>
14

>  <SCORE.norm>
-0.778239

>  <RMSD>
3.493

$$$$
ligand
 OpenBabel11021811413D
libRbt.so/2013.1/901 2013/11/27
 14 13  0  0  0  0  0  0  0  0999 V2000
   40.1314    7.5130   20.3144 N   0  0  0  0  0  0  0  0  0  0  0  0
   41.0570    8.6549   20.1518 C   0  0  0  0  0  0  0  0  0  0  0  0
   42.4547    8.1801   19.6992 C   0  0  0  0  0  0  0  0  0  0  0  0
   43.1358    7.1899   20.6582 C   0  0  0  0  0  0  0  0  0  0  0  0
   44.4505    6.7438   20.1206 N   0  0  0  0  0  0  0  0  0  0  0  0
   45.0817    5.7715   21.0496 C   0  0  0  0  0  0  0  0  0  0  0  0
   45.9702    4.6715   20.3766 C   0  0  0  0  0  0  0  0  0  0  0  0
   45.2290    3.8271   19.3005 C   0  0  0  0  0  0  0  0  0  0  0  0
   46.0790    2.7338   18.6831 C   0  0  0  0  0  0  0  0  0  0  0  0
   45.3299    2.1660   17.5782 N   0  0  0  0  0  0  0  0  0  0  0  0
   45.7127    0.7663   17.5154 C   0  0  0  0  0  0  0  0  0  0  0  0
   45.2569    0.1214   16.2117 C   0  0  0  0  0  0  0  0  0  0  0  0
   45.6800   -1.3549   16.2507 C   0  0  0  0  0  0  0  0  0  0  0  0
   45.3206   -2.0686   15.0161 N   0  0  0  0  0  0  0  0  0  0  0  0
  1  2  1  0  0  0  0
  2  3  1  0  0  0  0
  3  4  1  0  0  0  0
  4  5  1  0  0  0  0
  5  6  1  0  0  0  0
  6  7  1  0  0  0  0
  7  8  1  0  0  0  0
  8  9  1  0  0  0  0
  9 10  1  0  0  0  0
 10 11  1  0  0  0  0
 11 12  1  0  0  0  0
 12 13  1  0  0  0  0
 13 14  1  0  0  0  0
M  END
>  <CHROM.1>
-58.81210890,177.74591681,-179.06291372,147.96091623,-56.35447041,-178.12262412
-171.93085516,-147.99568682,-166.75634622,-178.88578329,-178.38188944,44.34945832
3.92267633,18.78065543,1.94380272,-0.38175597,0.60275254

>  <Name>
ligand

>  <RI>
0

>  <Rbt.Current_Directory>
/home/itssahil/PROJECTS/Mol_Feturizer/New_Systems/rnas/1TN1

>  <Rbt.Executable>
rbdock ($Id: //depot/dev/client3/rdock/2013.1/src/exe/rbdock.cxx#4 $)

>  <Rbt.Library>
libRbt.so (2013.1, Build901 2013/11/27)

>  <Rbt.Parameter_File>
/export/apps/rDock/src/rDock_2013.1_src/data/scripts/dock_solv.prm

>  <Rbt.Receptor>
prm/blind_docking_80.prm

>  <SCORE>
-14.105

>  <SCORE.INTER>
-10.8647

>  <SCORE.INTER.CONST>
1

>  <SCORE.INTER.POLAR>
0

>  <SCORE.INTER.ROT>
11

>  <SCORE.INTER.SOLV>
16.3514

>  <SCORE.INTER.VDW>
-23.6269

>  <SCORE.INTER.norm>
-0.776052

>  <SCORE.INTRA>
-3.24025

>  <SCORE.INTRA.DIHEDRAL>
-5.98201

>  <SCORE.INTRA.DIHEDRAL.0>
7.79482

>  <SCORE.INTRA.POLAR>
0

>  <SCORE.INTRA.POLAR.0>
0

>  <SCORE.INTRA.REPUL>
0

>  <SCORE.INTRA.REPUL.0>
0

>  <SCORE.INTRA.SOLV>
1.0483

>  <SCORE.INTRA.SOLV.lig_0>
-49.456

>  <SCORE.INTRA.VDW>
-0.773393

>  <SCORE.INTRA.VDW.0>
-0.478406

>  <SCORE.INTRA.norm>
-0.231446

>  <SCORE.RESTR>
0

>  <SCORE.RESTR.CAVITY>
0

>  <SCORE.RESTR.norm>
0

>  <SCORE.SYSTEM>
0

>  <SCORE.SYSTEM.CONST>
0

>  <SCORE.SYSTEM.DIHEDRAL>
0

>  <SCORE.SYSTEM.SOLV>
0

>  <SCORE.SYSTEM.norm>
0

>  <SCORE.heavy>
14

>  <SCORE.norm>
-1.0075

>  <RMSD>
3.494

$$$$
ligand
 OpenBabel11021811413D
libRbt.so/2013.1/901 2013/11/27
 14 13  0  0  0  0  0  0  0  0999 V2000
   47.2926    2.4248   15.3777 N   0  0  0  0  0  0  0  0  0  0  0  0
   46.4630    2.9924   16.4625 C   0  0  0  0  0  0  0  0  0  0  0  0
   46.4447    2.0631   17.6954 C   0  0  0  0  0  0  0  0  0  0  0  0
   45.5734    2.5621   18.8599 C   0  0  0  0  0  0  0  0  0  0  0  0
   46.1016    3.8391   19.4136 N   0  0  0  0  0  0  0  0  0  0  0  0
   45.0013    4.6274   20.0257 C   0  0  0  0  0  0  0  0  0  0  0  0
   45.3732    6.0856   20.4587 C   0  0  0  0  0  0  0  0  0  0  0  0
   44.2044    6.8684   21.1232 C   0  0  0  0  0  0  0  0  0  0  0  0
   43.0495    7.1629   20.1859 C   0  0  0  0  0  0  0  0  0  0  0  0
   42.0814    7.9574   20.9178 N   0  0  0  0  0  0  0  0  0  0  0  0
   40.9856    8.1986   19.9954 C   0  0  0  0  0  0  0  0  0  0  0  0
   40.8431    9.6818   19.6744 C   0  0  0  0  0  0  0  0  0  0  0  0
   42.0706   10.0991   18.8503 C   0  0  0  0  0  0  0  0  0  0  0  0
   42.0307   11.5204   18.4750 N   0  0  0  0  0  0  0  0  0  0  0  0
  1  2  1  0  0  0  0
  2  3  1  0  0  0  0
  3  4  1  0  0  0  0
  4  5  1  0  0  0  0
  5  6  1  0  0  0  0
  6  7  1  0  0  0  0
  7  8  1  0  0  0  0
  8  9  1  0  0  0  0
  9 10  1  0  0  0  0
 10 11  1  0  0  0  0
 11 12  1  0  0  0  0
 12 13  1  0  0  0  0
 13 14  1  0  0  0  0
M  END
>  <CHROM.1>
-178.50021848,-63.93712526,152.93937375,-171.30931674,-178.74178438,-66.19935544
-176.71944302,-179.10002518,-115.75400398,68.31905443,179.58441113,44.10811746
6.14867888,19.10847973,-0.01124322,0.98677927,-1.25117209

>  <Name>
ligand

>  <RI>
0

>  <Rbt.Current_Directory>
/home/itssahil/PROJECTS/Mol_Feturizer/New_Systems/rnas/1TN1

>  <Rbt.Executable>
rbdock ($Id: //depot/dev/client3/rdock/2013.1/src/exe/rbdock.cxx#4 $)

>  <Rbt.Library>
libRbt.so (2013.1, Build901 2013/11/27)

>  <Rbt.Parameter_File>
/export/apps/rDock/src/rDock_2013.1_src/data/scripts/dock_solv.prm

>  <Rbt.Receptor>
prm/pocket_docking_6.prm

>  <SCORE>
-14.1524

>  <SCORE.INTER>
-11.4255

>  <SCORE.INTER.CONST>
1

>  <SCORE.INTER.POLAR>
0

>  <SCORE.INTER.ROT>
11

>  <SCORE.INTER.SOLV>
17.5109

>  <SCORE.INTER.VDW>
-24.3873

>  <SCORE.INTER.norm>
-0.816106

>  <SCORE.INTRA>
-2.72689

>  <SCORE.INTRA.DIHEDRAL>
-5.50813

>  <SCORE.INTRA.DIHEDRAL.0>
7.79482

>  <SCORE.INTRA.POLAR>
0

>  <SCORE.INTRA.POLAR.0>
0

>  <SCORE.INTRA.REPUL>
0

>  <SCORE.INTRA.REPUL.0>
0

>  <SCORE.INTRA.SOLV>
0.795192

>  <SCORE.INTRA.SOLV.lig_0>
-49.456

>  <SCORE.INTRA.VDW>
-0.370423

>  <SCORE.INTRA.VDW.0>
-0.478406

>  <SCORE.INTRA.norm>
-0.194778

>  <SCORE.RESTR>
0

>  <SCORE.RESTR.CAVITY>
0

>  <SCORE.RESTR.norm>
0

>  <SCORE.SYSTEM>
0

>  <SCORE.SYSTEM.CONST>
0

>  <SCORE.SYSTEM.DIHEDRAL>
0

>  <SCORE.SYSTEM.SOLV>
0

>  <SCORE.SYSTEM.norm>
0

>  <SCORE.heavy>
14

>  <SCORE.norm>
-1.01088

>  <RMSD>
3.498

$$$$
ligand
 OpenBabel11021811413D
libRbt.so/2013.1/901 2013/11/27
 14 13  0  0  0  0  0  0  0  0999 V2000
   40.9344    8.3429   19.9193 N   0  0  0  0  0  0  0  0  0  0  0  0
   42.1187    7.5469   20.3081 C   0  0  0  0  0  0  0  0  0  0  0  0
   43.4248    8.3319   20.0593 C   0  0  0  0  0  0  0  0  0  0  0  0
   44.7082    7.5757   20.4402 C   0  0  0  0  0  0  0  0  0  0  0  0
   44.8903    6.3689   19.5877 N   0  0  0  0  0  0  0  0  0  0  0  0
   45.9046    5.4646   20.1879 C   0  0  0  0  0  0  0  0  0  0  0  0
   46.0685    4.0729   19.4891 C   0  0  0  0  0  0  0  0  0  0  0  0
   44.7739    3.2100   19.4808 C   0  0  0  0  0  0  0  0  0  0  0  0
   44.9725    1.8073   18.9406 C   0  0  0  0  0  0  0  0  0  0  0  0
   45.1554    1.9110   17.5053 N   0  0  0  0  0  0  0  0  0  0  0  0
   44.9751    0.5677   16.9830 C   0  0  0  0  0  0  0  0  0  0  0  0
   44.8219    0.5749   15.4665 C   0  0  0  0  0  0  0  0  0  0  0  0
   46.1561    1.0442   14.8669 C   0  0  0  0  0  0  0  0  0  0  0  0
   46.1415    1.0253   13.3964 N   0  0  0  0  0  0  0  0  0  0  0  0
  1  2  1  0  0  0  0
  2  3  1  0  0  0  0
  3  4  1  0  0  0  0
  4  5  1  0  0  0  0
  5  6  1  0  0  0  0
  6  7  1  0  0  0  0
  7  8  1  0  0  0  0
  8  9  1  0  0  0  0
  9 10  1  0  0  0  0
 10 11  1  0  0  0  0
 11 12  1  0  0  0  0
 12 13  1  0  0  0  0
 13 14  1  0  0  0  0
M  END
>  <CHROM.1>
179.89011348,64.46763421,-164.83838158,172.74243734,-60.19896353,-173.68987680
-72.47623661,-164.79248853,166.92386556,66.01074444,177.18267878,44.64629667
4.13162903,18.33108699,1.96432785,-0.75063807,0.88157758

>  <Name>
ligand

>  <RI>
0

>  <Rbt.Current_Directory>
/home/itssahil/PROJECTS/Mol_Feturizer/New_Systems/rnas/1TN1

>  <Rbt.Executable>
rbdock ($Id: //depot/dev/client3/rdock/2013.1/src/exe/rbdock.cxx#4 $)

>  <Rbt.Library>
libRbt.so (2013.1, Build901 2013/11/27)

>  <Rbt.Parameter_File>
/export/apps/rDock/src/rDock_2013.1_src/data/scripts/dock_solv.prm

>  <Rbt.Receptor>
prm/blind_docking_60.prm

>  <SCORE>
-9.15986

>  <SCORE.INTER>
-5.91732

>  <SCORE.INTER.CONST>
1

>  <SCORE.INTER.POLAR>
0

>  <SCORE.INTER.ROT>
11

>  <SCORE.INTER.SOLV>
14.395

>  <SCORE.INTER.VDW>
-19.6766

>  <SCORE.INTER.norm>
-0.422666

>  <SCORE.INTRA>
-3.24253

>  <SCORE.INTRA.DIHEDRAL>
-6.28242

>  <SCORE.INTRA.DIHEDRAL.0>
7.79482

>  <SCORE.INTRA.POLAR>
0

>  <SCORE.INTRA.POLAR.0>
0

>  <SCORE.INTRA.REPUL>
0

>  <SCORE.INTRA.REPUL.0>
0

>  <SCORE.INTRA.SOLV>
1.31341

>  <SCORE.INTRA.SOLV.lig_0>
-49.456

>  <SCORE.INTRA.VDW>
-0.758031

>  <SCORE.INTRA.VDW.0>
-0.478406

>  <SCORE.INTRA.norm>
-0.23161

>  <SCORE.RESTR>
0

>  <SCORE.RESTR.CAVITY>
0

>  <SCORE.RESTR.norm>
0

>  <SCORE.SYSTEM>
0

>  <SCORE.SYSTEM.CONST>
0

>  <SCORE.SYSTEM.DIHEDRAL>
0

>  <SCORE.SYSTEM.SOLV>
0

>  <SCORE.SYSTEM.norm>
0

>  <SCORE.heavy>
14

>  <SCORE.norm>
-0.654275

>  <RMSD>
3.499

$$$$
ligand
 OpenBabel11021811413D
libRbt.so/2013.1/901 2013/11/27
 14 13  0  0  0  0  0  0  0  0999 V2000
   45.3974    9.9680   18.8360 N   0  0  0  0  0  0  0  0  0  0  0  0
   44.1601    9.2090   19.1193 C   0  0  0  0  0  0  0  0  0  0  0  0
   44.4201    8.0782   20.1380 C   0  0  0  0  0  0  0  0  0  0  0  0
   45.4145    7.0057   19.6636 C   0  0  0  0  0  0  0  0  0  0  0  0
   45.6145    5.9633   20.7075 N   0  0  0  0  0  0  0  0  0  0  0  0
   46.2631    4.7640   20.1178 C   0  0  0  0  0  0  0  0  0  0  0  0
   45.2924    3.7174   19.4739 C   0  0  0  0  0  0  0  0  0  0  0  0
   46.0129    2.5301   18.7728 C   0  0  0  0  0  0  0  0  0  0  0  0
   45.0722    1.4663   18.2416 C   0  0  0  0  0  0  0  0  0  0  0  0
   45.8730    0.4848   17.5347 N   0  0  0  0  0  0  0  0  0  0  0  0
   45.0403   -0.0003   16.4481 C   0  0  0  0  0  0  0  0  0  0  0  0
   45.7157   -1.1396   15.6937 C   0  0  0  0  0  0  0  0  0  0  0  0
   44.8378   -1.4776   14.4791 C   0  0  0  0  0  0  0  0  0  0  0  0
   45.4736   -2.4624   13.5911 N   0  0  0  0  0  0  0  0  0  0  0  0
  1  2  1  0  0  0  0
  2  3  1  0  0  0  0
  3  4  1  0  0  0  0
  4  5  1  0  0  0  0
  5  6  1  0  0  0  0
  6  7  1  0  0  0  0
  7  8  1  0  0  0  0
  8  9  1  0  0  0  0
  9 10  1  0  0  0  0
 10 11  1  0  0  0  0
 11 12  1  0  0  0  0
 12 13  1  0  0  0  0
 13 14  1  0  0  0  0
M  END
>  <CHROM.1>
-62.41815549,179.54023200,164.48509279,-86.41347703,175.60301000,175.65439013
175.84559651,-147.05923364,-174.73769139,-173.82744557,173.41628251,45.32758159
3.43618163,18.05853632,1.67782969,-1.28087070,0.54334909

>  <Name>
ligand

>  <RI>
0

>  <Rbt.Current_Directory>
/home/itssahil/PROJECTS/Mol_Feturizer/New_Systems/rnas/1TN1

>  <Rbt.Executable>
rbdock ($Id: //depot/dev/client3/rdock/2013.1/src/exe/rbdock.cxx#4 $)

>  <Rbt.Library>
libRbt.so (2013.1, Build901 2013/11/27)

>  <Rbt.Parameter_File>
/export/apps/rDock/src/rDock_2013.1_src/data/scripts/dock_solv.prm

>  <Rbt.Receptor>
prm/blind_docking_80.prm

>  <SCORE>
-10.9101

>  <SCORE.INTER>
-7.70574

>  <SCORE.INTER.CONST>
1

>  <SCORE.INTER.POLAR>
0

>  <SCORE.INTER.ROT>
11

>  <SCORE.INTER.SOLV>
13.5576

>  <SCORE.INTER.VDW>
-20.5897

>  <SCORE.INTER.norm>
-0.55041

>  <SCORE.INTRA>
-3.20436

>  <SCORE.INTRA.DIHEDRAL>
-5.85995

>  <SCORE.INTRA.DIHEDRAL.0>
7.79482

>  <SCORE.INTRA.POLAR>
0

>  <SCORE.INTRA.POLAR.0>
0

>  <SCORE.INTRA.REPUL>
0

>  <SCORE.INTRA.REPUL.0>
0

>  <SCORE.INTRA.SOLV>
0.641951

>  <SCORE.INTRA.SOLV.lig_0>
-49.456

>  <SCORE.INTRA.VDW>
-0.595364

>  <SCORE.INTRA.VDW.0>
-0.478406

>  <SCORE.INTRA.norm>
-0.228883

>  <SCORE.RESTR>
0

>  <SCORE.RESTR.CAVITY>
0

>  <SCORE.RESTR.norm>
0

>  <SCORE.SYSTEM>
0

>  <SCORE.SYSTEM.CONST>
0

>  <SCORE.SYSTEM.DIHEDRAL>
0

>  <SCORE.SYSTEM.SOLV>
0

>  <SCORE.SYSTEM.norm>
0

>  <SCORE.heavy>
14

>  <SCORE.norm>
-0.779293

>  <RMSD>
3.499

$$$$
ligand
 OpenBabel11021811413D
libRbt.so/2013.1/901 2013/11/27
 14 13  0  0  0  0  0  0  0  0999 V2000
   45.2819    0.2554   15.3202 N   0  0  0  0  0  0  0  0  0  0  0  0
   45.2964    1.6472   15.8200 C   0  0  0  0  0  0  0  0  0  0  0  0
   45.8784    1.7211   17.2483 C   0  0  0  0  0  0  0  0  0  0  0  0
   45.9144    3.1346   17.8522 C   0  0  0  0  0  0  0  0  0  0  0  0
   46.4777    3.1128   19.2301 N   0  0  0  0  0  0  0  0  0  0  0  0
   46.1901    4.3952   19.9226 C   0  0  0  0  0  0  0  0  0  0  0  0
   44.7123    4.5880   20.4033 C   0  0  0  0  0  0  0  0  0  0  0  0
   44.4893    5.8549   21.2785 C   0  0  0  0  0  0  0  0  0  0  0  0
   44.8281    7.1554   20.5764 C   0  0  0  0  0  0  0  0  0  0  0  0
   46.2650    7.1875   20.3805 N   0  0  0  0  0  0  0  0  0  0  0  0
   46.5681    8.5149   19.8746 C   0  0  0  0  0  0  0  0  0  0  0  0
   46.7557    8.5059   18.3620 C   0  0  0  0  0  0  0  0  0  0  0  0
   47.9854    7.6392   18.0514 C   0  0  0  0  0  0  0  0  0  0  0  0
   48.3169    7.6385   16.6186 N   0  0  0  0  0  0  0  0  0  0  0  0
  1  2  1  0  0  0  0
  2  3  1  0  0  0  0
  3  4  1  0  0  0  0
  4  5  1  0  0  0  0
  5  6  1  0  0  0  0
  6  7  1  0  0  0  0
  7  8  1  0  0  0  0
  8  9  1  0  0  0  0
  9 10  1  0  0  0  0
 10 11  1  0  0  0  0
 11 12  1  0  0  0  0
 12 13  1  0  0  0  0
 13 14  1  0  0  0  0
M  END
>  <CHROM.1>
-179.29881591,179.53612306,-165.55025795,74.64440172,172.65479881,60.32300151
-68.24118712,-172.51176162,-100.01060786,-64.00106264,-175.93776666,46.06833256
5.09668140,18.63878202,-1.80397288,0.98438522,0.63106512

>  <Name>
ligand

>  <RI>
0

>  <Rbt.Current_Directory>
/home/itssahil/PROJECTS/Mol_Feturizer/New_Systems/rnas/1TN1

>  <Rbt.Executable>
rbdock ($Id: //depot/dev/client3/rdock/2013.1/src/exe/rbdock.cxx#4 $)

>  <Rbt.Library>
libRbt.so (2013.1, Build901 2013/11/27)

>  <Rbt.Parameter_File>
/export/apps/rDock/src/rDock_2013.1_src/data/scripts/dock_solv.prm

>  <Rbt.Receptor>
prm/blind_docking_80.prm

>  <SCORE>
-7.94795

>  <SCORE.INTER>
-6.1349

>  <SCORE.INTER.CONST>
1

>  <SCORE.INTER.POLAR>
0

>  <SCORE.INTER.ROT>
11

>  <SCORE.INTER.SOLV>
13.075

>  <SCORE.INTER.VDW>
-19.3816

>  <SCORE.INTER.norm>
-0.438207

>  <SCORE.INTRA>
-1.81305

>  <SCORE.INTRA.DIHEDRAL>
-5.93714

>  <SCORE.INTRA.DIHEDRAL.0>
7.79482

>  <SCORE.INTRA.POLAR>
0

>  <SCORE.INTRA.POLAR.0>
0

>  <SCORE.INTRA.REPUL>
0

>  <SCORE.INTRA.REPUL.0>
0

>  <SCORE.INTRA.SOLV>
1.4339

>  <SCORE.INTRA.SOLV.lig_0>
-49.456

>  <SCORE.INTRA.VDW>
0.438568

>  <SCORE.INTRA.VDW.0>
-0.478406

>  <SCORE.INTRA.norm>
-0.129504

>  <SCORE.RESTR>
0

>  <SCORE.RESTR.CAVITY>
0

>  <SCORE.RESTR.norm>
0

>  <SCORE.SYSTEM>
0

>  <SCORE.SYSTEM.CONST>
0

>  <SCORE.SYSTEM.DIHEDRAL>
0

>  <SCORE.SYSTEM.SOLV>
0

>  <SCORE.SYSTEM.norm>
0

>  <SCORE.heavy>
14

>  <SCORE.norm>
-0.567711

>  <RMSD>
3.509

$$$$
ligand
 OpenBabel11021811413D
libRbt.so/2013.1/901 2013/11/27
 14 13  0  0  0  0  0  0  0  0999 V2000
   40.2513    7.7399   19.9218 N   0  0  0  0  0  0  0  0  0  0  0  0
   41.3105    8.7720   19.9247 C   0  0  0  0  0  0  0  0  0  0  0  0
   42.7093    8.1365   19.7711 C   0  0  0  0  0  0  0  0  0  0  0  0
   43.0630    7.0997   20.8500 C   0  0  0  0  0  0  0  0  0  0  0  0
   44.4558    6.6029   20.6774 N   0  0  0  0  0  0  0  0  0  0  0  0
   44.5749    5.2172   21.1992 C   0  0  0  0  0  0  0  0  0  0  0  0
   44.6449    4.0895   20.1150 C   0  0  0  0  0  0  0  0  0  0  0  0
   46.0079    4.0093   19.3692 C   0  0  0  0  0  0  0  0  0  0  0  0
   45.9881    3.1146   18.1452 C   0  0  0  0  0  0  0  0  0  0  0  0
   45.5416    1.8009   18.5684 N   0  0  0  0  0  0  0  0  0  0  0  0
   44.7790    1.2622   17.4557 C   0  0  0  0  0  0  0  0  0  0  0  0
   45.5090    0.1021   16.7890 C   0  0  0  0  0  0  0  0  0  0  0  0
   44.7730   -0.2190   15.4794 C   0  0  0  0  0  0  0  0  0  0  0  0
   45.4118   -1.3167   14.7379 N   0  0  0  0  0  0  0  0  0  0  0  0
  1  2  1  0  0  0  0
  2  3  1  0  0  0  0
  3  4  1  0  0  0  0
  4  5  1  0  0  0  0
  5  6  1  0  0  0  0
  6  7  1  0  0  0  0
  7  8  1  0  0  0  0
  8  9  1  0  0  0  0
  9 10  1  0  0  0  0
 10 11  1  0  0  0  0
 11 12  1  0  0  0  0
 12 13  1  0  0  0  0
 13 14  1  0  0  0  0
M  END
>  <CHROM.1>
-57.55758856,-176.39528563,-151.52458132,104.57882577,74.03618976,-168.50964164
-56.10066393,146.13865179,110.53615648,-169.22619327,179.01091404,44.21585161
4.02949790,18.78613478,1.96990462,-0.54324834,0.70690008

>  <Name>
ligand

>  <RI>
0

>  <Rbt.Current_Directory>
/home/itssahil/PROJECTS/Mol_Feturizer/New_Systems/rnas/1TN1

>  <Rbt.Executable>
rbdock ($Id: //depot/dev/client3/rdock/2013.1/src/exe/rbdock.cxx#4 $)

>  <Rbt.Library>
libRbt.so (2013.1, Build901 2013/11/27)

>  <Rbt.Parameter_File>
/export/apps/rDock/src/rDock_2013.1_src/data/scripts/dock_solv.prm

>  <Rbt.Receptor>
prm/blind_docking_100.prm

>  <SCORE>
-10.434

>  <SCORE.INTER>
-9.37198

>  <SCORE.INTER.CONST>
1

>  <SCORE.INTER.POLAR>
0

>  <SCORE.INTER.ROT>
11

>  <SCORE.INTER.SOLV>
16.1669

>  <SCORE.INTER.VDW>
-22.5703

>  <SCORE.INTER.norm>
-0.669427

>  <SCORE.INTRA>
-1.06204

>  <SCORE.INTRA.DIHEDRAL>
-2.56961

>  <SCORE.INTRA.DIHEDRAL.0>
7.79482

>  <SCORE.INTRA.POLAR>
0

>  <SCORE.INTRA.POLAR.0>
0

>  <SCORE.INTRA.REPUL>
0

>  <SCORE.INTRA.REPUL.0>
0

>  <SCORE.INTRA.SOLV>
1.41437

>  <SCORE.INTRA.SOLV.lig_0>
-49.456

>  <SCORE.INTRA.VDW>
-0.484421

>  <SCORE.INTRA.VDW.0>
-0.478406

>  <SCORE.INTRA.norm>
-0.0758601

>  <SCORE.RESTR>
0

>  <SCORE.RESTR.CAVITY>
0

>  <SCORE.RESTR.norm>
0

>  <SCORE.SYSTEM>
0

>  <SCORE.SYSTEM.CONST>
0

>  <SCORE.SYSTEM.DIHEDRAL>
0

>  <SCORE.SYSTEM.SOLV>
0

>  <SCORE.SYSTEM.norm>
0

>  <SCORE.heavy>
14

>  <SCORE.norm>
-0.745287

>  <RMSD>
3.519

$$$$
ligand
 OpenBabel11021811413D
libRbt.so/2013.1/901 2013/11/27
 14 13  0  0  0  0  0  0  0  0999 V2000
   47.7571    9.6499   17.1110 N   0  0  0  0  0  0  0  0  0  0  0  0
   47.7306    8.1804   16.9466 C   0  0  0  0  0  0  0  0  0  0  0  0
   47.5517    7.4699   18.3058 C   0  0  0  0  0  0  0  0  0  0  0  0
   46.2423    7.8082   19.0372 C   0  0  0  0  0  0  0  0  0  0  0  0
   46.0738    6.9619   20.2503 N   0  0  0  0  0  0  0  0  0  0  0  0
   44.6751    7.0446   20.7437 C   0  0  0  0  0  0  0  0  0  0  0  0
   44.1416    5.7708   21.4820 C   0  0  0  0  0  0  0  0  0  0  0  0
   43.9555    4.5327   20.5584 C   0  0  0  0  0  0  0  0  0  0  0  0
   45.2350    4.0618   19.8951 C   0  0  0  0  0  0  0  0  0  0  0  0
   44.9220    2.8660   19.1359 N   0  0  0  0  0  0  0  0  0  0  0  0
   46.1928    2.3620   18.6452 C   0  0  0  0  0  0  0  0  0  0  0  0
   46.5049    2.8976   17.2527 C   0  0  0  0  0  0  0  0  0  0  0  0
   45.4106    2.3879   16.3026 C   0  0  0  0  0  0  0  0  0  0  0  0
   45.4465    0.9259   16.1474 N   0  0  0  0  0  0  0  0  0  0  0  0
  1  2  1  0  0  0  0
  2  3  1  0  0  0  0
  3  4  1  0  0  0  0
  4  5  1  0  0  0  0
  5  6  1  0  0  0  0
  6  7  1  0  0  0  0
  7  8  1  0  0  0  0
  8  9  1  0  0  0  0
  9 10  1  0  0  0  0
 10 11  1  0  0  0  0
 11 12  1  0  0  0  0
 12 13  1  0  0  0  0
 13 14  1  0  0  0  0
M  END
>  <CHROM.1>
61.33657893,173.13651920,-165.53435814,150.39772631,-68.23702646,60.81274354
176.72171761,-173.63377362,-92.81917851,-62.48079859,-65.77389619,45.84559350
5.20859393,18.70120986,-1.17010210,-0.97878437,-2.65118877

>  <Name>
ligand

>  <RI>
0

>  <Rbt.Current_Directory>
/home/itssahil/PROJECTS/Mol_Feturizer/New_Systems/rnas/1TN1

>  <Rbt.Executable>
rbdock ($Id: //depot/dev/client3/rdock/2013.1/src/exe/rbdock.cxx#4 $)

>  <Rbt.Library>
libRbt.so (2013.1, Build901 2013/11/27)

>  <Rbt.Parameter_File>
/export/apps/rDock/src/rDock_2013.1_src/data/scripts/dock_solv.prm

>  <Rbt.Receptor>
prm/pocket_docking_6.prm

>  <SCORE>
-6.65754

>  <SCORE.INTER>
-5.48315

>  <SCORE.INTER.CONST>
1

>  <SCORE.INTER.POLAR>
0

>  <SCORE.INTER.ROT>
11

>  <SCORE.INTER.SOLV>
10.7004

>  <SCORE.INTER.VDW>
-18.1556

>  <SCORE.INTER.norm>
-0.391654

>  <SCORE.INTRA>
-1.17439

>  <SCORE.INTRA.DIHEDRAL>
-5.69444

>  <SCORE.INTRA.DIHEDRAL.0>
7.79482

>  <SCORE.INTRA.POLAR>
0

>  <SCORE.INTRA.POLAR.0>
0

>  <SCORE.INTRA.REPUL>
0

>  <SCORE.INTRA.REPUL.0>
0

>  <SCORE.INTRA.SOLV>
3.47068

>  <SCORE.INTRA.SOLV.lig_0>
-49.456

>  <SCORE.INTRA.VDW>
-0.0625016

>  <SCORE.INTRA.VDW.0>
-0.478406

>  <SCORE.INTRA.norm>
-0.0838847

>  <SCORE.RESTR>
0

>  <SCORE.RESTR.CAVITY>
0

>  <SCORE.RESTR.norm>
0

>  <SCORE.SYSTEM>
0

>  <SCORE.SYSTEM.CONST>
0

>  <SCORE.SYSTEM.DIHEDRAL>
0

>  <SCORE.SYSTEM.SOLV>
0

>  <SCORE.SYSTEM.norm>
0

>  <SCORE.heavy>
14

>  <SCORE.norm>
-0.475538

>  <RMSD>
3.520

$$$$
ligand
 OpenBabel11021811413D
libRbt.so/2013.1/901 2013/11/27
 14 13  0  0  0  0  0  0  0  0999 V2000
   46.4553   -0.6724   14.2802 N   0  0  0  0  0  0  0  0  0  0  0  0
   45.0391   -0.9317   14.6184 C   0  0  0  0  0  0  0  0  0  0  0  0
   44.5085    0.1056   15.6315 C   0  0  0  0  0  0  0  0  0  0  0  0
   45.2211    0.0922   16.9938 C   0  0  0  0  0  0  0  0  0  0  0  0
   44.5998    1.0673   17.9316 N   0  0  0  0  0  0  0  0  0  0  0  0
   45.6277    2.0046   18.4530 C   0  0  0  0  0  0  0  0  0  0  0  0
   45.0800    3.2248   19.2674 C   0  0  0  0  0  0  0  0  0  0  0  0
   46.1848    4.1894   19.7862 C   0  0  0  0  0  0  0  0  0  0  0  0
   45.6565    5.3347   20.6277 C   0  0  0  0  0  0  0  0  0  0  0  0
   44.7875    6.1345   19.7853 N   0  0  0  0  0  0  0  0  0  0  0  0
   44.6599    7.4190   20.4511 C   0  0  0  0  0  0  0  0  0  0  0  0
   43.4690    8.2073   19.9186 C   0  0  0  0  0  0  0  0  0  0  0  0
   42.1921    7.4965   20.3919 C   0  0  0  0  0  0  0  0  0  0  0  0
   40.9746    8.1356   19.8702 N   0  0  0  0  0  0  0  0  0  0  0  0
  1  2  1  0  0  0  0
  2  3  1  0  0  0  0
  3  4  1  0  0  0  0
  4  5  1  0  0  0  0
  5  6  1  0  0  0  0
  6  7  1  0  0  0  0
  7  8  1  0  0  0  0
  8  9  1  0  0  0  0
  9 10  1  0  0  0  0
 10 11  1  0  0  0  0
 11 12  1  0  0  0  0
 12 13  1  0  0  0  0
 13 14  1  0  0  0  0
M  END
>  <CHROM.1>
-62.60561082,-176.86737032,-124.98215072,170.49837858,-179.50791626,-177.35015770
-62.65039677,-161.66957013,-162.96434938,69.84302374,-176.88311742,44.60416930
3.70053526,18.42923040,1.31065623,0.49315063,-2.47728879

>  <Name>
ligand

>  <RI>
0

>  <Rbt.Current_Directory>
/home/itssahil/PROJECTS/Mol_Feturizer/New_Systems/rnas/1TN1

>  <Rbt.Executable>
rbdock ($Id: //depot/dev/client3/rdock/2013.1/src/exe/rbdock.cxx#4 $)

>  <Rbt.Library>
libRbt.so (2013.1, Build901 2013/11/27)

>  <Rbt.Parameter_File>
/export/apps/rDock/src/rDock_2013.1_src/data/scripts/dock_solv.prm

>  <Rbt.Receptor>
prm/pocket_docking_6.prm

>  <SCORE>
-10.9486

>  <SCORE.INTER>
-8.302

>  <SCORE.INTER.CONST>
1

>  <SCORE.INTER.POLAR>
0

>  <SCORE.INTER.ROT>
11

>  <SCORE.INTER.SOLV>
15.8825

>  <SCORE.INTER.VDW>
-21.7622

>  <SCORE.INTER.norm>
-0.593

>  <SCORE.INTRA>
-2.64663

>  <SCORE.INTRA.DIHEDRAL>
-5.5486

>  <SCORE.INTRA.DIHEDRAL.0>
7.79482

>  <SCORE.INTRA.POLAR>
0

>  <SCORE.INTRA.POLAR.0>
0

>  <SCORE.INTRA.REPUL>
0

>  <SCORE.INTRA.REPUL.0>
0

>  <SCORE.INTRA.SOLV>
1.42888

>  <SCORE.INTRA.SOLV.lig_0>
-49.456

>  <SCORE.INTRA.VDW>
-0.58677

>  <SCORE.INTRA.VDW.0>
-0.478406

>  <SCORE.INTRA.norm>
-0.189045

>  <SCORE.RESTR>
0

>  <SCORE.RESTR.CAVITY>
0

>  <SCORE.RESTR.norm>
0

>  <SCORE.SYSTEM>
0

>  <SCORE.SYSTEM.CONST>
0

>  <SCORE.SYSTEM.DIHEDRAL>
0

>  <SCORE.SYSTEM.SOLV>
0

>  <SCORE.SYSTEM.norm>
0

>  <SCORE.heavy>
14

>  <SCORE.norm>
-0.782045

>  <RMSD>
3.526

$$$$
ligand
 OpenBabel11021811413D
libRbt.so/2013.1/901 2013/11/27
 14 13  0  0  0  0  0  0  0  0999 V2000
   46.4953   10.0972   18.0071 N   0  0  0  0  0  0  0  0  0  0  0  0
   46.0122    8.7835   18.4843 C   0  0  0  0  0  0  0  0  0  0  0  0
   46.1339    8.6682   20.0192 C   0  0  0  0  0  0  0  0  0  0  0  0
   45.6123    7.3457   20.6049 C   0  0  0  0  0  0  0  0  0  0  0  0
   46.3974    6.1885   20.0942 N   0  0  0  0  0  0  0  0  0  0  0  0
   45.5112    5.0121   19.9008 C   0  0  0  0  0  0  0  0  0  0  0  0
   46.1915    3.7479   19.2754 C   0  0  0  0  0  0  0  0  0  0  0  0
   45.1917    2.6369   18.8434 C   0  0  0  0  0  0  0  0  0  0  0  0
   45.8557    1.4009   18.2688 C   0  0  0  0  0  0  0  0  0  0  0  0
   44.8092    0.5421   17.7476 N   0  0  0  0  0  0  0  0  0  0  0  0
   45.4821   -0.4594   16.9389 C   0  0  0  0  0  0  0  0  0  0  0  0
   44.9742   -0.4492   15.5019 C   0  0  0  0  0  0  0  0  0  0  0  0
   45.5947   -1.6555   14.7810 C   0  0  0  0  0  0  0  0  0  0  0  0
   45.1891   -1.7279   13.3693 N   0  0  0  0  0  0  0  0  0  0  0  0
  1  2  1  0  0  0  0
  2  3  1  0  0  0  0
  3  4  1  0  0  0  0
  4  5  1  0  0  0  0
  5  6  1  0  0  0  0
  6  7  1  0  0  0  0
  7  8  1  0  0  0  0
  8  9  1  0  0  0  0
  9 10  1  0  0  0  0
 10 11  1  0  0  0  0
 11 12  1  0  0  0  0
 12 13  1  0  0  0  0
 13 14  1  0  0  0  0
M  END
>  <CHROM.1>
178.22846877,62.58020774,-144.15067103,176.11561176,-169.18571489,-178.61452429
-172.32068129,166.97644732,-122.04745224,-172.34176527,-178.89315806,45.67500905
3.58070313,17.98861393,-0.70771614,-1.46153049,-1.87179212

>  <Name>
ligand

>  <RI>
0

>  <Rbt.Current_Directory>
/home/itssahil/PROJECTS/Mol_Feturizer/New_Systems/rnas/1TN1

>  <Rbt.Executable>
rbdock ($Id: //depot/dev/client3/rdock/2013.1/src/exe/rbdock.cxx#4 $)

>  <Rbt.Library>
libRbt.so (2013.1, Build901 2013/11/27)

>  <Rbt.Parameter_File>
/export/apps/rDock/src/rDock_2013.1_src/data/scripts/dock_solv.prm

>  <Rbt.Receptor>
prm/pocket_docking_4.prm

>  <SCORE>
-10.3611

>  <SCORE.INTER>
-7.34787

>  <SCORE.INTER.CONST>
1

>  <SCORE.INTER.POLAR>
0

>  <SCORE.INTER.ROT>
11

>  <SCORE.INTER.SOLV>
12.1891

>  <SCORE.INTER.VDW>
-19.895

>  <SCORE.INTER.norm>
-0.524848

>  <SCORE.INTRA>
-3.01321

>  <SCORE.INTRA.DIHEDRAL>
-4.7513

>  <SCORE.INTRA.DIHEDRAL.0>
7.79482

>  <SCORE.INTRA.POLAR>
0

>  <SCORE.INTRA.POLAR.0>
0

>  <SCORE.INTRA.REPUL>
0

>  <SCORE.INTRA.REPUL.0>
0

>  <SCORE.INTRA.SOLV>
0.284594

>  <SCORE.INTRA.SOLV.lig_0>
-49.456

>  <SCORE.INTRA.VDW>
-0.779858

>  <SCORE.INTRA.VDW.0>
-0.478406

>  <SCORE.INTRA.norm>
-0.21523

>  <SCORE.RESTR>
0

>  <SCORE.RESTR.CAVITY>
0

>  <SCORE.RESTR.norm>
0

>  <SCORE.SYSTEM>
0

>  <SCORE.SYSTEM.CONST>
0

>  <SCORE.SYSTEM.DIHEDRAL>
0

>  <SCORE.SYSTEM.SOLV>
0

>  <SCORE.SYSTEM.norm>
0

>  <SCORE.heavy>
14

>  <SCORE.norm>
-0.740077

>  <RMSD>
3.532

$$$$
ligand
 OpenBabel11021811413D
libRbt.so/2013.1/901 2013/11/27
 14 13  0  0  0  0  0  0  0  0999 V2000
   46.4131   -1.5139   14.0010 N   0  0  0  0  0  0  0  0  0  0  0  0
   45.3574   -1.8962   14.9636 C   0  0  0  0  0  0  0  0  0  0  0  0
   45.5436   -1.1702   16.3135 C   0  0  0  0  0  0  0  0  0  0  0  0
   45.4342    0.3615   16.2366 C   0  0  0  0  0  0  0  0  0  0  0  0
   45.6515    0.9806   17.5730 N   0  0  0  0  0  0  0  0  0  0  0  0
   44.3823    1.5604   18.0827 C   0  0  0  0  0  0  0  0  0  0  0  0
   44.5185    2.4921   19.3339 C   0  0  0  0  0  0  0  0  0  0  0  0
   45.5368    3.6543   19.1526 C   0  0  0  0  0  0  0  0  0  0  0  0
   45.6407    4.5745   20.3531 C   0  0  0  0  0  0  0  0  0  0  0  0
   46.5642    5.6397   20.0116 N   0  0  0  0  0  0  0  0  0  0  0  0
   45.7500    6.7144   19.4713 C   0  0  0  0  0  0  0  0  0  0  0  0
   46.0808    8.0492   20.1287 C   0  0  0  0  0  0  0  0  0  0  0  0
   45.3040    9.1419   19.3787 C   0  0  0  0  0  0  0  0  0  0  0  0
   43.8494    9.0036   19.5459 N   0  0  0  0  0  0  0  0  0  0  0  0
  1  2  1  0  0  0  0
  2  3  1  0  0  0  0
  3  4  1  0  0  0  0
  4  5  1  0  0  0  0
  5  6  1  0  0  0  0
  6  7  1  0  0  0  0
  7  8  1  0  0  0  0
  8  9  1  0  0  0  0
  9 10  1  0  0  0  0
 10 11  1  0  0  0  0
 11 12  1  0  0  0  0
 12 13  1  0  0  0  0
 13 14  1  0  0  0  0
M  END
>  <CHROM.1>
62.63615952,-178.91541575,-110.61984318,-168.07984115,53.98711538,178.55853398
-176.95033760,92.07517085,130.34234330,173.10248531,65.76725087,45.43039152
3.39937568,18.18204948,-1.27842297,1.47643215,0.15444504

>  <Name>
ligand

>  <RI>
0

>  <Rbt.Current_Directory>
/home/itssahil/PROJECTS/Mol_Feturizer/New_Systems/rnas/1TN1

>  <Rbt.Executable>
rbdock ($Id: //depot/dev/client3/rdock/2013.1/src/exe/rbdock.cxx#4 $)

>  <Rbt.Library>
libRbt.so (2013.1, Build901 2013/11/27)

>  <Rbt.Parameter_File>
/export/apps/rDock/src/rDock_2013.1_src/data/scripts/dock_solv.prm

>  <Rbt.Receptor>
prm/pocket_docking_3.prm

>  <SCORE>
-6.97083

>  <SCORE.INTER>
-5.76442

>  <SCORE.INTER.CONST>
1

>  <SCORE.INTER.POLAR>
0

>  <SCORE.INTER.ROT>
11

>  <SCORE.INTER.SOLV>
16.5686

>  <SCORE.INTER.VDW>
-20.2991

>  <SCORE.INTER.norm>
-0.411744

>  <SCORE.INTRA>
-1.20642

>  <SCORE.INTRA.DIHEDRAL>
-4.26029

>  <SCORE.INTRA.DIHEDRAL.0>
7.79482

>  <SCORE.INTRA.POLAR>
0

>  <SCORE.INTRA.POLAR.0>
0

>  <SCORE.INTRA.REPUL>
0

>  <SCORE.INTRA.REPUL.0>
0

>  <SCORE.INTRA.SOLV>
1.79227

>  <SCORE.INTRA.SOLV.lig_0>
-49.456

>  <SCORE.INTRA.VDW>
0.0275891

>  <SCORE.INTRA.VDW.0>
-0.478406

>  <SCORE.INTRA.norm>
-0.0861727

>  <SCORE.RESTR>
0

>  <SCORE.RESTR.CAVITY>
0

>  <SCORE.RESTR.norm>
0

>  <SCORE.SYSTEM>
0

>  <SCORE.SYSTEM.CONST>
0

>  <SCORE.SYSTEM.DIHEDRAL>
0

>  <SCORE.SYSTEM.SOLV>
0

>  <SCORE.SYSTEM.norm>
0

>  <SCORE.heavy>
14

>  <SCORE.norm>
-0.497917

>  <RMSD>
3.538

$$$$
ligand
 OpenBabel11021811413D
libRbt.so/2013.1/901 2013/11/27
 14 13  0  0  0  0  0  0  0  0999 V2000
   45.6663   -0.9503   14.0081 N   0  0  0  0  0  0  0  0  0  0  0  0
   45.3107   -1.7963   15.1678 C   0  0  0  0  0  0  0  0  0  0  0  0
   45.6622   -1.0959   16.4981 C   0  0  0  0  0  0  0  0  0  0  0  0
   44.8988    0.2143   16.7526 C   0  0  0  0  0  0  0  0  0  0  0  0
   45.3513    0.8597   18.0156 N   0  0  0  0  0  0  0  0  0  0  0  0
   46.1458    2.0780   17.7135 C   0  0  0  0  0  0  0  0  0  0  0  0
   46.3084    3.0905   18.8969 C   0  0  0  0  0  0  0  0  0  0  0  0
   44.9634    3.6476   19.4454 C   0  0  0  0  0  0  0  0  0  0  0  0
   45.1271    4.7549   20.4682 C   0  0  0  0  0  0  0  0  0  0  0  0
   45.7946    5.8635   19.8126 N   0  0  0  0  0  0  0  0  0  0  0  0
   45.5103    7.0348   20.6230 C   0  0  0  0  0  0  0  0  0  0  0  0
   46.6060    8.0858   20.4880 C   0  0  0  0  0  0  0  0  0  0  0  0
   46.5800    8.6008   19.0409 C   0  0  0  0  0  0  0  0  0  0  0  0
   45.3753    9.3944   18.7552 N   0  0  0  0  0  0  0  0  0  0  0  0
  1  2  1  0  0  0  0
  2  3  1  0  0  0  0
  3  4  1  0  0  0  0
  4  5  1  0  0  0  0
  5  6  1  0  0  0  0
  6  7  1  0  0  0  0
  7  8  1  0  0  0  0
  8  9  1  0  0  0  0
  9 10  1  0  0  0  0
 10 11  1  0  0  0  0
 11 12  1  0  0  0  0
 12 13  1  0  0  0  0
 13 14  1  0  0  0  0
M  END
>  <CHROM.1>
62.71543446,-176.86180453,108.33348310,161.74570064,-59.57936044,-172.67959781
62.18260807,159.98321998,152.99631441,65.87245233,69.16524654,45.66434927
3.55574443,18.26353528,-1.89728724,1.42060999,0.75981430

>  <Name>
ligand

>  <RI>
0

>  <Rbt.Current_Directory>
/home/itssahil/PROJECTS/Mol_Feturizer/New_Systems/rnas/1TN1

>  <Rbt.Executable>
rbdock ($Id: //depot/dev/client3/rdock/2013.1/src/exe/rbdock.cxx#4 $)

>  <Rbt.Library>
libRbt.so (2013.1, Build901 2013/11/27)

>  <Rbt.Parameter_File>
/export/apps/rDock/src/rDock_2013.1_src/data/scripts/dock_solv.prm

>  <Rbt.Receptor>
prm/pocket_docking_8.prm

>  <SCORE>
-9.03983

>  <SCORE.INTER>
-7.71301

>  <SCORE.INTER.CONST>
1

>  <SCORE.INTER.POLAR>
0

>  <SCORE.INTER.ROT>
11

>  <SCORE.INTER.SOLV>
12.068

>  <SCORE.INTER.VDW>
-20.098

>  <SCORE.INTER.norm>
-0.550929

>  <SCORE.INTRA>
-1.32682

>  <SCORE.INTRA.DIHEDRAL>
-4.89585

>  <SCORE.INTRA.DIHEDRAL.0>
7.79482

>  <SCORE.INTRA.POLAR>
0

>  <SCORE.INTRA.POLAR.0>
0

>  <SCORE.INTRA.REPUL>
0

>  <SCORE.INTRA.REPUL.0>
0

>  <SCORE.INTRA.SOLV>
3.07423

>  <SCORE.INTRA.SOLV.lig_0>
-49.456

>  <SCORE.INTRA.VDW>
-0.41601

>  <SCORE.INTRA.VDW.0>
-0.478406

>  <SCORE.INTRA.norm>
-0.0947729

>  <SCORE.RESTR>
0

>  <SCORE.RESTR.CAVITY>
0

>  <SCORE.RESTR.norm>
0

>  <SCORE.SYSTEM>
0

>  <SCORE.SYSTEM.CONST>
0

>  <SCORE.SYSTEM.DIHEDRAL>
0

>  <SCORE.SYSTEM.SOLV>
0

>  <SCORE.SYSTEM.norm>
0

>  <SCORE.heavy>
14

>  <SCORE.norm>
-0.645702

>  <RMSD>
3.539

$$$$
ligand
 OpenBabel11021811413D
libRbt.so/2013.1/901 2013/11/27
 14 13  0  0  0  0  0  0  0  0999 V2000
   46.6037   10.3119   18.2543 N   0  0  0  0  0  0  0  0  0  0  0  0
   46.8615    8.8580   18.1712 C   0  0  0  0  0  0  0  0  0  0  0  0
   46.3333    8.1252   19.4234 C   0  0  0  0  0  0  0  0  0  0  0  0
   46.4674    6.5944   19.3731 C   0  0  0  0  0  0  0  0  0  0  0  0
   45.8587    5.9648   20.5771 N   0  0  0  0  0  0  0  0  0  0  0  0
   45.8275    4.4875   20.4236 C   0  0  0  0  0  0  0  0  0  0  0  0
   44.6232    3.9179   19.6005 C   0  0  0  0  0  0  0  0  0  0  0  0
   44.6402    2.3708   19.4380 C   0  0  0  0  0  0  0  0  0  0  0  0
   45.8102    1.8500   18.6263 C   0  0  0  0  0  0  0  0  0  0  0  0
   45.5011    2.0608   17.2247 N   0  0  0  0  0  0  0  0  0  0  0  0
   45.1327    0.7583   16.6981 C   0  0  0  0  0  0  0  0  0  0  0  0
   45.9323    0.4164   15.4462 C   0  0  0  0  0  0  0  0  0  0  0  0
   45.6426   -1.0511   15.0961 C   0  0  0  0  0  0  0  0  0  0  0  0
   46.4785   -1.5328   13.9861 N   0  0  0  0  0  0  0  0  0  0  0  0
  1  2  1  0  0  0  0
  2  3  1  0  0  0  0
  3  4  1  0  0  0  0
  4  5  1  0  0  0  0
  5  6  1  0  0  0  0
  6  7  1  0  0  0  0
  7  8  1  0  0  0  0
  8  9  1  0  0  0  0
  9 10  1  0  0  0  0
 10 11  1  0  0  0  0
 11 12  1  0  0  0  0
 12 13  1  0  0  0  0
 13 14  1  0  0  0  0
M  END
>  <CHROM.1>
175.70954078,-176.43214529,172.13164491,-82.79671916,178.86179639,-64.98132237
-78.81814855,-104.10998256,-127.82366993,171.11612561,-173.71716984,45.83653425
3.79498847,18.02440380,-1.37880361,-1.22178006,-2.55990392

>  <Name>
ligand

>  <RI>
0

>  <Rbt.Current_Directory>
/home/itssahil/PROJECTS/Mol_Feturizer/New_Systems/rnas/1TN1

>  <Rbt.Executable>
rbdock ($Id: //depot/dev/client3/rdock/2013.1/src/exe/rbdock.cxx#4 $)

>  <Rbt.Library>
libRbt.so (2013.1, Build901 2013/11/27)

>  <Rbt.Parameter_File>
/export/apps/rDock/src/rDock_2013.1_src/data/scripts/dock_solv.prm

>  <Rbt.Receptor>
prm/pocket_docking_3.prm

>  <SCORE>
-5.55138

>  <SCORE.INTER>
-4.04163

>  <SCORE.INTER.CONST>
1

>  <SCORE.INTER.POLAR>
0

>  <SCORE.INTER.ROT>
11

>  <SCORE.INTER.SOLV>
11.0144

>  <SCORE.INTER.VDW>
-17.2992

>  <SCORE.INTER.norm>
-0.288688

>  <SCORE.INTRA>
-1.50975

>  <SCORE.INTRA.DIHEDRAL>
-3.30935

>  <SCORE.INTRA.DIHEDRAL.0>
7.79482

>  <SCORE.INTRA.POLAR>
0

>  <SCORE.INTRA.POLAR.0>
0

>  <SCORE.INTRA.REPUL>
0

>  <SCORE.INTRA.REPUL.0>
0

>  <SCORE.INTRA.SOLV>
0.48782

>  <SCORE.INTRA.SOLV.lig_0>
-49.456

>  <SCORE.INTRA.VDW>
-0.0989904

>  <SCORE.INTRA.VDW.0>
-0.478406

>  <SCORE.INTRA.norm>
-0.10784

>  <SCORE.RESTR>
0

>  <SCORE.RESTR.CAVITY>
0

>  <SCORE.RESTR.norm>
0

>  <SCORE.SYSTEM>
0

>  <SCORE.SYSTEM.CONST>
0

>  <SCORE.SYSTEM.DIHEDRAL>
0

>  <SCORE.SYSTEM.SOLV>
0

>  <SCORE.SYSTEM.norm>
0

>  <SCORE.heavy>
14

>  <SCORE.norm>
-0.396527

>  <RMSD>
3.542

$$$$
ligand
 OpenBabel11021811413D
libRbt.so/2013.1/901 2013/11/27
 14 13  0  0  0  0  0  0  0  0999 V2000
   42.0909   11.4704   18.4127 N   0  0  0  0  0  0  0  0  0  0  0  0
   41.3900   10.3069   18.9977 C   0  0  0  0  0  0  0  0  0  0  0  0
   42.3590    9.1255   19.2198 C   0  0  0  0  0  0  0  0  0  0  0  0
   41.6997    7.8534   19.7775 C   0  0  0  0  0  0  0  0  0  0  0  0
   42.7002    6.7644   19.9496 N   0  0  0  0  0  0  0  0  0  0  0  0
   43.2633    6.7972   21.3238 C   0  0  0  0  0  0  0  0  0  0  0  0
   43.8123    5.4333   21.8629 C   0  0  0  0  0  0  0  0  0  0  0  0
   45.1305    4.9655   21.1817 C   0  0  0  0  0  0  0  0  0  0  0  0
   44.9505    4.4923   19.7525 C   0  0  0  0  0  0  0  0  0  0  0  0
   46.2064    3.9082   19.3215 N   0  0  0  0  0  0  0  0  0  0  0  0
   45.8684    2.6192   18.7438 C   0  0  0  0  0  0  0  0  0  0  0  0
   46.8183    2.2497   17.6104 C   0  0  0  0  0  0  0  0  0  0  0  0
   46.5040    3.1706   16.4217 C   0  0  0  0  0  0  0  0  0  0  0  0
   47.3128    2.8448   15.2375 N   0  0  0  0  0  0  0  0  0  0  0  0
  1  2  1  0  0  0  0
  2  3  1  0  0  0  0
  3  4  1  0  0  0  0
  4  5  1  0  0  0  0
  5  6  1  0  0  0  0
  6  7  1  0  0  0  0
  7  8  1  0  0  0  0
  8  9  1  0  0  0  0
  9 10  1  0  0  0  0
 10 11  1  0  0  0  0
 11 12  1  0  0  0  0
 12 13  1  0  0  0  0
 13 14  1  0  0  0  0
M  END
>  <CHROM.1>
-177.80447536,179.51873265,92.00716928,154.39453346,71.08203463,-71.84230040
-171.66367811,130.60776456,147.85194384,-71.10263908,-176.54800816,44.29318115
5.85708853,19.12986877,-3.01851050,-0.97815072,2.00928542

>  <Name>
ligand

>  <RI>
0

>  <Rbt.Current_Directory>
/home/itssahil/PROJECTS/Mol_Feturizer/New_Systems/rnas/1TN1

>  <Rbt.Executable>
rbdock ($Id: //depot/dev/client3/rdock/2013.1/src/exe/rbdock.cxx#4 $)

>  <Rbt.Library>
libRbt.so (2013.1, Build901 2013/11/27)

>  <Rbt.Parameter_File>
/export/apps/rDock/src/rDock_2013.1_src/data/scripts/dock_solv.prm

>  <Rbt.Receptor>
prm/blind_docking_80.prm

>  <SCORE>
-11.004

>  <SCORE.INTER>
-9.53831

>  <SCORE.INTER.CONST>
1

>  <SCORE.INTER.POLAR>
0

>  <SCORE.INTER.ROT>
11

>  <SCORE.INTER.SOLV>
17.8967

>  <SCORE.INTER.VDW>
-23.2578

>  <SCORE.INTER.norm>
-0.681308

>  <SCORE.INTRA>
-1.4657

>  <SCORE.INTRA.DIHEDRAL>
-3.09398

>  <SCORE.INTRA.DIHEDRAL.0>
7.79482

>  <SCORE.INTRA.POLAR>
0

>  <SCORE.INTRA.POLAR.0>
0

>  <SCORE.INTRA.REPUL>
0

>  <SCORE.INTRA.REPUL.0>
0

>  <SCORE.INTRA.SOLV>
1.14915

>  <SCORE.INTRA.SOLV.lig_0>
-49.456

>  <SCORE.INTRA.VDW>
-0.493291

>  <SCORE.INTRA.VDW.0>
-0.478406

>  <SCORE.INTRA.norm>
-0.104693

>  <SCORE.RESTR>
0

>  <SCORE.RESTR.CAVITY>
0

>  <SCORE.RESTR.norm>
0

>  <SCORE.SYSTEM>
0

>  <SCORE.SYSTEM.CONST>
0

>  <SCORE.SYSTEM.DIHEDRAL>
0

>  <SCORE.SYSTEM.SOLV>
0

>  <SCORE.SYSTEM.norm>
0

>  <SCORE.heavy>
14

>  <SCORE.norm>
-0.786001

>  <RMSD>
3.553

$$$$
ligand
 OpenBabel11021811413D
libRbt.so/2013.1/901 2013/11/27
 14 13  0  0  0  0  0  0  0  0999 V2000
   45.8050   -0.5216   13.6160 N   0  0  0  0  0  0  0  0  0  0  0  0
   45.2546    0.2598   14.7447 C   0  0  0  0  0  0  0  0  0  0  0  0
   45.5142   -0.4477   16.0923 C   0  0  0  0  0  0  0  0  0  0  0  0
   44.9498    0.2865   17.3196 C   0  0  0  0  0  0  0  0  0  0  0  0
   45.6225    1.6006   17.5121 N   0  0  0  0  0  0  0  0  0  0  0  0
   44.9767    2.3505   18.6200 C   0  0  0  0  0  0  0  0  0  0  0  0
   45.7328    3.6358   19.0982 C   0  0  0  0  0  0  0  0  0  0  0  0
   45.0371    4.3818   20.2729 C   0  0  0  0  0  0  0  0  0  0  0  0
   45.7946    5.6005   20.7627 C   0  0  0  0  0  0  0  0  0  0  0  0
   45.7556    6.5954   19.7078 N   0  0  0  0  0  0  0  0  0  0  0  0
   46.5063    7.7343   20.2068 C   0  0  0  0  0  0  0  0  0  0  0  0
   46.7874    8.7448   19.1009 C   0  0  0  0  0  0  0  0  0  0  0  0
   47.7017    8.0643   18.0709 C   0  0  0  0  0  0  0  0  0  0  0  0
   48.0620    8.9661   16.9665 N   0  0  0  0  0  0  0  0  0  0  0  0
  1  2  1  0  0  0  0
  2  3  1  0  0  0  0
  3  4  1  0  0  0  0
  4  5  1  0  0  0  0
  5  6  1  0  0  0  0
  6  7  1  0  0  0  0
  7  8  1  0  0  0  0
  8  9  1  0  0  0  0
  9 10  1  0  0  0  0
 10 11  1  0  0  0  0
 11 12  1  0  0  0  0
 12 13  1  0  0  0  0
 13 14  1  0  0  0  0
M  END
>  <CHROM.1>
-178.92043202,-64.52539267,174.56543227,169.76015750,-179.14166238,178.14272419
67.65181629,-179.15897048,168.52897818,-64.58371826,-178.76935872,45.96415379
4.08933303,18.00695205,-1.96893898,1.12365046,0.77945164

>  <Name>
ligand

>  <RI>
0

>  <Rbt.Current_Directory>
/home/itssahil/PROJECTS/Mol_Feturizer/New_Systems/rnas/1TN1

>  <Rbt.Executable>
rbdock ($Id: //depot/dev/client3/rdock/2013.1/src/exe/rbdock.cxx#4 $)

>  <Rbt.Library>
libRbt.so (2013.1, Build901 2013/11/27)

>  <Rbt.Parameter_File>
/export/apps/rDock/src/rDock_2013.1_src/data/scripts/dock_solv.prm

>  <Rbt.Receptor>
prm/blind_docking_60.prm

>  <SCORE>
-11.2466

>  <SCORE.INTER>
-7.54144

>  <SCORE.INTER.CONST>
1

>  <SCORE.INTER.POLAR>
0

>  <SCORE.INTER.ROT>
11

>  <SCORE.INTER.SOLV>
8.11099

>  <SCORE.INTER.VDW>
-18.6646

>  <SCORE.INTER.norm>
-0.538674

>  <SCORE.INTRA>
-3.70517

>  <SCORE.INTRA.DIHEDRAL>
-7.17873

>  <SCORE.INTRA.DIHEDRAL.0>
7.79482

>  <SCORE.INTRA.POLAR>
0

>  <SCORE.INTRA.POLAR.0>
0

>  <SCORE.INTRA.REPUL>
0

>  <SCORE.INTRA.REPUL.0>
0

>  <SCORE.INTRA.SOLV>
1.05744

>  <SCORE.INTRA.SOLV.lig_0>
-49.456

>  <SCORE.INTRA.VDW>
-0.64452

>  <SCORE.INTRA.VDW.0>
-0.478406

>  <SCORE.INTRA.norm>
-0.264655

>  <SCORE.RESTR>
0

>  <SCORE.RESTR.CAVITY>
0

>  <SCORE.RESTR.norm>
0

>  <SCORE.SYSTEM>
0

>  <SCORE.SYSTEM.CONST>
0

>  <SCORE.SYSTEM.DIHEDRAL>
0

>  <SCORE.SYSTEM.SOLV>
0

>  <SCORE.SYSTEM.norm>
0

>  <SCORE.heavy>
14

>  <SCORE.norm>
-0.803329

>  <RMSD>
3.554

$$$$
ligand
 OpenBabel11021811413D
libRbt.so/2013.1/901 2013/11/27
 14 13  0  0  0  0  0  0  0  0999 V2000
   46.1496   11.6079   18.6693 N   0  0  0  0  0  0  0  0  0  0  0  0
   45.9393   10.5660   17.6410 C   0  0  0  0  0  0  0  0  0  0  0  0
   45.5367    9.2210   18.2837 C   0  0  0  0  0  0  0  0  0  0  0  0
   44.1945    9.2464   19.0333 C   0  0  0  0  0  0  0  0  0  0  0  0
   43.8510    7.8969   19.5601 N   0  0  0  0  0  0  0  0  0  0  0  0
   42.5358    7.9345   20.2496 C   0  0  0  0  0  0  0  0  0  0  0  0
   42.0478    6.5734   20.8508 C   0  0  0  0  0  0  0  0  0  0  0  0
   43.0183    5.9579   21.8995 C   0  0  0  0  0  0  0  0  0  0  0  0
   44.3105    5.4304   21.3072 C   0  0  0  0  0  0  0  0  0  0  0  0
   43.9740    4.3181   20.4389 N   0  0  0  0  0  0  0  0  0  0  0  0
   45.2066    3.9544   19.7621 C   0  0  0  0  0  0  0  0  0  0  0  0
   44.9669    2.8835   18.7043 C   0  0  0  0  0  0  0  0  0  0  0  0
   46.3280    2.5260   18.0881 C   0  0  0  0  0  0  0  0  0  0  0  0
   46.1990    1.5904   16.9609 N   0  0  0  0  0  0  0  0  0  0  0  0
  1  2  1  0  0  0  0
  2  3  1  0  0  0  0
  3  4  1  0  0  0  0
  4  5  1  0  0  0  0
  5  6  1  0  0  0  0
  6  7  1  0  0  0  0
  7  8  1  0  0  0  0
  8  9  1  0  0  0  0
  9 10  1  0  0  0  0
 10 11  1  0  0  0  0
 11 12  1  0  0  0  0
 12 13  1  0  0  0  0
 13 14  1  0  0  0  0
M  END
>  <CHROM.1>
63.60781286,177.08802790,-178.53325901,179.81275581,58.85075887,-70.47289102
-65.01862314,172.84279852,-174.11929076,-177.72288674,-174.51055253,44.58968502
6.40766045,19.38940080,-1.63624984,-0.80462763,3.10124847

>  <Name>
ligand

>  <RI>
0

>  <Rbt.Current_Directory>
/home/itssahil/PROJECTS/Mol_Feturizer/New_Systems/rnas/1TN1

>  <Rbt.Executable>
rbdock ($Id: //depot/dev/client3/rdock/2013.1/src/exe/rbdock.cxx#4 $)

>  <Rbt.Library>
libRbt.so (2013.1, Build901 2013/11/27)

>  <Rbt.Parameter_File>
/export/apps/rDock/src/rDock_2013.1_src/data/scripts/dock_solv.prm

>  <Rbt.Receptor>
prm/pocket_docking_7.prm

>  <SCORE>
-8.56947

>  <SCORE.INTER>
-5.67956

>  <SCORE.INTER.CONST>
1

>  <SCORE.INTER.POLAR>
0

>  <SCORE.INTER.ROT>
11

>  <SCORE.INTER.SOLV>
13.7347

>  <SCORE.INTER.VDW>
-19.298

>  <SCORE.INTER.norm>
-0.405683

>  <SCORE.INTRA>
-2.88991

>  <SCORE.INTRA.DIHEDRAL>
-6.96083

>  <SCORE.INTRA.DIHEDRAL.0>
7.79482

>  <SCORE.INTRA.POLAR>
0

>  <SCORE.INTRA.POLAR.0>
0

>  <SCORE.INTRA.REPUL>
0

>  <SCORE.INTRA.REPUL.0>
0

>  <SCORE.INTRA.SOLV>
2.69965

>  <SCORE.INTRA.SOLV.lig_0>
-49.456

>  <SCORE.INTRA.VDW>
-0.75932

>  <SCORE.INTRA.VDW.0>
-0.478406

>  <SCORE.INTRA.norm>
-0.206422

>  <SCORE.RESTR>
0

>  <SCORE.RESTR.CAVITY>
0

>  <SCORE.RESTR.norm>
0

>  <SCORE.SYSTEM>
0

>  <SCORE.SYSTEM.CONST>
0

>  <SCORE.SYSTEM.DIHEDRAL>
0

>  <SCORE.SYSTEM.SOLV>
0

>  <SCORE.SYSTEM.norm>
0

>  <SCORE.heavy>
14

>  <SCORE.norm>
-0.612105

>  <RMSD>
3.561

$$$$
ligand
 OpenBabel11021811413D
libRbt.so/2013.1/901 2013/11/27
 14 13  0  0  0  0  0  0  0  0999 V2000
   47.9929    9.5945   17.1634 N   0  0  0  0  0  0  0  0  0  0  0  0
   47.8534    8.1351   16.9690 C   0  0  0  0  0  0  0  0  0  0  0  0
   47.5878    7.4164   18.3094 C   0  0  0  0  0  0  0  0  0  0  0  0
   46.2800    7.8256   19.0067 C   0  0  0  0  0  0  0  0  0  0  0  0
   46.0507    7.0123   20.2324 N   0  0  0  0  0  0  0  0  0  0  0  0
   44.6410    7.1464   20.6813 C   0  0  0  0  0  0  0  0  0  0  0  0
   44.0655    5.9271   21.4777 C   0  0  0  0  0  0  0  0  0  0  0  0
   43.9273    4.6265   20.6352 C   0  0  0  0  0  0  0  0  0  0  0  0
   45.2326    4.1388   20.0373 C   0  0  0  0  0  0  0  0  0  0  0  0
   44.9522    2.9168   19.3077 N   0  0  0  0  0  0  0  0  0  0  0  0
   46.1999    2.5412   18.6659 C   0  0  0  0  0  0  0  0  0  0  0  0
   46.2824    3.0866   17.2450 C   0  0  0  0  0  0  0  0  0  0  0  0
   45.1947    2.3878   16.4152 C   0  0  0  0  0  0  0  0  0  0  0  0
   45.4606    0.9511   16.2480 N   0  0  0  0  0  0  0  0  0  0  0  0
  1  2  1  0  0  0  0
  2  3  1  0  0  0  0
  3  4  1  0  0  0  0
  4  5  1  0  0  0  0
  5  6  1  0  0  0  0
  6  7  1  0  0  0  0
  7  8  1  0  0  0  0
  8  9  1  0  0  0  0
  9 10  1  0  0  0  0
 10 11  1  0  0  0  0
 11 12  1  0  0  0  0
 12 13  1  0  0  0  0
 13 14  1  0  0  0  0
M  END
>  <CHROM.1>
62.42295638,175.59260442,-164.54899474,152.60386464,-66.27298636,58.79452283
178.96166515,175.63164491,-93.63566061,-65.87156604,-66.77141783,45.83709537
5.26477962,18.74266531,-1.12498749,-0.95068465,-2.63519699

>  <Name>
ligand

>  <RI>
0

>  <Rbt.Current_Directory>
/home/itssahil/PROJECTS/Mol_Feturizer/New_Systems/rnas/1TN1

>  <Rbt.Executable>
rbdock ($Id: //depot/dev/client3/rdock/2013.1/src/exe/rbdock.cxx#4 $)

>  <Rbt.Library>
libRbt.so (2013.1, Build901 2013/11/27)

>  <Rbt.Parameter_File>
/export/apps/rDock/src/rDock_2013.1_src/data/scripts/dock_solv.prm

>  <Rbt.Receptor>
prm/pocket_docking_8.prm

>  <SCORE>
-6.6695

>  <SCORE.INTER>
-5.35641

>  <SCORE.INTER.CONST>
1

>  <SCORE.INTER.POLAR>
0

>  <SCORE.INTER.ROT>
11

>  <SCORE.INTER.SOLV>
11.2388

>  <SCORE.INTER.VDW>
-18.2505

>  <SCORE.INTER.norm>
-0.3826

>  <SCORE.INTRA>
-1.31309

>  <SCORE.INTRA.DIHEDRAL>
-5.80721

>  <SCORE.INTRA.DIHEDRAL.0>
7.79482

>  <SCORE.INTRA.POLAR>
0

>  <SCORE.INTRA.POLAR.0>
0

>  <SCORE.INTRA.REPUL>
0

>  <SCORE.INTRA.REPUL.0>
0

>  <SCORE.INTRA.SOLV>
3.43115

>  <SCORE.INTRA.SOLV.lig_0>
-49.456

>  <SCORE.INTRA.VDW>
-0.125068

>  <SCORE.INTRA.VDW.0>
-0.478406

>  <SCORE.INTRA.norm>
-0.0937924

>  <SCORE.RESTR>
0

>  <SCORE.RESTR.CAVITY>
0

>  <SCORE.RESTR.norm>
0

>  <SCORE.SYSTEM>
0

>  <SCORE.SYSTEM.CONST>
0

>  <SCORE.SYSTEM.DIHEDRAL>
0

>  <SCORE.SYSTEM.SOLV>
0

>  <SCORE.SYSTEM.norm>
0

>  <SCORE.heavy>
14

>  <SCORE.norm>
-0.476393

>  <RMSD>
3.570

$$$$
ligand
 OpenBabel11021811413D
libRbt.so/2013.1/901 2013/11/27
 14 13  0  0  0  0  0  0  0  0999 V2000
   45.6252   -1.9159   13.6690 N   0  0  0  0  0  0  0  0  0  0  0  0
   45.0458   -1.4912   14.9617 C   0  0  0  0  0  0  0  0  0  0  0  0
   45.7788   -0.2530   15.5218 C   0  0  0  0  0  0  0  0  0  0  0  0
   45.1813    0.3107   16.8215 C   0  0  0  0  0  0  0  0  0  0  0  0
   45.9668    1.4778   17.3087 N   0  0  0  0  0  0  0  0  0  0  0  0
   45.2323    2.1728   18.3969 C   0  0  0  0  0  0  0  0  0  0  0  0
   45.9216    3.4594   18.9642 C   0  0  0  0  0  0  0  0  0  0  0  0
   45.0907    4.1974   20.0529 C   0  0  0  0  0  0  0  0  0  0  0  0
   45.8183    5.3598   20.6998 C   0  0  0  0  0  0  0  0  0  0  0  0
   45.9504    6.4051   19.7027 N   0  0  0  0  0  0  0  0  0  0  0  0
   46.2580    7.6196   20.4377 C   0  0  0  0  0  0  0  0  0  0  0  0
   46.1687    8.8505   19.5432 C   0  0  0  0  0  0  0  0  0  0  0  0
   47.3282    8.7797   18.5380 C   0  0  0  0  0  0  0  0  0  0  0  0
   47.1512    7.6947   17.5612 N   0  0  0  0  0  0  0  0  0  0  0  0
  1  2  1  0  0  0  0
  2  3  1  0  0  0  0
  3  4  1  0  0  0  0
  4  5  1  0  0  0  0
  5  6  1  0  0  0  0
  6  7  1  0  0  0  0
  7  8  1  0  0  0  0
  8  9  1  0  0  0  0
  9 10  1  0  0  0  0
 10 11  1  0  0  0  0
 11 12  1  0  0  0  0
 12 13  1  0  0  0  0
 13 14  1  0  0  0  0
M  END
>  <CHROM.1>
176.25926437,178.55933631,168.70101955,-177.61131310,177.18033553,174.13151163
69.10057018,162.78742082,-169.38086194,-68.82230232,69.20625496,45.89397478
3.76209222,18.01319574,-1.85929476,1.19052660,0.72558357

>  <Name>
ligand

>  <RI>
0

>  <Rbt.Current_Directory>
/home/itssahil/PROJECTS/Mol_Feturizer/New_Systems/rnas/1TN1

>  <Rbt.Executable>
rbdock ($Id: //depot/dev/client3/rdock/2013.1/src/exe/rbdock.cxx#4 $)

>  <Rbt.Library>
libRbt.so (2013.1, Build901 2013/11/27)

>  <Rbt.Parameter_File>
/export/apps/rDock/src/rDock_2013.1_src/data/scripts/dock_solv.prm

>  <Rbt.Receptor>
prm/pocket_docking_7.prm

>  <SCORE>
-9.42762

>  <SCORE.INTER>
-7.3638

>  <SCORE.INTER.CONST>
1

>  <SCORE.INTER.POLAR>
0

>  <SCORE.INTER.ROT>
11

>  <SCORE.INTER.SOLV>
10.8401

>  <SCORE.INTER.VDW>
-19.4559

>  <SCORE.INTER.norm>
-0.525985

>  <SCORE.INTRA>
-2.06383

>  <SCORE.INTRA.DIHEDRAL>
-6.22496

>  <SCORE.INTRA.DIHEDRAL.0>
7.79482

>  <SCORE.INTRA.POLAR>
0

>  <SCORE.INTRA.POLAR.0>
0

>  <SCORE.INTRA.REPUL>
0

>  <SCORE.INTRA.REPUL.0>
0

>  <SCORE.INTRA.SOLV>
3.32678

>  <SCORE.INTRA.SOLV.lig_0>
-49.456

>  <SCORE.INTRA.VDW>
-0.614736

>  <SCORE.INTRA.VDW.0>
-0.478406

>  <SCORE.INTRA.norm>
-0.147416

>  <SCORE.RESTR>
0

>  <SCORE.RESTR.CAVITY>
0

>  <SCORE.RESTR.norm>
0

>  <SCORE.SYSTEM>
0

>  <SCORE.SYSTEM.CONST>
0

>  <SCORE.SYSTEM.DIHEDRAL>
0

>  <SCORE.SYSTEM.SOLV>
0

>  <SCORE.SYSTEM.norm>
0

>  <SCORE.heavy>
14

>  <SCORE.norm>
-0.673402

>  <RMSD>
3.571

$$$$
ligand
 OpenBabel11021811413D
libRbt.so/2013.1/901 2013/11/27
 14 13  0  0  0  0  0  0  0  0999 V2000
   45.4382    9.9008   18.9000 N   0  0  0  0  0  0  0  0  0  0  0  0
   44.1874    9.1642   19.1828 C   0  0  0  0  0  0  0  0  0  0  0  0
   44.4345    8.0036   20.1707 C   0  0  0  0  0  0  0  0  0  0  0  0
   45.4266    6.9398   19.6728 C   0  0  0  0  0  0  0  0  0  0  0  0
   45.6047    5.8607   20.6829 N   0  0  0  0  0  0  0  0  0  0  0  0
   46.2553    4.6784   20.0618 C   0  0  0  0  0  0  0  0  0  0  0  0
   45.2867    3.6500   19.3863 C   0  0  0  0  0  0  0  0  0  0  0  0
   46.0062    2.4382   18.7272 C   0  0  0  0  0  0  0  0  0  0  0  0
   45.0626    1.4120   18.1311 C   0  0  0  0  0  0  0  0  0  0  0  0
   45.8703    0.4026   17.4728 N   0  0  0  0  0  0  0  0  0  0  0  0
   45.0382   -0.1462   16.4164 C   0  0  0  0  0  0  0  0  0  0  0  0
   45.7726   -1.2283   15.6334 C   0  0  0  0  0  0  0  0  0  0  0  0
   44.8715   -1.6467   14.4617 C   0  0  0  0  0  0  0  0  0  0  0  0
   45.5252   -2.6255   13.5801 N   0  0  0  0  0  0  0  0  0  0  0  0
  1  2  1  0  0  0  0
  2  3  1  0  0  0  0
  3  4  1  0  0  0  0
  4  5  1  0  0  0  0
  5  6  1  0  0  0  0
  6  7  1  0  0  0  0
  7  8  1  0  0  0  0
  8  9  1  0  0  0  0
  9 10  1  0  0  0  0
 10 11  1  0  0  0  0
 11 12  1  0  0  0  0
 12 13  1  0  0  0  0
 13 14  1  0  0  0  0
M  END
>  <CHROM.1>
-60.80794892,-179.94862412,164.65068858,-87.29053653,179.05261836,177.28477153
175.85768756,-152.80813708,179.86916859,-174.54024759,175.99276767,45.34132067
3.34310001,18.03444221,1.68386312,-1.28602350,0.55201221

>  <Name>
ligand

>  <RI>
0

>  <Rbt.Current_Directory>
/home/itssahil/PROJECTS/Mol_Feturizer/New_Systems/rnas/1TN1

>  <Rbt.Executable>
rbdock ($Id: //depot/dev/client3/rdock/2013.1/src/exe/rbdock.cxx#4 $)

>  <Rbt.Library>
libRbt.so (2013.1, Build901 2013/11/27)

>  <Rbt.Parameter_File>
/export/apps/rDock/src/rDock_2013.1_src/data/scripts/dock_solv.prm

>  <Rbt.Receptor>
prm/pocket_docking_5.prm

>  <SCORE>
-10.8503

>  <SCORE.INTER>
-7.42608

>  <SCORE.INTER.CONST>
1

>  <SCORE.INTER.POLAR>
0

>  <SCORE.INTER.ROT>
11

>  <SCORE.INTER.SOLV>
14.0222

>  <SCORE.INTER.VDW>
-20.5581

>  <SCORE.INTER.norm>
-0.530434

>  <SCORE.INTRA>
-3.42417

>  <SCORE.INTRA.DIHEDRAL>
-6.31002

>  <SCORE.INTRA.DIHEDRAL.0>
7.79482

>  <SCORE.INTRA.POLAR>
0

>  <SCORE.INTRA.POLAR.0>
0

>  <SCORE.INTRA.REPUL>
0

>  <SCORE.INTRA.REPUL.0>
0

>  <SCORE.INTRA.SOLV>
0.652917

>  <SCORE.INTRA.SOLV.lig_0>
-49.456

>  <SCORE.INTRA.VDW>
-0.595617

>  <SCORE.INTRA.VDW.0>
-0.478406

>  <SCORE.INTRA.norm>
-0.244584

>  <SCORE.RESTR>
0

>  <SCORE.RESTR.CAVITY>
0

>  <SCORE.RESTR.norm>
0

>  <SCORE.SYSTEM>
0

>  <SCORE.SYSTEM.CONST>
0

>  <SCORE.SYSTEM.DIHEDRAL>
0

>  <SCORE.SYSTEM.SOLV>
0

>  <SCORE.SYSTEM.norm>
0

>  <SCORE.heavy>
14

>  <SCORE.norm>
-0.775018

>  <RMSD>
3.573

$$$$
ligand
 OpenBabel11021811413D
libRbt.so/2013.1/901 2013/11/27
 14 13  0  0  0  0  0  0  0  0999 V2000
   45.5030   -1.0888   13.5274 N   0  0  0  0  0  0  0  0  0  0  0  0
   45.0744   -1.9662   14.6381 C   0  0  0  0  0  0  0  0  0  0  0  0
   45.6671   -1.4935   15.9832 C   0  0  0  0  0  0  0  0  0  0  0  0
   45.1659   -0.1188   16.4555 C   0  0  0  0  0  0  0  0  0  0  0  0
   45.8153    0.2758   17.7357 N   0  0  0  0  0  0  0  0  0  0  0  0
   45.1494    1.4778   18.3000 C   0  0  0  0  0  0  0  0  0  0  0  0
   46.1082    2.6069   18.8078 C   0  0  0  0  0  0  0  0  0  0  0  0
   45.3749    3.8369   19.4160 C   0  0  0  0  0  0  0  0  0  0  0  0
   46.3066    4.8976   19.9688 C   0  0  0  0  0  0  0  0  0  0  0  0
   45.4968    6.0407   20.3453 N   0  0  0  0  0  0  0  0  0  0  0  0
   46.2291    7.2123   19.8969 C   0  0  0  0  0  0  0  0  0  0  0  0
   45.4128    8.4857   20.0845 C   0  0  0  0  0  0  0  0  0  0  0  0
   46.2853    9.6675   19.6351 C   0  0  0  0  0  0  0  0  0  0  0  0
   46.4428    9.7177   18.1738 N   0  0  0  0  0  0  0  0  0  0  0  0
  1  2  1  0  0  0  0
  2  3  1  0  0  0  0
  3  4  1  0  0  0  0
  4  5  1  0  0  0  0
  5  6  1  0  0  0  0
  6  7  1  0  0  0  0
  7  8  1  0  0  0  0
  8  9  1  0  0  0  0
  9 10  1  0  0  0  0
 10 11  1  0  0  0  0
 11 12  1  0  0  0  0
 12 13  1  0  0  0  0
 13 14  1  0  0  0  0
M  END
>  <CHROM.1>
65.19674431,-178.35886104,-169.87629576,-133.98614727,-178.89939917,177.13563802
173.08979043,-137.75609674,173.36113267,177.88129890,72.49721083,45.71650665
3.53930545,18.06940195,-2.36996492,1.48323952,1.21259191

>  <Name>
ligand

>  <RI>
0

>  <Rbt.Current_Directory>
/home/itssahil/PROJECTS/Mol_Feturizer/New_Systems/rnas/1TN1

>  <Rbt.Executable>
rbdock ($Id: //depot/dev/client3/rdock/2013.1/src/exe/rbdock.cxx#4 $)

>  <Rbt.Library>
libRbt.so (2013.1, Build901 2013/11/27)

>  <Rbt.Parameter_File>
/export/apps/rDock/src/rDock_2013.1_src/data/scripts/dock_solv.prm

>  <Rbt.Receptor>
prm/pocket_docking_7.prm

>  <SCORE>
-11.3266

>  <SCORE.INTER>
-8.92202

>  <SCORE.INTER.CONST>
1

>  <SCORE.INTER.POLAR>
0

>  <SCORE.INTER.ROT>
11

>  <SCORE.INTER.SOLV>
11.8146

>  <SCORE.INTER.VDW>
-20.8195

>  <SCORE.INTER.norm>
-0.637287

>  <SCORE.INTRA>
-2.40458

>  <SCORE.INTRA.DIHEDRAL>
-4.75515

>  <SCORE.INTRA.DIHEDRAL.0>
7.79482

>  <SCORE.INTRA.POLAR>
0

>  <SCORE.INTRA.POLAR.0>
0

>  <SCORE.INTRA.REPUL>
0

>  <SCORE.INTRA.REPUL.0>
0

>  <SCORE.INTRA.SOLV>
1.29093

>  <SCORE.INTRA.SOLV.lig_0>
-49.456

>  <SCORE.INTRA.VDW>
-0.672469

>  <SCORE.INTRA.VDW.0>
-0.478406

>  <SCORE.INTRA.norm>
-0.171756

>  <SCORE.RESTR>
0

>  <SCORE.RESTR.CAVITY>
0

>  <SCORE.RESTR.norm>
0

>  <SCORE.SYSTEM>
0

>  <SCORE.SYSTEM.CONST>
0

>  <SCORE.SYSTEM.DIHEDRAL>
0

>  <SCORE.SYSTEM.SOLV>
0

>  <SCORE.SYSTEM.norm>
0

>  <SCORE.heavy>
14

>  <SCORE.norm>
-0.809043

>  <RMSD>
3.576

$$$$
ligand
 OpenBabel11021811413D
libRbt.so/2013.1/901 2013/11/27
 14 13  0  0  0  0  0  0  0  0999 V2000
   46.0339    1.0355   18.1875 N   0  0  0  0  0  0  0  0  0  0  0  0
   45.2034    2.1552   17.6938 C   0  0  0  0  0  0  0  0  0  0  0  0
   45.9385    3.5045   17.8457 C   0  0  0  0  0  0  0  0  0  0  0  0
   46.2257    3.9166   19.2989 C   0  0  0  0  0  0  0  0  0  0  0  0
   44.9606    4.1099   20.0595 N   0  0  0  0  0  0  0  0  0  0  0  0
   45.1594    5.1086   21.1412 C   0  0  0  0  0  0  0  0  0  0  0  0
   43.8791    5.8979   21.5771 C   0  0  0  0  0  0  0  0  0  0  0  0
   43.1812    6.6659   20.4180 C   0  0  0  0  0  0  0  0  0  0  0  0
   42.0219    7.5347   20.8655 C   0  0  0  0  0  0  0  0  0  0  0  0
   41.4296    8.1224   19.6789 N   0  0  0  0  0  0  0  0  0  0  0  0
   42.1446    9.3660   19.4514 C   0  0  0  0  0  0  0  0  0  0  0  0
   41.2792   10.3795   18.7116 C   0  0  0  0  0  0  0  0  0  0  0  0
   42.1472   11.6159   18.4325 C   0  0  0  0  0  0  0  0  0  0  0  0
   43.2264   11.3323   17.4746 N   0  0  0  0  0  0  0  0  0  0  0  0
  1  2  1  0  0  0  0
  2  3  1  0  0  0  0
  3  4  1  0  0  0  0
  4  5  1  0  0  0  0
  5  6  1  0  0  0  0
  6  7  1  0  0  0  0
  7  8  1  0  0  0  0
  8  9  1  0  0  0  0
  9 10  1  0  0  0  0
 10 11  1  0  0  0  0
 11 12  1  0  0  0  0
 12 13  1  0  0  0  0
 13 14  1  0  0  0  0
M  END
>  <CHROM.1>
-64.28593040,-62.62417654,-151.44488070,152.86002690,-57.11407287,-174.44448958
-176.84647965,-89.06367122,-153.06754655,-176.12948029,67.13015697,43.77357295
6.48190587,19.34563861,-0.55373629,1.03444659,-0.93854925

>  <Name>
ligand

>  <RI>
0

>  <Rbt.Current_Directory>
/home/itssahil/PROJECTS/Mol_Feturizer/New_Systems/rnas/1TN1

>  <Rbt.Executable>
rbdock ($Id: //depot/dev/client3/rdock/2013.1/src/exe/rbdock.cxx#4 $)

>  <Rbt.Library>
libRbt.so (2013.1, Build901 2013/11/27)

>  <Rbt.Parameter_File>
/export/apps/rDock/src/rDock_2013.1_src/data/scripts/dock_solv.prm

>  <Rbt.Receptor>
prm/blind_docking_60.prm

>  <SCORE>
-11.813

>  <SCORE.INTER>
-10.6236

>  <SCORE.INTER.CONST>
1

>  <SCORE.INTER.POLAR>
0

>  <SCORE.INTER.ROT>
11

>  <SCORE.INTER.SOLV>
18.7737

>  <SCORE.INTER.VDW>
-24.2736

>  <SCORE.INTER.norm>
-0.758827

>  <SCORE.INTRA>
-1.18947

>  <SCORE.INTRA.DIHEDRAL>
-5.11568

>  <SCORE.INTRA.DIHEDRAL.0>
7.79482

>  <SCORE.INTRA.POLAR>
0

>  <SCORE.INTRA.POLAR.0>
0

>  <SCORE.INTRA.REPUL>
0

>  <SCORE.INTRA.REPUL.0>
0

>  <SCORE.INTRA.SOLV>
2.7594

>  <SCORE.INTRA.SOLV.lig_0>
-49.456

>  <SCORE.INTRA.VDW>
-0.0113328

>  <SCORE.INTRA.VDW.0>
-0.478406

>  <SCORE.INTRA.norm>
-0.0849623

>  <SCORE.RESTR>
0

>  <SCORE.RESTR.CAVITY>
0

>  <SCORE.RESTR.norm>
0

>  <SCORE.SYSTEM>
0

>  <SCORE.SYSTEM.CONST>
0

>  <SCORE.SYSTEM.DIHEDRAL>
0

>  <SCORE.SYSTEM.SOLV>
0

>  <SCORE.SYSTEM.norm>
0

>  <SCORE.heavy>
14

>  <SCORE.norm>
-0.843789

>  <RMSD>
3.577

$$$$
ligand
 OpenBabel11021811413D
libRbt.so/2013.1/901 2013/11/27
 14 13  0  0  0  0  0  0  0  0999 V2000
   46.1681    9.9214   18.2873 N   0  0  0  0  0  0  0  0  0  0  0  0
   46.9437    8.7151   17.9263 C   0  0  0  0  0  0  0  0  0  0  0  0
   47.0861    7.7615   19.1323 C   0  0  0  0  0  0  0  0  0  0  0  0
   45.7555    7.2212   19.6814 C   0  0  0  0  0  0  0  0  0  0  0  0
   45.9883    6.2415   20.7779 N   0  0  0  0  0  0  0  0  0  0  0  0
   45.2405    4.9858   20.5118 C   0  0  0  0  0  0  0  0  0  0  0  0
   45.9488    3.9655   19.5581 C   0  0  0  0  0  0  0  0  0  0  0  0
   45.0432    2.7837   19.1071 C   0  0  0  0  0  0  0  0  0  0  0  0
   45.7678    1.7281   18.2950 C   0  0  0  0  0  0  0  0  0  0  0  0
   44.7691    0.8192   17.7650 N   0  0  0  0  0  0  0  0  0  0  0  0
   45.5075   -0.2337   17.0898 C   0  0  0  0  0  0  0  0  0  0  0  0
   45.0641   -0.3838   15.6393 C   0  0  0  0  0  0  0  0  0  0  0  0
   45.8444   -1.5607   15.0342 C   0  0  0  0  0  0  0  0  0  0  0  0
   45.5322   -1.7612   13.6112 N   0  0  0  0  0  0  0  0  0  0  0  0
  1  2  1  0  0  0  0
  2  3  1  0  0  0  0
  3  4  1  0  0  0  0
  4  5  1  0  0  0  0
  5  6  1  0  0  0  0
  6  7  1  0  0  0  0
  7  8  1  0  0  0  0
  8  9  1  0  0  0  0
  9 10  1  0  0  0  0
 10 11  1  0  0  0  0
 11 12  1  0  0  0  0
 12 13  1  0  0  0  0
 13 14  1  0  0  0  0
M  END
>  <CHROM.1>
61.48097219,176.11791353,-128.45503693,83.32266673,-169.98209987,-174.37572792
-170.76712592,-175.41999235,-124.69416678,-177.13833274,-177.66495571,45.76143663
3.58587934,18.02993822,-1.19181758,-1.31750316,-2.37973757

>  <Name>
ligand

>  <RI>
0

>  <Rbt.Current_Directory>
/home/itssahil/PROJECTS/Mol_Feturizer/New_Systems/rnas/1TN1

>  <Rbt.Executable>
rbdock ($Id: //depot/dev/client3/rdock/2013.1/src/exe/rbdock.cxx#4 $)

>  <Rbt.Library>
libRbt.so (2013.1, Build901 2013/11/27)

>  <Rbt.Parameter_File>
/export/apps/rDock/src/rDock_2013.1_src/data/scripts/dock_solv.prm

>  <Rbt.Receptor>
prm/pocket_docking_6.prm

>  <SCORE>
-9.62557

>  <SCORE.INTER>
-7.28535

>  <SCORE.INTER.CONST>
1

>  <SCORE.INTER.POLAR>
0

>  <SCORE.INTER.ROT>
11

>  <SCORE.INTER.SOLV>
11.8169

>  <SCORE.INTER.VDW>
-19.7292

>  <SCORE.INTER.norm>
-0.520382

>  <SCORE.INTRA>
-2.34022

>  <SCORE.INTRA.DIHEDRAL>
-4.12333

>  <SCORE.INTRA.DIHEDRAL.0>
7.79482

>  <SCORE.INTRA.POLAR>
0

>  <SCORE.INTRA.POLAR.0>
0

>  <SCORE.INTRA.REPUL>
0

>  <SCORE.INTRA.REPUL.0>
0

>  <SCORE.INTRA.SOLV>
0.65215

>  <SCORE.INTRA.SOLV.lig_0>
-49.456

>  <SCORE.INTRA.VDW>
-0.604627

>  <SCORE.INTRA.VDW.0>
-0.478406

>  <SCORE.INTRA.norm>
-0.167158

>  <SCORE.RESTR>
0

>  <SCORE.RESTR.CAVITY>
0

>  <SCORE.RESTR.norm>
0

>  <SCORE.SYSTEM>
0

>  <SCORE.SYSTEM.CONST>
0

>  <SCORE.SYSTEM.DIHEDRAL>
0

>  <SCORE.SYSTEM.SOLV>
0

>  <SCORE.SYSTEM.norm>
0

>  <SCORE.heavy>
14

>  <SCORE.norm>
-0.687541

>  <RMSD>
3.577

$$$$
ligand
 OpenBabel11021811413D
libRbt.so/2013.1/901 2013/11/27
 14 13  0  0  0  0  0  0  0  0999 V2000
   46.0032   -0.2061   14.4593 N   0  0  0  0  0  0  0  0  0  0  0  0
   45.3826   -1.0634   15.4923 C   0  0  0  0  0  0  0  0  0  0  0  0
   45.5568   -0.4551   16.9007 C   0  0  0  0  0  0  0  0  0  0  0  0
   44.8940    0.9191   17.0907 C   0  0  0  0  0  0  0  0  0  0  0  0
   45.1420    1.4473   18.4603 N   0  0  0  0  0  0  0  0  0  0  0  0
   46.2929    2.3865   18.4478 C   0  0  0  0  0  0  0  0  0  0  0  0
   45.9428    3.8894   18.7138 C   0  0  0  0  0  0  0  0  0  0  0  0
   45.2575    4.1486   20.0863 C   0  0  0  0  0  0  0  0  0  0  0  0
   44.9026    5.6019   20.3324 C   0  0  0  0  0  0  0  0  0  0  0  0
   46.1416    6.3549   20.3798 N   0  0  0  0  0  0  0  0  0  0  0  0
   45.8006    7.7082   19.9775 C   0  0  0  0  0  0  0  0  0  0  0  0
   46.9829    8.4087   19.3181 C   0  0  0  0  0  0  0  0  0  0  0  0
   47.3176    7.6421   18.0296 C   0  0  0  0  0  0  0  0  0  0  0  0
   48.4307    8.2568   17.2908 N   0  0  0  0  0  0  0  0  0  0  0  0
  1  2  1  0  0  0  0
  2  3  1  0  0  0  0
  3  4  1  0  0  0  0
  4  5  1  0  0  0  0
  5  6  1  0  0  0  0
  6  7  1  0  0  0  0
  7  8  1  0  0  0  0
  8  9  1  0  0  0  0
  9 10  1  0  0  0  0
 10 11  1  0  0  0  0
 11 12  1  0  0  0  0
 12 13  1  0  0  0  0
 13 14  1  0  0  0  0
M  END
>  <CHROM.1>
61.74898985,-178.43980496,96.95268029,111.50257464,59.34257657,-179.19902736
-63.84607005,153.48934944,-151.51066466,63.59223429,178.56034742,46.00323666
3.93133553,18.21304316,-1.84971802,1.00381937,0.60728433

>  <Name>
ligand

>  <RI>
0

>  <Rbt.Current_Directory>
/home/itssahil/PROJECTS/Mol_Feturizer/New_Systems/rnas/1TN1

>  <Rbt.Executable>
rbdock ($Id: //depot/dev/client3/rdock/2013.1/src/exe/rbdock.cxx#4 $)

>  <Rbt.Library>
libRbt.so (2013.1, Build901 2013/11/27)

>  <Rbt.Parameter_File>
/export/apps/rDock/src/rDock_2013.1_src/data/scripts/dock_solv.prm

>  <Rbt.Receptor>
prm/pocket_docking_8.prm

>  <SCORE>
-10.0747

>  <SCORE.INTER>
-8.04751

>  <SCORE.INTER.CONST>
1

>  <SCORE.INTER.POLAR>
0

>  <SCORE.INTER.ROT>
11

>  <SCORE.INTER.SOLV>
11.4882

>  <SCORE.INTER.VDW>
-20.1277

>  <SCORE.INTER.norm>
-0.574822

>  <SCORE.INTRA>
-2.02721

>  <SCORE.INTRA.DIHEDRAL>
-4.65864

>  <SCORE.INTRA.DIHEDRAL.0>
7.79482

>  <SCORE.INTRA.POLAR>
0

>  <SCORE.INTRA.POLAR.0>
0

>  <SCORE.INTRA.REPUL>
0

>  <SCORE.INTRA.REPUL.0>
0

>  <SCORE.INTRA.SOLV>
1.84264

>  <SCORE.INTRA.SOLV.lig_0>
-49.456

>  <SCORE.INTRA.VDW>
-0.619213

>  <SCORE.INTRA.VDW.0>
-0.478406

>  <SCORE.INTRA.norm>
-0.144801

>  <SCORE.RESTR>
0

>  <SCORE.RESTR.CAVITY>
0

>  <SCORE.RESTR.norm>
0

>  <SCORE.SYSTEM>
0

>  <SCORE.SYSTEM.CONST>
0

>  <SCORE.SYSTEM.DIHEDRAL>
0

>  <SCORE.SYSTEM.SOLV>
0

>  <SCORE.SYSTEM.norm>
0

>  <SCORE.heavy>
14

>  <SCORE.norm>
-0.719623

>  <RMSD>
3.582

$$$$
ligand
 OpenBabel11021811413D
libRbt.so/2013.1/901 2013/11/27
 14 13  0  0  0  0  0  0  0  0999 V2000
   45.7460   10.0864   18.6198 N   0  0  0  0  0  0  0  0  0  0  0  0
   45.4121    9.0248   19.5938 C   0  0  0  0  0  0  0  0  0  0  0  0
   46.3834    7.8307   19.4724 C   0  0  0  0  0  0  0  0  0  0  0  0
   46.1128    6.6829   20.4591 C   0  0  0  0  0  0  0  0  0  0  0  0
   44.7650    6.0918   20.2345 N   0  0  0  0  0  0  0  0  0  0  0  0
   44.8467    4.6086   20.2451 C   0  0  0  0  0  0  0  0  0  0  0  0
   45.5933    3.9632   19.0292 C   0  0  0  0  0  0  0  0  0  0  0  0
   45.4652    2.4146   18.9546 C   0  0  0  0  0  0  0  0  0  0  0  0
   46.2923    1.7809   17.8531 C   0  0  0  0  0  0  0  0  0  0  0  0
   45.9961    0.3609   17.8428 N   0  0  0  0  0  0  0  0  0  0  0  0
   45.2730    0.1140   16.6075 C   0  0  0  0  0  0  0  0  0  0  0  0
   45.7592   -1.1571   15.9212 C   0  0  0  0  0  0  0  0  0  0  0  0
   45.0110   -1.2792   14.5850 C   0  0  0  0  0  0  0  0  0  0  0  0
   45.4778   -2.4246   13.7896 N   0  0  0  0  0  0  0  0  0  0  0  0
  1  2  1  0  0  0  0
  2  3  1  0  0  0  0
  3  4  1  0  0  0  0
  4  5  1  0  0  0  0
  5  6  1  0  0  0  0
  6  7  1  0  0  0  0
  7  8  1  0  0  0  0
  8  9  1  0  0  0  0
  9 10  1  0  0  0  0
 10 11  1  0  0  0  0
 11 12  1  0  0  0  0
 12 13  1  0  0  0  0
 13 14  1  0  0  0  0
M  END
>  <CHROM.1>
179.57860054,61.88412037,134.71103385,-69.22249273,-170.79050175,-174.65753579
-175.82289307,111.39386460,136.96362996,-176.07790202,175.74887009,45.58104034
3.43552218,18.08644506,-1.22865781,-1.52798983,-2.36981350

>  <Name>
ligand

>  <RI>
0

>  <Rbt.Current_Directory>
/home/itssahil/PROJECTS/Mol_Feturizer/New_Systems/rnas/1TN1

>  <Rbt.Executable>
rbdock ($Id: //depot/dev/client3/rdock/2013.1/src/exe/rbdock.cxx#4 $)

>  <Rbt.Library>
libRbt.so (2013.1, Build901 2013/11/27)

>  <Rbt.Parameter_File>
/export/apps/rDock/src/rDock_2013.1_src/data/scripts/dock_solv.prm

>  <Rbt.Receptor>
prm/pocket_docking_7.prm

>  <SCORE>
-9.09309

>  <SCORE.INTER>
-7.0944

>  <SCORE.INTER.CONST>
1

>  <SCORE.INTER.POLAR>
0

>  <SCORE.INTER.ROT>
11

>  <SCORE.INTER.SOLV>
12.9266

>  <SCORE.INTER.VDW>
-19.9718

>  <SCORE.INTER.norm>
-0.506743

>  <SCORE.INTRA>
-1.99869

>  <SCORE.INTRA.DIHEDRAL>
-3.93741

>  <SCORE.INTRA.DIHEDRAL.0>
7.79482

>  <SCORE.INTRA.POLAR>
0

>  <SCORE.INTRA.POLAR.0>
0

>  <SCORE.INTRA.REPUL>
0

>  <SCORE.INTRA.REPUL.0>
0

>  <SCORE.INTRA.SOLV>
0.276549

>  <SCORE.INTRA.SOLV.lig_0>
-49.456

>  <SCORE.INTRA.VDW>
-0.168264

>  <SCORE.INTRA.VDW.0>
-0.478406

>  <SCORE.INTRA.norm>
-0.142764

>  <SCORE.RESTR>
0

>  <SCORE.RESTR.CAVITY>
0

>  <SCORE.RESTR.norm>
0

>  <SCORE.SYSTEM>
0

>  <SCORE.SYSTEM.CONST>
0

>  <SCORE.SYSTEM.DIHEDRAL>
0

>  <SCORE.SYSTEM.SOLV>
0

>  <SCORE.SYSTEM.norm>
0

>  <SCORE.heavy>
14

>  <SCORE.norm>
-0.649506

>  <RMSD>
3.586

$$$$
ligand
 OpenBabel11021811413D
libRbt.so/2013.1/901 2013/11/27
 14 13  0  0  0  0  0  0  0  0999 V2000
   46.4390    9.3183   18.0610 N   0  0  0  0  0  0  0  0  0  0  0  0
   46.1949    9.5766   19.4966 C   0  0  0  0  0  0  0  0  0  0  0  0
   46.5432    8.3401   20.3531 C   0  0  0  0  0  0  0  0  0  0  0  0
   45.7242    7.0815   20.0226 C   0  0  0  0  0  0  0  0  0  0  0  0
   46.0588    5.9670   20.9513 N   0  0  0  0  0  0  0  0  0  0  0  0
   45.3937    4.7141   20.5104 C   0  0  0  0  0  0  0  0  0  0  0  0
   46.0924    3.9556   19.3320 C   0  0  0  0  0  0  0  0  0  0  0  0
   45.4745    2.5627   19.0182 C   0  0  0  0  0  0  0  0  0  0  0  0
   46.1758    1.8159   17.9004 C   0  0  0  0  0  0  0  0  0  0  0  0
   45.6527    0.4630   17.8801 N   0  0  0  0  0  0  0  0  0  0  0  0
   45.5040    0.1148   16.4778 C   0  0  0  0  0  0  0  0  0  0  0  0
   45.5915   -1.3919   16.2650 C   0  0  0  0  0  0  0  0  0  0  0  0
   45.2357   -1.6755   14.7977 C   0  0  0  0  0  0  0  0  0  0  0  0
   46.2611   -1.1740   13.8705 N   0  0  0  0  0  0  0  0  0  0  0  0
  1  2  1  0  0  0  0
  2  3  1  0  0  0  0
  3  4  1  0  0  0  0
  4  5  1  0  0  0  0
  5  6  1  0  0  0  0
  6  7  1  0  0  0  0
  7  8  1  0  0  0  0
  8  9  1  0  0  0  0
  9 10  1  0  0  0  0
 10 11  1  0  0  0  0
 11 12  1  0  0  0  0
 12 13  1  0  0  0  0
 13 14  1  0  0  0  0
M  END
>  <CHROM.1>
-60.76482709,-176.23926147,-172.66667360,79.38075086,172.62617445,-178.51642781
170.13258888,139.74881836,153.77912918,172.45881512,68.50299978,45.88145097
3.54768197,18.20998104,-1.24941332,-1.41293620,-2.39216692

>  <Name>
ligand

>  <RI>
0

>  <Rbt.Current_Directory>
/home/itssahil/PROJECTS/Mol_Feturizer/New_Systems/rnas/1TN1

>  <Rbt.Executable>
rbdock ($Id: //depot/dev/client3/rdock/2013.1/src/exe/rbdock.cxx#4 $)

>  <Rbt.Library>
libRbt.so (2013.1, Build901 2013/11/27)

>  <Rbt.Parameter_File>
/export/apps/rDock/src/rDock_2013.1_src/data/scripts/dock_solv.prm

>  <Rbt.Receptor>
prm/pocket_docking_4.prm

>  <SCORE>
-11.063

>  <SCORE.INTER>
-8.90231

>  <SCORE.INTER.CONST>
1

>  <SCORE.INTER.POLAR>
0

>  <SCORE.INTER.ROT>
11

>  <SCORE.INTER.SOLV>
13.5495

>  <SCORE.INTER.VDW>
-21.3847

>  <SCORE.INTER.norm>
-0.635879

>  <SCORE.INTRA>
-2.16064

>  <SCORE.INTRA.DIHEDRAL>
-4.96934

>  <SCORE.INTRA.DIHEDRAL.0>
7.79482

>  <SCORE.INTRA.POLAR>
0

>  <SCORE.INTRA.POLAR.0>
0

>  <SCORE.INTRA.REPUL>
0

>  <SCORE.INTRA.REPUL.0>
0

>  <SCORE.INTRA.SOLV>
1.37227

>  <SCORE.INTRA.SOLV.lig_0>
-49.456

>  <SCORE.INTRA.VDW>
-0.362108

>  <SCORE.INTRA.VDW.0>
-0.478406

>  <SCORE.INTRA.norm>
-0.154332

>  <SCORE.RESTR>
0

>  <SCORE.RESTR.CAVITY>
0

>  <SCORE.RESTR.norm>
0

>  <SCORE.SYSTEM>
0

>  <SCORE.SYSTEM.CONST>
0

>  <SCORE.SYSTEM.DIHEDRAL>
0

>  <SCORE.SYSTEM.SOLV>
0

>  <SCORE.SYSTEM.norm>
0

>  <SCORE.heavy>
14

>  <SCORE.norm>
-0.790211

>  <RMSD>
3.610

$$$$
ligand
 OpenBabel11021811413D
libRbt.so/2013.1/901 2013/11/27
 14 13  0  0  0  0  0  0  0  0999 V2000
   40.3932    8.5449   19.9491 N   0  0  0  0  0  0  0  0  0  0  0  0
   41.3950    7.7045   20.6400 C   0  0  0  0  0  0  0  0  0  0  0  0
   42.7968    7.8818   20.0175 C   0  0  0  0  0  0  0  0  0  0  0  0
   43.9058    7.0588   20.6934 C   0  0  0  0  0  0  0  0  0  0  0  0
   43.6406    5.5993   20.5671 N   0  0  0  0  0  0  0  0  0  0  0  0
   44.7248    4.8221   21.2207 C   0  0  0  0  0  0  0  0  0  0  0  0
   46.0890    4.7858   20.4527 C   0  0  0  0  0  0  0  0  0  0  0  0
   45.9915    4.2067   19.0120 C   0  0  0  0  0  0  0  0  0  0  0  0
   45.7535    2.7100   18.9651 C   0  0  0  0  0  0  0  0  0  0  0  0
   45.7171    2.3144   17.5699 N   0  0  0  0  0  0  0  0  0  0  0  0
   45.6510    0.8635   17.5692 C   0  0  0  0  0  0  0  0  0  0  0  0
   45.5230    0.3117   16.1541 C   0  0  0  0  0  0  0  0  0  0  0  0
   45.6064   -1.2196   16.2430 C   0  0  0  0  0  0  0  0  0  0  0  0
   45.4707   -1.8608   14.9265 N   0  0  0  0  0  0  0  0  0  0  0  0
  1  2  1  0  0  0  0
  2  3  1  0  0  0  0
  3  4  1  0  0  0  0
  4  5  1  0  0  0  0
  5  6  1  0  0  0  0
  6  7  1  0  0  0  0
  7  8  1  0  0  0  0
  8  9  1  0  0  0  0
  9 10  1  0  0  0  0
 10 11  1  0  0  0  0
 11 12  1  0  0  0  0
 12 13  1  0  0  0  0
 13 14  1  0  0  0  0
M  END
>  <CHROM.1>
179.02866437,62.68088303,179.76563706,-73.50737409,-58.12013953,-71.51973195
-178.69897835,173.28408678,176.59794591,174.26751202,179.04840011,44.47588919
3.83743109,18.85597804,1.96426400,-0.46532106,0.67850613

>  <Name>
ligand

>  <RI>
0

>  <Rbt.Current_Directory>
/home/itssahil/PROJECTS/Mol_Feturizer/New_Systems/rnas/1TN1

>  <Rbt.Executable>
rbdock ($Id: //depot/dev/client3/rdock/2013.1/src/exe/rbdock.cxx#4 $)

>  <Rbt.Library>
libRbt.so (2013.1, Build901 2013/11/27)

>  <Rbt.Parameter_File>
/export/apps/rDock/src/rDock_2013.1_src/data/scripts/dock_solv.prm

>  <Rbt.Receptor>
prm/blind_docking_100.prm

>  <SCORE>
-12.9223

>  <SCORE.INTER>
-9.5871

>  <SCORE.INTER.CONST>
1

>  <SCORE.INTER.POLAR>
0

>  <SCORE.INTER.ROT>
11

>  <SCORE.INTER.SOLV>
18.2532

>  <SCORE.INTER.VDW>
-23.4091

>  <SCORE.INTER.norm>
-0.684793

>  <SCORE.INTRA>
-3.33516

>  <SCORE.INTRA.DIHEDRAL>
-6.88739

>  <SCORE.INTRA.DIHEDRAL.0>
7.79482

>  <SCORE.INTRA.POLAR>
0

>  <SCORE.INTRA.POLAR.0>
0

>  <SCORE.INTRA.REPUL>
0

>  <SCORE.INTRA.REPUL.0>
0

>  <SCORE.INTRA.SOLV>
0.900318

>  <SCORE.INTRA.SOLV.lig_0>
-49.456

>  <SCORE.INTRA.VDW>
-0.34162

>  <SCORE.INTRA.VDW.0>
-0.478406

>  <SCORE.INTRA.norm>
-0.238226

>  <SCORE.RESTR>
0

>  <SCORE.RESTR.CAVITY>
0

>  <SCORE.RESTR.norm>
0

>  <SCORE.SYSTEM>
0

>  <SCORE.SYSTEM.CONST>
0

>  <SCORE.SYSTEM.DIHEDRAL>
0

>  <SCORE.SYSTEM.SOLV>
0

>  <SCORE.SYSTEM.norm>
0

>  <SCORE.heavy>
14

>  <SCORE.norm>
-0.923018

>  <RMSD>
3.612

$$$$
ligand
 OpenBabel11021811413D
libRbt.so/2013.1/901 2013/11/27
 14 13  0  0  0  0  0  0  0  0999 V2000
   45.6920    0.8256   15.7432 N   0  0  0  0  0  0  0  0  0  0  0  0
   45.1903    0.2719   17.0195 C   0  0  0  0  0  0  0  0  0  0  0  0
   44.6828    1.3924   17.9527 C   0  0  0  0  0  0  0  0  0  0  0  0
   45.7587    2.4030   18.3830 C   0  0  0  0  0  0  0  0  0  0  0  0
   45.1651    3.5045   19.1897 N   0  0  0  0  0  0  0  0  0  0  0  0
   46.2331    4.2527   19.9014 C   0  0  0  0  0  0  0  0  0  0  0  0
   45.7693    5.0613   21.1596 C   0  0  0  0  0  0  0  0  0  0  0  0
   44.8432    6.2680   20.8333 C   0  0  0  0  0  0  0  0  0  0  0  0
   45.5772    7.4773   20.2876 C   0  0  0  0  0  0  0  0  0  0  0  0
   46.2225    7.0787   19.0511 N   0  0  0  0  0  0  0  0  0  0  0  0
   47.1698    8.1343   18.7382 C   0  0  0  0  0  0  0  0  0  0  0  0
   48.1275    7.7136   17.6295 C   0  0  0  0  0  0  0  0  0  0  0  0
   49.0627    8.8995   17.3484 C   0  0  0  0  0  0  0  0  0  0  0  0
   50.0512    8.5920   16.3040 N   0  0  0  0  0  0  0  0  0  0  0  0
  1  2  1  0  0  0  0
  2  3  1  0  0  0  0
  3  4  1  0  0  0  0
  4  5  1  0  0  0  0
  5  6  1  0  0  0  0
  6  7  1  0  0  0  0
  7  8  1  0  0  0  0
  8  9  1  0  0  0  0
  9 10  1  0  0  0  0
 10 11  1  0  0  0  0
 11 12  1  0  0  0  0
 12 13  1  0  0  0  0
 13 14  1  0  0  0  0
M  END
>  <CHROM.1>
-62.43479660,175.52500780,164.53157995,-158.28084517,-67.56378842,-77.08923138
61.00846635,-166.16079026,167.88434394,178.69788723,178.95082375,46.39594452
5.13397897,18.53905378,-2.22374521,0.88547361,0.60046887

>  <Name>
ligand

>  <RI>
0

>  <Rbt.Current_Directory>
/home/itssahil/PROJECTS/Mol_Feturizer/New_Systems/rnas/1TN1

>  <Rbt.Executable>
rbdock ($Id: //depot/dev/client3/rdock/2013.1/src/exe/rbdock.cxx#4 $)

>  <Rbt.Library>
libRbt.so (2013.1, Build901 2013/11/27)

>  <Rbt.Parameter_File>
/export/apps/rDock/src/rDock_2013.1_src/data/scripts/dock_solv.prm

>  <Rbt.Receptor>
prm/pocket_docking_7.prm

>  <SCORE>
-9.80014

>  <SCORE.INTER>
-7.64185

>  <SCORE.INTER.CONST>
1

>  <SCORE.INTER.POLAR>
0

>  <SCORE.INTER.ROT>
11

>  <SCORE.INTER.SOLV>
10.4108

>  <SCORE.INTER.VDW>
-19.4982

>  <SCORE.INTER.norm>
-0.545846

>  <SCORE.INTRA>
-2.1583

>  <SCORE.INTRA.DIHEDRAL>
-5.52186

>  <SCORE.INTRA.DIHEDRAL.0>
7.79482

>  <SCORE.INTRA.POLAR>
0

>  <SCORE.INTRA.POLAR.0>
0

>  <SCORE.INTRA.REPUL>
0

>  <SCORE.INTRA.REPUL.0>
0

>  <SCORE.INTRA.SOLV>
2.44371

>  <SCORE.INTRA.SOLV.lig_0>
-49.456

>  <SCORE.INTRA.VDW>
-0.619222

>  <SCORE.INTRA.VDW.0>
-0.478406

>  <SCORE.INTRA.norm>
-0.154164

>  <SCORE.RESTR>
0

>  <SCORE.RESTR.CAVITY>
0

>  <SCORE.RESTR.norm>
0

>  <SCORE.SYSTEM>
0

>  <SCORE.SYSTEM.CONST>
0

>  <SCORE.SYSTEM.DIHEDRAL>
0

>  <SCORE.SYSTEM.SOLV>
0

>  <SCORE.SYSTEM.norm>
0

>  <SCORE.heavy>
14

>  <SCORE.norm>
-0.70001

>  <RMSD>
3.625

$$$$
ligand
 OpenBabel11021811413D
libRbt.so/2013.1/901 2013/11/27
 14 13  0  0  0  0  0  0  0  0999 V2000
   45.7628   10.2368   18.6080 N   0  0  0  0  0  0  0  0  0  0  0  0
   45.3690    8.8662   18.9998 C   0  0  0  0  0  0  0  0  0  0  0  0
   46.3594    8.2724   20.0246 C   0  0  0  0  0  0  0  0  0  0  0  0
   46.0707    6.8159   20.4238 C   0  0  0  0  0  0  0  0  0  0  0  0
   46.1709    5.9094   19.2470 N   0  0  0  0  0  0  0  0  0  0  0  0
   45.7104    4.5445   19.6098 C   0  0  0  0  0  0  0  0  0  0  0  0
   45.9933    3.4301   18.5467 C   0  0  0  0  0  0  0  0  0  0  0  0
   45.5016    2.0144   18.9644 C   0  0  0  0  0  0  0  0  0  0  0  0
   45.9242    0.9109   18.0143 C   0  0  0  0  0  0  0  0  0  0  0  0
   45.2037    1.1025   16.7700 N   0  0  0  0  0  0  0  0  0  0  0  0
   45.2174   -0.1860   16.0996 C   0  0  0  0  0  0  0  0  0  0  0  0
   44.4797   -0.1292   14.7670 C   0  0  0  0  0  0  0  0  0  0  0  0
   44.5361   -1.5324   14.1444 C   0  0  0  0  0  0  0  0  0  0  0  0
   45.9060   -1.9234   13.7792 N   0  0  0  0  0  0  0  0  0  0  0  0
  1  2  1  0  0  0  0
  2  3  1  0  0  0  0
  3  4  1  0  0  0  0
  4  5  1  0  0  0  0
  5  6  1  0  0  0  0
  6  7  1  0  0  0  0
  7  8  1  0  0  0  0
  8  9  1  0  0  0  0
  9 10  1  0  0  0  0
 10 11  1  0  0  0  0
 11 12  1  0  0  0  0
 12 13  1  0  0  0  0
 13 14  1  0  0  0  0
M  END
>  <CHROM.1>
-176.54527042,62.12989331,-172.30490486,-169.74722142,179.78832028,-172.95069592
-68.69351153,-158.78798400,179.69028644,-179.44333442,-66.07354806,45.58602671
3.45212942,17.71443476,1.19173479,-1.36558481,0.08285341

>  <Name>
ligand

>  <RI>
0

>  <Rbt.Current_Directory>
/home/itssahil/PROJECTS/Mol_Feturizer/New_Systems/rnas/1TN1

>  <Rbt.Executable>
rbdock ($Id: //depot/dev/client3/rdock/2013.1/src/exe/rbdock.cxx#4 $)

>  <Rbt.Library>
libRbt.so (2013.1, Build901 2013/11/27)

>  <Rbt.Parameter_File>
/export/apps/rDock/src/rDock_2013.1_src/data/scripts/dock_solv.prm

>  <Rbt.Receptor>
prm/pocket_docking_4.prm

>  <SCORE>
-10.2781

>  <SCORE.INTER>
-7.08331

>  <SCORE.INTER.CONST>
1

>  <SCORE.INTER.POLAR>
0

>  <SCORE.INTER.ROT>
11

>  <SCORE.INTER.SOLV>
11.037

>  <SCORE.INTER.VDW>
-19.3346

>  <SCORE.INTER.norm>
-0.505951

>  <SCORE.INTRA>
-3.19483

>  <SCORE.INTRA.DIHEDRAL>
-6.63971

>  <SCORE.INTRA.DIHEDRAL.0>
7.79482

>  <SCORE.INTRA.POLAR>
0

>  <SCORE.INTRA.POLAR.0>
0

>  <SCORE.INTRA.REPUL>
0

>  <SCORE.INTRA.REPUL.0>
0

>  <SCORE.INTRA.SOLV>
1.43459

>  <SCORE.INTRA.SOLV.lig_0>
-49.456

>  <SCORE.INTRA.VDW>
-0.592272

>  <SCORE.INTRA.VDW.0>
-0.478406

>  <SCORE.INTRA.norm>
-0.228202

>  <SCORE.RESTR>
0

>  <SCORE.RESTR.CAVITY>
0

>  <SCORE.RESTR.norm>
0

>  <SCORE.SYSTEM>
0

>  <SCORE.SYSTEM.CONST>
0

>  <SCORE.SYSTEM.DIHEDRAL>
0

>  <SCORE.SYSTEM.SOLV>
0

>  <SCORE.SYSTEM.norm>
0

>  <SCORE.heavy>
14

>  <SCORE.norm>
-0.734153

>  <RMSD>
3.629

$$$$
ligand
 OpenBabel11021811413D
libRbt.so/2013.1/901 2013/11/27
 14 13  0  0  0  0  0  0  0  0999 V2000
   46.3892    9.4147   18.1109 N   0  0  0  0  0  0  0  0  0  0  0  0
   46.1806    9.6676   19.5530 C   0  0  0  0  0  0  0  0  0  0  0  0
   46.5147    8.4159   20.3931 C   0  0  0  0  0  0  0  0  0  0  0  0
   45.6541    7.1825   20.0737 C   0  0  0  0  0  0  0  0  0  0  0  0
   46.0506    6.0213   20.9168 N   0  0  0  0  0  0  0  0  0  0  0  0
   45.2610    4.8205   20.5410 C   0  0  0  0  0  0  0  0  0  0  0  0
   45.9187    3.8860   19.4704 C   0  0  0  0  0  0  0  0  0  0  0  0
   45.0201    2.6952   19.0289 C   0  0  0  0  0  0  0  0  0  0  0  0
   45.7002    1.7308   18.0768 C   0  0  0  0  0  0  0  0  0  0  0  0
   44.7262    0.7233   17.7019 N   0  0  0  0  0  0  0  0  0  0  0  0
   45.4746   -0.3213   17.0248 C   0  0  0  0  0  0  0  0  0  0  0  0
   45.1625   -0.3536   15.5332 C   0  0  0  0  0  0  0  0  0  0  0  0
   45.9784   -1.4976   14.9123 C   0  0  0  0  0  0  0  0  0  0  0  0
   45.7434   -1.6264   13.4663 N   0  0  0  0  0  0  0  0  0  0  0  0
  1  2  1  0  0  0  0
  2  3  1  0  0  0  0
  3  4  1  0  0  0  0
  4  5  1  0  0  0  0
  5  6  1  0  0  0  0
  6  7  1  0  0  0  0
  7  8  1  0  0  0  0
  8  9  1  0  0  0  0
  9 10  1  0  0  0  0
 10 11  1  0  0  0  0
 11 12  1  0  0  0  0
 12 13  1  0  0  0  0
 13 14  1  0  0  0  0
M  END
>  <CHROM.1>
-60.99272094,179.44441983,-176.83037428,92.76247542,-175.89905226,-175.36565199
-177.04796802,-168.52608143,-109.91237770,-179.09102791,179.55426813,45.69815508
3.62562703,18.20049512,-1.27907709,-1.35634792,-2.40254398

>  <Name>
ligand

>  <RI>
0

>  <Rbt.Current_Directory>
/home/itssahil/PROJECTS/Mol_Feturizer/New_Systems/rnas/1TN1

>  <Rbt.Executable>
rbdock ($Id: //depot/dev/client3/rdock/2013.1/src/exe/rbdock.cxx#4 $)

>  <Rbt.Library>
libRbt.so (2013.1, Build901 2013/11/27)

>  <Rbt.Parameter_File>
/export/apps/rDock/src/rDock_2013.1_src/data/scripts/dock_solv.prm

>  <Rbt.Receptor>
prm/pocket_docking_4.prm

>  <SCORE>
-11.0113

>  <SCORE.INTER>
-7.99631

>  <SCORE.INTER.CONST>
1

>  <SCORE.INTER.POLAR>
0

>  <SCORE.INTER.ROT>
11

>  <SCORE.INTER.SOLV>
12.7774

>  <SCORE.INTER.VDW>
-20.5233

>  <SCORE.INTER.norm>
-0.571165

>  <SCORE.INTRA>
-3.01498

>  <SCORE.INTRA.DIHEDRAL>
-5.68209

>  <SCORE.INTRA.DIHEDRAL.0>
7.79482

>  <SCORE.INTRA.POLAR>
0

>  <SCORE.INTRA.POLAR.0>
0

>  <SCORE.INTRA.REPUL>
0

>  <SCORE.INTRA.REPUL.0>
0

>  <SCORE.INTRA.SOLV>
0.654455

>  <SCORE.INTRA.SOLV.lig_0>
-49.456

>  <SCORE.INTRA.VDW>
-0.501161

>  <SCORE.INTRA.VDW.0>
-0.478406

>  <SCORE.INTRA.norm>
-0.215356

>  <SCORE.RESTR>
0

>  <SCORE.RESTR.CAVITY>
0

>  <SCORE.RESTR.norm>
0

>  <SCORE.SYSTEM>
0

>  <SCORE.SYSTEM.CONST>
0

>  <SCORE.SYSTEM.DIHEDRAL>
0

>  <SCORE.SYSTEM.SOLV>
0

>  <SCORE.SYSTEM.norm>
0

>  <SCORE.heavy>
14

>  <SCORE.norm>
-0.78652

>  <RMSD>
3.633

$$$$
ligand
 OpenBabel11021811413D
libRbt.so/2013.1/901 2013/11/27
 14 13  0  0  0  0  0  0  0  0999 V2000
   45.6220    8.6438   19.1920 N   0  0  0  0  0  0  0  0  0  0  0  0
   44.2313    8.6982   19.6920 C   0  0  0  0  0  0  0  0  0  0  0  0
   43.6973    7.2850   20.0110 C   0  0  0  0  0  0  0  0  0  0  0  0
   44.4745    6.5400   21.1087 C   0  0  0  0  0  0  0  0  0  0  0  0
   45.8604    6.2276   20.6639 N   0  0  0  0  0  0  0  0  0  0  0  0
   46.0223    4.7626   20.4790 C   0  0  0  0  0  0  0  0  0  0  0  0
   45.6887    4.2201   19.0484 C   0  0  0  0  0  0  0  0  0  0  0  0
   45.8913    2.6860   18.8877 C   0  0  0  0  0  0  0  0  0  0  0  0
   45.4200    2.1392   17.5543 C   0  0  0  0  0  0  0  0  0  0  0  0
   45.6897    0.7139   17.5438 N   0  0  0  0  0  0  0  0  0  0  0  0
   44.9097    0.1694   16.4462 C   0  0  0  0  0  0  0  0  0  0  0  0
   45.6610   -0.9450   15.7272 C   0  0  0  0  0  0  0  0  0  0  0  0
   44.8305   -1.3485   14.4995 C   0  0  0  0  0  0  0  0  0  0  0  0
   45.5291   -2.3279   13.6536 N   0  0  0  0  0  0  0  0  0  0  0  0
  1  2  1  0  0  0  0
  2  3  1  0  0  0  0
  3  4  1  0  0  0  0
  4  5  1  0  0  0  0
  5  6  1  0  0  0  0
  6  7  1  0  0  0  0
  7  8  1  0  0  0  0
  8  9  1  0  0  0  0
  9 10  1  0  0  0  0
 10 11  1  0  0  0  0
 11 12  1  0  0  0  0
 12 13  1  0  0  0  0
 13 14  1  0  0  0  0
M  END
>  <CHROM.1>
61.68132284,-66.31070199,-111.42978284,89.86314189,179.09376115,173.43719569
179.16003964,164.60815375,142.82074887,-173.91604164,174.25909243,45.25181895
3.39034894,18.17927445,1.67861715,-1.13917050,0.62973975

>  <Name>
ligand

>  <RI>
0

>  <Rbt.Current_Directory>
/home/itssahil/PROJECTS/Mol_Feturizer/New_Systems/rnas/1TN1

>  <Rbt.Executable>
rbdock ($Id: //depot/dev/client3/rdock/2013.1/src/exe/rbdock.cxx#4 $)

>  <Rbt.Library>
libRbt.so (2013.1, Build901 2013/11/27)

>  <Rbt.Parameter_File>
/export/apps/rDock/src/rDock_2013.1_src/data/scripts/dock_solv.prm

>  <Rbt.Receptor>
prm/pocket_docking_5.prm

>  <SCORE>
-9.19262

>  <SCORE.INTER>
-7.77108

>  <SCORE.INTER.CONST>
1

>  <SCORE.INTER.POLAR>
0

>  <SCORE.INTER.ROT>
11

>  <SCORE.INTER.SOLV>
13.0487

>  <SCORE.INTER.VDW>
-20.4636

>  <SCORE.INTER.norm>
-0.555077

>  <SCORE.INTRA>
-1.42154

>  <SCORE.INTRA.DIHEDRAL>
-4.44645

>  <SCORE.INTRA.DIHEDRAL.0>
7.79482

>  <SCORE.INTRA.POLAR>
0

>  <SCORE.INTRA.POLAR.0>
0

>  <SCORE.INTRA.REPUL>
0

>  <SCORE.INTRA.REPUL.0>
0

>  <SCORE.INTRA.SOLV>
3.17006

>  <SCORE.INTRA.SOLV.lig_0>
-49.456

>  <SCORE.INTRA.VDW>
-0.783342

>  <SCORE.INTRA.VDW.0>
-0.478406

>  <SCORE.INTRA.norm>
-0.101538

>  <SCORE.RESTR>
0

>  <SCORE.RESTR.CAVITY>
0

>  <SCORE.RESTR.norm>
0

>  <SCORE.SYSTEM>
0

>  <SCORE.SYSTEM.CONST>
0

>  <SCORE.SYSTEM.DIHEDRAL>
0

>  <SCORE.SYSTEM.SOLV>
0

>  <SCORE.SYSTEM.norm>
0

>  <SCORE.heavy>
14

>  <SCORE.norm>
-0.656616

>  <RMSD>
3.647

$$$$
ligand
 OpenBabel11021811413D
libRbt.so/2013.1/901 2013/11/27
 14 13  0  0  0  0  0  0  0  0999 V2000
   50.5157    9.8182   16.1848 N   0  0  0  0  0  0  0  0  0  0  0  0
   49.7421    8.6915   16.7498 C   0  0  0  0  0  0  0  0  0  0  0  0
   48.5867    9.1985   17.6397 C   0  0  0  0  0  0  0  0  0  0  0  0
   47.7484    8.0881   18.2941 C   0  0  0  0  0  0  0  0  0  0  0  0
   46.6982    8.6627   19.1792 N   0  0  0  0  0  0  0  0  0  0  0  0
   46.3467    7.6975   20.2523 C   0  0  0  0  0  0  0  0  0  0  0  0
   45.5522    6.4302   19.7889 C   0  0  0  0  0  0  0  0  0  0  0  0
   45.2544    5.4150   20.9297 C   0  0  0  0  0  0  0  0  0  0  0  0
   44.4816    4.1911   20.4783 C   0  0  0  0  0  0  0  0  0  0  0  0
   45.3152    3.4676   19.5371 N   0  0  0  0  0  0  0  0  0  0  0  0
   44.6139    2.2271   19.2561 C   0  0  0  0  0  0  0  0  0  0  0  0
   45.3681    1.3779   18.2395 C   0  0  0  0  0  0  0  0  0  0  0  0
   45.3643    2.1383   16.9047 C   0  0  0  0  0  0  0  0  0  0  0  0
   45.9741    1.3568   15.8184 N   0  0  0  0  0  0  0  0  0  0  0  0
  1  2  1  0  0  0  0
  2  3  1  0  0  0  0
  3  4  1  0  0  0  0
  4  5  1  0  0  0  0
  5  6  1  0  0  0  0
  6  7  1  0  0  0  0
  7  8  1  0  0  0  0
  8  9  1  0  0  0  0
  9 10  1  0  0  0  0
 10 11  1  0  0  0  0
 11 12  1  0  0  0  0
 12 13  1  0  0  0  0
 13 14  1  0  0  0  0
M  END
>  <CHROM.1>
-178.70672492,177.49470637,-153.18123303,-70.70139251,177.57567617,179.83508888
63.89668427,173.20711751,178.39689592,-65.76352634,-175.34270672,46.53987403
5.62567410,18.51838598,-0.72050431,-0.87257335,-2.54885004

>  <Name>
ligand

>  <RI>
0

>  <Rbt.Current_Directory>
/home/itssahil/PROJECTS/Mol_Feturizer/New_Systems/rnas/1TN1

>  <Rbt.Executable>
rbdock ($Id: //depot/dev/client3/rdock/2013.1/src/exe/rbdock.cxx#4 $)

>  <Rbt.Library>
libRbt.so (2013.1, Build901 2013/11/27)

>  <Rbt.Parameter_File>
/export/apps/rDock/src/rDock_2013.1_src/data/scripts/dock_solv.prm

>  <Rbt.Receptor>
prm/pocket_docking_8.prm

>  <SCORE>
-8.80686

>  <SCORE.INTER>
-5.59249

>  <SCORE.INTER.CONST>
1

>  <SCORE.INTER.POLAR>
0

>  <SCORE.INTER.ROT>
11

>  <SCORE.INTER.SOLV>
9.81392

>  <SCORE.INTER.VDW>
-17.933

>  <SCORE.INTER.norm>
-0.399464

>  <SCORE.INTRA>
-3.21437

>  <SCORE.INTRA.DIHEDRAL>
-6.8469

>  <SCORE.INTRA.DIHEDRAL.0>
7.79482

>  <SCORE.INTRA.POLAR>
0

>  <SCORE.INTRA.POLAR.0>
0

>  <SCORE.INTRA.REPUL>
0

>  <SCORE.INTRA.REPUL.0>
0

>  <SCORE.INTRA.SOLV>
0.724816

>  <SCORE.INTRA.SOLV.lig_0>
-49.456

>  <SCORE.INTRA.VDW>
-0.153326

>  <SCORE.INTRA.VDW.0>
-0.478406

>  <SCORE.INTRA.norm>
-0.229598

>  <SCORE.RESTR>
0

>  <SCORE.RESTR.CAVITY>
0

>  <SCORE.RESTR.norm>
0

>  <SCORE.SYSTEM>
0

>  <SCORE.SYSTEM.CONST>
0

>  <SCORE.SYSTEM.DIHEDRAL>
0

>  <SCORE.SYSTEM.SOLV>
0

>  <SCORE.SYSTEM.norm>
0

>  <SCORE.heavy>
14

>  <SCORE.norm>
-0.629061

>  <RMSD>
3.655

$$$$
ligand
 OpenBabel11021811413D
libRbt.so/2013.1/901 2013/11/27
 14 13  0  0  0  0  0  0  0  0999 V2000
   38.6766    7.5446   20.6247 N   0  0  0  0  0  0  0  0  0  0  0  0
   40.0246    8.0528   20.9587 C   0  0  0  0  0  0  0  0  0  0  0  0
   40.9004    8.1848   19.6940 C   0  0  0  0  0  0  0  0  0  0  0  0
   42.3700    8.5442   19.9680 C   0  0  0  0  0  0  0  0  0  0  0  0
   43.0315    7.4965   20.7933 N   0  0  0  0  0  0  0  0  0  0  0  0
   44.3453    7.1319   20.2036 C   0  0  0  0  0  0  0  0  0  0  0  0
   44.7116    5.6103   20.2557 C   0  0  0  0  0  0  0  0  0  0  0  0
   45.9766    5.2330   19.4324 C   0  0  0  0  0  0  0  0  0  0  0  0
   46.2530    3.7433   19.3765 C   0  0  0  0  0  0  0  0  0  0  0  0
   45.1654    3.1218   18.6449 N   0  0  0  0  0  0  0  0  0  0  0  0
   45.5942    1.7606   18.3746 C   0  0  0  0  0  0  0  0  0  0  0  0
   44.9892    1.2322   17.0793 C   0  0  0  0  0  0  0  0  0  0  0  0
   45.4967   -0.2043   16.8814 C   0  0  0  0  0  0  0  0  0  0  0  0
   45.0897   -0.7634   15.5836 N   0  0  0  0  0  0  0  0  0  0  0  0
  1  2  1  0  0  0  0
  2  3  1  0  0  0  0
  3  4  1  0  0  0  0
  4  5  1  0  0  0  0
  5  6  1  0  0  0  0
  6  7  1  0  0  0  0
  7  8  1  0  0  0  0
  8  9  1  0  0  0  0
  9 10  1  0  0  0  0
 10 11  1  0  0  0  0
 11 12  1  0  0  0  0
 12 13  1  0  0  0  0
 13 14  1  0  0  0  0
M  END
>  <CHROM.1>
-172.96227449,60.98900286,132.63108387,-140.91924677,170.64757273,-174.49221664
65.45896489,168.59579571,-149.91959381,-179.94756823,-173.82745675,43.75923717
4.76362465,19.13371617,2.08217812,-0.12715979,0.50296683

>  <Name>
ligand

>  <RI>
0

>  <Rbt.Current_Directory>
/home/itssahil/PROJECTS/Mol_Feturizer/New_Systems/rnas/1TN1

>  <Rbt.Executable>
rbdock ($Id: //depot/dev/client3/rdock/2013.1/src/exe/rbdock.cxx#4 $)

>  <Rbt.Library>
libRbt.so (2013.1, Build901 2013/11/27)

>  <Rbt.Parameter_File>
/export/apps/rDock/src/rDock_2013.1_src/data/scripts/dock_solv.prm

>  <Rbt.Receptor>
prm/blind_docking_60.prm

>  <SCORE>
-11.7953

>  <SCORE.INTER>
-9.32677

>  <SCORE.INTER.CONST>
1

>  <SCORE.INTER.POLAR>
0

>  <SCORE.INTER.ROT>
11

>  <SCORE.INTER.SOLV>
16.8199

>  <SCORE.INTER.VDW>
-22.7578

>  <SCORE.INTER.norm>
-0.666198

>  <SCORE.INTRA>
-2.46851

>  <SCORE.INTRA.DIHEDRAL>
-4.24573

>  <SCORE.INTRA.DIHEDRAL.0>
7.79482

>  <SCORE.INTRA.POLAR>
0

>  <SCORE.INTRA.POLAR.0>
0

>  <SCORE.INTRA.REPUL>
0

>  <SCORE.INTRA.REPUL.0>
0

>  <SCORE.INTRA.SOLV>
0.731674

>  <SCORE.INTRA.SOLV.lig_0>
-49.456

>  <SCORE.INTRA.VDW>
-0.71148

>  <SCORE.INTRA.VDW.0>
-0.478406

>  <SCORE.INTRA.norm>
-0.176322

>  <SCORE.RESTR>
0

>  <SCORE.RESTR.CAVITY>
0

>  <SCORE.RESTR.norm>
0

>  <SCORE.SYSTEM>
0

>  <SCORE.SYSTEM.CONST>
0

>  <SCORE.SYSTEM.DIHEDRAL>
0

>  <SCORE.SYSTEM.SOLV>
0

>  <SCORE.SYSTEM.norm>
0

>  <SCORE.heavy>
14

>  <SCORE.norm>
-0.84252

>  <RMSD>
3.659

$$$$
ligand
 OpenBabel11021811413D
libRbt.so/2013.1/901 2013/11/27
 14 13  0  0  0  0  0  0  0  0999 V2000
   46.8028    9.3017   18.1446 N   0  0  0  0  0  0  0  0  0  0  0  0
   46.1905    9.4929   19.4772 C   0  0  0  0  0  0  0  0  0  0  0  0
   46.4711    8.2861   20.3986 C   0  0  0  0  0  0  0  0  0  0  0  0
   45.8688    6.9571   19.9136 C   0  0  0  0  0  0  0  0  0  0  0  0
   46.0733    5.8790   20.9197 N   0  0  0  0  0  0  0  0  0  0  0  0
   46.0045    4.5469   20.2659 C   0  0  0  0  0  0  0  0  0  0  0  0
   44.5631    4.0160   19.9617 C   0  0  0  0  0  0  0  0  0  0  0  0
   44.5191    2.5363   19.4832 C   0  0  0  0  0  0  0  0  0  0  0  0
   45.2382    2.2922   18.1709 C   0  0  0  0  0  0  0  0  0  0  0  0
   45.1475    0.8745   17.8773 N   0  0  0  0  0  0  0  0  0  0  0  0
   45.4243    0.7435   16.4574 C   0  0  0  0  0  0  0  0  0  0  0  0
   45.4412   -0.7180   16.0250 C   0  0  0  0  0  0  0  0  0  0  0  0
   45.7285   -0.7529   14.5163 C   0  0  0  0  0  0  0  0  0  0  0  0
   45.6869   -2.1194   13.9744 N   0  0  0  0  0  0  0  0  0  0  0  0
  1  2  1  0  0  0  0
  2  3  1  0  0  0  0
  3  4  1  0  0  0  0
  4  5  1  0  0  0  0
  5  6  1  0  0  0  0
  6  7  1  0  0  0  0
  7  8  1  0  0  0  0
  8  9  1  0  0  0  0
  9 10  1  0  0  0  0
 10 11  1  0  0  0  0
 11 12  1  0  0  0  0
 12 13  1  0  0  0  0
 13 14  1  0  0  0  0
M  END
>  <CHROM.1>
-63.05771308,-174.55149814,-157.29725575,-78.99245518,-171.02680600,-62.93795913
178.29689938,161.26543600,176.70060114,179.54561962,-176.54433661,45.65415288
3.66692719,18.25634354,-1.33424277,-1.23505103,-2.45841953

>  <Name>
ligand

>  <RI>
0

>  <Rbt.Current_Directory>
/home/itssahil/PROJECTS/Mol_Feturizer/New_Systems/rnas/1TN1

>  <Rbt.Executable>
rbdock ($Id: //depot/dev/client3/rdock/2013.1/src/exe/rbdock.cxx#4 $)

>  <Rbt.Library>
libRbt.so (2013.1, Build901 2013/11/27)

>  <Rbt.Parameter_File>
/export/apps/rDock/src/rDock_2013.1_src/data/scripts/dock_solv.prm

>  <Rbt.Receptor>
prm/pocket_docking_6.prm

>  <SCORE>
-8.96193

>  <SCORE.INTER>
-6.03738

>  <SCORE.INTER.CONST>
1

>  <SCORE.INTER.POLAR>
0

>  <SCORE.INTER.ROT>
11

>  <SCORE.INTER.SOLV>
13.978

>  <SCORE.INTER.VDW>
-19.6176

>  <SCORE.INTER.norm>
-0.431242

>  <SCORE.INTRA>
-2.92455

>  <SCORE.INTRA.DIHEDRAL>
-6.33147

>  <SCORE.INTRA.DIHEDRAL.0>
7.79482

>  <SCORE.INTRA.POLAR>
0

>  <SCORE.INTRA.POLAR.0>
0

>  <SCORE.INTRA.REPUL>
0

>  <SCORE.INTRA.REPUL.0>
0

>  <SCORE.INTRA.SOLV>
0.769193

>  <SCORE.INTRA.SOLV.lig_0>
-49.456

>  <SCORE.INTRA.VDW>
-0.143409

>  <SCORE.INTRA.VDW.0>
-0.478406

>  <SCORE.INTRA.norm>
-0.208896

>  <SCORE.RESTR>
0

>  <SCORE.RESTR.CAVITY>
0

>  <SCORE.RESTR.norm>
0

>  <SCORE.SYSTEM>
0

>  <SCORE.SYSTEM.CONST>
0

>  <SCORE.SYSTEM.DIHEDRAL>
0

>  <SCORE.SYSTEM.SOLV>
0

>  <SCORE.SYSTEM.norm>
0

>  <SCORE.heavy>
14

>  <SCORE.norm>
-0.640138

>  <RMSD>
3.666

$$$$
ligand
 OpenBabel11021811413D
libRbt.so/2013.1/901 2013/11/27
 14 13  0  0  0  0  0  0  0  0999 V2000
   42.2120   11.6773   17.9281 N   0  0  0  0  0  0  0  0  0  0  0  0
   41.4797   10.6866   18.7464 C   0  0  0  0  0  0  0  0  0  0  0  0
   42.3657    9.4633   19.0666 C   0  0  0  0  0  0  0  0  0  0  0  0
   41.6776    8.3785   19.9114 C   0  0  0  0  0  0  0  0  0  0  0  0
   42.6002    7.2397   20.1732 N   0  0  0  0  0  0  0  0  0  0  0  0
   42.0859    6.4092   21.2924 C   0  0  0  0  0  0  0  0  0  0  0  0
   43.1642    5.5876   22.0763 C   0  0  0  0  0  0  0  0  0  0  0  0
   43.6600    4.3158   21.3299 C   0  0  0  0  0  0  0  0  0  0  0  0
   44.5897    4.6070   20.1682 C   0  0  0  0  0  0  0  0  0  0  0  0
   44.8559    3.3510   19.4929 N   0  0  0  0  0  0  0  0  0  0  0  0
   46.0908    3.5500   18.7546 C   0  0  0  0  0  0  0  0  0  0  0  0
   46.6032    2.2425   18.1620 C   0  0  0  0  0  0  0  0  0  0  0  0
   45.6402    1.8332   17.0372 C   0  0  0  0  0  0  0  0  0  0  0  0
   44.3099    1.4712   17.5491 N   0  0  0  0  0  0  0  0  0  0  0  0
  1  2  1  0  0  0  0
  2  3  1  0  0  0  0
  3  4  1  0  0  0  0
  4  5  1  0  0  0  0
  5  6  1  0  0  0  0
  6  7  1  0  0  0  0
  7  8  1  0  0  0  0
  8  9  1  0  0  0  0
  9 10  1  0  0  0  0
 10 11  1  0  0  0  0
 11 12  1  0  0  0  0
 12 13  1  0  0  0  0
 13 14  1  0  0  0  0
M  END
>  <CHROM.1>
-179.75268481,-179.96950844,163.39006795,-154.95525996,-76.57723935,74.14815253
-174.28519513,-158.73247970,171.46246937,69.68573546,-67.16326130,43.66687150
5.77229605,19.40654240,-2.60632279,-1.05768067,2.27287666

>  <Name>
ligand

>  <RI>
0

>  <Rbt.Current_Directory>
/home/itssahil/PROJECTS/Mol_Feturizer/New_Systems/rnas/1TN1

>  <Rbt.Executable>
rbdock ($Id: //depot/dev/client3/rdock/2013.1/src/exe/rbdock.cxx#4 $)

>  <Rbt.Library>
libRbt.so (2013.1, Build901 2013/11/27)

>  <Rbt.Parameter_File>
/export/apps/rDock/src/rDock_2013.1_src/data/scripts/dock_solv.prm

>  <Rbt.Receptor>
prm/blind_docking_100.prm

>  <SCORE>
-10.1318

>  <SCORE.INTER>
-9.27692

>  <SCORE.INTER.CONST>
1

>  <SCORE.INTER.POLAR>
0

>  <SCORE.INTER.ROT>
11

>  <SCORE.INTER.SOLV>
19.0783

>  <SCORE.INTER.VDW>
-23.4774

>  <SCORE.INTER.norm>
-0.662637

>  <SCORE.INTRA>
-0.85486

>  <SCORE.INTRA.DIHEDRAL>
-4.30163

>  <SCORE.INTRA.DIHEDRAL.0>
7.79482

>  <SCORE.INTRA.POLAR>
0

>  <SCORE.INTRA.POLAR.0>
0

>  <SCORE.INTRA.REPUL>
0

>  <SCORE.INTRA.REPUL.0>
0

>  <SCORE.INTRA.SOLV>
3.83747

>  <SCORE.INTRA.SOLV.lig_0>
-49.456

>  <SCORE.INTRA.VDW>
-0.622782

>  <SCORE.INTRA.VDW.0>
-0.478406

>  <SCORE.INTRA.norm>
-0.0610614

>  <SCORE.RESTR>
0

>  <SCORE.RESTR.CAVITY>
0

>  <SCORE.RESTR.norm>
0

>  <SCORE.SYSTEM>
0

>  <SCORE.SYSTEM.CONST>
0

>  <SCORE.SYSTEM.DIHEDRAL>
0

>  <SCORE.SYSTEM.SOLV>
0

>  <SCORE.SYSTEM.norm>
0

>  <SCORE.heavy>
14

>  <SCORE.norm>
-0.723699

>  <RMSD>
3.672

$$$$
ligand
 OpenBabel11021811413D
libRbt.so/2013.1/901 2013/11/27
 14 13  0  0  0  0  0  0  0  0999 V2000
   44.8408   -2.5657   14.8754 N   0  0  0  0  0  0  0  0  0  0  0  0
   45.5887   -1.3076   15.0874 C   0  0  0  0  0  0  0  0  0  0  0  0
   44.8998   -0.1224   14.3769 C   0  0  0  0  0  0  0  0  0  0  0  0
   45.6987    1.1911   14.4028 C   0  0  0  0  0  0  0  0  0  0  0  0
   45.8731    1.6831   15.7970 N   0  0  0  0  0  0  0  0  0  0  0  0
   45.5417    3.1290   15.8764 C   0  0  0  0  0  0  0  0  0  0  0  0
   46.1621    3.8997   17.0902 C   0  0  0  0  0  0  0  0  0  0  0  0
   45.7101    3.3656   18.4797 C   0  0  0  0  0  0  0  0  0  0  0  0
   46.1205    4.2487   19.6419 C   0  0  0  0  0  0  0  0  0  0  0  0
   45.4012    5.5021   19.5167 N   0  0  0  0  0  0  0  0  0  0  0  0
   45.8265    6.3190   20.6398 C   0  0  0  0  0  0  0  0  0  0  0  0
   46.3523    7.6728   20.1772 C   0  0  0  0  0  0  0  0  0  0  0  0
   45.1667    8.4580   19.5961 C   0  0  0  0  0  0  0  0  0  0  0  0
   45.5782    9.7571   19.0431 N   0  0  0  0  0  0  0  0  0  0  0  0
  1  2  1  0  0  0  0
  2  3  1  0  0  0  0
  3  4  1  0  0  0  0
  4  5  1  0  0  0  0
  5  6  1  0  0  0  0
  6  7  1  0  0  0  0
  7  8  1  0  0  0  0
  8  9  1  0  0  0  0
  9 10  1  0  0  0  0
 10 11  1  0  0  0  0
 11 12  1  0  0  0  0
 12 13  1  0  0  0  0
 13 14  1  0  0  0  0
M  END
>  <CHROM.1>
-172.99016386,-63.48089750,-132.56321743,-158.18445493,-61.08514523,-170.27950558
66.11414795,-179.68107459,125.70306574,67.33931373,-176.59188489,45.62581888
3.65934883,17.47153660,-2.10227879,-1.48471113,0.00551943

>  <Name>
ligand

>  <RI>
0

>  <Rbt.Current_Directory>
/home/itssahil/PROJECTS/Mol_Feturizer/New_Systems/rnas/1TN1

>  <Rbt.Executable>
rbdock ($Id: //depot/dev/client3/rdock/2013.1/src/exe/rbdock.cxx#4 $)

>  <Rbt.Library>
libRbt.so (2013.1, Build901 2013/11/27)

>  <Rbt.Parameter_File>
/export/apps/rDock/src/rDock_2013.1_src/data/scripts/dock_solv.prm

>  <Rbt.Receptor>
prm/blind_docking_100.prm

>  <SCORE>
-4.97874

>  <SCORE.INTER>
-2.94744

>  <SCORE.INTER.CONST>
1

>  <SCORE.INTER.POLAR>
0

>  <SCORE.INTER.ROT>
11

>  <SCORE.INTER.SOLV>
14.4809

>  <SCORE.INTER.VDW>
-17.7253

>  <SCORE.INTER.norm>
-0.210531

>  <SCORE.INTRA>
-2.0313

>  <SCORE.INTRA.DIHEDRAL>
-4.18861

>  <SCORE.INTRA.DIHEDRAL.0>
7.79482

>  <SCORE.INTRA.POLAR>
0

>  <SCORE.INTRA.POLAR.0>
0

>  <SCORE.INTRA.REPUL>
0

>  <SCORE.INTRA.REPUL.0>
0

>  <SCORE.INTRA.SOLV>
1.41084

>  <SCORE.INTRA.SOLV.lig_0>
-49.456

>  <SCORE.INTRA.VDW>
-0.642416

>  <SCORE.INTRA.VDW.0>
-0.478406

>  <SCORE.INTRA.norm>
-0.145093

>  <SCORE.RESTR>
0

>  <SCORE.RESTR.CAVITY>
0

>  <SCORE.RESTR.norm>
0

>  <SCORE.SYSTEM>
0

>  <SCORE.SYSTEM.CONST>
0

>  <SCORE.SYSTEM.DIHEDRAL>
0

>  <SCORE.SYSTEM.SOLV>
0

>  <SCORE.SYSTEM.norm>
0

>  <SCORE.heavy>
14

>  <SCORE.norm>
-0.355624

>  <RMSD>
3.673

$$$$
ligand
 OpenBabel11021811413D
libRbt.so/2013.1/901 2013/11/27
 14 13  0  0  0  0  0  0  0  0999 V2000
   45.7360   10.4635   18.5987 N   0  0  0  0  0  0  0  0  0  0  0  0
   46.2423    9.4279   19.5251 C   0  0  0  0  0  0  0  0  0  0  0  0
   45.4422    8.1148   19.3852 C   0  0  0  0  0  0  0  0  0  0  0  0
   45.9329    6.9677   20.2838 C   0  0  0  0  0  0  0  0  0  0  0  0
   45.1986    5.7065   19.9892 N   0  0  0  0  0  0  0  0  0  0  0  0
   46.1552    4.6253   19.6391 C   0  0  0  0  0  0  0  0  0  0  0  0
   45.5317    3.3701   18.9407 C   0  0  0  0  0  0  0  0  0  0  0  0
   46.5697    2.2783   18.5522 C   0  0  0  0  0  0  0  0  0  0  0  0
   45.9525    0.9368   18.2081 C   0  0  0  0  0  0  0  0  0  0  0  0
   45.5265    0.9917   16.8225 N   0  0  0  0  0  0  0  0  0  0  0  0
   45.3611   -0.3887   16.4020 C   0  0  0  0  0  0  0  0  0  0  0  0
   45.1488   -0.4914   14.8961 C   0  0  0  0  0  0  0  0  0  0  0  0
   44.9654   -1.9775   14.5529 C   0  0  0  0  0  0  0  0  0  0  0  0
   44.8157   -2.1993   13.1068 N   0  0  0  0  0  0  0  0  0  0  0  0
  1  2  1  0  0  0  0
  2  3  1  0  0  0  0
  3  4  1  0  0  0  0
  4  5  1  0  0  0  0
  5  6  1  0  0  0  0
  6  7  1  0  0  0  0
  7  8  1  0  0  0  0
  8  9  1  0  0  0  0
  9 10  1  0  0  0  0
 10 11  1  0  0  0  0
 11 12  1  0  0  0  0
 12 13  1  0  0  0  0
 13 14  1  0  0  0  0
M  END
>  <CHROM.1>
178.16859070,-174.33875286,123.76150946,-164.20949663,178.30068225,165.25180572
82.95076497,161.64418001,-170.11969102,-179.22187054,-177.27524644,45.61287037
3.41597648,17.77901397,1.26382941,-1.36888859,0.14213559

>  <Name>
ligand

>  <RI>
0

>  <Rbt.Current_Directory>
/home/itssahil/PROJECTS/Mol_Feturizer/New_Systems/rnas/1TN1

>  <Rbt.Executable>
rbdock ($Id: //depot/dev/client3/rdock/2013.1/src/exe/rbdock.cxx#4 $)

>  <Rbt.Library>
libRbt.so (2013.1, Build901 2013/11/27)

>  <Rbt.Parameter_File>
/export/apps/rDock/src/rDock_2013.1_src/data/scripts/dock_solv.prm

>  <Rbt.Receptor>
prm/pocket_docking_5.prm

>  <SCORE>
-10.2618

>  <SCORE.INTER>
-7.91065

>  <SCORE.INTER.CONST>
1

>  <SCORE.INTER.POLAR>
0

>  <SCORE.INTER.ROT>
11

>  <SCORE.INTER.SOLV>
10.733

>  <SCORE.INTER.VDW>
-19.7848

>  <SCORE.INTER.norm>
-0.565047

>  <SCORE.INTRA>
-2.35112

>  <SCORE.INTRA.DIHEDRAL>
-3.27134

>  <SCORE.INTRA.DIHEDRAL.0>
7.79482

>  <SCORE.INTRA.POLAR>
0

>  <SCORE.INTRA.POLAR.0>
0

>  <SCORE.INTRA.REPUL>
0

>  <SCORE.INTRA.REPUL.0>
0

>  <SCORE.INTRA.SOLV>
0.191884

>  <SCORE.INTRA.SOLV.lig_0>
-49.456

>  <SCORE.INTRA.VDW>
-0.811392

>  <SCORE.INTRA.VDW.0>
-0.478406

>  <SCORE.INTRA.norm>
-0.167937

>  <SCORE.RESTR>
0

>  <SCORE.RESTR.CAVITY>
0

>  <SCORE.RESTR.norm>
0

>  <SCORE.SYSTEM>
0

>  <SCORE.SYSTEM.CONST>
0

>  <SCORE.SYSTEM.DIHEDRAL>
0

>  <SCORE.SYSTEM.SOLV>
0

>  <SCORE.SYSTEM.norm>
0

>  <SCORE.heavy>
14

>  <SCORE.norm>
-0.732984

>  <RMSD>
3.677

$$$$
ligand
 OpenBabel11021811413D
libRbt.so/2013.1/901 2013/11/27
 14 13  0  0  0  0  0  0  0  0999 V2000
   48.7218    9.9730   13.6808 N   0  0  0  0  0  0  0  0  0  0  0  0
   48.5889    8.7976   14.5684 C   0  0  0  0  0  0  0  0  0  0  0  0
   47.6866    9.1132   15.7810 C   0  0  0  0  0  0  0  0  0  0  0  0
   47.5494    7.9638   16.7928 C   0  0  0  0  0  0  0  0  0  0  0  0
   46.6214    8.3319   17.8972 N   0  0  0  0  0  0  0  0  0  0  0  0
   47.0674    7.7113   19.1710 C   0  0  0  0  0  0  0  0  0  0  0  0
   46.1995    8.0507   20.4295 C   0  0  0  0  0  0  0  0  0  0  0  0
   44.7916    7.3889   20.4273 C   0  0  0  0  0  0  0  0  0  0  0  0
   44.8162    5.8889   20.6475 C   0  0  0  0  0  0  0  0  0  0  0  0
   45.3376    5.2762   19.4404 N   0  0  0  0  0  0  0  0  0  0  0  0
   46.1474    4.1540   19.8816 C   0  0  0  0  0  0  0  0  0  0  0  0
   46.3353    3.1300   18.7683 C   0  0  0  0  0  0  0  0  0  0  0  0
   44.9867    2.4271   18.5509 C   0  0  0  0  0  0  0  0  0  0  0  0
   45.0671    1.3757   17.5259 N   0  0  0  0  0  0  0  0  0  0  0  0
  1  2  1  0  0  0  0
  2  3  1  0  0  0  0
  3  4  1  0  0  0  0
  4  5  1  0  0  0  0
  5  6  1  0  0  0  0
  6  7  1  0  0  0  0
  7  8  1  0  0  0  0
  8  9  1  0  0  0  0
  9 10  1  0  0  0  0
 10 11  1  0  0  0  0
 11 12  1  0  0  0  0
 12 13  1  0  0  0  0
 13 14  1  0  0  0  0
M  END
>  <CHROM.1>
-177.18637301,-177.67527756,-145.96739430,178.34183982,70.73620051,70.93843504
-72.12124790,143.25578039,158.99893408,-70.94399822,-177.81485110,46.42262910
6.39880768,18.11200989,-0.45569965,-1.13623177,-2.66758213

>  <Name>
ligand

>  <RI>
0

>  <Rbt.Current_Directory>
/home/itssahil/PROJECTS/Mol_Feturizer/New_Systems/rnas/1TN1

>  <Rbt.Executable>
rbdock ($Id: //depot/dev/client3/rdock/2013.1/src/exe/rbdock.cxx#4 $)

>  <Rbt.Library>
libRbt.so (2013.1, Build901 2013/11/27)

>  <Rbt.Parameter_File>
/export/apps/rDock/src/rDock_2013.1_src/data/scripts/dock_solv.prm

>  <Rbt.Receptor>
prm/pocket_docking_6.prm

>  <SCORE>
-5.82575

>  <SCORE.INTER>
-4.08963

>  <SCORE.INTER.CONST>
1

>  <SCORE.INTER.POLAR>
0

>  <SCORE.INTER.ROT>
11

>  <SCORE.INTER.SOLV>
11.0904

>  <SCORE.INTER.VDW>
-17.3566

>  <SCORE.INTER.norm>
-0.292116

>  <SCORE.INTRA>
-1.73613

>  <SCORE.INTRA.DIHEDRAL>
-3.97195

>  <SCORE.INTRA.DIHEDRAL.0>
7.79482

>  <SCORE.INTRA.POLAR>
0

>  <SCORE.INTRA.POLAR.0>
0

>  <SCORE.INTRA.REPUL>
0

>  <SCORE.INTRA.REPUL.0>
0

>  <SCORE.INTRA.SOLV>
2.16139

>  <SCORE.INTRA.SOLV.lig_0>
-49.456

>  <SCORE.INTRA.VDW>
-0.830854

>  <SCORE.INTRA.VDW.0>
-0.478406

>  <SCORE.INTRA.norm>
-0.124009

>  <SCORE.RESTR>
0

>  <SCORE.RESTR.CAVITY>
0

>  <SCORE.RESTR.norm>
0

>  <SCORE.SYSTEM>
0

>  <SCORE.SYSTEM.CONST>
0

>  <SCORE.SYSTEM.DIHEDRAL>
0

>  <SCORE.SYSTEM.SOLV>
0

>  <SCORE.SYSTEM.norm>
0

>  <SCORE.heavy>
14

>  <SCORE.norm>
-0.416125

>  <RMSD>
3.688

$$$$
ligand
 OpenBabel11021811413D
libRbt.so/2013.1/901 2013/11/27
 14 13  0  0  0  0  0  0  0  0999 V2000
   45.1316   -1.3825   14.9920 N   0  0  0  0  0  0  0  0  0  0  0  0
   45.7337   -1.0272   16.2953 C   0  0  0  0  0  0  0  0  0  0  0  0
   45.3482    0.4077   16.7155 C   0  0  0  0  0  0  0  0  0  0  0  0
   45.9102    0.8484   18.0771 C   0  0  0  0  0  0  0  0  0  0  0  0
   45.2999    2.1333   18.5164 N   0  0  0  0  0  0  0  0  0  0  0  0
   43.9000    1.9113   18.9609 C   0  0  0  0  0  0  0  0  0  0  0  0
   43.5542    2.4356   20.3954 C   0  0  0  0  0  0  0  0  0  0  0  0
   43.6358    3.9822   20.5431 C   0  0  0  0  0  0  0  0  0  0  0  0
   45.0420    4.5380   20.4304 C   0  0  0  0  0  0  0  0  0  0  0  0
   44.9554    5.9808   20.5531 N   0  0  0  0  0  0  0  0  0  0  0  0
   46.3041    6.4794   20.3479 C   0  0  0  0  0  0  0  0  0  0  0  0
   46.3465    7.5386   19.2527 C   0  0  0  0  0  0  0  0  0  0  0  0
   45.6715    8.8039   19.8035 C   0  0  0  0  0  0  0  0  0  0  0  0
   45.6942    9.9115   18.8363 N   0  0  0  0  0  0  0  0  0  0  0  0
  1  2  1  0  0  0  0
  2  3  1  0  0  0  0
  3  4  1  0  0  0  0
  4  5  1  0  0  0  0
  5  6  1  0  0  0  0
  6  7  1  0  0  0  0
  7  8  1  0  0  0  0
  8  9  1  0  0  0  0
  9 10  1  0  0  0  0
 10 11  1  0  0  0  0
 11 12  1  0  0  0  0
 12 13  1  0  0  0  0
 13 14  1  0  0  0  0
M  END
>  <CHROM.1>
178.78552289,-169.81755106,73.66554829,126.25567556,65.14701796,-67.75496553
178.58059195,-176.15866396,126.19019168,71.15162133,178.22375944,45.18047764
3.75420824,18.83735675,-1.66558835,1.02371529,0.43780569

>  <Name>
ligand

>  <RI>
0

>  <Rbt.Current_Directory>
/home/itssahil/PROJECTS/Mol_Feturizer/New_Systems/rnas/1TN1

>  <Rbt.Executable>
rbdock ($Id: //depot/dev/client3/rdock/2013.1/src/exe/rbdock.cxx#4 $)

>  <Rbt.Library>
libRbt.so (2013.1, Build901 2013/11/27)

>  <Rbt.Parameter_File>
/export/apps/rDock/src/rDock_2013.1_src/data/scripts/dock_solv.prm

>  <Rbt.Receptor>
prm/pocket_docking_6.prm

>  <SCORE>
-6.4241

>  <SCORE.INTER>
-5.12102

>  <SCORE.INTER.CONST>
1

>  <SCORE.INTER.POLAR>
0

>  <SCORE.INTER.ROT>
11

>  <SCORE.INTER.SOLV>
13.767

>  <SCORE.INTER.VDW>
-18.9364

>  <SCORE.INTER.norm>
-0.365787

>  <SCORE.INTRA>
-1.30308

>  <SCORE.INTRA.DIHEDRAL>
-4.08481

>  <SCORE.INTRA.DIHEDRAL.0>
7.79482

>  <SCORE.INTRA.POLAR>
0

>  <SCORE.INTRA.POLAR.0>
0

>  <SCORE.INTRA.REPUL>
0

>  <SCORE.INTRA.REPUL.0>
0

>  <SCORE.INTRA.SOLV>
1.27177

>  <SCORE.INTRA.SOLV.lig_0>
-49.456

>  <SCORE.INTRA.VDW>
0.103437

>  <SCORE.INTRA.VDW.0>
-0.478406

>  <SCORE.INTRA.norm>
-0.0930774

>  <SCORE.RESTR>
0

>  <SCORE.RESTR.CAVITY>
0

>  <SCORE.RESTR.norm>
0

>  <SCORE.SYSTEM>
0

>  <SCORE.SYSTEM.CONST>
0

>  <SCORE.SYSTEM.DIHEDRAL>
0

>  <SCORE.SYSTEM.SOLV>
0

>  <SCORE.SYSTEM.norm>
0

>  <SCORE.heavy>
14

>  <SCORE.norm>
-0.458864

>  <RMSD>
3.689

$$$$
ligand
 OpenBabel11021811413D
libRbt.so/2013.1/901 2013/11/27
 14 13  0  0  0  0  0  0  0  0999 V2000
   44.8269   -2.2067   13.0078 N   0  0  0  0  0  0  0  0  0  0  0  0
   44.9133   -2.1297   14.4822 C   0  0  0  0  0  0  0  0  0  0  0  0
   45.2632   -0.6994   14.9466 C   0  0  0  0  0  0  0  0  0  0  0  0
   45.4332   -0.5439   16.4668 C   0  0  0  0  0  0  0  0  0  0  0  0
   45.7036    0.8738   16.8321 N   0  0  0  0  0  0  0  0  0  0  0  0
   46.0089    0.9812   18.2819 C   0  0  0  0  0  0  0  0  0  0  0  0
   45.3261    2.1750   19.0306 C   0  0  0  0  0  0  0  0  0  0  0  0
   45.9619    3.5621   18.7271 C   0  0  0  0  0  0  0  0  0  0  0  0
   45.4972    4.6684   19.6539 C   0  0  0  0  0  0  0  0  0  0  0  0
   46.2116    5.8768   19.2885 N   0  0  0  0  0  0  0  0  0  0  0  0
   45.9878    6.8152   20.3744 C   0  0  0  0  0  0  0  0  0  0  0  0
   46.4846    8.2111   20.0165 C   0  0  0  0  0  0  0  0  0  0  0  0
   45.5515    8.7729   18.9331 C   0  0  0  0  0  0  0  0  0  0  0  0
   45.9844   10.0958   18.4586 N   0  0  0  0  0  0  0  0  0  0  0  0
  1  2  1  0  0  0  0
  2  3  1  0  0  0  0
  3  4  1  0  0  0  0
  4  5  1  0  0  0  0
  5  6  1  0  0  0  0
  6  7  1  0  0  0  0
  7  8  1  0  0  0  0
  8  9  1  0  0  0  0
  9 10  1  0  0  0  0
 10 11  1  0  0  0  0
 11 12  1  0  0  0  0
 12 13  1  0  0  0  0
 13 14  1  0  0  0  0
M  END
>  <CHROM.1>
-177.46814952,-177.27259705,-173.93301179,-136.59019262,-74.61467180,-168.14880017
177.61136055,-166.87517487,-170.32138992,69.68421150,-176.90038580,45.65386305
3.31791028,17.75035513,2.20252750,1.43498011,2.96117587

>  <Name>
ligand

>  <RI>
0

>  <Rbt.Current_Directory>
/home/itssahil/PROJECTS/Mol_Feturizer/New_Systems/rnas/1TN1

>  <Rbt.Executable>
rbdock ($Id: //depot/dev/client3/rdock/2013.1/src/exe/rbdock.cxx#4 $)

>  <Rbt.Library>
libRbt.so (2013.1, Build901 2013/11/27)

>  <Rbt.Parameter_File>
/export/apps/rDock/src/rDock_2013.1_src/data/scripts/dock_solv.prm

>  <Rbt.Receptor>
prm/pocket_docking_8.prm

>  <SCORE>
-10.9398

>  <SCORE.INTER>
-8.09869

>  <SCORE.INTER.CONST>
1

>  <SCORE.INTER.POLAR>
0

>  <SCORE.INTER.ROT>
11

>  <SCORE.INTER.SOLV>
10.9211

>  <SCORE.INTER.VDW>
-19.9728

>  <SCORE.INTER.norm>
-0.578478

>  <SCORE.INTRA>
-2.84109

>  <SCORE.INTRA.DIHEDRAL>
-4.76839

>  <SCORE.INTRA.DIHEDRAL.0>
7.79482

>  <SCORE.INTRA.POLAR>
0

>  <SCORE.INTRA.POLAR.0>
0

>  <SCORE.INTRA.REPUL>
0

>  <SCORE.INTRA.REPUL.0>
0

>  <SCORE.INTRA.SOLV>
0.597661

>  <SCORE.INTRA.SOLV.lig_0>
-49.456

>  <SCORE.INTRA.VDW>
-0.755722

>  <SCORE.INTRA.VDW.0>
-0.478406

>  <SCORE.INTRA.norm>
-0.202935

>  <SCORE.RESTR>
0

>  <SCORE.RESTR.CAVITY>
0

>  <SCORE.RESTR.norm>
0

>  <SCORE.SYSTEM>
0

>  <SCORE.SYSTEM.CONST>
0

>  <SCORE.SYSTEM.DIHEDRAL>
0

>  <SCORE.SYSTEM.SOLV>
0

>  <SCORE.SYSTEM.norm>
0

>  <SCORE.heavy>
14

>  <SCORE.norm>
-0.781413

>  <RMSD>
3.715

$$$$
ligand
 OpenBabel11021811413D
libRbt.so/2013.1/901 2013/11/27
 14 13  0  0  0  0  0  0  0  0999 V2000
   46.8316    8.5043   17.7274 N   0  0  0  0  0  0  0  0  0  0  0  0
   47.0770    8.6548   19.1780 C   0  0  0  0  0  0  0  0  0  0  0  0
   45.7712    8.4884   19.9851 C   0  0  0  0  0  0  0  0  0  0  0  0
   45.1901    7.0650   19.9754 C   0  0  0  0  0  0  0  0  0  0  0  0
   46.1203    6.1036   20.6288 N   0  0  0  0  0  0  0  0  0  0  0  0
   45.5890    4.7206   20.5201 C   0  0  0  0  0  0  0  0  0  0  0  0
   46.0227    3.9276   19.2413 C   0  0  0  0  0  0  0  0  0  0  0  0
   45.2666    2.5828   19.0411 C   0  0  0  0  0  0  0  0  0  0  0  0
   45.7114    1.8025   17.8195 C   0  0  0  0  0  0  0  0  0  0  0  0
   44.9324    0.5798   17.7715 N   0  0  0  0  0  0  0  0  0  0  0  0
   45.4284   -0.1635   16.6264 C   0  0  0  0  0  0  0  0  0  0  0  0
   44.5049   -0.0155   15.4229 C   0  0  0  0  0  0  0  0  0  0  0  0
   45.0370   -0.9346   14.3129 C   0  0  0  0  0  0  0  0  0  0  0  0
   46.3554   -0.5066   13.8217 N   0  0  0  0  0  0  0  0  0  0  0  0
  1  2  1  0  0  0  0
  2  3  1  0  0  0  0
  3  4  1  0  0  0  0
  4  5  1  0  0  0  0
  5  6  1  0  0  0  0
  6  7  1  0  0  0  0
  7  8  1  0  0  0  0
  8  9  1  0  0  0  0
  9 10  1  0  0  0  0
 10 11  1  0  0  0  0
 11 12  1  0  0  0  0
 12 13  1  0  0  0  0
 13 14  1  0  0  0  0
M  END
>  <CHROM.1>
68.29791485,63.49166504,-175.79492900,89.48432933,-170.35201179,-178.66979439
179.55525352,-177.52228197,-100.91013362,-174.78597029,-65.53606530,45.70256938
3.62920838,18.00536520,-1.23615184,-1.27186774,-2.33349811

>  <Name>
ligand

>  <RI>
0

>  <Rbt.Current_Directory>
/home/itssahil/PROJECTS/Mol_Feturizer/New_Systems/rnas/1TN1

>  <Rbt.Executable>
rbdock ($Id: //depot/dev/client3/rdock/2013.1/src/exe/rbdock.cxx#4 $)

>  <Rbt.Library>
libRbt.so (2013.1, Build901 2013/11/27)

>  <Rbt.Parameter_File>
/export/apps/rDock/src/rDock_2013.1_src/data/scripts/dock_solv.prm

>  <Rbt.Receptor>
prm/blind_docking_100.prm

>  <SCORE>
-9.03581

>  <SCORE.INTER>
-7.11141

>  <SCORE.INTER.CONST>
1

>  <SCORE.INTER.POLAR>
0

>  <SCORE.INTER.ROT>
11

>  <SCORE.INTER.SOLV>
11.9242

>  <SCORE.INTER.VDW>
-19.649

>  <SCORE.INTER.norm>
-0.507958

>  <SCORE.INTRA>
-1.9244

>  <SCORE.INTRA.DIHEDRAL>
-5.39438

>  <SCORE.INTRA.DIHEDRAL.0>
7.79482

>  <SCORE.INTRA.POLAR>
0

>  <SCORE.INTRA.POLAR.0>
0

>  <SCORE.INTRA.REPUL>
0

>  <SCORE.INTRA.REPUL.0>
0

>  <SCORE.INTRA.SOLV>
2.3144

>  <SCORE.INTRA.SOLV.lig_0>
-49.456

>  <SCORE.INTRA.VDW>
-0.384412

>  <SCORE.INTRA.VDW.0>
-0.478406

>  <SCORE.INTRA.norm>
-0.137457

>  <SCORE.RESTR>
0

>  <SCORE.RESTR.CAVITY>
0

>  <SCORE.RESTR.norm>
0

>  <SCORE.SYSTEM>
0

>  <SCORE.SYSTEM.CONST>
0

>  <SCORE.SYSTEM.DIHEDRAL>
0

>  <SCORE.SYSTEM.SOLV>
0

>  <SCORE.SYSTEM.norm>
0

>  <SCORE.heavy>
14

>  <SCORE.norm>
-0.645415

>  <RMSD>
3.720

$$$$
ligand
 OpenBabel11021811413D
libRbt.so/2013.1/901 2013/11/27
 14 13  0  0  0  0  0  0  0  0999 V2000
   46.8275   10.2314   18.0811 N   0  0  0  0  0  0  0  0  0  0  0  0
   47.1221    8.9011   18.6560 C   0  0  0  0  0  0  0  0  0  0  0  0
   45.9802    8.4277   19.5812 C   0  0  0  0  0  0  0  0  0  0  0  0
   46.1577    7.0068   20.1411 C   0  0  0  0  0  0  0  0  0  0  0  0
   46.2946    6.0124   19.0417 N   0  0  0  0  0  0  0  0  0  0  0  0
   45.7490    4.6979   19.4675 C   0  0  0  0  0  0  0  0  0  0  0  0
   46.0780    3.4913   18.5251 C   0  0  0  0  0  0  0  0  0  0  0  0
   45.4336    2.1461   18.9673 C   0  0  0  0  0  0  0  0  0  0  0  0
   45.9715    0.9346   18.2310 C   0  0  0  0  0  0  0  0  0  0  0  0
   45.4373    0.9669   16.8827 N   0  0  0  0  0  0  0  0  0  0  0  0
   45.4355   -0.4106   16.4222 C   0  0  0  0  0  0  0  0  0  0  0  0
   45.0255   -0.5084   14.9574 C   0  0  0  0  0  0  0  0  0  0  0  0
   45.0057   -1.9971   14.5788 C   0  0  0  0  0  0  0  0  0  0  0  0
   44.6697   -2.2056   13.1623 N   0  0  0  0  0  0  0  0  0  0  0  0
  1  2  1  0  0  0  0
  2  3  1  0  0  0  0
  3  4  1  0  0  0  0
  4  5  1  0  0  0  0
  5  6  1  0  0  0  0
  6  7  1  0  0  0  0
  7  8  1  0  0  0  0
  8  9  1  0  0  0  0
  9 10  1  0  0  0  0
 10 11  1  0  0  0  0
 11 12  1  0  0  0  0
 12 13  1  0  0  0  0
 13 14  1  0  0  0  0
M  END
>  <CHROM.1>
175.73700825,-57.57353156,-149.62950539,-168.43836007,-177.23403789,-168.20329260
-73.05406357,-154.64917048,-174.27940653,-178.05136360,-177.82635424,45.79912935
3.40660283,17.62145093,-0.22357496,-1.43054396,-1.39204365

>  <Name>
ligand

>  <RI>
0

>  <Rbt.Current_Directory>
/home/itssahil/PROJECTS/Mol_Feturizer/New_Systems/rnas/1TN1

>  <Rbt.Executable>
rbdock ($Id: //depot/dev/client3/rdock/2013.1/src/exe/rbdock.cxx#4 $)

>  <Rbt.Library>
libRbt.so (2013.1, Build901 2013/11/27)

>  <Rbt.Parameter_File>
/export/apps/rDock/src/rDock_2013.1_src/data/scripts/dock_solv.prm

>  <Rbt.Receptor>
prm/blind_docking_80.prm

>  <SCORE>
-10.0573

>  <SCORE.INTER>
-7.04077

>  <SCORE.INTER.CONST>
1

>  <SCORE.INTER.POLAR>
0

>  <SCORE.INTER.ROT>
11

>  <SCORE.INTER.SOLV>
11.6964

>  <SCORE.INTER.VDW>
-19.526

>  <SCORE.INTER.norm>
-0.502912

>  <SCORE.INTRA>
-3.01654

>  <SCORE.INTRA.DIHEDRAL>
-5.25724

>  <SCORE.INTRA.DIHEDRAL.0>
7.79482

>  <SCORE.INTRA.POLAR>
0

>  <SCORE.INTRA.POLAR.0>
0

>  <SCORE.INTRA.REPUL>
0

>  <SCORE.INTRA.REPUL.0>
0

>  <SCORE.INTRA.SOLV>
0.653003

>  <SCORE.INTRA.SOLV.lig_0>
-49.456

>  <SCORE.INTRA.VDW>
-0.714428

>  <SCORE.INTRA.VDW.0>
-0.478406

>  <SCORE.INTRA.norm>
-0.215467

>  <SCORE.RESTR>
0

>  <SCORE.RESTR.CAVITY>
0

>  <SCORE.RESTR.norm>
0

>  <SCORE.SYSTEM>
0

>  <SCORE.SYSTEM.CONST>
0

>  <SCORE.SYSTEM.DIHEDRAL>
0

>  <SCORE.SYSTEM.SOLV>
0

>  <SCORE.SYSTEM.norm>
0

>  <SCORE.heavy>
14

>  <SCORE.norm>
-0.718379

>  <RMSD>
3.720

$$$$
ligand
 OpenBabel11021811413D
libRbt.so/2013.1/901 2013/11/27
 14 13  0  0  0  0  0  0  0  0999 V2000
   41.7521    7.7062   20.1610 N   0  0  0  0  0  0  0  0  0  0  0  0
   43.0667    7.3072   20.7086 C   0  0  0  0  0  0  0  0  0  0  0  0
   44.2182    7.7776   19.7939 C   0  0  0  0  0  0  0  0  0  0  0  0
   45.6262    7.4500   20.3178 C   0  0  0  0  0  0  0  0  0  0  0  0
   45.7731    5.9918   20.5793 N   0  0  0  0  0  0  0  0  0  0  0  0
   45.9922    5.2611   19.3046 C   0  0  0  0  0  0  0  0  0  0  0  0
   45.8538    3.7034   19.3851 C   0  0  0  0  0  0  0  0  0  0  0  0
   45.9534    2.9850   18.0087 C   0  0  0  0  0  0  0  0  0  0  0  0
   45.8168    1.4772   18.0901 C   0  0  0  0  0  0  0  0  0  0  0  0
   45.8082    0.9629   16.7337 N   0  0  0  0  0  0  0  0  0  0  0  0
   45.5870   -0.4678   16.8519 C   0  0  0  0  0  0  0  0  0  0  0  0
   45.3157   -1.1042   15.4937 C   0  0  0  0  0  0  0  0  0  0  0  0
   46.6276   -1.0721   14.6950 C   0  0  0  0  0  0  0  0  0  0  0  0
   46.4789   -1.6668   13.3583 N   0  0  0  0  0  0  0  0  0  0  0  0
  1  2  1  0  0  0  0
  2  3  1  0  0  0  0
  3  4  1  0  0  0  0
  4  5  1  0  0  0  0
  5  6  1  0  0  0  0
  6  7  1  0  0  0  0
  7  8  1  0  0  0  0
  8  9  1  0  0  0  0
  9 10  1  0  0  0  0
 10 11  1  0  0  0  0
 11 12  1  0  0  0  0
 12 13  1  0  0  0  0
 13 14  1  0  0  0  0
M  END
>  <CHROM.1>
177.78142493,55.69857587,78.37200347,-167.23207128,174.38797802,-179.90618221
174.94494104,-176.30785743,170.20161948,69.98735568,179.96199203,45.27655508
3.30799482,18.10601336,1.78411761,-0.26320697,0.61921138

>  <Name>
ligand

>  <RI>
0

>  <Rbt.Current_Directory>
/home/itssahil/PROJECTS/Mol_Feturizer/New_Systems/rnas/1TN1

>  <Rbt.Executable>
rbdock ($Id: //depot/dev/client3/rdock/2013.1/src/exe/rbdock.cxx#4 $)

>  <Rbt.Library>
libRbt.so (2013.1, Build901 2013/11/27)

>  <Rbt.Parameter_File>
/export/apps/rDock/src/rDock_2013.1_src/data/scripts/dock_solv.prm

>  <Rbt.Receptor>
prm/blind_docking_80.prm

>  <SCORE>
-10.6961

>  <SCORE.INTER>
-7.48808

>  <SCORE.INTER.CONST>
1

>  <SCORE.INTER.POLAR>
0

>  <SCORE.INTER.ROT>
11

>  <SCORE.INTER.SOLV>
14.3528

>  <SCORE.INTER.VDW>
-20.7096

>  <SCORE.INTER.norm>
-0.534863

>  <SCORE.INTRA>
-3.20805

>  <SCORE.INTRA.DIHEDRAL>
-6.64876

>  <SCORE.INTRA.DIHEDRAL.0>
7.79482

>  <SCORE.INTRA.POLAR>
0

>  <SCORE.INTRA.POLAR.0>
0

>  <SCORE.INTRA.REPUL>
0

>  <SCORE.INTRA.REPUL.0>
0

>  <SCORE.INTRA.SOLV>
0.692561

>  <SCORE.INTRA.SOLV.lig_0>
-49.456

>  <SCORE.INTRA.VDW>
-0.229945

>  <SCORE.INTRA.VDW.0>
-0.478406

>  <SCORE.INTRA.norm>
-0.229146

>  <SCORE.RESTR>
0

>  <SCORE.RESTR.CAVITY>
0

>  <SCORE.RESTR.norm>
0

>  <SCORE.SYSTEM>
0

>  <SCORE.SYSTEM.CONST>
0

>  <SCORE.SYSTEM.DIHEDRAL>
0

>  <SCORE.SYSTEM.SOLV>
0

>  <SCORE.SYSTEM.norm>
0

>  <SCORE.heavy>
14

>  <SCORE.norm>
-0.764009

>  <RMSD>
3.723

$$$$
ligand
 OpenBabel11021811413D
libRbt.so/2013.1/901 2013/11/27
 14 13  0  0  0  0  0  0  0  0999 V2000
   46.4834   -1.7338   13.3584 N   0  0  0  0  0  0  0  0  0  0  0  0
   46.0166   -1.2147   14.6622 C   0  0  0  0  0  0  0  0  0  0  0  0
   44.8358   -0.2362   14.4828 C   0  0  0  0  0  0  0  0  0  0  0  0
   44.3574    0.4341   15.7812 C   0  0  0  0  0  0  0  0  0  0  0  0
   45.4153    1.3140   16.3495 N   0  0  0  0  0  0  0  0  0  0  0  0
   45.6130    1.0140   17.7909 C   0  0  0  0  0  0  0  0  0  0  0  0
   46.3282    2.1314   18.6229 C   0  0  0  0  0  0  0  0  0  0  0  0
   45.5464    3.4750   18.6856 C   0  0  0  0  0  0  0  0  0  0  0  0
   46.1466    4.4926   19.6360 C   0  0  0  0  0  0  0  0  0  0  0  0
   45.3926    5.7238   19.4950 N   0  0  0  0  0  0  0  0  0  0  0  0
   45.9071    6.6243   20.5118 C   0  0  0  0  0  0  0  0  0  0  0  0
   46.5741    7.8454   19.8895 C   0  0  0  0  0  0  0  0  0  0  0  0
   45.4731    8.6929   19.2341 C   0  0  0  0  0  0  0  0  0  0  0  0
   46.0190    9.8570   18.5203 N   0  0  0  0  0  0  0  0  0  0  0  0
  1  2  1  0  0  0  0
  2  3  1  0  0  0  0
  3  4  1  0  0  0  0
  4  5  1  0  0  0  0
  5  6  1  0  0  0  0
  6  7  1  0  0  0  0
  7  8  1  0  0  0  0
  8  9  1  0  0  0  0
  9 10  1  0  0  0  0
 10 11  1  0  0  0  0
 11 12  1  0  0  0  0
 12 13  1  0  0  0  0
 13 14  1  0  0  0  0
M  END
>  <CHROM.1>
-175.55759015,64.70710677,-130.24566035,-160.91595116,62.62090202,172.41010192
174.75665100,174.38027766,115.96771419,68.77070327,-176.12330667,45.72198492
3.45841481,17.64459394,2.11425838,1.50351058,3.10128925

>  <Name>
ligand

>  <RI>
0

>  <Rbt.Current_Directory>
/home/itssahil/PROJECTS/Mol_Feturizer/New_Systems/rnas/1TN1

>  <Rbt.Executable>
rbdock ($Id: //depot/dev/client3/rdock/2013.1/src/exe/rbdock.cxx#4 $)

>  <Rbt.Library>
libRbt.so (2013.1, Build901 2013/11/27)

>  <Rbt.Parameter_File>
/export/apps/rDock/src/rDock_2013.1_src/data/scripts/dock_solv.prm

>  <Rbt.Receptor>
prm/blind_docking_100.prm

>  <SCORE>
-9.59466

>  <SCORE.INTER>
-7.21956

>  <SCORE.INTER.CONST>
1

>  <SCORE.INTER.POLAR>
0

>  <SCORE.INTER.ROT>
11

>  <SCORE.INTER.SOLV>
9.40201

>  <SCORE.INTER.VDW>
-18.8804

>  <SCORE.INTER.norm>
-0.515683

>  <SCORE.INTRA>
-2.3751

>  <SCORE.INTRA.DIHEDRAL>
-4.32307

>  <SCORE.INTRA.DIHEDRAL.0>
7.79482

>  <SCORE.INTRA.POLAR>
0

>  <SCORE.INTRA.POLAR.0>
0

>  <SCORE.INTRA.REPUL>
0

>  <SCORE.INTRA.REPUL.0>
0

>  <SCORE.INTRA.SOLV>
1.00481

>  <SCORE.INTRA.SOLV.lig_0>
-49.456

>  <SCORE.INTRA.VDW>
-0.715966

>  <SCORE.INTRA.VDW.0>
-0.478406

>  <SCORE.INTRA.norm>
-0.16965

>  <SCORE.RESTR>
0

>  <SCORE.RESTR.CAVITY>
0

>  <SCORE.RESTR.norm>
0

>  <SCORE.SYSTEM>
0

>  <SCORE.SYSTEM.CONST>
0

>  <SCORE.SYSTEM.DIHEDRAL>
0

>  <SCORE.SYSTEM.SOLV>
0

>  <SCORE.SYSTEM.norm>
0

>  <SCORE.heavy>
14

>  <SCORE.norm>
-0.685333

>  <RMSD>
3.728

$$$$
ligand
 OpenBabel11021811413D
libRbt.so/2013.1/901 2013/11/27
 14 13  0  0  0  0  0  0  0  0999 V2000
   46.3768    9.8038   18.0171 N   0  0  0  0  0  0  0  0  0  0  0  0
   45.6901    8.7065   18.7324 C   0  0  0  0  0  0  0  0  0  0  0  0
   46.6620    7.9568   19.6691 C   0  0  0  0  0  0  0  0  0  0  0  0
   46.0463    6.7507   20.3973 C   0  0  0  0  0  0  0  0  0  0  0  0
   45.7378    5.6507   19.4428 N   0  0  0  0  0  0  0  0  0  0  0  0
   45.0633    4.5317   20.1497 C   0  0  0  0  0  0  0  0  0  0  0  0
   44.9052    3.2088   19.3268 C   0  0  0  0  0  0  0  0  0  0  0  0
   46.2486    2.6174   18.8111 C   0  0  0  0  0  0  0  0  0  0  0  0
   46.1531    1.1719   18.3633 C   0  0  0  0  0  0  0  0  0  0  0  0
   45.3530    1.1385   17.1538 N   0  0  0  0  0  0  0  0  0  0  0  0
   45.3496   -0.2467   16.7169 C   0  0  0  0  0  0  0  0  0  0  0  0
   45.1613   -0.3553   15.2083 C   0  0  0  0  0  0  0  0  0  0  0  0
   45.1396   -1.8487   14.8489 C   0  0  0  0  0  0  0  0  0  0  0  0
   45.0222   -2.0697   13.3997 N   0  0  0  0  0  0  0  0  0  0  0  0
  1  2  1  0  0  0  0
  2  3  1  0  0  0  0
  3  4  1  0  0  0  0
  4  5  1  0  0  0  0
  5  6  1  0  0  0  0
  6  7  1  0  0  0  0
  7  8  1  0  0  0  0
  8  9  1  0  0  0  0
  9 10  1  0  0  0  0
 10 11  1  0  0  0  0
 11 12  1  0  0  0  0
 12 13  1  0  0  0  0
 13 14  1  0  0  0  0
M  END
>  <CHROM.1>
-176.91843015,68.57619871,-176.29857158,-169.73775454,57.70030723,163.80831939
68.86732165,176.83698088,-152.62882968,-178.74904354,-177.42539740,45.63636171
3.35821144,17.87444285,-0.39466446,-1.47938660,-1.54064243

>  <Name>
ligand

>  <RI>
0

>  <Rbt.Current_Directory>
/home/itssahil/PROJECTS/Mol_Feturizer/New_Systems/rnas/1TN1

>  <Rbt.Executable>
rbdock ($Id: //depot/dev/client3/rdock/2013.1/src/exe/rbdock.cxx#4 $)

>  <Rbt.Library>
libRbt.so (2013.1, Build901 2013/11/27)

>  <Rbt.Parameter_File>
/export/apps/rDock/src/rDock_2013.1_src/data/scripts/dock_solv.prm

>  <Rbt.Receptor>
prm/pocket_docking_4.prm

>  <SCORE>
-10.9573

>  <SCORE.INTER>
-7.85608

>  <SCORE.INTER.CONST>
1

>  <SCORE.INTER.POLAR>
0

>  <SCORE.INTER.ROT>
11

>  <SCORE.INTER.SOLV>
10.196

>  <SCORE.INTER.VDW>
-19.5694

>  <SCORE.INTER.norm>
-0.561148

>  <SCORE.INTRA>
-3.10125

>  <SCORE.INTRA.DIHEDRAL>
-5.48517

>  <SCORE.INTRA.DIHEDRAL.0>
7.79482

>  <SCORE.INTRA.POLAR>
0

>  <SCORE.INTRA.POLAR.0>
0

>  <SCORE.INTRA.REPUL>
0

>  <SCORE.INTRA.REPUL.0>
0

>  <SCORE.INTRA.SOLV>
0.915745

>  <SCORE.INTRA.SOLV.lig_0>
-49.456

>  <SCORE.INTRA.VDW>
-0.816541

>  <SCORE.INTRA.VDW.0>
-0.478406

>  <SCORE.INTRA.norm>
-0.221518

>  <SCORE.RESTR>
0

>  <SCORE.RESTR.CAVITY>
0

>  <SCORE.RESTR.norm>
0

>  <SCORE.SYSTEM>
0

>  <SCORE.SYSTEM.CONST>
0

>  <SCORE.SYSTEM.DIHEDRAL>
0

>  <SCORE.SYSTEM.SOLV>
0

>  <SCORE.SYSTEM.norm>
0

>  <SCORE.heavy>
14

>  <SCORE.norm>
-0.782666

>  <RMSD>
3.728

$$$$
ligand
 OpenBabel11021811413D
libRbt.so/2013.1/901 2013/11/27
 14 13  0  0  0  0  0  0  0  0999 V2000
   48.9718    7.3188   15.7083 N   0  0  0  0  0  0  0  0  0  0  0  0
   47.7928    7.2844   16.6005 C   0  0  0  0  0  0  0  0  0  0  0  0
   48.1305    7.8577   17.9937 C   0  0  0  0  0  0  0  0  0  0  0  0
   46.9569    7.8583   18.9870 C   0  0  0  0  0  0  0  0  0  0  0  0
   46.5125    6.4700   19.2899 N   0  0  0  0  0  0  0  0  0  0  0  0
   45.5783    6.4706   20.4450 C   0  0  0  0  0  0  0  0  0  0  0  0
   45.3232    5.0758   21.1096 C   0  0  0  0  0  0  0  0  0  0  0  0
   44.5453    4.0751   20.2074 C   0  0  0  0  0  0  0  0  0  0  0  0
   45.3967    3.4220   19.1363 C   0  0  0  0  0  0  0  0  0  0  0  0
   44.5391    2.5344   18.3739 N   0  0  0  0  0  0  0  0  0  0  0  0
   45.3790    1.4212   17.9679 C   0  0  0  0  0  0  0  0  0  0  0  0
   44.7143    0.5900   16.8768 C   0  0  0  0  0  0  0  0  0  0  0  0
   45.6410   -0.5951   16.5657 C   0  0  0  0  0  0  0  0  0  0  0  0
   45.1726   -1.3789   15.4129 N   0  0  0  0  0  0  0  0  0  0  0  0
  1  2  1  0  0  0  0
  2  3  1  0  0  0  0
  3  4  1  0  0  0  0
  4  5  1  0  0  0  0
  5  6  1  0  0  0  0
  6  7  1  0  0  0  0
  7  8  1  0  0  0  0
  8  9  1  0  0  0  0
  9 10  1  0  0  0  0
 10 11  1  0  0  0  0
 11 12  1  0  0  0  0
 12 13  1  0  0  0  0
 13 14  1  0  0  0  0
M  END
>  <CHROM.1>
-179.95805976,63.60333978,168.49899468,-164.68197960,-67.65000681,78.00735752
-179.43575655,-147.08248749,-165.72525303,-177.23260804,-173.25471782,46.04660959
4.17190005,18.19147776,-1.05604434,-0.94876712,-2.50368488

>  <Name>
ligand

>  <RI>
0

>  <Rbt.Current_Directory>
/home/itssahil/PROJECTS/Mol_Feturizer/New_Systems/rnas/1TN1

>  <Rbt.Executable>
rbdock ($Id: //depot/dev/client3/rdock/2013.1/src/exe/rbdock.cxx#4 $)

>  <Rbt.Library>
libRbt.so (2013.1, Build901 2013/11/27)

>  <Rbt.Parameter_File>
/export/apps/rDock/src/rDock_2013.1_src/data/scripts/dock_solv.prm

>  <Rbt.Receptor>
prm/pocket_docking_4.prm

>  <SCORE>
-8.79436

>  <SCORE.INTER>
-5.99284

>  <SCORE.INTER.CONST>
1

>  <SCORE.INTER.POLAR>
0

>  <SCORE.INTER.ROT>
11

>  <SCORE.INTER.SOLV>
13.1056

>  <SCORE.INTER.VDW>
-19.2971

>  <SCORE.INTER.norm>
-0.42806

>  <SCORE.INTRA>
-2.80152

>  <SCORE.INTRA.DIHEDRAL>
-4.92492

>  <SCORE.INTRA.DIHEDRAL.0>
7.79482

>  <SCORE.INTRA.POLAR>
0

>  <SCORE.INTRA.POLAR.0>
0

>  <SCORE.INTRA.REPUL>
0

>  <SCORE.INTRA.REPUL.0>
0

>  <SCORE.INTRA.SOLV>
1.0934

>  <SCORE.INTRA.SOLV.lig_0>
-49.456

>  <SCORE.INTRA.VDW>
-0.885764

>  <SCORE.INTRA.VDW.0>
-0.478406

>  <SCORE.INTRA.norm>
-0.200109

>  <SCORE.RESTR>
0

>  <SCORE.RESTR.CAVITY>
0

>  <SCORE.RESTR.norm>
0

>  <SCORE.SYSTEM>
0

>  <SCORE.SYSTEM.CONST>
0

>  <SCORE.SYSTEM.DIHEDRAL>
0

>  <SCORE.SYSTEM.SOLV>
0

>  <SCORE.SYSTEM.norm>
0

>  <SCORE.heavy>
14

>  <SCORE.norm>
-0.628169

>  <RMSD>
3.737

$$$$
ligand
 OpenBabel11021811413D
libRbt.so/2013.1/901 2013/11/27
 14 13  0  0  0  0  0  0  0  0999 V2000
   46.3243    9.7898   18.0668 N   0  0  0  0  0  0  0  0  0  0  0  0
   45.6509    8.6451   18.7176 C   0  0  0  0  0  0  0  0  0  0  0  0
   46.5875    7.9473   19.7275 C   0  0  0  0  0  0  0  0  0  0  0  0
   45.9751    6.7232   20.4279 C   0  0  0  0  0  0  0  0  0  0  0  0
   45.7108    5.6276   19.4552 N   0  0  0  0  0  0  0  0  0  0  0  0
   45.0634    4.4789   20.1393 C   0  0  0  0  0  0  0  0  0  0  0  0
   44.9137    3.1773   19.2815 C   0  0  0  0  0  0  0  0  0  0  0  0
   46.2648    2.5768   18.7975 C   0  0  0  0  0  0  0  0  0  0  0  0
   46.1721    1.1291   18.3565 C   0  0  0  0  0  0  0  0  0  0  0  0
   45.3655    1.0877   17.1515 N   0  0  0  0  0  0  0  0  0  0  0  0
   45.4207   -0.2860   16.6827 C   0  0  0  0  0  0  0  0  0  0  0  0
   45.0487   -0.3873   15.2080 C   0  0  0  0  0  0  0  0  0  0  0  0
   45.1347   -1.8680   14.8077 C   0  0  0  0  0  0  0  0  0  0  0  0
   44.8710   -2.0724   13.3755 N   0  0  0  0  0  0  0  0  0  0  0  0
  1  2  1  0  0  0  0
  2  3  1  0  0  0  0
  3  4  1  0  0  0  0
  4  5  1  0  0  0  0
  5  6  1  0  0  0  0
  6  7  1  0  0  0  0
  7  8  1  0  0  0  0
  8  9  1  0  0  0  0
  9 10  1  0  0  0  0
 10 11  1  0  0  0  0
 11 12  1  0  0  0  0
 12 13  1  0  0  0  0
 13 14  1  0  0  0  0
M  END
>  <CHROM.1>
-178.68039817,65.50672421,-177.44268147,-171.61097633,60.96147680,161.90935689
67.27597374,174.00842882,-159.98430961,-179.96800774,-176.61000048,45.60739939
3.32625748,17.87143757,-0.01127763,-1.48643432,-1.15117476

>  <Name>
ligand

>  <RI>
0

>  <Rbt.Current_Directory>
/home/itssahil/PROJECTS/Mol_Feturizer/New_Systems/rnas/1TN1

>  <Rbt.Executable>
rbdock ($Id: //depot/dev/client3/rdock/2013.1/src/exe/rbdock.cxx#4 $)

>  <Rbt.Library>
libRbt.so (2013.1, Build901 2013/11/27)

>  <Rbt.Parameter_File>
/export/apps/rDock/src/rDock_2013.1_src/data/scripts/dock_solv.prm

>  <Rbt.Receptor>
prm/pocket_docking_4.prm

>  <SCORE>
-10.9886

>  <SCORE.INTER>
-7.76921

>  <SCORE.INTER.CONST>
1

>  <SCORE.INTER.POLAR>
0

>  <SCORE.INTER.ROT>
11

>  <SCORE.INTER.SOLV>
10.4599

>  <SCORE.INTER.VDW>
-19.5994

>  <SCORE.INTER.norm>
-0.554944

>  <SCORE.INTRA>
-3.21935

>  <SCORE.INTRA.DIHEDRAL>
-5.76437

>  <SCORE.INTRA.DIHEDRAL.0>
7.79482

>  <SCORE.INTRA.POLAR>
0

>  <SCORE.INTRA.POLAR.0>
0

>  <SCORE.INTRA.REPUL>
0

>  <SCORE.INTRA.REPUL.0>
0

>  <SCORE.INTRA.SOLV>
0.915206

>  <SCORE.INTRA.SOLV.lig_0>
-49.456

>  <SCORE.INTRA.VDW>
-0.794771

>  <SCORE.INTRA.VDW.0>
-0.478406

>  <SCORE.INTRA.norm>
-0.229954

>  <SCORE.RESTR>
0

>  <SCORE.RESTR.CAVITY>
0

>  <SCORE.RESTR.norm>
0

>  <SCORE.SYSTEM>
0

>  <SCORE.SYSTEM.CONST>
0

>  <SCORE.SYSTEM.DIHEDRAL>
0

>  <SCORE.SYSTEM.SOLV>
0

>  <SCORE.SYSTEM.norm>
0

>  <SCORE.heavy>
14

>  <SCORE.norm>
-0.784898

>  <RMSD>
3.756

$$$$
ligand
 OpenBabel11021811413D
libRbt.so/2013.1/901 2013/11/27
 14 13  0  0  0  0  0  0  0  0999 V2000
   47.8789    8.7644   17.1141 N   0  0  0  0  0  0  0  0  0  0  0  0
   47.2870    8.8002   18.4689 C   0  0  0  0  0  0  0  0  0  0  0  0
   46.9070    7.3830   18.9495 C   0  0  0  0  0  0  0  0  0  0  0  0
   46.2871    7.3289   20.3555 C   0  0  0  0  0  0  0  0  0  0  0  0
   45.9859    5.9262   20.7531 N   0  0  0  0  0  0  0  0  0  0  0  0
   44.6487    5.5246   20.2458 C   0  0  0  0  0  0  0  0  0  0  0  0
   44.3916    3.9821   20.1630 C   0  0  0  0  0  0  0  0  0  0  0  0
   45.3296    3.2342   19.1724 C   0  0  0  0  0  0  0  0  0  0  0  0
   44.9942    1.7660   18.9967 C   0  0  0  0  0  0  0  0  0  0  0  0
   46.0362    1.1719   18.1808 N   0  0  0  0  0  0  0  0  0  0  0  0
   45.3739    0.6802   16.9853 C   0  0  0  0  0  0  0  0  0  0  0  0
   45.7027   -0.7858   16.7286 C   0  0  0  0  0  0  0  0  0  0  0  0
   45.1602   -1.1470   15.3374 C   0  0  0  0  0  0  0  0  0  0  0  0
   45.8389   -0.4026   14.2660 N   0  0  0  0  0  0  0  0  0  0  0  0
  1  2  1  0  0  0  0
  2  3  1  0  0  0  0
  3  4  1  0  0  0  0
  4  5  1  0  0  0  0
  5  6  1  0  0  0  0
  6  7  1  0  0  0  0
  7  8  1  0  0  0  0
  8  9  1  0  0  0  0
  9 10  1  0  0  0  0
 10 11  1  0  0  0  0
 11 12  1  0  0  0  0
 12 13  1  0  0  0  0
 13 14  1  0  0  0  0
M  END
>  <CHROM.1>
179.80473757,-178.46270737,-85.81652413,160.52409801,-63.15970671,-174.56699968
-173.34037234,-118.76403716,-127.37590135,-170.65538645,64.57472088,45.84417162
3.73038426,18.26579407,-1.27894787,-1.07637612,-2.51786886

>  <Name>
ligand

>  <RI>
0

>  <Rbt.Current_Directory>
/home/itssahil/PROJECTS/Mol_Feturizer/New_Systems/rnas/1TN1

>  <Rbt.Executable>
rbdock ($Id: //depot/dev/client3/rdock/2013.1/src/exe/rbdock.cxx#4 $)

>  <Rbt.Library>
libRbt.so (2013.1, Build901 2013/11/27)

>  <Rbt.Parameter_File>
/export/apps/rDock/src/rDock_2013.1_src/data/scripts/dock_solv.prm

>  <Rbt.Receptor>
prm/pocket_docking_7.prm

>  <SCORE>
-8.67541

>  <SCORE.INTER>
-7.00307

>  <SCORE.INTER.CONST>
1

>  <SCORE.INTER.POLAR>
0

>  <SCORE.INTER.ROT>
11

>  <SCORE.INTER.SOLV>
11.7831

>  <SCORE.INTER.VDW>
-19.5297

>  <SCORE.INTER.norm>
-0.500219

>  <SCORE.INTRA>
-1.67234

>  <SCORE.INTRA.DIHEDRAL>
-3.94631

>  <SCORE.INTRA.DIHEDRAL.0>
7.79482

>  <SCORE.INTRA.POLAR>
0

>  <SCORE.INTRA.POLAR.0>
0

>  <SCORE.INTRA.REPUL>
0

>  <SCORE.INTRA.REPUL.0>
0

>  <SCORE.INTRA.SOLV>
1.16925

>  <SCORE.INTRA.SOLV.lig_0>
-49.456

>  <SCORE.INTRA.VDW>
-0.283814

>  <SCORE.INTRA.VDW.0>
-0.478406

>  <SCORE.INTRA.norm>
-0.119453

>  <SCORE.RESTR>
0

>  <SCORE.RESTR.CAVITY>
0

>  <SCORE.RESTR.norm>
0

>  <SCORE.SYSTEM>
0

>  <SCORE.SYSTEM.CONST>
0

>  <SCORE.SYSTEM.DIHEDRAL>
0

>  <SCORE.SYSTEM.SOLV>
0

>  <SCORE.SYSTEM.norm>
0

>  <SCORE.heavy>
14

>  <SCORE.norm>
-0.619672

>  <RMSD>
3.762

$$$$
ligand
 OpenBabel11021811413D
libRbt.so/2013.1/901 2013/11/27
 14 13  0  0  0  0  0  0  0  0999 V2000
   45.2829   -2.1402   13.3132 N   0  0  0  0  0  0  0  0  0  0  0  0
   45.2130   -1.4920   14.6406 C   0  0  0  0  0  0  0  0  0  0  0  0
   44.4413   -0.1565   14.5695 C   0  0  0  0  0  0  0  0  0  0  0  0
   44.3490    0.6010   15.9043 C   0  0  0  0  0  0  0  0  0  0  0  0
   45.6999    0.9974   16.3883 N   0  0  0  0  0  0  0  0  0  0  0  0
   45.8413    0.6799   17.8326 C   0  0  0  0  0  0  0  0  0  0  0  0
   45.3438    1.7880   18.8209 C   0  0  0  0  0  0  0  0  0  0  0  0
   46.1518    3.1154   18.7458 C   0  0  0  0  0  0  0  0  0  0  0  0
   45.6426    4.1994   19.6756 C   0  0  0  0  0  0  0  0  0  0  0  0
   46.4786    5.3696   19.4856 N   0  0  0  0  0  0  0  0  0  0  0  0
   45.6447    6.5122   19.8152 C   0  0  0  0  0  0  0  0  0  0  0  0
   46.2282    7.8068   19.2613 C   0  0  0  0  0  0  0  0  0  0  0  0
   45.2126    8.9273   19.5312 C   0  0  0  0  0  0  0  0  0  0  0  0
   45.6029   10.1955   18.8970 N   0  0  0  0  0  0  0  0  0  0  0  0
  1  2  1  0  0  0  0
  2  3  1  0  0  0  0
  3  4  1  0  0  0  0
  4  5  1  0  0  0  0
  5  6  1  0  0  0  0
  6  7  1  0  0  0  0
  7  8  1  0  0  0  0
  8  9  1  0  0  0  0
  9 10  1  0  0  0  0
 10 11  1  0  0  0  0
 11 12  1  0  0  0  0
 12 13  1  0  0  0  0
 13 14  1  0  0  0  0
M  END
>  <CHROM.1>
-178.67589948,62.82804551,-134.05253798,-87.01538639,-64.36112403,178.34600694
-179.43379411,152.28821164,-162.39496539,174.24228842,-173.26215195,45.50935371
3.31443552,17.63461559,1.85046367,1.32511954,-2.94423001

>  <Name>
ligand

>  <RI>
0

>  <Rbt.Current_Directory>
/home/itssahil/PROJECTS/Mol_Feturizer/New_Systems/rnas/1TN1

>  <Rbt.Executable>
rbdock ($Id: //depot/dev/client3/rdock/2013.1/src/exe/rbdock.cxx#4 $)

>  <Rbt.Library>
libRbt.so (2013.1, Build901 2013/11/27)

>  <Rbt.Parameter_File>
/export/apps/rDock/src/rDock_2013.1_src/data/scripts/dock_solv.prm

>  <Rbt.Receptor>
prm/pocket_docking_7.prm

>  <SCORE>
-9.8456

>  <SCORE.INTER>
-6.85917

>  <SCORE.INTER.CONST>
1

>  <SCORE.INTER.POLAR>
0

>  <SCORE.INTER.ROT>
11

>  <SCORE.INTER.SOLV>
11.3221

>  <SCORE.INTER.VDW>
-19.2801

>  <SCORE.INTER.norm>
-0.489941

>  <SCORE.INTRA>
-2.98642

>  <SCORE.INTRA.DIHEDRAL>
-5.06215

>  <SCORE.INTRA.DIHEDRAL.0>
7.79482

>  <SCORE.INTRA.POLAR>
0

>  <SCORE.INTRA.POLAR.0>
0

>  <SCORE.INTRA.REPUL>
0

>  <SCORE.INTRA.REPUL.0>
0

>  <SCORE.INTRA.SOLV>
0.599751

>  <SCORE.INTRA.SOLV.lig_0>
-49.456

>  <SCORE.INTRA.VDW>
-0.755224

>  <SCORE.INTRA.VDW.0>
-0.478406

>  <SCORE.INTRA.norm>
-0.213316

>  <SCORE.RESTR>
0

>  <SCORE.RESTR.CAVITY>
0

>  <SCORE.RESTR.norm>
0

>  <SCORE.SYSTEM>
0

>  <SCORE.SYSTEM.CONST>
0

>  <SCORE.SYSTEM.DIHEDRAL>
0

>  <SCORE.SYSTEM.SOLV>
0

>  <SCORE.SYSTEM.norm>
0

>  <SCORE.heavy>
14

>  <SCORE.norm>
-0.703257

>  <RMSD>
3.765

$$$$
ligand
 OpenBabel11021811413D
libRbt.so/2013.1/901 2013/11/27
 14 13  0  0  0  0  0  0  0  0999 V2000
   46.8476   -1.8975   13.1862 N   0  0  0  0  0  0  0  0  0  0  0  0
   46.9274   -1.3412   14.5542 C   0  0  0  0  0  0  0  0  0  0  0  0
   45.5730   -1.4620   15.2856 C   0  0  0  0  0  0  0  0  0  0  0  0
   45.5508   -0.8509   16.6962 C   0  0  0  0  0  0  0  0  0  0  0  0
   45.9095    0.5935   16.6586 N   0  0  0  0  0  0  0  0  0  0  0  0
   45.5370    1.2485   17.9388 C   0  0  0  0  0  0  0  0  0  0  0  0
   46.2424    2.6160   18.2296 C   0  0  0  0  0  0  0  0  0  0  0  0
   45.5454    3.4692   19.3281 C   0  0  0  0  0  0  0  0  0  0  0  0
   46.2016    4.8142   19.5716 C   0  0  0  0  0  0  0  0  0  0  0  0
   45.3392    5.5694   20.4605 N   0  0  0  0  0  0  0  0  0  0  0  0
   45.9568    6.8767   20.5986 C   0  0  0  0  0  0  0  0  0  0  0  0
   45.4170    7.8602   19.5668 C   0  0  0  0  0  0  0  0  0  0  0  0
   46.2439    9.1502   19.6772 C   0  0  0  0  0  0  0  0  0  0  0  0
   45.7879   10.1846   18.7366 N   0  0  0  0  0  0  0  0  0  0  0  0
  1  2  1  0  0  0  0
  2  3  1  0  0  0  0
  3  4  1  0  0  0  0
  4  5  1  0  0  0  0
  5  6  1  0  0  0  0
  6  7  1  0  0  0  0
  7  8  1  0  0  0  0
  8  9  1  0  0  0  0
  9 10  1  0  0  0  0
 10 11  1  0  0  0  0
 11 12  1  0  0  0  0
 12 13  1  0  0  0  0
 13 14  1  0  0  0  0
M  END
>  <CHROM.1>
-177.47101440,58.08780185,164.87896066,161.34068326,162.75686547,-177.89775232
171.57385182,-176.39921201,92.01232410,-173.20474430,-178.91577983,45.93424281
3.34495585,17.89231223,-1.40500400,1.33088975,0.30204802

>  <Name>
ligand

>  <RI>
0

>  <Rbt.Current_Directory>
/home/itssahil/PROJECTS/Mol_Feturizer/New_Systems/rnas/1TN1

>  <Rbt.Executable>
rbdock ($Id: //depot/dev/client3/rdock/2013.1/src/exe/rbdock.cxx#4 $)

>  <Rbt.Library>
libRbt.so (2013.1, Build901 2013/11/27)

>  <Rbt.Parameter_File>
/export/apps/rDock/src/rDock_2013.1_src/data/scripts/dock_solv.prm

>  <Rbt.Receptor>
prm/blind_docking_80.prm

>  <SCORE>
-10.2463

>  <SCORE.INTER>
-7.49615

>  <SCORE.INTER.CONST>
1

>  <SCORE.INTER.POLAR>
0

>  <SCORE.INTER.ROT>
11

>  <SCORE.INTER.SOLV>
11.4199

>  <SCORE.INTER.VDW>
-19.7374

>  <SCORE.INTER.norm>
-0.535439

>  <SCORE.INTRA>
-2.75012

>  <SCORE.INTRA.DIHEDRAL>
-5.12973

>  <SCORE.INTRA.DIHEDRAL.0>
7.79482

>  <SCORE.INTRA.POLAR>
0

>  <SCORE.INTRA.POLAR.0>
0

>  <SCORE.INTRA.REPUL>
0

>  <SCORE.INTRA.REPUL.0>
0

>  <SCORE.INTRA.SOLV>
0.330756

>  <SCORE.INTRA.SOLV.lig_0>
-49.456

>  <SCORE.INTRA.VDW>
-0.350634

>  <SCORE.INTRA.VDW.0>
-0.478406

>  <SCORE.INTRA.norm>
-0.196437

>  <SCORE.RESTR>
0

>  <SCORE.RESTR.CAVITY>
0

>  <SCORE.RESTR.norm>
0

>  <SCORE.SYSTEM>
0

>  <SCORE.SYSTEM.CONST>
0

>  <SCORE.SYSTEM.DIHEDRAL>
0

>  <SCORE.SYSTEM.SOLV>
0

>  <SCORE.SYSTEM.norm>
0

>  <SCORE.heavy>
14

>  <SCORE.norm>
-0.731877

>  <RMSD>
3.771

$$$$
ligand
 OpenBabel11021811413D
libRbt.so/2013.1/901 2013/11/27
 14 13  0  0  0  0  0  0  0  0999 V2000
   44.3866   -1.4899   14.2848 N   0  0  0  0  0  0  0  0  0  0  0  0
   45.7253   -1.6930   14.8795 C   0  0  0  0  0  0  0  0  0  0  0  0
   45.7317   -1.3238   16.3787 C   0  0  0  0  0  0  0  0  0  0  0  0
   45.4411    0.1567   16.6744 C   0  0  0  0  0  0  0  0  0  0  0  0
   45.8080    0.5040   18.0748 N   0  0  0  0  0  0  0  0  0  0  0  0
   45.5462    1.9435   18.3322 C   0  0  0  0  0  0  0  0  0  0  0  0
   44.5121    2.2508   19.4672 C   0  0  0  0  0  0  0  0  0  0  0  0
   44.4069    3.7577   19.8395 C   0  0  0  0  0  0  0  0  0  0  0  0
   45.7409    4.4115   20.1425 C   0  0  0  0  0  0  0  0  0  0  0  0
   45.4824    5.7948   20.4944 N   0  0  0  0  0  0  0  0  0  0  0  0
   46.4160    6.5857   19.7117 C   0  0  0  0  0  0  0  0  0  0  0  0
   46.3110    8.0683   20.0495 C   0  0  0  0  0  0  0  0  0  0  0  0
   44.9755    8.5795   19.4880 C   0  0  0  0  0  0  0  0  0  0  0  0
   43.8199    7.9974   20.1868 N   0  0  0  0  0  0  0  0  0  0  0  0
  1  2  1  0  0  0  0
  2  3  1  0  0  0  0
  3  4  1  0  0  0  0
  4  5  1  0  0  0  0
  5  6  1  0  0  0  0
  6  7  1  0  0  0  0
  7  8  1  0  0  0  0
  8  9  1  0  0  0  0
  9 10  1  0  0  0  0
 10 11  1  0  0  0  0
 11 12  1  0  0  0  0
 12 13  1  0  0  0  0
 13 14  1  0  0  0  0
M  END
>  <CHROM.1>
-63.64229973,-165.26968841,178.84082539,119.40460336,172.14101705,-51.67807075
-178.93460714,-131.69045365,-176.50265580,-70.83031987,67.35571562,45.30757617
3.25311361,18.42892997,1.54282213,1.46956104,-2.64248859

>  <Name>
ligand

>  <RI>
0

>  <Rbt.Current_Directory>
/home/itssahil/PROJECTS/Mol_Feturizer/New_Systems/rnas/1TN1

>  <Rbt.Executable>
rbdock ($Id: //depot/dev/client3/rdock/2013.1/src/exe/rbdock.cxx#4 $)

>  <Rbt.Library>
libRbt.so (2013.1, Build901 2013/11/27)

>  <Rbt.Parameter_File>
/export/apps/rDock/src/rDock_2013.1_src/data/scripts/dock_solv.prm

>  <Rbt.Receptor>
prm/pocket_docking_4.prm

>  <SCORE>
-6.05066

>  <SCORE.INTER>
-6.43024

>  <SCORE.INTER.CONST>
1

>  <SCORE.INTER.POLAR>
0

>  <SCORE.INTER.ROT>
11

>  <SCORE.INTER.SOLV>
18.3084

>  <SCORE.INTER.VDW>
-21.323

>  <SCORE.INTER.norm>
-0.459303

>  <SCORE.INTRA>
0.379582

>  <SCORE.INTRA.DIHEDRAL>
-3.50704

>  <SCORE.INTRA.DIHEDRAL.0>
7.79482

>  <SCORE.INTRA.POLAR>
0

>  <SCORE.INTRA.POLAR.0>
0

>  <SCORE.INTRA.REPUL>
0

>  <SCORE.INTRA.REPUL.0>
0

>  <SCORE.INTRA.SOLV>
4.18581

>  <SCORE.INTRA.SOLV.lig_0>
-49.456

>  <SCORE.INTRA.VDW>
0.0401959

>  <SCORE.INTRA.VDW.0>
-0.478406

>  <SCORE.INTRA.norm>
0.027113

>  <SCORE.RESTR>
0

>  <SCORE.RESTR.CAVITY>
0

>  <SCORE.RESTR.norm>
0

>  <SCORE.SYSTEM>
0

>  <SCORE.SYSTEM.CONST>
0

>  <SCORE.SYSTEM.DIHEDRAL>
0

>  <SCORE.SYSTEM.SOLV>
0

>  <SCORE.SYSTEM.norm>
0

>  <SCORE.heavy>
14

>  <SCORE.norm>
-0.43219

>  <RMSD>
3.775

$$$$
ligand
 OpenBabel11021811413D
libRbt.so/2013.1/901 2013/11/27
 14 13  0  0  0  0  0  0  0  0999 V2000
   46.9587    2.1596   15.4858 N   0  0  0  0  0  0  0  0  0  0  0  0
   46.7658    2.4638   16.9201 C   0  0  0  0  0  0  0  0  0  0  0  0
   45.4738    1.8129   17.4598 C   0  0  0  0  0  0  0  0  0  0  0  0
   45.1391    2.1681   18.9178 C   0  0  0  0  0  0  0  0  0  0  0  0
   44.9244    3.6329   19.0752 N   0  0  0  0  0  0  0  0  0  0  0  0
   44.2343    3.9154   20.3600 C   0  0  0  0  0  0  0  0  0  0  0  0
   44.9955    4.8690   21.3415 C   0  0  0  0  0  0  0  0  0  0  0  0
   45.2614    6.2904   20.7676 C   0  0  0  0  0  0  0  0  0  0  0  0
   46.2428    6.3140   19.6121 C   0  0  0  0  0  0  0  0  0  0  0  0
   46.5600    7.7018   19.3333 N   0  0  0  0  0  0  0  0  0  0  0  0
   47.5564    7.6778   18.2768 C   0  0  0  0  0  0  0  0  0  0  0  0
   47.9842    9.0864   17.8815 C   0  0  0  0  0  0  0  0  0  0  0  0
   48.8885    8.9678   16.6454 C   0  0  0  0  0  0  0  0  0  0  0  0
   50.0948    8.1707   16.9139 N   0  0  0  0  0  0  0  0  0  0  0  0
  1  2  1  0  0  0  0
  2  3  1  0  0  0  0
  3  4  1  0  0  0  0
  4  5  1  0  0  0  0
  5  6  1  0  0  0  0
  6  7  1  0  0  0  0
  7  8  1  0  0  0  0
  8  9  1  0  0  0  0
  9 10  1  0  0  0  0
 10 11  1  0  0  0  0
 11 12  1  0  0  0  0
 12 13  1  0  0  0  0
 13 14  1  0  0  0  0
M  END
>  <CHROM.1>
-175.52074773,61.38217517,163.82308086,121.80076669,60.84486139,-67.49746086
-170.63969755,176.81975639,179.99619056,-172.64040731,-60.66564101,46.50543152
5.37360838,18.49965337,-2.38321251,0.86965479,0.53802562

>  <Name>
ligand

>  <RI>
0

>  <Rbt.Current_Directory>
/home/itssahil/PROJECTS/Mol_Feturizer/New_Systems/rnas/1TN1

>  <Rbt.Executable>
rbdock ($Id: //depot/dev/client3/rdock/2013.1/src/exe/rbdock.cxx#4 $)

>  <Rbt.Library>
libRbt.so (2013.1, Build901 2013/11/27)

>  <Rbt.Parameter_File>
/export/apps/rDock/src/rDock_2013.1_src/data/scripts/dock_solv.prm

>  <Rbt.Receptor>
prm/pocket_docking_4.prm

>  <SCORE>
-7.14228

>  <SCORE.INTER>
-4.92019

>  <SCORE.INTER.CONST>
1

>  <SCORE.INTER.POLAR>
0

>  <SCORE.INTER.ROT>
11

>  <SCORE.INTER.SOLV>
10.7839

>  <SCORE.INTER.VDW>
-17.8081

>  <SCORE.INTER.norm>
-0.351442

>  <SCORE.INTRA>
-2.22209

>  <SCORE.INTRA.DIHEDRAL>
-5.53929

>  <SCORE.INTRA.DIHEDRAL.0>
7.79482

>  <SCORE.INTRA.POLAR>
0

>  <SCORE.INTRA.POLAR.0>
0

>  <SCORE.INTRA.REPUL>
0

>  <SCORE.INTRA.REPUL.0>
0

>  <SCORE.INTRA.SOLV>
2.09188

>  <SCORE.INTRA.SOLV.lig_0>
-49.456

>  <SCORE.INTRA.VDW>
-0.498385

>  <SCORE.INTRA.VDW.0>
-0.478406

>  <SCORE.INTRA.norm>
-0.158721

>  <SCORE.RESTR>
0

>  <SCORE.RESTR.CAVITY>
0

>  <SCORE.RESTR.norm>
0

>  <SCORE.SYSTEM>
0

>  <SCORE.SYSTEM.CONST>
0

>  <SCORE.SYSTEM.DIHEDRAL>
0

>  <SCORE.SYSTEM.SOLV>
0

>  <SCORE.SYSTEM.norm>
0

>  <SCORE.heavy>
14

>  <SCORE.norm>
-0.510163

>  <RMSD>
3.787

$$$$
ligand
 OpenBabel11021811413D
libRbt.so/2013.1/901 2013/11/27
 14 13  0  0  0  0  0  0  0  0999 V2000
   46.5950   -0.7665   12.7044 N   0  0  0  0  0  0  0  0  0  0  0  0
   46.7456   -0.5847   14.1643 C   0  0  0  0  0  0  0  0  0  0  0  0
   45.4075   -0.8223   14.8971 C   0  0  0  0  0  0  0  0  0  0  0  0
   45.4730   -0.6439   16.4229 C   0  0  0  0  0  0  0  0  0  0  0  0
   45.7455    0.7746   16.7838 N   0  0  0  0  0  0  0  0  0  0  0  0
   46.0240    0.8897   18.2384 C   0  0  0  0  0  0  0  0  0  0  0  0
   45.3613    2.1115   18.9597 C   0  0  0  0  0  0  0  0  0  0  0  0
   46.0297    3.4788   18.6366 C   0  0  0  0  0  0  0  0  0  0  0  0
   45.6267    4.5982   19.5765 C   0  0  0  0  0  0  0  0  0  0  0  0
   46.3604    5.7866   19.1844 N   0  0  0  0  0  0  0  0  0  0  0  0
   46.1232    6.7645   20.2318 C   0  0  0  0  0  0  0  0  0  0  0  0
   45.6120    8.0816   19.6598 C   0  0  0  0  0  0  0  0  0  0  0  0
   46.7132    8.6534   18.7539 C   0  0  0  0  0  0  0  0  0  0  0  0
   46.3221    9.9333   18.1444 N   0  0  0  0  0  0  0  0  0  0  0  0
  1  2  1  0  0  0  0
  2  3  1  0  0  0  0
  3  4  1  0  0  0  0
  4  5  1  0  0  0  0
  5  6  1  0  0  0  0
  6  7  1  0  0  0  0
  7  8  1  0  0  0  0
  8  9  1  0  0  0  0
  9 10  1  0  0  0  0
 10 11  1  0  0  0  0
 11 12  1  0  0  0  0
 12 13  1  0  0  0  0
 13 14  1  0  0  0  0
M  END
>  <CHROM.1>
-179.61472880,66.41830911,-170.82082255,-137.93424043,-73.70241850,-165.66859098
177.94997816,-170.70320756,-127.07018433,-63.02252908,179.96548431,46.00984013
3.44657540,17.59736969,-1.63481213,1.34416172,0.52539887

>  <Name>
ligand

>  <RI>
0

>  <Rbt.Current_Directory>
/home/itssahil/PROJECTS/Mol_Feturizer/New_Systems/rnas/1TN1

>  <Rbt.Executable>
rbdock ($Id: //depot/dev/client3/rdock/2013.1/src/exe/rbdock.cxx#4 $)

>  <Rbt.Library>
libRbt.so (2013.1, Build901 2013/11/27)

>  <Rbt.Parameter_File>
/export/apps/rDock/src/rDock_2013.1_src/data/scripts/dock_solv.prm

>  <Rbt.Receptor>
prm/pocket_docking_6.prm

>  <SCORE>
-8.61489

>  <SCORE.INTER>
-6.55561

>  <SCORE.INTER.CONST>
1

>  <SCORE.INTER.POLAR>
0

>  <SCORE.INTER.ROT>
11

>  <SCORE.INTER.SOLV>
9.65338

>  <SCORE.INTER.VDW>
-18.5215

>  <SCORE.INTER.norm>
-0.468258

>  <SCORE.INTRA>
-2.05929

>  <SCORE.INTRA.DIHEDRAL>
-3.83588

>  <SCORE.INTRA.DIHEDRAL.0>
7.79482

>  <SCORE.INTRA.POLAR>
0

>  <SCORE.INTRA.POLAR.0>
0

>  <SCORE.INTRA.REPUL>
0

>  <SCORE.INTRA.REPUL.0>
0

>  <SCORE.INTRA.SOLV>
0.964463

>  <SCORE.INTRA.SOLV.lig_0>
-49.456

>  <SCORE.INTRA.VDW>
-0.623582

>  <SCORE.INTRA.VDW.0>
-0.478406

>  <SCORE.INTRA.norm>
-0.147092

>  <SCORE.RESTR>
0

>  <SCORE.RESTR.CAVITY>
0

>  <SCORE.RESTR.norm>
0

>  <SCORE.SYSTEM>
0

>  <SCORE.SYSTEM.CONST>
0

>  <SCORE.SYSTEM.DIHEDRAL>
0

>  <SCORE.SYSTEM.SOLV>
0

>  <SCORE.SYSTEM.norm>
0

>  <SCORE.heavy>
14

>  <SCORE.norm>
-0.61535

>  <RMSD>
3.794

$$$$
ligand
 OpenBabel11021811413D
libRbt.so/2013.1/901 2013/11/27
 14 13  0  0  0  0  0  0  0  0999 V2000
   39.4272    6.7879   20.8226 N   0  0  0  0  0  0  0  0  0  0  0  0
   40.8557    7.0136   21.1317 C   0  0  0  0  0  0  0  0  0  0  0  0
   41.6028    7.6051   19.9169 C   0  0  0  0  0  0  0  0  0  0  0  0
   43.1264    7.7129   20.0931 C   0  0  0  0  0  0  0  0  0  0  0  0
   43.7436    6.3664   20.2434 N   0  0  0  0  0  0  0  0  0  0  0  0
   45.1801    6.4968   20.5985 C   0  0  0  0  0  0  0  0  0  0  0  0
   45.9120    5.1603   20.9592 C   0  0  0  0  0  0  0  0  0  0  0  0
   46.2205    4.2541   19.7329 C   0  0  0  0  0  0  0  0  0  0  0  0
   45.0407    3.4214   19.2706 C   0  0  0  0  0  0  0  0  0  0  0  0
   45.5211    2.5057   18.2532 N   0  0  0  0  0  0  0  0  0  0  0  0
   44.4896    1.4930   18.1103 C   0  0  0  0  0  0  0  0  0  0  0  0
   44.8789    0.4425   17.0767 C   0  0  0  0  0  0  0  0  0  0  0  0
   44.9548    1.1407   15.7104 C   0  0  0  0  0  0  0  0  0  0  0  0
   45.3174    0.2104   14.6306 N   0  0  0  0  0  0  0  0  0  0  0  0
  1  2  1  0  0  0  0
  2  3  1  0  0  0  0
  3  4  1  0  0  0  0
  4  5  1  0  0  0  0
  5  6  1  0  0  0  0
  6  7  1  0  0  0  0
  7  8  1  0  0  0  0
  8  9  1  0  0  0  0
  9 10  1  0  0  0  0
 10 11  1  0  0  0  0
 11 12  1  0  0  0  0
 12 13  1  0  0  0  0
 13 14  1  0  0  0  0
M  END
>  <CHROM.1>
-172.95163234,63.80104315,-172.21037220,172.80777052,74.19301841,-80.96911532
-172.36624046,164.31435785,-179.09512225,-64.98511215,-179.63840713,44.01955101
4.32949579,19.03951882,1.99684806,-0.21140507,0.68998832

>  <Name>
ligand

>  <RI>
0

>  <Rbt.Current_Directory>
/home/itssahil/PROJECTS/Mol_Feturizer/New_Systems/rnas/1TN1

>  <Rbt.Executable>
rbdock ($Id: //depot/dev/client3/rdock/2013.1/src/exe/rbdock.cxx#4 $)

>  <Rbt.Library>
libRbt.so (2013.1, Build901 2013/11/27)

>  <Rbt.Parameter_File>
/export/apps/rDock/src/rDock_2013.1_src/data/scripts/dock_solv.prm

>  <Rbt.Receptor>
prm/blind_docking_80.prm

>  <SCORE>
-11.6627

>  <SCORE.INTER>
-9.37345

>  <SCORE.INTER.CONST>
1

>  <SCORE.INTER.POLAR>
0

>  <SCORE.INTER.ROT>
11

>  <SCORE.INTER.SOLV>
11.5798

>  <SCORE.INTER.VDW>
-21.0422

>  <SCORE.INTER.norm>
-0.669532

>  <SCORE.INTRA>
-2.2892

>  <SCORE.INTRA.DIHEDRAL>
-4.56573

>  <SCORE.INTRA.DIHEDRAL.0>
7.79482

>  <SCORE.INTRA.POLAR>
0

>  <SCORE.INTRA.POLAR.0>
0

>  <SCORE.INTRA.REPUL>
0

>  <SCORE.INTRA.REPUL.0>
0

>  <SCORE.INTRA.SOLV>
1.46821

>  <SCORE.INTRA.SOLV.lig_0>
-49.456

>  <SCORE.INTRA.VDW>
-0.740445

>  <SCORE.INTRA.VDW.0>
-0.478406

>  <SCORE.INTRA.norm>
-0.163514

>  <SCORE.RESTR>
0

>  <SCORE.RESTR.CAVITY>
0

>  <SCORE.RESTR.norm>
0

>  <SCORE.SYSTEM>
0

>  <SCORE.SYSTEM.CONST>
0

>  <SCORE.SYSTEM.DIHEDRAL>
0

>  <SCORE.SYSTEM.SOLV>
0

>  <SCORE.SYSTEM.norm>
0

>  <SCORE.heavy>
14

>  <SCORE.norm>
-0.833047

>  <RMSD>
3.807

$$$$
ligand
 OpenBabel11021811413D
libRbt.so/2013.1/901 2013/11/27
 14 13  0  0  0  0  0  0  0  0999 V2000
   43.1513   11.4043   16.7199 N   0  0  0  0  0  0  0  0  0  0  0  0
   42.5477   11.9920   17.9354 C   0  0  0  0  0  0  0  0  0  0  0  0
   41.5720   11.0024   18.6082 C   0  0  0  0  0  0  0  0  0  0  0  0
   42.2208    9.6973   19.0979 C   0  0  0  0  0  0  0  0  0  0  0  0
   41.3137    8.9638   20.0228 N   0  0  0  0  0  0  0  0  0  0  0  0
   41.6484    7.5165   20.0297 C   0  0  0  0  0  0  0  0  0  0  0  0
   42.9925    7.1362   20.7375 C   0  0  0  0  0  0  0  0  0  0  0  0
   43.2627    5.6056   20.8071 C   0  0  0  0  0  0  0  0  0  0  0  0
   44.6013    5.2442   21.4206 C   0  0  0  0  0  0  0  0  0  0  0  0
   45.6351    5.6351   20.4810 N   0  0  0  0  0  0  0  0  0  0  0  0
   46.2943    4.4045   20.0798 C   0  0  0  0  0  0  0  0  0  0  0  0
   45.6770    3.8295   18.8103 C   0  0  0  0  0  0  0  0  0  0  0  0
   46.3766    2.4936   18.5173 C   0  0  0  0  0  0  0  0  0  0  0  0
   45.8394    1.8369   17.3161 N   0  0  0  0  0  0  0  0  0  0  0  0
  1  2  1  0  0  0  0
  2  3  1  0  0  0  0
  3  4  1  0  0  0  0
  4  5  1  0  0  0  0
  5  6  1  0  0  0  0
  6  7  1  0  0  0  0
  7  8  1  0  0  0  0
  8  9  1  0  0  0  0
  9 10  1  0  0  0  0
 10 11  1  0  0  0  0
 11 12  1  0  0  0  0
 12 13  1  0  0  0  0
 13 14  1  0  0  0  0
M  END
>  <CHROM.1>
61.98619782,165.63921018,155.89905028,71.26193476,176.17061095,176.64174820
-70.32104487,-116.42667914,93.13326607,-176.51041890,179.08116340,43.79512203
6.91155592,19.32769543,-2.41187525,-0.92486819,2.32711344

>  <Name>
ligand

>  <RI>
0

>  <Rbt.Current_Directory>
/home/itssahil/PROJECTS/Mol_Feturizer/New_Systems/rnas/1TN1

>  <Rbt.Executable>
rbdock ($Id: //depot/dev/client3/rdock/2013.1/src/exe/rbdock.cxx#4 $)

>  <Rbt.Library>
libRbt.so (2013.1, Build901 2013/11/27)

>  <Rbt.Parameter_File>
/export/apps/rDock/src/rDock_2013.1_src/data/scripts/dock_solv.prm

>  <Rbt.Receptor>
prm/blind_docking_80.prm

>  <SCORE>
-12.7506

>  <SCORE.INTER>
-11.3281

>  <SCORE.INTER.CONST>
1

>  <SCORE.INTER.POLAR>
0

>  <SCORE.INTER.ROT>
11

>  <SCORE.INTER.SOLV>
16.5938

>  <SCORE.INTER.VDW>
-24.0167

>  <SCORE.INTER.norm>
-0.809153

>  <SCORE.INTRA>
-1.42242

>  <SCORE.INTRA.DIHEDRAL>
-4.08436

>  <SCORE.INTRA.DIHEDRAL.0>
7.79482

>  <SCORE.INTRA.POLAR>
0

>  <SCORE.INTRA.POLAR.0>
0

>  <SCORE.INTRA.REPUL>
0

>  <SCORE.INTRA.REPUL.0>
0

>  <SCORE.INTRA.SOLV>
1.01577

>  <SCORE.INTRA.SOLV.lig_0>
-49.456

>  <SCORE.INTRA.VDW>
0.111876

>  <SCORE.INTRA.VDW.0>
-0.478406

>  <SCORE.INTRA.norm>
-0.101601

>  <SCORE.RESTR>
0

>  <SCORE.RESTR.CAVITY>
0

>  <SCORE.RESTR.norm>
0

>  <SCORE.SYSTEM>
0

>  <SCORE.SYSTEM.CONST>
0

>  <SCORE.SYSTEM.DIHEDRAL>
0

>  <SCORE.SYSTEM.SOLV>
0

>  <SCORE.SYSTEM.norm>
0

>  <SCORE.heavy>
14

>  <SCORE.norm>
-0.910754

>  <RMSD>
3.807

$$$$
ligand
 OpenBabel11021811413D
libRbt.so/2013.1/901 2013/11/27
 14 13  0  0  0  0  0  0  0  0999 V2000
   45.5381   10.1562   18.6951 N   0  0  0  0  0  0  0  0  0  0  0  0
   45.1973    9.0494   19.6150 C   0  0  0  0  0  0  0  0  0  0  0  0
   46.0275    7.7863   19.3000 C   0  0  0  0  0  0  0  0  0  0  0  0
   45.7274    6.5810   20.2062 C   0  0  0  0  0  0  0  0  0  0  0  0
   46.5092    5.3867   19.7832 N   0  0  0  0  0  0  0  0  0  0  0  0
   45.6263    4.1941   19.7119 C   0  0  0  0  0  0  0  0  0  0  0  0
   46.0950    3.0626   18.7361 C   0  0  0  0  0  0  0  0  0  0  0  0
   45.1947    1.7940   18.7556 C   0  0  0  0  0  0  0  0  0  0  0  0
   45.6297    0.7155   17.7827 C   0  0  0  0  0  0  0  0  0  0  0  0
   45.4504    1.2360   16.4406 N   0  0  0  0  0  0  0  0  0  0  0  0
   44.6058    0.2764   15.7511 C   0  0  0  0  0  0  0  0  0  0  0  0
   45.4338   -0.7166   14.9440 C   0  0  0  0  0  0  0  0  0  0  0  0
   44.4570   -1.6358   14.1950 C   0  0  0  0  0  0  0  0  0  0  0  0
   45.1544   -2.6196   13.3533 N   0  0  0  0  0  0  0  0  0  0  0  0
  1  2  1  0  0  0  0
  2  3  1  0  0  0  0
  3  4  1  0  0  0  0
  4  5  1  0  0  0  0
  5  6  1  0  0  0  0
  6  7  1  0  0  0  0
  7  8  1  0  0  0  0
  8  9  1  0  0  0  0
  9 10  1  0  0  0  0
 10 11  1  0  0  0  0
 11 12  1  0  0  0  0
 12 13  1  0  0  0  0
 13 14  1  0  0  0  0
M  END
>  <CHROM.1>
-179.58724035,176.60398410,-132.60868114,154.61701143,176.33324055,178.44034399
-65.90527502,-124.92157912,-95.68793727,-176.96814267,178.63317904,45.47468604
3.23317591,17.66237509,1.24999795,-1.35921666,0.15695823

>  <Name>
ligand

>  <RI>
0

>  <Rbt.Current_Directory>
/home/itssahil/PROJECTS/Mol_Feturizer/New_Systems/rnas/1TN1

>  <Rbt.Executable>
rbdock ($Id: //depot/dev/client3/rdock/2013.1/src/exe/rbdock.cxx#4 $)

>  <Rbt.Library>
libRbt.so (2013.1, Build901 2013/11/27)

>  <Rbt.Parameter_File>
/export/apps/rDock/src/rDock_2013.1_src/data/scripts/dock_solv.prm

>  <Rbt.Receptor>
prm/blind_docking_100.prm

>  <SCORE>
-9.21075

>  <SCORE.INTER>
-7.04637

>  <SCORE.INTER.CONST>
1

>  <SCORE.INTER.POLAR>
0

>  <SCORE.INTER.ROT>
11

>  <SCORE.INTER.SOLV>
11.4843

>  <SCORE.INTER.VDW>
-19.459

>  <SCORE.INTER.norm>
-0.503312

>  <SCORE.INTRA>
-2.16438

>  <SCORE.INTRA.DIHEDRAL>
-4.03055

>  <SCORE.INTRA.DIHEDRAL.0>
7.79482

>  <SCORE.INTRA.POLAR>
0

>  <SCORE.INTRA.POLAR.0>
0

>  <SCORE.INTRA.REPUL>
0

>  <SCORE.INTRA.REPUL.0>
0

>  <SCORE.INTRA.SOLV>
0.33857

>  <SCORE.INTRA.SOLV.lig_0>
-49.456

>  <SCORE.INTRA.VDW>
-0.318385

>  <SCORE.INTRA.VDW.0>
-0.478406

>  <SCORE.INTRA.norm>
-0.154598

>  <SCORE.RESTR>
0

>  <SCORE.RESTR.CAVITY>
0

>  <SCORE.RESTR.norm>
0

>  <SCORE.SYSTEM>
0

>  <SCORE.SYSTEM.CONST>
0

>  <SCORE.SYSTEM.DIHEDRAL>
0

>  <SCORE.SYSTEM.SOLV>
0

>  <SCORE.SYSTEM.norm>
0

>  <SCORE.heavy>
14

>  <SCORE.norm>
-0.657911

>  <RMSD>
3.808

$$$$
ligand
 OpenBabel11021811413D
libRbt.so/2013.1/901 2013/11/27
 14 13  0  0  0  0  0  0  0  0999 V2000
   45.7250    9.3509   18.5210 N   0  0  0  0  0  0  0  0  0  0  0  0
   46.9186    8.7682   19.1713 C   0  0  0  0  0  0  0  0  0  0  0  0
   46.5512    8.0943   20.5110 C   0  0  0  0  0  0  0  0  0  0  0  0
   45.6829    6.8327   20.3757 C   0  0  0  0  0  0  0  0  0  0  0  0
   46.4212    5.7488   19.6711 N   0  0  0  0  0  0  0  0  0  0  0  0
   45.6770    4.4676   19.7774 C   0  0  0  0  0  0  0  0  0  0  0  0
   46.0522    3.3771   18.7180 C   0  0  0  0  0  0  0  0  0  0  0  0
   45.2215    2.0668   18.8337 C   0  0  0  0  0  0  0  0  0  0  0  0
   45.6276    0.9913   17.8451 C   0  0  0  0  0  0  0  0  0  0  0  0
   45.2548    1.4491   16.5201 N   0  0  0  0  0  0  0  0  0  0  0  0
   44.5830    0.3282   15.8860 C   0  0  0  0  0  0  0  0  0  0  0  0
   45.5349   -0.4606   14.9945 C   0  0  0  0  0  0  0  0  0  0  0  0
   44.7310   -1.5999   14.3497 C   0  0  0  0  0  0  0  0  0  0  0  0
   45.5387   -2.3826   13.4022 N   0  0  0  0  0  0  0  0  0  0  0  0
  1  2  1  0  0  0  0
  2  3  1  0  0  0  0
  3  4  1  0  0  0  0
  4  5  1  0  0  0  0
  5  6  1  0  0  0  0
  6  7  1  0  0  0  0
  7  8  1  0  0  0  0
  8  9  1  0  0  0  0
  9 10  1  0  0  0  0
 10 11  1  0  0  0  0
 11 12  1  0  0  0  0
 12 13  1  0  0  0  0
 13 14  1  0  0  0  0
M  END
>  <CHROM.1>
67.70760684,64.87406003,169.19353369,160.29192490,-178.20370505,-177.52776343
-68.48142178,-133.00821039,-97.07406344,-178.84081705,176.65328656,45.67995572
3.35934203,17.75578365,-0.41888377,-1.45426103,-1.49286731

>  <Name>
ligand

>  <RI>
0

>  <Rbt.Current_Directory>
/home/itssahil/PROJECTS/Mol_Feturizer/New_Systems/rnas/1TN1

>  <Rbt.Executable>
rbdock ($Id: //depot/dev/client3/rdock/2013.1/src/exe/rbdock.cxx#4 $)

>  <Rbt.Library>
libRbt.so (2013.1, Build901 2013/11/27)

>  <Rbt.Parameter_File>
/export/apps/rDock/src/rDock_2013.1_src/data/scripts/dock_solv.prm

>  <Rbt.Receptor>
prm/pocket_docking_4.prm

>  <SCORE>
-9.45286

>  <SCORE.INTER>
-7.55466

>  <SCORE.INTER.CONST>
1

>  <SCORE.INTER.POLAR>
0

>  <SCORE.INTER.ROT>
11

>  <SCORE.INTER.SOLV>
11.7452

>  <SCORE.INTER.VDW>
-19.8849

>  <SCORE.INTER.norm>
-0.539619

>  <SCORE.INTRA>
-1.8982

>  <SCORE.INTRA.DIHEDRAL>
-4.86192

>  <SCORE.INTRA.DIHEDRAL.0>
7.79482

>  <SCORE.INTRA.POLAR>
0

>  <SCORE.INTRA.POLAR.0>
0

>  <SCORE.INTRA.REPUL>
0

>  <SCORE.INTRA.REPUL.0>
0

>  <SCORE.INTRA.SOLV>
1.85759

>  <SCORE.INTRA.SOLV.lig_0>
-49.456

>  <SCORE.INTRA.VDW>
-0.396029

>  <SCORE.INTRA.VDW.0>
-0.478406

>  <SCORE.INTRA.norm>
-0.135585

>  <SCORE.RESTR>
0

>  <SCORE.RESTR.CAVITY>
0

>  <SCORE.RESTR.norm>
0

>  <SCORE.SYSTEM>
0

>  <SCORE.SYSTEM.CONST>
0

>  <SCORE.SYSTEM.DIHEDRAL>
0

>  <SCORE.SYSTEM.SOLV>
0

>  <SCORE.SYSTEM.norm>
0

>  <SCORE.heavy>
14

>  <SCORE.norm>
-0.675204

>  <RMSD>
3.815

$$$$
ligand
 OpenBabel11021811413D
libRbt.so/2013.1/901 2013/11/27
 14 13  0  0  0  0  0  0  0  0999 V2000
   46.7914    9.5458   17.8090 N   0  0  0  0  0  0  0  0  0  0  0  0
   46.9358    8.2000   18.4050 C   0  0  0  0  0  0  0  0  0  0  0  0
   46.0574    8.0511   19.6660 C   0  0  0  0  0  0  0  0  0  0  0  0
   46.0965    6.6564   20.3120 C   0  0  0  0  0  0  0  0  0  0  0  0
   45.6393    5.6113   19.3553 N   0  0  0  0  0  0  0  0  0  0  0  0
   45.1056    4.4378   20.0933 C   0  0  0  0  0  0  0  0  0  0  0  0
   44.9337    3.1293   19.2504 C   0  0  0  0  0  0  0  0  0  0  0  0
   46.2665    2.5554   18.6895 C   0  0  0  0  0  0  0  0  0  0  0  0
   46.1359    1.1684   18.0911 C   0  0  0  0  0  0  0  0  0  0  0  0
   45.2805    1.2722   16.9241 N   0  0  0  0  0  0  0  0  0  0  0  0
   45.2970   -0.0396   16.3006 C   0  0  0  0  0  0  0  0  0  0  0  0
   44.4575   -0.0630   15.0286 C   0  0  0  0  0  0  0  0  0  0  0  0
   44.5632   -1.4730   14.4280 C   0  0  0  0  0  0  0  0  0  0  0  0
   45.9098   -1.7564   13.9094 N   0  0  0  0  0  0  0  0  0  0  0  0
  1  2  1  0  0  0  0
  2  3  1  0  0  0  0
  3  4  1  0  0  0  0
  4  5  1  0  0  0  0
  5  6  1  0  0  0  0
  6  7  1  0  0  0  0
  7  8  1  0  0  0  0
  8  9  1  0  0  0  0
  9 10  1  0  0  0  0
 10 11  1  0  0  0  0
 11 12  1  0  0  0  0
 12 13  1  0  0  0  0
 13 14  1  0  0  0  0
M  END
>  <CHROM.1>
177.23395413,-59.41377956,-154.74994699,-164.84840139,63.14708980,169.59651898
65.25642815,174.03748983,-178.54841125,178.68950015,-68.64541926,45.67634324
3.37815199,17.73332706,-1.01393280,-1.34515493,-2.15487497

>  <Name>
ligand

>  <RI>
0

>  <Rbt.Current_Directory>
/home/itssahil/PROJECTS/Mol_Feturizer/New_Systems/rnas/1TN1

>  <Rbt.Executable>
rbdock ($Id: //depot/dev/client3/rdock/2013.1/src/exe/rbdock.cxx#4 $)

>  <Rbt.Library>
libRbt.so (2013.1, Build901 2013/11/27)

>  <Rbt.Parameter_File>
/export/apps/rDock/src/rDock_2013.1_src/data/scripts/dock_solv.prm

>  <Rbt.Receptor>
prm/blind_docking_80.prm

>  <SCORE>
-9.91806

>  <SCORE.INTER>
-7.0223

>  <SCORE.INTER.CONST>
1

>  <SCORE.INTER.POLAR>
0

>  <SCORE.INTER.ROT>
11

>  <SCORE.INTER.SOLV>
9.79296

>  <SCORE.INTER.VDW>
-18.8792

>  <SCORE.INTER.norm>
-0.501593

>  <SCORE.INTRA>
-2.89576

>  <SCORE.INTRA.DIHEDRAL>
-6.23384

>  <SCORE.INTRA.DIHEDRAL.0>
7.79482

>  <SCORE.INTRA.POLAR>
0

>  <SCORE.INTRA.POLAR.0>
0

>  <SCORE.INTRA.REPUL>
0

>  <SCORE.INTRA.REPUL.0>
0

>  <SCORE.INTRA.SOLV>
1.74056

>  <SCORE.INTRA.SOLV.lig_0>
-49.456

>  <SCORE.INTRA.VDW>
-0.649118

>  <SCORE.INTRA.VDW.0>
-0.478406

>  <SCORE.INTRA.norm>
-0.20684

>  <SCORE.RESTR>
0

>  <SCORE.RESTR.CAVITY>
0

>  <SCORE.RESTR.norm>
0

>  <SCORE.SYSTEM>
0

>  <SCORE.SYSTEM.CONST>
0

>  <SCORE.SYSTEM.DIHEDRAL>
0

>  <SCORE.SYSTEM.SOLV>
0

>  <SCORE.SYSTEM.norm>
0

>  <SCORE.heavy>
14

>  <SCORE.norm>
-0.708433

>  <RMSD>
3.836

$$$$
ligand
 OpenBabel11021811413D
libRbt.so/2013.1/901 2013/11/27
 14 13  0  0  0  0  0  0  0  0999 V2000
   45.6007    9.4731   18.6360 N   0  0  0  0  0  0  0  0  0  0  0  0
   46.1094    9.1130   19.9772 C   0  0  0  0  0  0  0  0  0  0  0  0
   46.7665    7.7158   19.9682 C   0  0  0  0  0  0  0  0  0  0  0  0
   45.8016    6.5569   19.6682 C   0  0  0  0  0  0  0  0  0  0  0  0
   46.5324    5.2630   19.5774 N   0  0  0  0  0  0  0  0  0  0  0  0
   45.5779    4.1499   19.3397 C   0  0  0  0  0  0  0  0  0  0  0  0
   46.2187    2.7929   18.8921 C   0  0  0  0  0  0  0  0  0  0  0  0
   45.2023    1.6219   18.7652 C   0  0  0  0  0  0  0  0  0  0  0  0
   44.3174    1.7053   17.5368 C   0  0  0  0  0  0  0  0  0  0  0  0
   45.1582    1.4914   16.3742 N   0  0  0  0  0  0  0  0  0  0  0  0
   44.6155    0.3251   15.6998 C   0  0  0  0  0  0  0  0  0  0  0  0
   45.6048   -0.8345   15.7081 C   0  0  0  0  0  0  0  0  0  0  0  0
   45.0223   -1.9486   14.8252 C   0  0  0  0  0  0  0  0  0  0  0  0
   45.0413   -1.5936   13.3982 N   0  0  0  0  0  0  0  0  0  0  0  0
  1  2  1  0  0  0  0
  2  3  1  0  0  0  0
  3  4  1  0  0  0  0
  4  5  1  0  0  0  0
  5  6  1  0  0  0  0
  6  7  1  0  0  0  0
  7  8  1  0  0  0  0
  8  9  1  0  0  0  0
  9 10  1  0  0  0  0
 10 11  1  0  0  0  0
 11 12  1  0  0  0  0
 12 13  1  0  0  0  0
 13 14  1  0  0  0  0
M  END
>  <CHROM.1>
-64.89783389,175.71913849,177.81656894,166.26200377,175.27927944,74.66568628
68.07249204,120.63661585,-115.38640742,-172.86170411,70.48036035,45.54062004
3.27353693,17.74075206,0.89809032,-1.39433575,-0.19338671

>  <Name>
ligand

>  <RI>
0

>  <Rbt.Current_Directory>
/home/itssahil/PROJECTS/Mol_Feturizer/New_Systems/rnas/1TN1

>  <Rbt.Executable>
rbdock ($Id: //depot/dev/client3/rdock/2013.1/src/exe/rbdock.cxx#4 $)

>  <Rbt.Library>
libRbt.so (2013.1, Build901 2013/11/27)

>  <Rbt.Parameter_File>
/export/apps/rDock/src/rDock_2013.1_src/data/scripts/dock_solv.prm

>  <Rbt.Receptor>
prm/pocket_docking_7.prm

>  <SCORE>
-7.95562

>  <SCORE.INTER>
-6.87469

>  <SCORE.INTER.CONST>
1

>  <SCORE.INTER.POLAR>
0

>  <SCORE.INTER.ROT>
11

>  <SCORE.INTER.SOLV>
12.3216

>  <SCORE.INTER.VDW>
-19.6237

>  <SCORE.INTER.norm>
-0.491049

>  <SCORE.INTRA>
-1.08093

>  <SCORE.INTRA.DIHEDRAL>
-3.31944

>  <SCORE.INTRA.DIHEDRAL.0>
7.79482

>  <SCORE.INTRA.POLAR>
0

>  <SCORE.INTRA.POLAR.0>
0

>  <SCORE.INTRA.REPUL>
0

>  <SCORE.INTRA.REPUL.0>
0

>  <SCORE.INTRA.SOLV>
1.93958

>  <SCORE.INTRA.SOLV.lig_0>
-49.456

>  <SCORE.INTRA.VDW>
-0.391

>  <SCORE.INTRA.VDW.0>
-0.478406

>  <SCORE.INTRA.norm>
-0.077209

>  <SCORE.RESTR>
0

>  <SCORE.RESTR.CAVITY>
0

>  <SCORE.RESTR.norm>
0

>  <SCORE.SYSTEM>
0

>  <SCORE.SYSTEM.CONST>
0

>  <SCORE.SYSTEM.DIHEDRAL>
0

>  <SCORE.SYSTEM.SOLV>
0

>  <SCORE.SYSTEM.norm>
0

>  <SCORE.heavy>
14

>  <SCORE.norm>
-0.568258

>  <RMSD>
3.849

$$$$
ligand
 OpenBabel11021811413D
libRbt.so/2013.1/901 2013/11/27
 14 13  0  0  0  0  0  0  0  0999 V2000
   45.9830    0.9748   16.3143 N   0  0  0  0  0  0  0  0  0  0  0  0
   45.2299    1.8592   17.2297 C   0  0  0  0  0  0  0  0  0  0  0  0
   46.1788    2.5992   18.1971 C   0  0  0  0  0  0  0  0  0  0  0  0
   45.4815    3.5877   19.1461 C   0  0  0  0  0  0  0  0  0  0  0  0
   46.4704    4.2798   20.0176 N   0  0  0  0  0  0  0  0  0  0  0  0
   45.7767    4.9605   21.1411 C   0  0  0  0  0  0  0  0  0  0  0  0
   45.0285    6.2854   20.7711 C   0  0  0  0  0  0  0  0  0  0  0  0
   45.9678    7.4405   20.3197 C   0  0  0  0  0  0  0  0  0  0  0  0
   46.6928    7.1703   19.0157 C   0  0  0  0  0  0  0  0  0  0  0  0
   47.5173    8.3275   18.7234 N   0  0  0  0  0  0  0  0  0  0  0  0
   48.3437    7.9513   17.5897 C   0  0  0  0  0  0  0  0  0  0  0  0
   49.4460    8.9738   17.3395 C   0  0  0  0  0  0  0  0  0  0  0  0
   50.2548    8.4971   16.1235 C   0  0  0  0  0  0  0  0  0  0  0  0
   49.4575    8.5061   14.8878 N   0  0  0  0  0  0  0  0  0  0  0  0
  1  2  1  0  0  0  0
  2  3  1  0  0  0  0
  3  4  1  0  0  0  0
  4  5  1  0  0  0  0
  5  6  1  0  0  0  0
  6  7  1  0  0  0  0
  7  8  1  0  0  0  0
  8  9  1  0  0  0  0
  9 10  1  0  0  0  0
 10 11  1  0  0  0  0
 11 12  1  0  0  0  0
 12 13  1  0  0  0  0
 13 14  1  0  0  0  0
M  END
>  <CHROM.1>
177.50964837,-178.58516685,-165.81115106,-75.51187317,-65.78967009,65.81239357
179.70488377,171.49098989,-169.13636319,-179.60476299,65.61992686,46.98761228
5.81535968,18.34437337,-2.57333749,0.93873736,0.63014072

>  <Name>
ligand

>  <RI>
0

>  <Rbt.Current_Directory>
/home/itssahil/PROJECTS/Mol_Feturizer/New_Systems/rnas/1TN1

>  <Rbt.Executable>
rbdock ($Id: //depot/dev/client3/rdock/2013.1/src/exe/rbdock.cxx#4 $)

>  <Rbt.Library>
libRbt.so (2013.1, Build901 2013/11/27)

>  <Rbt.Parameter_File>
/export/apps/rDock/src/rDock_2013.1_src/data/scripts/dock_solv.prm

>  <Rbt.Receptor>
prm/pocket_docking_5.prm

>  <SCORE>
-8.71825

>  <SCORE.INTER>
-5.86054

>  <SCORE.INTER.CONST>
1

>  <SCORE.INTER.POLAR>
0

>  <SCORE.INTER.ROT>
11

>  <SCORE.INTER.SOLV>
11.4407

>  <SCORE.INTER.VDW>
-18.6539

>  <SCORE.INTER.norm>
-0.41861

>  <SCORE.INTRA>
-2.85771

>  <SCORE.INTRA.DIHEDRAL>
-6.87938

>  <SCORE.INTRA.DIHEDRAL.0>
7.79482

>  <SCORE.INTRA.POLAR>
0

>  <SCORE.INTRA.POLAR.0>
0

>  <SCORE.INTRA.REPUL>
0

>  <SCORE.INTRA.REPUL.0>
0

>  <SCORE.INTRA.SOLV>
1.73947

>  <SCORE.INTRA.SOLV.lig_0>
-49.456

>  <SCORE.INTRA.VDW>
-0.287751

>  <SCORE.INTRA.VDW.0>
-0.478406

>  <SCORE.INTRA.norm>
-0.204122

>  <SCORE.RESTR>
0

>  <SCORE.RESTR.CAVITY>
0

>  <SCORE.RESTR.norm>
0

>  <SCORE.SYSTEM>
0

>  <SCORE.SYSTEM.CONST>
0

>  <SCORE.SYSTEM.DIHEDRAL>
0

>  <SCORE.SYSTEM.SOLV>
0

>  <SCORE.SYSTEM.norm>
0

>  <SCORE.heavy>
14

>  <SCORE.norm>
-0.622732

>  <RMSD>
3.856

$$$$
ligand
 OpenBabel11021811413D
libRbt.so/2013.1/901 2013/11/27
 14 13  0  0  0  0  0  0  0  0999 V2000
   45.0152   -2.0404   13.1462 N   0  0  0  0  0  0  0  0  0  0  0  0
   44.6597   -1.6364   14.5237 C   0  0  0  0  0  0  0  0  0  0  0  0
   45.9187   -1.2794   15.3431 C   0  0  0  0  0  0  0  0  0  0  0  0
   45.6450   -0.9196   16.8127 C   0  0  0  0  0  0  0  0  0  0  0  0
   44.8478    0.3334   16.9165 N   0  0  0  0  0  0  0  0  0  0  0  0
   45.6750    1.4213   17.4988 C   0  0  0  0  0  0  0  0  0  0  0  0
   44.9597    2.3189   18.5641 C   0  0  0  0  0  0  0  0  0  0  0  0
   45.8274    3.5008   19.0844 C   0  0  0  0  0  0  0  0  0  0  0  0
   45.1618    4.3207   20.1724 C   0  0  0  0  0  0  0  0  0  0  0  0
   46.0565    5.4115   20.5100 N   0  0  0  0  0  0  0  0  0  0  0  0
   45.2763    6.6274   20.3590 C   0  0  0  0  0  0  0  0  0  0  0  0
   46.0700    7.7140   19.6431 C   0  0  0  0  0  0  0  0  0  0  0  0
   45.1625    8.9473   19.5193 C   0  0  0  0  0  0  0  0  0  0  0  0
   45.7817   10.0147   18.7194 N   0  0  0  0  0  0  0  0  0  0  0  0
  1  2  1  0  0  0  0
  2  3  1  0  0  0  0
  3  4  1  0  0  0  0
  4  5  1  0  0  0  0
  5  6  1  0  0  0  0
  6  7  1  0  0  0  0
  7  8  1  0  0  0  0
  8  9  1  0  0  0  0
  9 10  1  0  0  0  0
 10 11  1  0  0  0  0
 11 12  1  0  0  0  0
 12 13  1  0  0  0  0
 13 14  1  0  0  0  0
M  END
>  <CHROM.1>
-176.89819485,-65.31767441,-111.63185657,-137.62401396,-176.33593162,-176.70385223
-177.43960358,125.38873607,-136.35661455,179.45531062,-174.14184157,45.43267710
3.19519867,17.91542553,2.25752345,1.50938800,2.92138195

>  <Name>
ligand

>  <RI>
0

>  <Rbt.Current_Directory>
/home/itssahil/PROJECTS/Mol_Feturizer/New_Systems/rnas/1TN1

>  <Rbt.Executable>
rbdock ($Id: //depot/dev/client3/rdock/2013.1/src/exe/rbdock.cxx#4 $)

>  <Rbt.Library>
libRbt.so (2013.1, Build901 2013/11/27)

>  <Rbt.Parameter_File>
/export/apps/rDock/src/rDock_2013.1_src/data/scripts/dock_solv.prm

>  <Rbt.Receptor>
prm/pocket_docking_4.prm

>  <SCORE>
-9.94038

>  <SCORE.INTER>
-7.76233

>  <SCORE.INTER.CONST>
1

>  <SCORE.INTER.POLAR>
0

>  <SCORE.INTER.ROT>
11

>  <SCORE.INTER.SOLV>
12.1458

>  <SCORE.INTER.VDW>
-20.1568

>  <SCORE.INTER.norm>
-0.554452

>  <SCORE.INTRA>
-2.17805

>  <SCORE.INTRA.DIHEDRAL>
-3.12656

>  <SCORE.INTRA.DIHEDRAL.0>
7.79482

>  <SCORE.INTRA.POLAR>
0

>  <SCORE.INTRA.POLAR.0>
0

>  <SCORE.INTRA.REPUL>
0

>  <SCORE.INTRA.REPUL.0>
0

>  <SCORE.INTRA.SOLV>
0.263878

>  <SCORE.INTRA.SOLV.lig_0>
-49.456

>  <SCORE.INTRA.VDW>
-0.746714

>  <SCORE.INTRA.VDW.0>
-0.478406

>  <SCORE.INTRA.norm>
-0.155575

>  <SCORE.RESTR>
0

>  <SCORE.RESTR.CAVITY>
0

>  <SCORE.RESTR.norm>
0

>  <SCORE.SYSTEM>
0

>  <SCORE.SYSTEM.CONST>
0

>  <SCORE.SYSTEM.DIHEDRAL>
0

>  <SCORE.SYSTEM.SOLV>
0

>  <SCORE.SYSTEM.norm>
0

>  <SCORE.heavy>
14

>  <SCORE.norm>
-0.710027

>  <RMSD>
3.858

$$$$
ligand
 OpenBabel11021811413D
libRbt.so/2013.1/901 2013/11/27
 14 13  0  0  0  0  0  0  0  0999 V2000
   48.3844    8.9506   16.8780 N   0  0  0  0  0  0  0  0  0  0  0  0
   47.2329    9.0486   17.8008 C   0  0  0  0  0  0  0  0  0  0  0  0
   47.3189    7.9836   18.9154 C   0  0  0  0  0  0  0  0  0  0  0  0
   46.1507    8.0075   19.9148 C   0  0  0  0  0  0  0  0  0  0  0  0
   44.8936    7.5257   19.2790 N   0  0  0  0  0  0  0  0  0  0  0  0
   43.7133    8.0711   19.9974 C   0  0  0  0  0  0  0  0  0  0  0  0
   42.6830    7.0091   20.5102 C   0  0  0  0  0  0  0  0  0  0  0  0
   43.1914    6.1585   21.7095 C   0  0  0  0  0  0  0  0  0  0  0  0
   44.4096    5.3135   21.3923 C   0  0  0  0  0  0  0  0  0  0  0  0
   44.0171    4.3321   20.3988 N   0  0  0  0  0  0  0  0  0  0  0  0
   45.2442    3.9194   19.7404 C   0  0  0  0  0  0  0  0  0  0  0  0
   44.9756    2.8726   18.6656 C   0  0  0  0  0  0  0  0  0  0  0  0
   46.3283    2.4755   18.0552 C   0  0  0  0  0  0  0  0  0  0  0  0
   46.1759    1.5579   16.9162 N   0  0  0  0  0  0  0  0  0  0  0  0
  1  2  1  0  0  0  0
  2  3  1  0  0  0  0
  3  4  1  0  0  0  0
  4  5  1  0  0  0  0
  5  6  1  0  0  0  0
  6  7  1  0  0  0  0
  7  8  1  0  0  0  0
  8  9  1  0  0  0  0
  9 10  1  0  0  0  0
 10 11  1  0  0  0  0
 11 12  1  0  0  0  0
 12 13  1  0  0  0  0
 13 14  1  0  0  0  0
M  END
>  <CHROM.1>
-179.49818194,70.63082335,-155.93184763,-125.03541328,71.29904864,-62.52467385
-64.89517136,157.87453959,179.70095776,-178.58787128,-174.67242197,45.33683310
5.94483149,19.29850463,-1.27675582,-0.72704682,-2.96674660

>  <Name>
ligand

>  <RI>
0

>  <Rbt.Current_Directory>
/home/itssahil/PROJECTS/Mol_Feturizer/New_Systems/rnas/1TN1

>  <Rbt.Executable>
rbdock ($Id: //depot/dev/client3/rdock/2013.1/src/exe/rbdock.cxx#4 $)

>  <Rbt.Library>
libRbt.so (2013.1, Build901 2013/11/27)

>  <Rbt.Parameter_File>
/export/apps/rDock/src/rDock_2013.1_src/data/scripts/dock_solv.prm

>  <Rbt.Receptor>
prm/pocket_docking_7.prm

>  <SCORE>
-9.69841

>  <SCORE.INTER>
-7.48842

>  <SCORE.INTER.CONST>
1

>  <SCORE.INTER.POLAR>
0

>  <SCORE.INTER.ROT>
11

>  <SCORE.INTER.SOLV>
11.7228

>  <SCORE.INTER.VDW>
-19.8332

>  <SCORE.INTER.norm>
-0.534887

>  <SCORE.INTRA>
-2.20998

>  <SCORE.INTRA.DIHEDRAL>
-4.72151

>  <SCORE.INTRA.DIHEDRAL.0>
7.79482

>  <SCORE.INTRA.POLAR>
0

>  <SCORE.INTRA.POLAR.0>
0

>  <SCORE.INTRA.REPUL>
0

>  <SCORE.INTRA.REPUL.0>
0

>  <SCORE.INTRA.SOLV>
2.69134

>  <SCORE.INTRA.SOLV.lig_0>
-49.456

>  <SCORE.INTRA.VDW>
-1.1949

>  <SCORE.INTRA.VDW.0>
-0.478406

>  <SCORE.INTRA.norm>
-0.157856

>  <SCORE.RESTR>
0

>  <SCORE.RESTR.CAVITY>
0

>  <SCORE.RESTR.norm>
0

>  <SCORE.SYSTEM>
0

>  <SCORE.SYSTEM.CONST>
0

>  <SCORE.SYSTEM.DIHEDRAL>
0

>  <SCORE.SYSTEM.SOLV>
0

>  <SCORE.SYSTEM.norm>
0

>  <SCORE.heavy>
14

>  <SCORE.norm>
-0.692743

>  <RMSD>
3.874

$$$$
ligand
 OpenBabel11021811413D
libRbt.so/2013.1/901 2013/11/27
 14 13  0  0  0  0  0  0  0  0999 V2000
   38.7091    7.7301   20.5062 N   0  0  0  0  0  0  0  0  0  0  0  0
   40.1019    8.0460   20.8903 C   0  0  0  0  0  0  0  0  0  0  0  0
   41.0969    7.6016   19.7965 C   0  0  0  0  0  0  0  0  0  0  0  0
   42.5770    7.6943   20.2021 C   0  0  0  0  0  0  0  0  0  0  0  0
   42.8659    6.8220   21.3734 N   0  0  0  0  0  0  0  0  0  0  0  0
   43.7469    5.6960   20.9702 C   0  0  0  0  0  0  0  0  0  0  0  0
   45.2658    6.0458   20.8190 C   0  0  0  0  0  0  0  0  0  0  0  0
   46.1838    4.8087   20.6016 C   0  0  0  0  0  0  0  0  0  0  0  0
   46.0275    4.1577   19.2412 C   0  0  0  0  0  0  0  0  0  0  0  0
   44.8225    3.3508   19.2761 N   0  0  0  0  0  0  0  0  0  0  0  0
   44.7929    2.6252   18.0182 C   0  0  0  0  0  0  0  0  0  0  0  0
   45.3434    1.2126   18.1761 C   0  0  0  0  0  0  0  0  0  0  0  0
   45.2227    0.5119   16.8144 C   0  0  0  0  0  0  0  0  0  0  0  0
   45.7480   -0.8613   16.8478 N   0  0  0  0  0  0  0  0  0  0  0  0
  1  2  1  0  0  0  0
  2  3  1  0  0  0  0
  3  4  1  0  0  0  0
  4  5  1  0  0  0  0
  5  6  1  0  0  0  0
  6  7  1  0  0  0  0
  7  8  1  0  0  0  0
  8  9  1  0  0  0  0
  9 10  1  0  0  0  0
 10 11  1  0  0  0  0
 11 12  1  0  0  0  0
 12 13  1  0  0  0  0
 13 14  1  0  0  0  0
M  END
>  <CHROM.1>
-171.09802067,60.87419695,112.10535978,78.54904129,171.50983852,70.75049396
-78.46390239,-173.48702512,97.56044652,177.92365028,179.11544833,43.75059354
4.67454626,19.53811274,2.15693117,-0.24807367,0.58356590

>  <Name>
ligand

>  <RI>
0

>  <Rbt.Current_Directory>
/home/itssahil/PROJECTS/Mol_Feturizer/New_Systems/rnas/1TN1

>  <Rbt.Executable>
rbdock ($Id: //depot/dev/client3/rdock/2013.1/src/exe/rbdock.cxx#4 $)

>  <Rbt.Library>
libRbt.so (2013.1, Build901 2013/11/27)

>  <Rbt.Parameter_File>
/export/apps/rDock/src/rDock_2013.1_src/data/scripts/dock_solv.prm

>  <Rbt.Receptor>
prm/blind_docking_60.prm

>  <SCORE>
-9.14128

>  <SCORE.INTER>
-8.01847

>  <SCORE.INTER.CONST>
1

>  <SCORE.INTER.POLAR>
0

>  <SCORE.INTER.ROT>
11

>  <SCORE.INTER.SOLV>
21.3048

>  <SCORE.INTER.VDW>
-23.3806

>  <SCORE.INTER.norm>
-0.572748

>  <SCORE.INTRA>
-1.12281

>  <SCORE.INTRA.DIHEDRAL>
-3.26865

>  <SCORE.INTRA.DIHEDRAL.0>
7.79482

>  <SCORE.INTRA.POLAR>
0

>  <SCORE.INTRA.POLAR.0>
0

>  <SCORE.INTRA.REPUL>
0

>  <SCORE.INTRA.REPUL.0>
0

>  <SCORE.INTRA.SOLV>
1.18642

>  <SCORE.INTRA.SOLV.lig_0>
-49.456

>  <SCORE.INTRA.VDW>
-0.08169

>  <SCORE.INTRA.VDW.0>
-0.478406

>  <SCORE.INTRA.norm>
-0.0802004

>  <SCORE.RESTR>
0

>  <SCORE.RESTR.CAVITY>
0

>  <SCORE.RESTR.norm>
0

>  <SCORE.SYSTEM>
0

>  <SCORE.SYSTEM.CONST>
0

>  <SCORE.SYSTEM.DIHEDRAL>
0

>  <SCORE.SYSTEM.SOLV>
0

>  <SCORE.SYSTEM.norm>
0

>  <SCORE.heavy>
14

>  <SCORE.norm>
-0.652949

>  <RMSD>
3.883

$$$$
ligand
 OpenBabel11021811413D
libRbt.so/2013.1/901 2013/11/27
 14 13  0  0  0  0  0  0  0  0999 V2000
   45.1967    2.4199   17.5785 N   0  0  0  0  0  0  0  0  0  0  0  0
   46.1445    2.3777   18.7130 C   0  0  0  0  0  0  0  0  0  0  0  0
   46.3126    3.7733   19.3518 C   0  0  0  0  0  0  0  0  0  0  0  0
   45.0469    4.3234   20.0296 C   0  0  0  0  0  0  0  0  0  0  0  0
   45.3280    5.6111   20.7218 N   0  0  0  0  0  0  0  0  0  0  0  0
   44.0612    6.2292   21.1907 C   0  0  0  0  0  0  0  0  0  0  0  0
   43.3351    7.1528   20.1555 C   0  0  0  0  0  0  0  0  0  0  0  0
   41.9956    7.7536   20.6704 C   0  0  0  0  0  0  0  0  0  0  0  0
   41.2976    8.6512   19.6673 C   0  0  0  0  0  0  0  0  0  0  0  0
   42.1581    9.7941   19.4271 N   0  0  0  0  0  0  0  0  0  0  0  0
   41.3843   10.7094   18.6067 C   0  0  0  0  0  0  0  0  0  0  0  0
   42.2094   11.9231   18.1952 C   0  0  0  0  0  0  0  0  0  0  0  0
   43.2915   11.4398   17.2178 C   0  0  0  0  0  0  0  0  0  0  0  0
   44.1506   12.5388   16.7523 N   0  0  0  0  0  0  0  0  0  0  0  0
  1  2  1  0  0  0  0
  2  3  1  0  0  0  0
  3  4  1  0  0  0  0
  4  5  1  0  0  0  0
  5  6  1  0  0  0  0
  6  7  1  0  0  0  0
  7  8  1  0  0  0  0
  8  9  1  0  0  0  0
  9 10  1  0  0  0  0
 10 11  1  0  0  0  0
 11 12  1  0  0  0  0
 12 13  1  0  0  0  0
 13 14  1  0  0  0  0
M  END
>  <CHROM.1>
65.61441482,174.91510914,171.39558368,-87.68857998,178.58896273,179.79931017
-63.82253871,-172.62525239,-176.05351776,68.51784047,179.92345923,43.70778799
7.47834329,19.16290985,-1.01525815,0.81036816,-0.56525096

>  <Name>
ligand

>  <RI>
0

>  <Rbt.Current_Directory>
/home/itssahil/PROJECTS/Mol_Feturizer/New_Systems/rnas/1TN1

>  <Rbt.Executable>
rbdock ($Id: //depot/dev/client3/rdock/2013.1/src/exe/rbdock.cxx#4 $)

>  <Rbt.Library>
libRbt.so (2013.1, Build901 2013/11/27)

>  <Rbt.Parameter_File>
/export/apps/rDock/src/rDock_2013.1_src/data/scripts/dock_solv.prm

>  <Rbt.Receptor>
prm/pocket_docking_6.prm

>  <SCORE>
-14.2215

>  <SCORE.INTER>
-11.1614

>  <SCORE.INTER.CONST>
1

>  <SCORE.INTER.POLAR>
0

>  <SCORE.INTER.ROT>
11

>  <SCORE.INTER.SOLV>
14.0523

>  <SCORE.INTER.VDW>
-23.0583

>  <SCORE.INTER.norm>
-0.797242

>  <SCORE.INTRA>
-3.06007

>  <SCORE.INTRA.DIHEDRAL>
-6.602

>  <SCORE.INTRA.DIHEDRAL.0>
7.79482

>  <SCORE.INTRA.POLAR>
0

>  <SCORE.INTRA.POLAR.0>
0

>  <SCORE.INTRA.REPUL>
0

>  <SCORE.INTRA.REPUL.0>
0

>  <SCORE.INTRA.SOLV>
1.39039

>  <SCORE.INTRA.SOLV.lig_0>
-49.456

>  <SCORE.INTRA.VDW>
-0.454268

>  <SCORE.INTRA.VDW.0>
-0.478406

>  <SCORE.INTRA.norm>
-0.218577

>  <SCORE.RESTR>
0

>  <SCORE.RESTR.CAVITY>
0

>  <SCORE.RESTR.norm>
0

>  <SCORE.SYSTEM>
0

>  <SCORE.SYSTEM.CONST>
0

>  <SCORE.SYSTEM.DIHEDRAL>
0

>  <SCORE.SYSTEM.SOLV>
0

>  <SCORE.SYSTEM.norm>
0

>  <SCORE.heavy>
14

>  <SCORE.norm>
-1.01582

>  <RMSD>
3.891

$$$$
ligand
 OpenBabel11021811413D
libRbt.so/2013.1/901 2013/11/27
 14 13  0  0  0  0  0  0  0  0999 V2000
   42.8390    6.9602   21.1242 N   0  0  0  0  0  0  0  0  0  0  0  0
   43.3259    7.5707   19.8684 C   0  0  0  0  0  0  0  0  0  0  0  0
   44.7772    8.0757   20.0195 C   0  0  0  0  0  0  0  0  0  0  0  0
   45.8032    6.9818   20.3583 C   0  0  0  0  0  0  0  0  0  0  0  0
   45.9823    6.0447   19.2154 N   0  0  0  0  0  0  0  0  0  0  0  0
   45.4884    4.6916   19.5788 C   0  0  0  0  0  0  0  0  0  0  0  0
   45.9522    3.5272   18.6401 C   0  0  0  0  0  0  0  0  0  0  0  0
   45.3666    2.1360   19.0169 C   0  0  0  0  0  0  0  0  0  0  0  0
   46.0038    0.9782   18.2738 C   0  0  0  0  0  0  0  0  0  0  0  0
   45.5296    1.0212   16.9036 N   0  0  0  0  0  0  0  0  0  0  0  0
   45.4066   -0.3631   16.4813 C   0  0  0  0  0  0  0  0  0  0  0  0
   45.2958   -0.4760   14.9653 C   0  0  0  0  0  0  0  0  0  0  0  0
   45.0531   -1.9545   14.6259 C   0  0  0  0  0  0  0  0  0  0  0  0
   45.0335   -2.1955   13.1753 N   0  0  0  0  0  0  0  0  0  0  0  0
  1  2  1  0  0  0  0
  2  3  1  0  0  0  0
  3  4  1  0  0  0  0
  4  5  1  0  0  0  0
  5  6  1  0  0  0  0
  6  7  1  0  0  0  0
  7  8  1  0  0  0  0
  8  9  1  0  0  0  0
  9 10  1  0  0  0  0
 10 11  1  0  0  0  0
 11 12  1  0  0  0  0
 12 13  1  0  0  0  0
 13 14  1  0  0  0  0
M  END
>  <CHROM.1>
60.96315437,68.04565903,-113.97945754,-164.26913044,-177.53983422,-169.53196309
-72.96154120,-145.09728571,-164.09634177,-175.36283232,-175.58237398,45.13277595
3.07133863,18.01780067,1.66384563,-0.59928162,0.61876140

>  <Name>
ligand

>  <RI>
0

>  <Rbt.Current_Directory>
/home/itssahil/PROJECTS/Mol_Feturizer/New_Systems/rnas/1TN1

>  <Rbt.Executable>
rbdock ($Id: //depot/dev/client3/rdock/2013.1/src/exe/rbdock.cxx#4 $)

>  <Rbt.Library>
libRbt.so (2013.1, Build901 2013/11/27)

>  <Rbt.Parameter_File>
/export/apps/rDock/src/rDock_2013.1_src/data/scripts/dock_solv.prm

>  <Rbt.Receptor>
prm/blind_docking_80.prm

>  <SCORE>
-8.65119

>  <SCORE.INTER>
-7.13674

>  <SCORE.INTER.CONST>
1

>  <SCORE.INTER.POLAR>
0

>  <SCORE.INTER.ROT>
11

>  <SCORE.INTER.SOLV>
14.1821

>  <SCORE.INTER.VDW>
-20.4185

>  <SCORE.INTER.norm>
-0.509767

>  <SCORE.INTRA>
-1.51446

>  <SCORE.INTRA.DIHEDRAL>
-4.00152

>  <SCORE.INTRA.DIHEDRAL.0>
7.79482

>  <SCORE.INTRA.POLAR>
0

>  <SCORE.INTRA.POLAR.0>
0

>  <SCORE.INTRA.REPUL>
0

>  <SCORE.INTRA.REPUL.0>
0

>  <SCORE.INTRA.SOLV>
2.58672

>  <SCORE.INTRA.SOLV.lig_0>
-49.456

>  <SCORE.INTRA.VDW>
-0.807058

>  <SCORE.INTRA.VDW.0>
-0.478406

>  <SCORE.INTRA.norm>
-0.108176

>  <SCORE.RESTR>
0

>  <SCORE.RESTR.CAVITY>
0

>  <SCORE.RESTR.norm>
0

>  <SCORE.SYSTEM>
0

>  <SCORE.SYSTEM.CONST>
0

>  <SCORE.SYSTEM.DIHEDRAL>
0

>  <SCORE.SYSTEM.SOLV>
0

>  <SCORE.SYSTEM.norm>
0

>  <SCORE.heavy>
14

>  <SCORE.norm>
-0.617942

>  <RMSD>
3.905

$$$$
ligand
 OpenBabel11021811413D
libRbt.so/2013.1/901 2013/11/27
 14 13  0  0  0  0  0  0  0  0999 V2000
   45.8974    9.2750   18.3090 N   0  0  0  0  0  0  0  0  0  0  0  0
   46.9352    8.6995   19.1917 C   0  0  0  0  0  0  0  0  0  0  0  0
   46.3013    7.9060   20.3546 C   0  0  0  0  0  0  0  0  0  0  0  0
   45.5690    6.6227   19.9293 C   0  0  0  0  0  0  0  0  0  0  0  0
   46.5142    5.6425   19.3275 N   0  0  0  0  0  0  0  0  0  0  0  0
   46.1271    4.2585   19.7036 C   0  0  0  0  0  0  0  0  0  0  0  0
   45.5544    3.3770   18.5430 C   0  0  0  0  0  0  0  0  0  0  0  0
   45.0459    1.9791   18.9988 C   0  0  0  0  0  0  0  0  0  0  0  0
   44.3420    1.1947   17.9088 C   0  0  0  0  0  0  0  0  0  0  0  0
   45.3362    0.8318   16.9167 N   0  0  0  0  0  0  0  0  0  0  0  0
   44.6074    0.1791   15.8431 C   0  0  0  0  0  0  0  0  0  0  0  0
   45.5006   -0.7806   15.0657 C   0  0  0  0  0  0  0  0  0  0  0  0
   44.6496   -1.4080   13.9512 C   0  0  0  0  0  0  0  0  0  0  0  0
   45.4331   -2.3124   13.0963 N   0  0  0  0  0  0  0  0  0  0  0  0
  1  2  1  0  0  0  0
  2  3  1  0  0  0  0
  3  4  1  0  0  0  0
  4  5  1  0  0  0  0
  5  6  1  0  0  0  0
  6  7  1  0  0  0  0
  7  8  1  0  0  0  0
  8  9  1  0  0  0  0
  9 10  1  0  0  0  0
 10 11  1  0  0  0  0
 11 12  1  0  0  0  0
 12 13  1  0  0  0  0
 13 14  1  0  0  0  0
M  END
>  <CHROM.1>
67.46116822,63.69157873,143.89506263,109.95199405,-174.95780334,173.04339321
68.26345571,-175.54867783,-154.47800740,-179.48685621,177.46347183,45.55801158
3.24744051,17.65312687,-0.96403586,-1.35504603,-2.04971365

>  <Name>
ligand

>  <RI>
0

>  <Rbt.Current_Directory>
/home/itssahil/PROJECTS/Mol_Feturizer/New_Systems/rnas/1TN1

>  <Rbt.Executable>
rbdock ($Id: //depot/dev/client3/rdock/2013.1/src/exe/rbdock.cxx#4 $)

>  <Rbt.Library>
libRbt.so (2013.1, Build901 2013/11/27)

>  <Rbt.Parameter_File>
/export/apps/rDock/src/rDock_2013.1_src/data/scripts/dock_solv.prm

>  <Rbt.Receptor>
prm/blind_docking_80.prm

>  <SCORE>
-8.77816

>  <SCORE.INTER>
-6.72318

>  <SCORE.INTER.CONST>
1

>  <SCORE.INTER.POLAR>
0

>  <SCORE.INTER.ROT>
11

>  <SCORE.INTER.SOLV>
12.0237

>  <SCORE.INTER.VDW>
-19.4234

>  <SCORE.INTER.norm>
-0.480227

>  <SCORE.INTRA>
-2.05497

>  <SCORE.INTRA.DIHEDRAL>
-4.57521

>  <SCORE.INTRA.DIHEDRAL.0>
7.79482

>  <SCORE.INTRA.POLAR>
0

>  <SCORE.INTRA.POLAR.0>
0

>  <SCORE.INTRA.REPUL>
0

>  <SCORE.INTRA.REPUL.0>
0

>  <SCORE.INTRA.SOLV>
1.87585

>  <SCORE.INTRA.SOLV.lig_0>
-49.456

>  <SCORE.INTRA.VDW>
-0.705297

>  <SCORE.INTRA.VDW.0>
-0.478406

>  <SCORE.INTRA.norm>
-0.146784

>  <SCORE.RESTR>
0

>  <SCORE.RESTR.CAVITY>
0

>  <SCORE.RESTR.norm>
0

>  <SCORE.SYSTEM>
0

>  <SCORE.SYSTEM.CONST>
0

>  <SCORE.SYSTEM.DIHEDRAL>
0

>  <SCORE.SYSTEM.SOLV>
0

>  <SCORE.SYSTEM.norm>
0

>  <SCORE.heavy>
14

>  <SCORE.norm>
-0.627011

>  <RMSD>
3.907

$$$$
ligand
 OpenBabel11021811413D
libRbt.so/2013.1/901 2013/11/27
 14 13  0  0  0  0  0  0  0  0999 V2000
   46.1418   10.3779   18.4079 N   0  0  0  0  0  0  0  0  0  0  0  0
   46.2791    9.3331   19.4456 C   0  0  0  0  0  0  0  0  0  0  0  0
   44.9339    8.6193   19.7002 C   0  0  0  0  0  0  0  0  0  0  0  0
   45.0071    7.4542   20.7007 C   0  0  0  0  0  0  0  0  0  0  0  0
   43.6677    6.8350   20.8990 N   0  0  0  0  0  0  0  0  0  0  0  0
   43.7898    5.5956   21.7087 C   0  0  0  0  0  0  0  0  0  0  0  0
   43.9661    4.2698   20.8943 C   0  0  0  0  0  0  0  0  0  0  0  0
   45.2133    4.2567   19.9644 C   0  0  0  0  0  0  0  0  0  0  0  0
   45.2968    3.0400   19.0636 C   0  0  0  0  0  0  0  0  0  0  0  0
   46.4870    3.1793   18.2461 N   0  0  0  0  0  0  0  0  0  0  0  0
   46.3353    2.2301   17.1572 C   0  0  0  0  0  0  0  0  0  0  0  0
   47.1271    2.6604   15.9279 C   0  0  0  0  0  0  0  0  0  0  0  0
   46.4855    3.9481   15.3892 C   0  0  0  0  0  0  0  0  0  0  0  0
   47.1559    4.4369   14.1750 N   0  0  0  0  0  0  0  0  0  0  0  0
  1  2  1  0  0  0  0
  2  3  1  0  0  0  0
  3  4  1  0  0  0  0
  4  5  1  0  0  0  0
  5  6  1  0  0  0  0
  6  7  1  0  0  0  0
  7  8  1  0  0  0  0
  8  9  1  0  0  0  0
  9 10  1  0  0  0  0
 10 11  1  0  0  0  0
 11 12  1  0  0  0  0
 12 13  1  0  0  0  0
 13 14  1  0  0  0  0
M  END
>  <CHROM.1>
176.18955757,179.32408356,171.77894528,-92.18269092,58.56908076,-173.50122581
178.98291436,-164.00736956,154.45985860,-66.62115573,-178.61601599,45.56319546
5.44515937,18.69173161,-2.16823612,-1.09199049,-3.00289553

>  <Name>
ligand

>  <RI>
0

>  <Rbt.Current_Directory>
/home/itssahil/PROJECTS/Mol_Feturizer/New_Systems/rnas/1TN1

>  <Rbt.Executable>
rbdock ($Id: //depot/dev/client3/rdock/2013.1/src/exe/rbdock.cxx#4 $)

>  <Rbt.Library>
libRbt.so (2013.1, Build901 2013/11/27)

>  <Rbt.Parameter_File>
/export/apps/rDock/src/rDock_2013.1_src/data/scripts/dock_solv.prm

>  <Rbt.Receptor>
prm/pocket_docking_7.prm

>  <SCORE>
-7.96603

>  <SCORE.INTER>
-4.69902

>  <SCORE.INTER.CONST>
1

>  <SCORE.INTER.POLAR>
0

>  <SCORE.INTER.ROT>
11

>  <SCORE.INTER.SOLV>
12.2057

>  <SCORE.INTER.VDW>
-18.1346

>  <SCORE.INTER.norm>
-0.335644

>  <SCORE.INTRA>
-3.26701

>  <SCORE.INTRA.DIHEDRAL>
-5.99712

>  <SCORE.INTRA.DIHEDRAL.0>
7.79482

>  <SCORE.INTRA.POLAR>
0

>  <SCORE.INTRA.POLAR.0>
0

>  <SCORE.INTRA.REPUL>
0

>  <SCORE.INTRA.REPUL.0>
0

>  <SCORE.INTRA.SOLV>
0.73015

>  <SCORE.INTRA.SOLV.lig_0>
-49.456

>  <SCORE.INTRA.VDW>
-0.633526

>  <SCORE.INTRA.VDW.0>
-0.478406

>  <SCORE.INTRA.norm>
-0.233358

>  <SCORE.RESTR>
0

>  <SCORE.RESTR.CAVITY>
0

>  <SCORE.RESTR.norm>
0

>  <SCORE.SYSTEM>
0

>  <SCORE.SYSTEM.CONST>
0

>  <SCORE.SYSTEM.DIHEDRAL>
0

>  <SCORE.SYSTEM.SOLV>
0

>  <SCORE.SYSTEM.norm>
0

>  <SCORE.heavy>
14

>  <SCORE.norm>
-0.569002

>  <RMSD>
3.907

$$$$
ligand
 OpenBabel11021811413D
libRbt.so/2013.1/901 2013/11/27
 14 13  0  0  0  0  0  0  0  0999 V2000
   42.0947   11.4106   18.4302 N   0  0  0  0  0  0  0  0  0  0  0  0
   42.0763    9.9717   18.7712 C   0  0  0  0  0  0  0  0  0  0  0  0
   40.9800    9.6589   19.8125 C   0  0  0  0  0  0  0  0  0  0  0  0
   40.8310    8.1678   20.1566 C   0  0  0  0  0  0  0  0  0  0  0  0
   42.0796    7.6325   20.7655 N   0  0  0  0  0  0  0  0  0  0  0  0
   41.9230    6.1873   21.0714 C   0  0  0  0  0  0  0  0  0  0  0  0
   43.0018    5.5774   22.0287 C   0  0  0  0  0  0  0  0  0  0  0  0
   44.4343    5.5310   21.4236 C   0  0  0  0  0  0  0  0  0  0  0  0
   44.5873    4.5491   20.2784 C   0  0  0  0  0  0  0  0  0  0  0  0
   45.9876    4.5300   19.9001 N   0  0  0  0  0  0  0  0  0  0  0  0
   46.0349    3.9272   18.5794 C   0  0  0  0  0  0  0  0  0  0  0  0
   46.1755    2.4118   18.6628 C   0  0  0  0  0  0  0  0  0  0  0  0
   46.3501    1.8819   17.2314 C   0  0  0  0  0  0  0  0  0  0  0  0
   45.1571    2.1145   16.4036 N   0  0  0  0  0  0  0  0  0  0  0  0
  1  2  1  0  0  0  0
  2  3  1  0  0  0  0
  3  4  1  0  0  0  0
  4  5  1  0  0  0  0
  5  6  1  0  0  0  0
  6  7  1  0  0  0  0
  7  8  1  0  0  0  0
  8  9  1  0  0  0  0
  9 10  1  0  0  0  0
 10 11  1  0  0  0  0
 11 12  1  0  0  0  0
 12 13  1  0  0  0  0
 13 14  1  0  0  0  0
M  END
>  <CHROM.1>
176.23710009,62.17332538,-179.13955191,-165.29760141,-66.78191168,-68.50261305
-175.03997760,-162.84381023,-89.21077020,-174.74311701,-64.69806675,43.69374473
5.96779048,19.53707761,-2.92167987,-0.99496861,2.05353104

>  <Name>
ligand

>  <RI>
0

>  <Rbt.Current_Directory>
/home/itssahil/PROJECTS/Mol_Feturizer/New_Systems/rnas/1TN1

>  <Rbt.Executable>
rbdock ($Id: //depot/dev/client3/rdock/2013.1/src/exe/rbdock.cxx#4 $)

>  <Rbt.Library>
libRbt.so (2013.1, Build901 2013/11/27)

>  <Rbt.Parameter_File>
/export/apps/rDock/src/rDock_2013.1_src/data/scripts/dock_solv.prm

>  <Rbt.Receptor>
prm/pocket_docking_8.prm

>  <SCORE>
-12.4004

>  <SCORE.INTER>
-10.2341

>  <SCORE.INTER.CONST>
1

>  <SCORE.INTER.POLAR>
0

>  <SCORE.INTER.ROT>
11

>  <SCORE.INTER.SOLV>
18.0646

>  <SCORE.INTER.VDW>
-23.7776

>  <SCORE.INTER.norm>
-0.731006

>  <SCORE.INTRA>
-2.16631

>  <SCORE.INTRA.DIHEDRAL>
-6.00234

>  <SCORE.INTRA.DIHEDRAL.0>
7.79482

>  <SCORE.INTRA.POLAR>
0

>  <SCORE.INTRA.POLAR.0>
0

>  <SCORE.INTRA.REPUL>
0

>  <SCORE.INTRA.REPUL.0>
0

>  <SCORE.INTRA.SOLV>
1.70962

>  <SCORE.INTRA.SOLV.lig_0>
-49.456

>  <SCORE.INTRA.VDW>
-0.0199475

>  <SCORE.INTRA.VDW.0>
-0.478406

>  <SCORE.INTRA.norm>
-0.154736

>  <SCORE.RESTR>
0

>  <SCORE.RESTR.CAVITY>
0

>  <SCORE.RESTR.norm>
0

>  <SCORE.SYSTEM>
0

>  <SCORE.SYSTEM.CONST>
0

>  <SCORE.SYSTEM.DIHEDRAL>
0

>  <SCORE.SYSTEM.SOLV>
0

>  <SCORE.SYSTEM.norm>
0

>  <SCORE.heavy>
14

>  <SCORE.norm>
-0.885743

>  <RMSD>
3.928

$$$$
ligand
 OpenBabel11021811413D
libRbt.so/2013.1/901 2013/11/27
 14 13  0  0  0  0  0  0  0  0999 V2000
   46.5325   -0.1877   12.9712 N   0  0  0  0  0  0  0  0  0  0  0  0
   47.1452   -0.6655   14.2295 C   0  0  0  0  0  0  0  0  0  0  0  0
   46.1056   -1.3792   15.1205 C   0  0  0  0  0  0  0  0  0  0  0  0
   45.0150   -0.4594   15.6936 C   0  0  0  0  0  0  0  0  0  0  0  0
   45.5662    0.4250   16.7568 N   0  0  0  0  0  0  0  0  0  0  0  0
   44.4627    1.0101   17.5610 C   0  0  0  0  0  0  0  0  0  0  0  0
   44.9030    1.8086   18.8341 C   0  0  0  0  0  0  0  0  0  0  0  0
   45.7126    3.1006   18.5249 C   0  0  0  0  0  0  0  0  0  0  0  0
   45.8491    4.0393   19.7077 C   0  0  0  0  0  0  0  0  0  0  0  0
   46.5768    5.2106   19.2574 N   0  0  0  0  0  0  0  0  0  0  0  0
   45.8586    6.3548   19.7909 C   0  0  0  0  0  0  0  0  0  0  0  0
   46.2532    7.6429   19.0779 C   0  0  0  0  0  0  0  0  0  0  0  0
   45.3071    8.7515   19.5634 C   0  0  0  0  0  0  0  0  0  0  0  0
   45.5468   10.0280   18.8737 N   0  0  0  0  0  0  0  0  0  0  0  0
  1  2  1  0  0  0  0
  2  3  1  0  0  0  0
  3  4  1  0  0  0  0
  4  5  1  0  0  0  0
  5  6  1  0  0  0  0
  6  7  1  0  0  0  0
  7  8  1  0  0  0  0
  8  9  1  0  0  0  0
  9 10  1  0  0  0  0
 10 11  1  0  0  0  0
 11 12  1  0  0  0  0
 12 13  1  0  0  0  0
 13 14  1  0  0  0  0
M  END
>  <CHROM.1>
-67.79186647,-72.07934287,-163.61344194,172.12754874,65.33955416,166.00717476
-177.87276514,134.87919412,-163.27674411,172.01144242,-176.48437016,45.77376309
3.26257690,17.56899806,-1.50059031,1.24047478,0.41120236

>  <Name>
ligand

>  <RI>
0

>  <Rbt.Current_Directory>
/home/itssahil/PROJECTS/Mol_Feturizer/New_Systems/rnas/1TN1

>  <Rbt.Executable>
rbdock ($Id: //depot/dev/client3/rdock/2013.1/src/exe/rbdock.cxx#4 $)

>  <Rbt.Library>
libRbt.so (2013.1, Build901 2013/11/27)

>  <Rbt.Parameter_File>
/export/apps/rDock/src/rDock_2013.1_src/data/scripts/dock_solv.prm

>  <Rbt.Receptor>
prm/blind_docking_80.prm

>  <SCORE>
-7.59176

>  <SCORE.INTER>
-5.39024

>  <SCORE.INTER.CONST>
1

>  <SCORE.INTER.POLAR>
0

>  <SCORE.INTER.ROT>
11

>  <SCORE.INTER.SOLV>
11.5535

>  <SCORE.INTER.VDW>
-18.378

>  <SCORE.INTER.norm>
-0.385017

>  <SCORE.INTRA>
-2.20151

>  <SCORE.INTRA.DIHEDRAL>
-4.33985

>  <SCORE.INTRA.DIHEDRAL.0>
7.79482

>  <SCORE.INTRA.POLAR>
0

>  <SCORE.INTRA.POLAR.0>
0

>  <SCORE.INTRA.REPUL>
0

>  <SCORE.INTRA.REPUL.0>
0

>  <SCORE.INTRA.SOLV>
1.62184

>  <SCORE.INTRA.SOLV.lig_0>
-49.456

>  <SCORE.INTRA.VDW>
-0.842504

>  <SCORE.INTRA.VDW.0>
-0.478406

>  <SCORE.INTRA.norm>
-0.157251

>  <SCORE.RESTR>
0

>  <SCORE.RESTR.CAVITY>
0

>  <SCORE.RESTR.norm>
0

>  <SCORE.SYSTEM>
0

>  <SCORE.SYSTEM.CONST>
0

>  <SCORE.SYSTEM.DIHEDRAL>
0

>  <SCORE.SYSTEM.SOLV>
0

>  <SCORE.SYSTEM.norm>
0

>  <SCORE.heavy>
14

>  <SCORE.norm>
-0.542268

>  <RMSD>
3.931

$$$$
ligand
 OpenBabel11021811413D
libRbt.so/2013.1/901 2013/11/27
 14 13  0  0  0  0  0  0  0  0999 V2000
   45.2329   -2.9994   13.4204 N   0  0  0  0  0  0  0  0  0  0  0  0
   44.4152   -1.9851   14.1200 C   0  0  0  0  0  0  0  0  0  0  0  0
   45.3050   -0.9842   14.8885 C   0  0  0  0  0  0  0  0  0  0  0  0
   44.5365    0.1492   15.5876 C   0  0  0  0  0  0  0  0  0  0  0  0
   45.4702    1.0831   16.2750 N   0  0  0  0  0  0  0  0  0  0  0  0
   45.6137    0.7057   17.7046 C   0  0  0  0  0  0  0  0  0  0  0  0
   45.2087    1.8088   18.7397 C   0  0  0  0  0  0  0  0  0  0  0  0
   46.0959    3.0857   18.6868 C   0  0  0  0  0  0  0  0  0  0  0  0
   45.6582    4.1793   19.6413 C   0  0  0  0  0  0  0  0  0  0  0  0
   46.5997    5.2756   19.5150 N   0  0  0  0  0  0  0  0  0  0  0  0
   45.8460    6.4830   19.8047 C   0  0  0  0  0  0  0  0  0  0  0  0
   46.6975    7.7321   19.6101 C   0  0  0  0  0  0  0  0  0  0  0  0
   45.7958    8.9518   19.8536 C   0  0  0  0  0  0  0  0  0  0  0  0
   44.7575    9.0900   18.8213 N   0  0  0  0  0  0  0  0  0  0  0  0
  1  2  1  0  0  0  0
  2  3  1  0  0  0  0
  3  4  1  0  0  0  0
  4  5  1  0  0  0  0
  5  6  1  0  0  0  0
  6  7  1  0  0  0  0
  7  8  1  0  0  0  0
  8  9  1  0  0  0  0
  9 10  1  0  0  0  0
 10 11  1  0  0  0  0
 11 12  1  0  0  0  0
 12 13  1  0  0  0  0
 13 14  1  0  0  0  0
M  END
>  <CHROM.1>
177.03476592,-178.66004555,-95.10641789,-120.97709216,-63.86945328,177.07656109
177.96635744,149.77834609,-175.94310792,176.56875404,-67.19662977,45.51664067
3.04108892,17.61943145,1.81837926,1.22633056,-2.88357588

>  <Name>
ligand

>  <RI>
0

>  <Rbt.Current_Directory>
/home/itssahil/PROJECTS/Mol_Feturizer/New_Systems/rnas/1TN1

>  <Rbt.Executable>
rbdock ($Id: //depot/dev/client3/rdock/2013.1/src/exe/rbdock.cxx#4 $)

>  <Rbt.Library>
libRbt.so (2013.1, Build901 2013/11/27)

>  <Rbt.Parameter_File>
/export/apps/rDock/src/rDock_2013.1_src/data/scripts/dock_solv.prm

>  <Rbt.Receptor>
prm/blind_docking_60.prm

>  <SCORE>
-9.06272

>  <SCORE.INTER>
-6.6508

>  <SCORE.INTER.CONST>
1

>  <SCORE.INTER.POLAR>
0

>  <SCORE.INTER.ROT>
11

>  <SCORE.INTER.SOLV>
14.3032

>  <SCORE.INTER.VDW>
-20.1349

>  <SCORE.INTER.norm>
-0.475057

>  <SCORE.INTRA>
-2.41193

>  <SCORE.INTRA.DIHEDRAL>
-4.83072

>  <SCORE.INTRA.DIHEDRAL.0>
7.79482

>  <SCORE.INTRA.POLAR>
0

>  <SCORE.INTRA.POLAR.0>
0

>  <SCORE.INTRA.REPUL>
0

>  <SCORE.INTRA.REPUL.0>
0

>  <SCORE.INTRA.SOLV>
1.08921

>  <SCORE.INTRA.SOLV.lig_0>
-49.456

>  <SCORE.INTRA.VDW>
-0.54117

>  <SCORE.INTRA.VDW.0>
-0.478406

>  <SCORE.INTRA.norm>
-0.172281

>  <SCORE.RESTR>
0

>  <SCORE.RESTR.CAVITY>
0

>  <SCORE.RESTR.norm>
0

>  <SCORE.SYSTEM>
0

>  <SCORE.SYSTEM.CONST>
0

>  <SCORE.SYSTEM.DIHEDRAL>
0

>  <SCORE.SYSTEM.SOLV>
0

>  <SCORE.SYSTEM.norm>
0

>  <SCORE.heavy>
14

>  <SCORE.norm>
-0.647337

>  <RMSD>
3.946

$$$$
ligand
 OpenBabel11021811413D
libRbt.so/2013.1/901 2013/11/27
 14 13  0  0  0  0  0  0  0  0999 V2000
   46.6084   -1.9255   13.4127 N   0  0  0  0  0  0  0  0  0  0  0  0
   46.4677   -0.9610   14.5249 C   0  0  0  0  0  0  0  0  0  0  0  0
   45.7952   -1.6167   15.7504 C   0  0  0  0  0  0  0  0  0  0  0  0
   45.5837   -0.6728   16.9455 C   0  0  0  0  0  0  0  0  0  0  0  0
   44.6608    0.4402   16.5906 N   0  0  0  0  0  0  0  0  0  0  0  0
   44.3967    1.2877   17.7817 C   0  0  0  0  0  0  0  0  0  0  0  0
   45.5368    2.2906   18.1648 C   0  0  0  0  0  0  0  0  0  0  0  0
   45.1349    3.3212   19.2587 C   0  0  0  0  0  0  0  0  0  0  0  0
   46.2190    4.3311   19.5809 C   0  0  0  0  0  0  0  0  0  0  0  0
   45.6150    5.3872   20.3708 N   0  0  0  0  0  0  0  0  0  0  0  0
   46.2819    6.6141   19.9714 C   0  0  0  0  0  0  0  0  0  0  0  0
   45.5326    7.8441   20.4704 C   0  0  0  0  0  0  0  0  0  0  0  0
   46.2884    9.0839   19.9687 C   0  0  0  0  0  0  0  0  0  0  0  0
   46.1627    9.2604   18.5142 N   0  0  0  0  0  0  0  0  0  0  0  0
  1  2  1  0  0  0  0
  2  3  1  0  0  0  0
  3  4  1  0  0  0  0
  4  5  1  0  0  0  0
  5  6  1  0  0  0  0
  6  7  1  0  0  0  0
  7  8  1  0  0  0  0
  8  9  1  0  0  0  0
  9 10  1  0  0  0  0
 10 11  1  0  0  0  0
 11 12  1  0  0  0  0
 12 13  1  0  0  0  0
 13 14  1  0  0  0  0
M  END
>  <CHROM.1>
-178.80575884,62.93711062,176.18290145,77.70482511,170.21092102,-177.29947169
167.34885594,-144.85656636,166.47470967,-178.47755905,70.17988037,45.73455886
3.19169972,17.95069988,-1.60492420,1.15471809,0.50497174

>  <Name>
ligand

>  <RI>
0

>  <Rbt.Current_Directory>
/home/itssahil/PROJECTS/Mol_Feturizer/New_Systems/rnas/1TN1

>  <Rbt.Executable>
rbdock ($Id: //depot/dev/client3/rdock/2013.1/src/exe/rbdock.cxx#4 $)

>  <Rbt.Library>
libRbt.so (2013.1, Build901 2013/11/27)

>  <Rbt.Parameter_File>
/export/apps/rDock/src/rDock_2013.1_src/data/scripts/dock_solv.prm

>  <Rbt.Receptor>
prm/blind_docking_80.prm

>  <SCORE>
-10.3146

>  <SCORE.INTER>
-7.76736

>  <SCORE.INTER.CONST>
1

>  <SCORE.INTER.POLAR>
0

>  <SCORE.INTER.ROT>
11

>  <SCORE.INTER.SOLV>
12.5781

>  <SCORE.INTER.VDW>
-20.3043

>  <SCORE.INTER.norm>
-0.554811

>  <SCORE.INTRA>
-2.54725

>  <SCORE.INTRA.DIHEDRAL>
-5.24056

>  <SCORE.INTRA.DIHEDRAL.0>
7.79482

>  <SCORE.INTRA.POLAR>
0

>  <SCORE.INTRA.POLAR.0>
0

>  <SCORE.INTRA.REPUL>
0

>  <SCORE.INTRA.REPUL.0>
0

>  <SCORE.INTRA.SOLV>
1.01811

>  <SCORE.INTRA.SOLV.lig_0>
-49.456

>  <SCORE.INTRA.VDW>
-0.43602

>  <SCORE.INTRA.VDW.0>
-0.478406

>  <SCORE.INTRA.norm>
-0.181946

>  <SCORE.RESTR>
0

>  <SCORE.RESTR.CAVITY>
0

>  <SCORE.RESTR.norm>
0

>  <SCORE.SYSTEM>
0

>  <SCORE.SYSTEM.CONST>
0

>  <SCORE.SYSTEM.DIHEDRAL>
0

>  <SCORE.SYSTEM.SOLV>
0

>  <SCORE.SYSTEM.norm>
0

>  <SCORE.heavy>
14

>  <SCORE.norm>
-0.736757

>  <RMSD>
3.957

$$$$
ligand
 OpenBabel11021811413D
libRbt.so/2013.1/901 2013/11/27
 14 13  0  0  0  0  0  0  0  0999 V2000
   44.8629   -2.2082   13.2930 N   0  0  0  0  0  0  0  0  0  0  0  0
   45.0460   -0.7465   13.4236 C   0  0  0  0  0  0  0  0  0  0  0  0
   44.6170   -0.2532   14.8224 C   0  0  0  0  0  0  0  0  0  0  0  0
   45.4562   -0.8121   15.9832 C   0  0  0  0  0  0  0  0  0  0  0  0
   45.0105   -0.2458   17.2859 N   0  0  0  0  0  0  0  0  0  0  0  0
   45.8432    0.9304   17.6462 C   0  0  0  0  0  0  0  0  0  0  0  0
   45.1797    1.9540   18.6281 C   0  0  0  0  0  0  0  0  0  0  0  0
   46.0468    3.2137   18.9138 C   0  0  0  0  0  0  0  0  0  0  0  0
   45.3816    4.2247   19.8271 C   0  0  0  0  0  0  0  0  0  0  0  0
   46.3600    5.2511   20.1330 N   0  0  0  0  0  0  0  0  0  0  0  0
   45.6053    6.4786   20.3157 C   0  0  0  0  0  0  0  0  0  0  0  0
   46.1005    7.5811   19.3869 C   0  0  0  0  0  0  0  0  0  0  0  0
   45.2501    8.8319   19.6556 C   0  0  0  0  0  0  0  0  0  0  0  0
   45.6468    9.9660   18.8076 N   0  0  0  0  0  0  0  0  0  0  0  0
  1  2  1  0  0  0  0
  2  3  1  0  0  0  0
  3  4  1  0  0  0  0
  4  5  1  0  0  0  0
  5  6  1  0  0  0  0
  6  7  1  0  0  0  0
  7  8  1  0  0  0  0
  8  9  1  0  0  0  0
  9 10  1  0  0  0  0
 10 11  1  0  0  0  0
 11 12  1  0  0  0  0
 12 13  1  0  0  0  0
 13 14  1  0  0  0  0
M  END
>  <CHROM.1>
63.71750870,177.78026943,-95.05316397,156.29474074,-176.47983633,178.01595613
173.06573084,148.82916645,-124.12718937,-179.81385645,179.94838285,45.45760435
3.15467708,17.72315822,2.04499064,1.42205494,-3.10969550

>  <Name>
ligand

>  <RI>
0

>  <Rbt.Current_Directory>
/home/itssahil/PROJECTS/Mol_Feturizer/New_Systems/rnas/1TN1

>  <Rbt.Executable>
rbdock ($Id: //depot/dev/client3/rdock/2013.1/src/exe/rbdock.cxx#4 $)

>  <Rbt.Library>
libRbt.so (2013.1, Build901 2013/11/27)

>  <Rbt.Parameter_File>
/export/apps/rDock/src/rDock_2013.1_src/data/scripts/dock_solv.prm

>  <Rbt.Receptor>
prm/pocket_docking_7.prm

>  <SCORE>
-9.26492

>  <SCORE.INTER>
-6.74579

>  <SCORE.INTER.CONST>
1

>  <SCORE.INTER.POLAR>
0

>  <SCORE.INTER.ROT>
11

>  <SCORE.INTER.SOLV>
13.6265

>  <SCORE.INTER.VDW>
-19.9727

>  <SCORE.INTER.norm>
-0.481842

>  <SCORE.INTRA>
-2.51913

>  <SCORE.INTRA.DIHEDRAL>
-4.49525

>  <SCORE.INTRA.DIHEDRAL.0>
7.79482

>  <SCORE.INTRA.POLAR>
0

>  <SCORE.INTRA.POLAR.0>
0

>  <SCORE.INTRA.REPUL>
0

>  <SCORE.INTRA.REPUL.0>
0

>  <SCORE.INTRA.SOLV>
0.632034

>  <SCORE.INTRA.SOLV.lig_0>
-49.456

>  <SCORE.INTRA.VDW>
-0.587522

>  <SCORE.INTRA.VDW.0>
-0.478406

>  <SCORE.INTRA.norm>
-0.179938

>  <SCORE.RESTR>
0

>  <SCORE.RESTR.CAVITY>
0

>  <SCORE.RESTR.norm>
0

>  <SCORE.SYSTEM>
0

>  <SCORE.SYSTEM.CONST>
0

>  <SCORE.SYSTEM.DIHEDRAL>
0

>  <SCORE.SYSTEM.SOLV>
0

>  <SCORE.SYSTEM.norm>
0

>  <SCORE.heavy>
14

>  <SCORE.norm>
-0.66178

>  <RMSD>
3.983

$$$$
ligand
 OpenBabel11021811413D
libRbt.so/2013.1/901 2013/11/27
 14 13  0  0  0  0  0  0  0  0999 V2000
   45.7166   -1.9514   12.9983 N   0  0  0  0  0  0  0  0  0  0  0  0
   44.3985   -1.3458   13.2863 C   0  0  0  0  0  0  0  0  0  0  0  0
   44.5436   -0.0862   14.1673 C   0  0  0  0  0  0  0  0  0  0  0  0
   45.1489   -0.3437   15.5571 C   0  0  0  0  0  0  0  0  0  0  0  0
   45.2350    0.9169   16.3444 N   0  0  0  0  0  0  0  0  0  0  0  0
   45.6173    0.6200   17.7488 C   0  0  0  0  0  0  0  0  0  0  0  0
   45.2432    1.7197   18.7989 C   0  0  0  0  0  0  0  0  0  0  0  0
   46.0454    3.0438   18.6452 C   0  0  0  0  0  0  0  0  0  0  0  0
   45.6781    4.1076   19.6612 C   0  0  0  0  0  0  0  0  0  0  0  0
   46.5619    5.2387   19.4522 N   0  0  0  0  0  0  0  0  0  0  0  0
   45.7827    6.4191   19.7828 C   0  0  0  0  0  0  0  0  0  0  0  0
   46.3660    7.6710   19.1379 C   0  0  0  0  0  0  0  0  0  0  0  0
   45.4242    8.8412   19.4594 C   0  0  0  0  0  0  0  0  0  0  0  0
   45.8186   10.0778   18.7680 N   0  0  0  0  0  0  0  0  0  0  0  0
  1  2  1  0  0  0  0
  2  3  1  0  0  0  0
  3  4  1  0  0  0  0
  4  5  1  0  0  0  0
  5  6  1  0  0  0  0
  6  7  1  0  0  0  0
  7  8  1  0  0  0  0
  8  9  1  0  0  0  0
  9 10  1  0  0  0  0
 10 11  1  0  0  0  0
 11 12  1  0  0  0  0
 12 13  1  0  0  0  0
 13 14  1  0  0  0  0
M  END
>  <CHROM.1>
-62.32121279,-179.21035306,171.08972075,-158.27227576,-68.08666730,179.84832355
176.24187096,147.11240194,-158.77043210,176.02123959,-174.11253668,45.54131133
3.20905380,17.41505602,2.15921734,1.41525298,3.07580733

>  <Name>
ligand

>  <RI>
0

>  <Rbt.Current_Directory>
/home/itssahil/PROJECTS/Mol_Feturizer/New_Systems/rnas/1TN1

>  <Rbt.Executable>
rbdock ($Id: //depot/dev/client3/rdock/2013.1/src/exe/rbdock.cxx#4 $)

>  <Rbt.Library>
libRbt.so (2013.1, Build901 2013/11/27)

>  <Rbt.Parameter_File>
/export/apps/rDock/src/rDock_2013.1_src/data/scripts/dock_solv.prm

>  <Rbt.Receptor>
prm/pocket_docking_6.prm

>  <SCORE>
-9.59764

>  <SCORE.INTER>
-6.36055

>  <SCORE.INTER.CONST>
1

>  <SCORE.INTER.POLAR>
0

>  <SCORE.INTER.ROT>
11

>  <SCORE.INTER.SOLV>
10.7925

>  <SCORE.INTER.VDW>
-18.7712

>  <SCORE.INTER.norm>
-0.454325

>  <SCORE.INTRA>
-3.23709

>  <SCORE.INTRA.DIHEDRAL>
-5.84851

>  <SCORE.INTRA.DIHEDRAL.0>
7.79482

>  <SCORE.INTRA.POLAR>
0

>  <SCORE.INTRA.POLAR.0>
0

>  <SCORE.INTRA.REPUL>
0

>  <SCORE.INTRA.REPUL.0>
0

>  <SCORE.INTRA.SOLV>
0.944133

>  <SCORE.INTRA.SOLV.lig_0>
-49.456

>  <SCORE.INTRA.VDW>
-0.784902

>  <SCORE.INTRA.VDW.0>
-0.478406

>  <SCORE.INTRA.norm>
-0.231221

>  <SCORE.RESTR>
0

>  <SCORE.RESTR.CAVITY>
0

>  <SCORE.RESTR.norm>
0

>  <SCORE.SYSTEM>
0

>  <SCORE.SYSTEM.CONST>
0

>  <SCORE.SYSTEM.DIHEDRAL>
0

>  <SCORE.SYSTEM.SOLV>
0

>  <SCORE.SYSTEM.norm>
0

>  <SCORE.heavy>
14

>  <SCORE.norm>
-0.685546

>  <RMSD>
3.996

$$$$
ligand
 OpenBabel11021811413D
libRbt.so/2013.1/901 2013/11/27
 14 13  0  0  0  0  0  0  0  0999 V2000
   43.3413   13.9115   17.9331 N   0  0  0  0  0  0  0  0  0  0  0  0
   43.3179   12.7819   16.9788 C   0  0  0  0  0  0  0  0  0  0  0  0
   41.9592   12.0493   17.0144 C   0  0  0  0  0  0  0  0  0  0  0  0
   41.6704   11.3001   18.3256 C   0  0  0  0  0  0  0  0  0  0  0  0
   42.6543   10.2042   18.5428 N   0  0  0  0  0  0  0  0  0  0  0  0
   42.0778    9.1660   19.4353 C   0  0  0  0  0  0  0  0  0  0  0  0
   43.0917    8.1060   19.9836 C   0  0  0  0  0  0  0  0  0  0  0  0
   42.4463    7.0205   20.8923 C   0  0  0  0  0  0  0  0  0  0  0  0
   43.4417    6.0417   21.4837 C   0  0  0  0  0  0  0  0  0  0  0  0
   44.1429    5.4088   20.3827 N   0  0  0  0  0  0  0  0  0  0  0  0
   45.3621    4.8600   20.9502 C   0  0  0  0  0  0  0  0  0  0  0  0
   46.3386    4.4284   19.8623 C   0  0  0  0  0  0  0  0  0  0  0  0
   45.6694    3.3047   19.0563 C   0  0  0  0  0  0  0  0  0  0  0  0
   46.4965    2.8662   17.9222 N   0  0  0  0  0  0  0  0  0  0  0  0
  1  2  1  0  0  0  0
  2  3  1  0  0  0  0
  3  4  1  0  0  0  0
  4  5  1  0  0  0  0
  5  6  1  0  0  0  0
  6  7  1  0  0  0  0
  7  8  1  0  0  0  0
  8  9  1  0  0  0  0
  9 10  1  0  0  0  0
 10 11  1  0  0  0  0
 11 12  1  0  0  0  0
 12 13  1  0  0  0  0
 13 14  1  0  0  0  0
M  END
>  <CHROM.1>
-67.42056233,-63.52401298,-156.26265159,-168.06666732,-178.90958481,-176.76834888
-57.93373473,160.58869096,-167.74138429,-62.83995060,176.52642741,43.71482292
7.96061116,19.19758199,-2.06419728,-0.80423028,2.53561722

>  <Name>
ligand

>  <RI>
0

>  <Rbt.Current_Directory>
/home/itssahil/PROJECTS/Mol_Feturizer/New_Systems/rnas/1TN1

>  <Rbt.Executable>
rbdock ($Id: //depot/dev/client3/rdock/2013.1/src/exe/rbdock.cxx#4 $)

>  <Rbt.Library>
libRbt.so (2013.1, Build901 2013/11/27)

>  <Rbt.Parameter_File>
/export/apps/rDock/src/rDock_2013.1_src/data/scripts/dock_solv.prm

>  <Rbt.Receptor>
prm/pocket_docking_8.prm

>  <SCORE>
-12.63

>  <SCORE.INTER>
-10.1324

>  <SCORE.INTER.CONST>
1

>  <SCORE.INTER.POLAR>
0

>  <SCORE.INTER.ROT>
11

>  <SCORE.INTER.SOLV>
16.0958

>  <SCORE.INTER.VDW>
-23.0535

>  <SCORE.INTER.norm>
-0.723744

>  <SCORE.INTRA>
-2.4976

>  <SCORE.INTRA.DIHEDRAL>
-6.47827

>  <SCORE.INTRA.DIHEDRAL.0>
7.79482

>  <SCORE.INTRA.POLAR>
0

>  <SCORE.INTRA.POLAR.0>
0

>  <SCORE.INTRA.REPUL>
0

>  <SCORE.INTRA.REPUL.0>
0

>  <SCORE.INTRA.SOLV>
2.41687

>  <SCORE.INTRA.SOLV.lig_0>
-49.456

>  <SCORE.INTRA.VDW>
-0.466895

>  <SCORE.INTRA.VDW.0>
-0.478406

>  <SCORE.INTRA.norm>
-0.1784

>  <SCORE.RESTR>
0

>  <SCORE.RESTR.CAVITY>
0

>  <SCORE.RESTR.norm>
0

>  <SCORE.SYSTEM>
0

>  <SCORE.SYSTEM.CONST>
0

>  <SCORE.SYSTEM.DIHEDRAL>
0

>  <SCORE.SYSTEM.SOLV>
0

>  <SCORE.SYSTEM.norm>
0

>  <SCORE.heavy>
14

>  <SCORE.norm>
-0.902144

>  <RMSD>
4.001

$$$$
ligand
 OpenBabel11021811413D
libRbt.so/2013.1/901 2013/11/27
 14 13  0  0  0  0  0  0  0  0999 V2000
   47.6041    1.7220   12.2935 N   0  0  0  0  0  0  0  0  0  0  0  0
   47.3981    2.8359   13.2442 C   0  0  0  0  0  0  0  0  0  0  0  0
   47.1626    2.3105   14.6769 C   0  0  0  0  0  0  0  0  0  0  0  0
   46.8733    3.4028   15.7195 C   0  0  0  0  0  0  0  0  0  0  0  0
   46.6939    2.8137   17.0750 N   0  0  0  0  0  0  0  0  0  0  0  0
   45.9793    3.7694   17.9597 C   0  0  0  0  0  0  0  0  0  0  0  0
   45.4464    3.1755   19.3070 C   0  0  0  0  0  0  0  0  0  0  0  0
   44.6547    4.1913   20.1798 C   0  0  0  0  0  0  0  0  0  0  0  0
   45.5017    5.3229   20.7283 C   0  0  0  0  0  0  0  0  0  0  0  0
   45.8252    6.2052   19.6232 N   0  0  0  0  0  0  0  0  0  0  0  0
   46.4094    7.3934   20.2204 C   0  0  0  0  0  0  0  0  0  0  0  0
   46.6360    8.4857   19.1818 C   0  0  0  0  0  0  0  0  0  0  0  0
   47.6216    7.9377   18.1385 C   0  0  0  0  0  0  0  0  0  0  0  0
   47.9061    8.9142   17.0764 N   0  0  0  0  0  0  0  0  0  0  0  0
  1  2  1  0  0  0  0
  2  3  1  0  0  0  0
  3  4  1  0  0  0  0
  4  5  1  0  0  0  0
  5  6  1  0  0  0  0
  6  7  1  0  0  0  0
  7  8  1  0  0  0  0
  8  9  1  0  0  0  0
  9 10  1  0  0  0  0
 10 11  1  0  0  0  0
 11 12  1  0  0  0  0
 12 13  1  0  0  0  0
 13 14  1  0  0  0  0
M  END
>  <CHROM.1>
-177.26566043,-178.54457229,-160.84962487,167.17086869,-177.66645511,-66.87882974
72.16995699,169.42263312,-172.74364864,-61.47183443,179.61408311,46.55070043
4.89142283,17.53071775,-1.28730984,1.09312294,0.63014126

>  <Name>
ligand

>  <RI>
0

>  <Rbt.Current_Directory>
/home/itssahil/PROJECTS/Mol_Feturizer/New_Systems/rnas/1TN1

>  <Rbt.Executable>
rbdock ($Id: //depot/dev/client3/rdock/2013.1/src/exe/rbdock.cxx#4 $)

>  <Rbt.Library>
libRbt.so (2013.1, Build901 2013/11/27)

>  <Rbt.Parameter_File>
/export/apps/rDock/src/rDock_2013.1_src/data/scripts/dock_solv.prm

>  <Rbt.Receptor>
prm/blind_docking_60.prm

>  <SCORE>
-6.0118

>  <SCORE.INTER>
-3.09907

>  <SCORE.INTER.CONST>
1

>  <SCORE.INTER.POLAR>
0

>  <SCORE.INTER.ROT>
11

>  <SCORE.INTER.SOLV>
9.22088

>  <SCORE.INTER.VDW>
-16.073

>  <SCORE.INTER.norm>
-0.221362

>  <SCORE.INTRA>
-2.91272

>  <SCORE.INTRA.DIHEDRAL>
-6.45124

>  <SCORE.INTRA.DIHEDRAL.0>
7.79482

>  <SCORE.INTRA.POLAR>
0

>  <SCORE.INTRA.POLAR.0>
0

>  <SCORE.INTRA.REPUL>
0

>  <SCORE.INTRA.REPUL.0>
0

>  <SCORE.INTRA.SOLV>
1.36102

>  <SCORE.INTRA.SOLV.lig_0>
-49.456

>  <SCORE.INTRA.VDW>
-0.367619

>  <SCORE.INTRA.VDW.0>
-0.478406

>  <SCORE.INTRA.norm>
-0.208052

>  <SCORE.RESTR>
0

>  <SCORE.RESTR.CAVITY>
0

>  <SCORE.RESTR.norm>
0

>  <SCORE.SYSTEM>
0

>  <SCORE.SYSTEM.CONST>
0

>  <SCORE.SYSTEM.DIHEDRAL>
0

>  <SCORE.SYSTEM.SOLV>
0

>  <SCORE.SYSTEM.norm>
0

>  <SCORE.heavy>
14

>  <SCORE.norm>
-0.429414

>  <RMSD>
4.055

$$$$
ligand
 OpenBabel11021811413D
libRbt.so/2013.1/901 2013/11/27
 14 13  0  0  0  0  0  0  0  0999 V2000
   46.5167   -1.5355   13.7678 N   0  0  0  0  0  0  0  0  0  0  0  0
   45.0451   -1.5548   13.9126 C   0  0  0  0  0  0  0  0  0  0  0  0
   44.5290   -0.2426   14.5416 C   0  0  0  0  0  0  0  0  0  0  0  0
   44.9725   -0.0122   15.9957 C   0  0  0  0  0  0  0  0  0  0  0  0
   44.3848    1.2421   16.5413 N   0  0  0  0  0  0  0  0  0  0  0  0
   44.3980    1.2115   18.0265 C   0  0  0  0  0  0  0  0  0  0  0  0
   45.7954    1.4385   18.6956 C   0  0  0  0  0  0  0  0  0  0  0  0
   46.3456    2.8856   18.5422 C   0  0  0  0  0  0  0  0  0  0  0  0
   45.6064    3.9164   19.3728 C   0  0  0  0  0  0  0  0  0  0  0  0
   46.2939    5.1838   19.2138 N   0  0  0  0  0  0  0  0  0  0  0  0
   45.5469    6.1441   20.0074 C   0  0  0  0  0  0  0  0  0  0  0  0
   46.4044    7.3486   20.3777 C   0  0  0  0  0  0  0  0  0  0  0  0
   46.7898    8.0633   19.0737 C   0  0  0  0  0  0  0  0  0  0  0  0
   45.6481    8.7626   18.4651 N   0  0  0  0  0  0  0  0  0  0  0  0
  1  2  1  0  0  0  0
  2  3  1  0  0  0  0
  3  4  1  0  0  0  0
  4  5  1  0  0  0  0
  5  6  1  0  0  0  0
  6  7  1  0  0  0  0
  7  8  1  0  0  0  0
  8  9  1  0  0  0  0
  9 10  1  0  0  0  0
 10 11  1  0  0  0  0
 11 12  1  0  0  0  0
 12 13  1  0  0  0  0
 13 14  1  0  0  0  0
M  END
>  <CHROM.1>
-65.85224535,-177.56599148,159.59516557,74.72672056,69.30075261,71.24886659
175.38963353,179.24799464,158.05388183,63.49259812,71.79041059,45.59113042
3.06067255,17.60981666,-2.25959278,1.41014338,1.20897105

>  <Name>
ligand

>  <RI>
0

>  <Rbt.Current_Directory>
/home/itssahil/PROJECTS/Mol_Feturizer/New_Systems/rnas/1TN1

>  <Rbt.Executable>
rbdock ($Id: //depot/dev/client3/rdock/2013.1/src/exe/rbdock.cxx#4 $)

>  <Rbt.Library>
libRbt.so (2013.1, Build901 2013/11/27)

>  <Rbt.Parameter_File>
/export/apps/rDock/src/rDock_2013.1_src/data/scripts/dock_solv.prm

>  <Rbt.Receptor>
prm/blind_docking_100.prm

>  <SCORE>
-7.91404

>  <SCORE.INTER>
-6.57003

>  <SCORE.INTER.CONST>
1

>  <SCORE.INTER.POLAR>
0

>  <SCORE.INTER.ROT>
11

>  <SCORE.INTER.SOLV>
12.7052

>  <SCORE.INTER.VDW>
-19.5484

>  <SCORE.INTER.norm>
-0.469288

>  <SCORE.INTRA>
-1.34402

>  <SCORE.INTRA.DIHEDRAL>
-5.33625

>  <SCORE.INTRA.DIHEDRAL.0>
7.79482

>  <SCORE.INTRA.POLAR>
0

>  <SCORE.INTRA.POLAR.0>
0

>  <SCORE.INTRA.REPUL>
0

>  <SCORE.INTRA.REPUL.0>
0

>  <SCORE.INTRA.SOLV>
2.83219

>  <SCORE.INTRA.SOLV.lig_0>
-49.456

>  <SCORE.INTRA.VDW>
-0.0919875

>  <SCORE.INTRA.VDW.0>
-0.478406

>  <SCORE.INTRA.norm>
-0.0960011

>  <SCORE.RESTR>
0

>  <SCORE.RESTR.CAVITY>
0

>  <SCORE.RESTR.norm>
0

>  <SCORE.SYSTEM>
0

>  <SCORE.SYSTEM.CONST>
0

>  <SCORE.SYSTEM.DIHEDRAL>
0

>  <SCORE.SYSTEM.SOLV>
0

>  <SCORE.SYSTEM.norm>
0

>  <SCORE.heavy>
14

>  <SCORE.norm>
-0.565289

>  <RMSD>
4.115

$$$$
ligand
 OpenBabel11021811413D
libRbt.so/2013.1/901 2013/11/27
 14 13  0  0  0  0  0  0  0  0999 V2000
   46.5424    2.9915   17.8640 N   0  0  0  0  0  0  0  0  0  0  0  0
   45.6869    3.2733   19.0369 C   0  0  0  0  0  0  0  0  0  0  0  0
   46.1692    4.5321   19.7898 C   0  0  0  0  0  0  0  0  0  0  0  0
   45.3080    4.9215   21.0026 C   0  0  0  0  0  0  0  0  0  0  0  0
   43.8937    5.1553   20.6008 N   0  0  0  0  0  0  0  0  0  0  0  0
   43.2134    6.0219   21.5972 C   0  0  0  0  0  0  0  0  0  0  0  0
   42.1727    7.0361   21.0136 C   0  0  0  0  0  0  0  0  0  0  0  0
   42.7666    8.0258   19.9704 C   0  0  0  0  0  0  0  0  0  0  0  0
   41.7754    9.0561   19.4656 C   0  0  0  0  0  0  0  0  0  0  0  0
   42.4413    9.8435   18.4454 N   0  0  0  0  0  0  0  0  0  0  0  0
   41.8370   11.1631   18.5035 C   0  0  0  0  0  0  0  0  0  0  0  0
   42.4808   12.1158   17.5029 C   0  0  0  0  0  0  0  0  0  0  0  0
   41.9432   13.5256   17.7915 C   0  0  0  0  0  0  0  0  0  0  0  0
   42.5480   14.5408   16.9161 N   0  0  0  0  0  0  0  0  0  0  0  0
  1  2  1  0  0  0  0
  2  3  1  0  0  0  0
  3  4  1  0  0  0  0
  4  5  1  0  0  0  0
  5  6  1  0  0  0  0
  6  7  1  0  0  0  0
  7  8  1  0  0  0  0
  8  9  1  0  0  0  0
  9 10  1  0  0  0  0
 10 11  1  0  0  0  0
 11 12  1  0  0  0  0
 12 13  1  0  0  0  0
 13 14  1  0  0  0  0
M  END
>  <CHROM.1>
178.28582257,-58.00212170,-157.51899221,143.96102532,-58.52117718,-176.73276740
-176.31270594,-149.90368202,178.18319552,-171.01252146,177.47089739,43.48402777
8.01440447,19.25034668,-1.06252671,0.79011209,-0.60700169

>  <Name>
ligand

>  <RI>
0

>  <Rbt.Current_Directory>
/home/itssahil/PROJECTS/Mol_Feturizer/New_Systems/rnas/1TN1

>  <Rbt.Executable>
rbdock ($Id: //depot/dev/client3/rdock/2013.1/src/exe/rbdock.cxx#4 $)

>  <Rbt.Library>
libRbt.so (2013.1, Build901 2013/11/27)

>  <Rbt.Parameter_File>
/export/apps/rDock/src/rDock_2013.1_src/data/scripts/dock_solv.prm

>  <Rbt.Receptor>
prm/pocket_docking_6.prm

>  <SCORE>
-13.6201

>  <SCORE.INTER>
-10.2839

>  <SCORE.INTER.CONST>
1

>  <SCORE.INTER.POLAR>
0

>  <SCORE.INTER.ROT>
11

>  <SCORE.INTER.SOLV>
17.014

>  <SCORE.INTER.VDW>
-23.4606

>  <SCORE.INTER.norm>
-0.734561

>  <SCORE.INTRA>
-3.33626

>  <SCORE.INTRA.DIHEDRAL>
-5.57809

>  <SCORE.INTRA.DIHEDRAL.0>
7.79482

>  <SCORE.INTRA.POLAR>
0

>  <SCORE.INTRA.POLAR.0>
0

>  <SCORE.INTRA.REPUL>
0

>  <SCORE.INTRA.REPUL.0>
0

>  <SCORE.INTRA.SOLV>
0.648026

>  <SCORE.INTRA.SOLV.lig_0>
-49.456

>  <SCORE.INTRA.VDW>
-0.871234

>  <SCORE.INTRA.VDW.0>
-0.478406

>  <SCORE.INTRA.norm>
-0.238305

>  <SCORE.RESTR>
0

>  <SCORE.RESTR.CAVITY>
0

>  <SCORE.RESTR.norm>
0

>  <SCORE.SYSTEM>
0

>  <SCORE.SYSTEM.CONST>
0

>  <SCORE.SYSTEM.DIHEDRAL>
0

>  <SCORE.SYSTEM.SOLV>
0

>  <SCORE.SYSTEM.norm>
0

>  <SCORE.heavy>
14

>  <SCORE.norm>
-0.972866

>  <RMSD>
4.149

$$$$
ligand
 OpenBabel11021811413D
libRbt.so/2013.1/901 2013/11/27
 14 13  0  0  0  0  0  0  0  0999 V2000
   45.7997   10.6440   18.7522 N   0  0  0  0  0  0  0  0  0  0  0  0
   46.5792    9.4473   19.1362 C   0  0  0  0  0  0  0  0  0  0  0  0
   45.6719    8.3691   19.7673 C   0  0  0  0  0  0  0  0  0  0  0  0
   46.3692    7.0266   20.0418 C   0  0  0  0  0  0  0  0  0  0  0  0
   45.4068    6.0237   20.5750 N   0  0  0  0  0  0  0  0  0  0  0  0
   45.9197    4.6483   20.3473 C   0  0  0  0  0  0  0  0  0  0  0  0
   45.8373    4.1311   18.8715 C   0  0  0  0  0  0  0  0  0  0  0  0
   46.2339    2.6366   18.6993 C   0  0  0  0  0  0  0  0  0  0  0  0
   46.2373    2.1627   17.2590 C   0  0  0  0  0  0  0  0  0  0  0  0
   47.2940    2.8740   16.5650 N   0  0  0  0  0  0  0  0  0  0  0  0
   47.0954    2.6020   15.1521 C   0  0  0  0  0  0  0  0  0  0  0  0
   48.3646    2.8644   14.3499 C   0  0  0  0  0  0  0  0  0  0  0  0
   48.6733    4.3662   14.4464 C   0  0  0  0  0  0  0  0  0  0  0  0
   47.6501    5.1874   13.7821 N   0  0  0  0  0  0  0  0  0  0  0  0
  1  2  1  0  0  0  0
  2  3  1  0  0  0  0
  3  4  1  0  0  0  0
  4  5  1  0  0  0  0
  5  6  1  0  0  0  0
  6  7  1  0  0  0  0
  7  8  1  0  0  0  0
  8  9  1  0  0  0  0
  9 10  1  0  0  0  0
 10 11  1  0  0  0  0
 11 12  1  0  0  0  0
 12 13  1  0  0  0  0
 13 14  1  0  0  0  0
M  END
>  <CHROM.1>
173.02417852,-176.72679730,158.27652305,-74.20203966,-173.52949679,-176.35492225
65.92551567,-168.84965927,-160.28267735,-64.46330515,-65.94425503,46.65235907
5.21270245,17.69618732,-2.24500589,-1.18915864,-3.08707667

>  <Name>
ligand

>  <RI>
0

>  <Rbt.Current_Directory>
/home/itssahil/PROJECTS/Mol_Feturizer/New_Systems/rnas/1TN1

>  <Rbt.Executable>
rbdock ($Id: //depot/dev/client3/rdock/2013.1/src/exe/rbdock.cxx#4 $)

>  <Rbt.Library>
libRbt.so (2013.1, Build901 2013/11/27)

>  <Rbt.Parameter_File>
/export/apps/rDock/src/rDock_2013.1_src/data/scripts/dock_solv.prm

>  <Rbt.Receptor>
prm/blind_docking_60.prm

>  <SCORE>
-5.67644

>  <SCORE.INTER>
-3.52845

>  <SCORE.INTER.CONST>
1

>  <SCORE.INTER.POLAR>
0

>  <SCORE.INTER.ROT>
11

>  <SCORE.INTER.SOLV>
9.77031

>  <SCORE.INTER.VDW>
-16.5424

>  <SCORE.INTER.norm>
-0.252032

>  <SCORE.INTRA>
-2.14799

>  <SCORE.INTRA.DIHEDRAL>
-6.12229

>  <SCORE.INTRA.DIHEDRAL.0>
7.79482

>  <SCORE.INTRA.POLAR>
0

>  <SCORE.INTRA.POLAR.0>
0

>  <SCORE.INTRA.REPUL>
0

>  <SCORE.INTRA.REPUL.0>
0

>  <SCORE.INTRA.SOLV>
2.11314

>  <SCORE.INTRA.SOLV.lig_0>
-49.456

>  <SCORE.INTRA.VDW>
-0.143408

>  <SCORE.INTRA.VDW.0>
-0.478406

>  <SCORE.INTRA.norm>
-0.153428

>  <SCORE.RESTR>
0

>  <SCORE.RESTR.CAVITY>
0

>  <SCORE.RESTR.norm>
0

>  <SCORE.SYSTEM>
0

>  <SCORE.SYSTEM.CONST>
0

>  <SCORE.SYSTEM.DIHEDRAL>
0

>  <SCORE.SYSTEM.SOLV>
0

>  <SCORE.SYSTEM.norm>
0

>  <SCORE.heavy>
14

>  <SCORE.norm>
-0.40546

>  <RMSD>
4.183

$$$$
ligand
 OpenBabel11021811413D
libRbt.so/2013.1/901 2013/11/27
 14 13  0  0  0  0  0  0  0  0999 V2000
   45.3686    8.8761   19.4960 N   0  0  0  0  0  0  0  0  0  0  0  0
   46.5069    8.0745   19.9949 C   0  0  0  0  0  0  0  0  0  0  0  0
   47.1616    7.2650   18.8546 C   0  0  0  0  0  0  0  0  0  0  0  0
   47.8066    8.1201   17.7515 C   0  0  0  0  0  0  0  0  0  0  0  0
   46.7730    8.8560   16.9727 N   0  0  0  0  0  0  0  0  0  0  0  0
   47.3790    9.4614   15.7591 C   0  0  0  0  0  0  0  0  0  0  0  0
   47.7817    8.4544   14.6295 C   0  0  0  0  0  0  0  0  0  0  0  0
   46.6166    7.5444   14.1450 C   0  0  0  0  0  0  0  0  0  0  0  0
   47.0176    6.5489   13.0740 C   0  0  0  0  0  0  0  0  0  0  0  0
   45.9628    5.5577   12.9783 N   0  0  0  0  0  0  0  0  0  0  0  0
   46.5270    4.3245   13.4986 C   0  0  0  0  0  0  0  0  0  0  0  0
   46.2273    4.1571   14.9837 C   0  0  0  0  0  0  0  0  0  0  0  0
   46.9290    2.8754   15.4578 C   0  0  0  0  0  0  0  0  0  0  0  0
   46.3799    1.6715   14.8160 N   0  0  0  0  0  0  0  0  0  0  0  0
  1  2  1  0  0  0  0
  2  3  1  0  0  0  0
  3  4  1  0  0  0  0
  4  5  1  0  0  0  0
  5  6  1  0  0  0  0
  6  7  1  0  0  0  0
  7  8  1  0  0  0  0
  8  9  1  0  0  0  0
  9 10  1  0  0  0  0
 10 11  1  0  0  0  0
 11 12  1  0  0  0  0
 12 13  1  0  0  0  0
 13 14  1  0  0  0  0
M  END
>  <CHROM.1>
64.04878428,-68.09677192,-169.04696360,71.50731729,55.53773853,-178.66198973
165.13684445,-110.71202238,93.42869875,-176.76880983,-64.77267282,46.74579393
6.55634066,15.88649001,1.31946509,1.43385842,0.99034109

>  <Name>
ligand

>  <RI>
0

>  <Rbt.Current_Directory>
/home/itssahil/PROJECTS/Mol_Feturizer/New_Systems/rnas/1TN1

>  <Rbt.Executable>
rbdock ($Id: //depot/dev/client3/rdock/2013.1/src/exe/rbdock.cxx#4 $)

>  <Rbt.Library>
libRbt.so (2013.1, Build901 2013/11/27)

>  <Rbt.Parameter_File>
/export/apps/rDock/src/rDock_2013.1_src/data/scripts/dock_solv.prm

>  <Rbt.Receptor>
prm/blind_docking_60.prm

>  <SCORE>
-0.589246

>  <SCORE.INTER>
-0.289281

>  <SCORE.INTER.CONST>
1

>  <SCORE.INTER.POLAR>
0

>  <SCORE.INTER.ROT>
11

>  <SCORE.INTER.SOLV>
10.4108

>  <SCORE.INTER.VDW>
-14.5964

>  <SCORE.INTER.norm>
-0.0206629

>  <SCORE.INTRA>
-0.299966

>  <SCORE.INTRA.DIHEDRAL>
-4.44738

>  <SCORE.INTRA.DIHEDRAL.0>
7.79482

>  <SCORE.INTRA.POLAR>
0

>  <SCORE.INTRA.POLAR.0>
0

>  <SCORE.INTRA.REPUL>
0

>  <SCORE.INTRA.REPUL.0>
0

>  <SCORE.INTRA.SOLV>
3.92741

>  <SCORE.INTRA.SOLV.lig_0>
-49.456

>  <SCORE.INTRA.VDW>
-0.039976

>  <SCORE.INTRA.VDW.0>
-0.478406

>  <SCORE.INTRA.norm>
-0.0214261

>  <SCORE.RESTR>
0

>  <SCORE.RESTR.CAVITY>
0

>  <SCORE.RESTR.norm>
0

>  <SCORE.SYSTEM>
0

>  <SCORE.SYSTEM.CONST>
0

>  <SCORE.SYSTEM.DIHEDRAL>
0

>  <SCORE.SYSTEM.SOLV>
0

>  <SCORE.SYSTEM.norm>
0

>  <SCORE.heavy>
14

>  <SCORE.norm>
-0.042089

>  <RMSD>
4.186

$$$$
ligand
 OpenBabel11021811413D
libRbt.so/2013.1/901 2013/11/27
 14 13  0  0  0  0  0  0  0  0999 V2000
   45.1163   -2.8292   13.1920 N   0  0  0  0  0  0  0  0  0  0  0  0
   44.7100   -2.1822   14.4583 C   0  0  0  0  0  0  0  0  0  0  0  0
   45.9387   -1.6847   15.2500 C   0  0  0  0  0  0  0  0  0  0  0  0
   45.6031   -0.9659   16.5670 C   0  0  0  0  0  0  0  0  0  0  0  0
   44.7811    0.2500   16.3178 N   0  0  0  0  0  0  0  0  0  0  0  0
   44.5046    0.9538   17.5965 C   0  0  0  0  0  0  0  0  0  0  0  0
   45.5121    2.0915   17.9743 C   0  0  0  0  0  0  0  0  0  0  0  0
   44.9728    3.0898   19.0386 C   0  0  0  0  0  0  0  0  0  0  0  0
   45.9434    4.2011   19.3879 C   0  0  0  0  0  0  0  0  0  0  0  0
   45.1799    5.2789   19.9877 N   0  0  0  0  0  0  0  0  0  0  0  0
   46.1555    6.1692   20.5921 C   0  0  0  0  0  0  0  0  0  0  0  0
   45.7483    7.6299   20.4378 C   0  0  0  0  0  0  0  0  0  0  0  0
   45.9576    8.0177   18.9661 C   0  0  0  0  0  0  0  0  0  0  0  0
   45.7152    9.4487   18.7288 N   0  0  0  0  0  0  0  0  0  0  0  0
  1  2  1  0  0  0  0
  2  3  1  0  0  0  0
  3  4  1  0  0  0  0
  4  5  1  0  0  0  0
  5  6  1  0  0  0  0
  6  7  1  0  0  0  0
  7  8  1  0  0  0  0
  8  9  1  0  0  0  0
  9 10  1  0  0  0  0
 10 11  1  0  0  0  0
 11 12  1  0  0  0  0
 12 13  1  0  0  0  0
 13 14  1  0  0  0  0
M  END
>  <CHROM.1>
178.53696901,-60.99955728,-178.17678519,93.27711814,161.56285565,-179.19474829
160.13765085,166.72453217,142.54640356,-72.74316785,-174.57594587,45.41714529
2.81910203,17.74991933,-2.52817074,1.49810303,1.43628326

>  <Name>
ligand

>  <RI>
0

>  <Rbt.Current_Directory>
/home/itssahil/PROJECTS/Mol_Feturizer/New_Systems/rnas/1TN1

>  <Rbt.Executable>
rbdock ($Id: //depot/dev/client3/rdock/2013.1/src/exe/rbdock.cxx#4 $)

>  <Rbt.Library>
libRbt.so (2013.1, Build901 2013/11/27)

>  <Rbt.Parameter_File>
/export/apps/rDock/src/rDock_2013.1_src/data/scripts/dock_solv.prm

>  <Rbt.Receptor>
prm/pocket_docking_8.prm

>  <SCORE>
-8.61611

>  <SCORE.INTER>
-6.84007

>  <SCORE.INTER.CONST>
1

>  <SCORE.INTER.POLAR>
0

>  <SCORE.INTER.ROT>
11

>  <SCORE.INTER.SOLV>
12.7606

>  <SCORE.INTER.VDW>
-19.7469

>  <SCORE.INTER.norm>
-0.488576

>  <SCORE.INTRA>
-1.7789

>  <SCORE.INTRA.DIHEDRAL>
-2.85305

>  <SCORE.INTRA.DIHEDRAL.0>
7.79482

>  <SCORE.INTRA.POLAR>
0

>  <SCORE.INTRA.POLAR.0>
0

>  <SCORE.INTRA.REPUL>
0

>  <SCORE.INTRA.REPUL.0>
0

>  <SCORE.INTRA.SOLV>
0.611053

>  <SCORE.INTRA.SOLV.lig_0>
-49.456

>  <SCORE.INTRA.VDW>
-0.657902

>  <SCORE.INTRA.VDW.0>
-0.478406

>  <SCORE.INTRA.norm>
-0.127064

>  <SCORE.RESTR>
0.00286033

>  <SCORE.RESTR.CAVITY>
0.00286033

>  <SCORE.RESTR.norm>
0.000204309

>  <SCORE.SYSTEM>
0

>  <SCORE.SYSTEM.CONST>
0

>  <SCORE.SYSTEM.DIHEDRAL>
0

>  <SCORE.SYSTEM.SOLV>
0

>  <SCORE.SYSTEM.norm>
0

>  <SCORE.heavy>
14

>  <SCORE.norm>
-0.615436

>  <RMSD>
4.189

$$$$
ligand
 OpenBabel11021811413D
libRbt.so/2013.1/901 2013/11/27
 14 13  0  0  0  0  0  0  0  0999 V2000
   46.9766    9.3492   18.6029 N   0  0  0  0  0  0  0  0  0  0  0  0
   46.3593    8.0223   18.8164 C   0  0  0  0  0  0  0  0  0  0  0  0
   46.0780    7.7722   20.3138 C   0  0  0  0  0  0  0  0  0  0  0  0
   45.3845    6.4345   20.6199 C   0  0  0  0  0  0  0  0  0  0  0  0
   46.2366    5.2847   20.2097 N   0  0  0  0  0  0  0  0  0  0  0  0
   45.3885    4.1581   19.7424 C   0  0  0  0  0  0  0  0  0  0  0  0
   46.1385    3.0226   18.9676 C   0  0  0  0  0  0  0  0  0  0  0  0
   45.2114    1.8813   18.4594 C   0  0  0  0  0  0  0  0  0  0  0  0
   45.9412    0.7821   17.7123 C   0  0  0  0  0  0  0  0  0  0  0  0
   44.9408   -0.0872   17.1225 N   0  0  0  0  0  0  0  0  0  0  0  0
   45.6525   -1.2779   16.6917 C   0  0  0  0  0  0  0  0  0  0  0  0
   45.9930   -1.2176   15.2072 C   0  0  0  0  0  0  0  0  0  0  0  0
   44.6701   -1.2245   14.4263 C   0  0  0  0  0  0  0  0  0  0  0  0
   44.8834   -1.1842   12.9718 N   0  0  0  0  0  0  0  0  0  0  0  0
  1  2  1  0  0  0  0
  2  3  1  0  0  0  0
  3  4  1  0  0  0  0
  4  5  1  0  0  0  0
  5  6  1  0  0  0  0
  6  7  1  0  0  0  0
  7  8  1  0  0  0  0
  8  9  1  0  0  0  0
  9 10  1  0  0  0  0
 10 11  1  0  0  0  0
 11 12  1  0  0  0  0
 12 13  1  0  0  0  0
 13 14  1  0  0  0  0
M  END
>  <CHROM.1>
177.73436212,62.20938537,-146.53106753,166.00758588,-178.34371335,-179.87585253
-171.08678545,-167.04962659,-97.57255871,-64.76810453,-179.34090313,45.70386276
2.97953619,17.84766003,-0.72012501,-1.43691023,-1.80774996

>  <Name>
ligand

>  <RI>
0

>  <Rbt.Current_Directory>
/home/itssahil/PROJECTS/Mol_Feturizer/New_Systems/rnas/1TN1

>  <Rbt.Executable>
rbdock ($Id: //depot/dev/client3/rdock/2013.1/src/exe/rbdock.cxx#4 $)

>  <Rbt.Library>
libRbt.so (2013.1, Build901 2013/11/27)

>  <Rbt.Parameter_File>
/export/apps/rDock/src/rDock_2013.1_src/data/scripts/dock_solv.prm

>  <Rbt.Receptor>
prm/pocket_docking_6.prm

>  <SCORE>
-10.3121

>  <SCORE.INTER>
-7.51994

>  <SCORE.INTER.CONST>
1

>  <SCORE.INTER.POLAR>
0

>  <SCORE.INTER.ROT>
11

>  <SCORE.INTER.SOLV>
14.5957

>  <SCORE.INTER.VDW>
-20.8119

>  <SCORE.INTER.norm>
-0.537139

>  <SCORE.INTRA>
-2.79213

>  <SCORE.INTRA.DIHEDRAL>
-5.53739

>  <SCORE.INTRA.DIHEDRAL.0>
7.79482

>  <SCORE.INTRA.POLAR>
0

>  <SCORE.INTRA.POLAR.0>
0

>  <SCORE.INTRA.REPUL>
0

>  <SCORE.INTRA.REPUL.0>
0

>  <SCORE.INTRA.SOLV>
0.720012

>  <SCORE.INTRA.SOLV.lig_0>
-49.456

>  <SCORE.INTRA.VDW>
-0.383443

>  <SCORE.INTRA.VDW.0>
-0.478406

>  <SCORE.INTRA.norm>
-0.199438

>  <SCORE.RESTR>
0

>  <SCORE.RESTR.CAVITY>
0

>  <SCORE.RESTR.norm>
0

>  <SCORE.SYSTEM>
0

>  <SCORE.SYSTEM.CONST>
0

>  <SCORE.SYSTEM.DIHEDRAL>
0

>  <SCORE.SYSTEM.SOLV>
0

>  <SCORE.SYSTEM.norm>
0

>  <SCORE.heavy>
14

>  <SCORE.norm>
-0.736577

>  <RMSD>
4.198

$$$$
ligand
 OpenBabel11021811413D
libRbt.so/2013.1/901 2013/11/27
 14 13  0  0  0  0  0  0  0  0999 V2000
   46.9816    7.7422   18.1689 N   0  0  0  0  0  0  0  0  0  0  0  0
   46.7939    8.2430   19.5477 C   0  0  0  0  0  0  0  0  0  0  0  0
   45.6169    7.5280   20.2458 C   0  0  0  0  0  0  0  0  0  0  0  0
   45.8516    6.0348   20.5274 C   0  0  0  0  0  0  0  0  0  0  0  0
   45.9776    5.2652   19.2593 N   0  0  0  0  0  0  0  0  0  0  0  0
   46.0577    3.8101   19.5476 C   0  0  0  0  0  0  0  0  0  0  0  0
   46.3622    2.8920   18.3161 C   0  0  0  0  0  0  0  0  0  0  0  0
   45.2933    2.9672   17.1882 C   0  0  0  0  0  0  0  0  0  0  0  0
   45.6039    2.0960   15.9868 C   0  0  0  0  0  0  0  0  0  0  0  0
   45.6892    0.7237   16.4494 N   0  0  0  0  0  0  0  0  0  0  0  0
   45.1401   -0.0916   15.3801 C   0  0  0  0  0  0  0  0  0  0  0  0
   45.4794   -1.5652   15.5720 C   0  0  0  0  0  0  0  0  0  0  0  0
   44.7917   -2.3509   14.4452 C   0  0  0  0  0  0  0  0  0  0  0  0
   45.2942   -1.9713   13.1163 N   0  0  0  0  0  0  0  0  0  0  0  0
  1  2  1  0  0  0  0
  2  3  1  0  0  0  0
  3  4  1  0  0  0  0
  4  5  1  0  0  0  0
  5  6  1  0  0  0  0
  6  7  1  0  0  0  0
  7  8  1  0  0  0  0
  8  9  1  0  0  0  0
  9 10  1  0  0  0  0
 10 11  1  0  0  0  0
 11 12  1  0  0  0  0
 12 13  1  0  0  0  0
 13 14  1  0  0  0  0
M  END
>  <CHROM.1>
67.24810408,-64.93052236,-173.95681022,-173.08400505,-60.80711217,178.96103662
59.63403442,144.42316396,165.73896577,176.76605907,62.93822816,45.78086594
2.95167577,17.41104681,-1.01081405,-1.36488087,-2.05333709

>  <Name>
ligand

>  <RI>
0

>  <Rbt.Current_Directory>
/home/itssahil/PROJECTS/Mol_Feturizer/New_Systems/rnas/1TN1

>  <Rbt.Executable>
rbdock ($Id: //depot/dev/client3/rdock/2013.1/src/exe/rbdock.cxx#4 $)

>  <Rbt.Library>
libRbt.so (2013.1, Build901 2013/11/27)

>  <Rbt.Parameter_File>
/export/apps/rDock/src/rDock_2013.1_src/data/scripts/dock_solv.prm

>  <Rbt.Receptor>
prm/blind_docking_100.prm

>  <SCORE>
-7.71147

>  <SCORE.INTER>
-6.10249

>  <SCORE.INTER.CONST>
1

>  <SCORE.INTER.POLAR>
0

>  <SCORE.INTER.ROT>
11

>  <SCORE.INTER.SOLV>
11.2364

>  <SCORE.INTER.VDW>
-18.7471

>  <SCORE.INTER.norm>
-0.435892

>  <SCORE.INTRA>
-1.60897

>  <SCORE.INTRA.DIHEDRAL>
-6.42634

>  <SCORE.INTRA.DIHEDRAL.0>
7.79482

>  <SCORE.INTRA.POLAR>
0

>  <SCORE.INTRA.POLAR.0>
0

>  <SCORE.INTRA.REPUL>
0

>  <SCORE.INTRA.REPUL.0>
0

>  <SCORE.INTRA.SOLV>
4.3523

>  <SCORE.INTRA.SOLV.lig_0>
-49.456

>  <SCORE.INTRA.VDW>
-0.571956

>  <SCORE.INTRA.VDW.0>
-0.478406

>  <SCORE.INTRA.norm>
-0.114927

>  <SCORE.RESTR>
0

>  <SCORE.RESTR.CAVITY>
0

>  <SCORE.RESTR.norm>
0

>  <SCORE.SYSTEM>
0

>  <SCORE.SYSTEM.CONST>
0

>  <SCORE.SYSTEM.DIHEDRAL>
0

>  <SCORE.SYSTEM.SOLV>
0

>  <SCORE.SYSTEM.norm>
0

>  <SCORE.heavy>
14

>  <SCORE.norm>
-0.550819

>  <RMSD>
4.208

$$$$
ligand
 OpenBabel11021811413D
libRbt.so/2013.1/901 2013/11/27
 14 13  0  0  0  0  0  0  0  0999 V2000
   51.5526    7.7951   17.0106 N   0  0  0  0  0  0  0  0  0  0  0  0
   50.7910    9.0011   17.4015 C   0  0  0  0  0  0  0  0  0  0  0  0
   49.4513    9.0865   16.6388 C   0  0  0  0  0  0  0  0  0  0  0  0
   48.4232    8.0120   17.0290 C   0  0  0  0  0  0  0  0  0  0  0  0
   47.8820    8.2607   18.3935 N   0  0  0  0  0  0  0  0  0  0  0  0
   46.8597    7.2383   18.7345 C   0  0  0  0  0  0  0  0  0  0  0  0
   46.3758    7.2356   20.2238 C   0  0  0  0  0  0  0  0  0  0  0  0
   45.3534    6.1115   20.5574 C   0  0  0  0  0  0  0  0  0  0  0  0
   45.9138    4.7093   20.4206 C   0  0  0  0  0  0  0  0  0  0  0  0
   46.0060    4.4093   19.0043 N   0  0  0  0  0  0  0  0  0  0  0  0
   46.0684    2.9614   18.9074 C   0  0  0  0  0  0  0  0  0  0  0  0
   45.6413    2.4759   17.5272 C   0  0  0  0  0  0  0  0  0  0  0  0
   46.6853    2.9733   16.5159 C   0  0  0  0  0  0  0  0  0  0  0  0
   46.3347    2.6143   15.1335 N   0  0  0  0  0  0  0  0  0  0  0  0
  1  2  1  0  0  0  0
  2  3  1  0  0  0  0
  3  4  1  0  0  0  0
  4  5  1  0  0  0  0
  5  6  1  0  0  0  0
  6  7  1  0  0  0  0
  7  8  1  0  0  0  0
  8  9  1  0  0  0  0
  9 10  1  0  0  0  0
 10 11  1  0  0  0  0
 11 12  1  0  0  0  0
 12 13  1  0  0  0  0
 13 14  1  0  0  0  0
M  END
>  <CHROM.1>
68.63339248,70.91877531,178.18610136,170.37787218,-177.41660611,64.11499531
-75.05095313,-159.91056206,158.34814383,66.03483453,-177.22052853,47.38109109
5.92035376,18.10730235,-0.56692171,-0.78404966,-2.43720302

>  <Name>
ligand

>  <RI>
0

>  <Rbt.Current_Directory>
/home/itssahil/PROJECTS/Mol_Feturizer/New_Systems/rnas/1TN1

>  <Rbt.Executable>
rbdock ($Id: //depot/dev/client3/rdock/2013.1/src/exe/rbdock.cxx#4 $)

>  <Rbt.Library>
libRbt.so (2013.1, Build901 2013/11/27)

>  <Rbt.Parameter_File>
/export/apps/rDock/src/rDock_2013.1_src/data/scripts/dock_solv.prm

>  <Rbt.Receptor>
prm/pocket_docking_8.prm

>  <SCORE>
-6.17927

>  <SCORE.INTER>
-4.45602

>  <SCORE.INTER.CONST>
1

>  <SCORE.INTER.POLAR>
0

>  <SCORE.INTER.ROT>
11

>  <SCORE.INTER.SOLV>
10.1152

>  <SCORE.INTER.VDW>
-17.2757

>  <SCORE.INTER.norm>
-0.318287

>  <SCORE.INTRA>
-1.72325

>  <SCORE.INTRA.DIHEDRAL>
-5.27761

>  <SCORE.INTRA.DIHEDRAL.0>
7.79482

>  <SCORE.INTRA.POLAR>
0

>  <SCORE.INTRA.POLAR.0>
0

>  <SCORE.INTRA.REPUL>
0

>  <SCORE.INTRA.REPUL.0>
0

>  <SCORE.INTRA.SOLV>
2.724

>  <SCORE.INTRA.SOLV.lig_0>
-49.456

>  <SCORE.INTRA.VDW>
-0.446443

>  <SCORE.INTRA.VDW.0>
-0.478406

>  <SCORE.INTRA.norm>
-0.123089

>  <SCORE.RESTR>
0

>  <SCORE.RESTR.CAVITY>
0

>  <SCORE.RESTR.norm>
0

>  <SCORE.SYSTEM>
0

>  <SCORE.SYSTEM.CONST>
0

>  <SCORE.SYSTEM.DIHEDRAL>
0

>  <SCORE.SYSTEM.SOLV>
0

>  <SCORE.SYSTEM.norm>
0

>  <SCORE.heavy>
14

>  <SCORE.norm>
-0.441376

>  <RMSD>
4.217

$$$$
ligand
 OpenBabel11021811413D
libRbt.so/2013.1/901 2013/11/27
 14 13  0  0  0  0  0  0  0  0999 V2000
   45.5938   -2.3808   13.1748 N   0  0  0  0  0  0  0  0  0  0  0  0
   44.3570   -2.0218   13.9017 C   0  0  0  0  0  0  0  0  0  0  0  0
   44.5226   -0.6867   14.6594 C   0  0  0  0  0  0  0  0  0  0  0  0
   45.5863   -0.7085   15.7693 C   0  0  0  0  0  0  0  0  0  0  0  0
   45.7096    0.6260   16.4177 N   0  0  0  0  0  0  0  0  0  0  0  0
   44.7288    0.7506   17.5265 C   0  0  0  0  0  0  0  0  0  0  0  0
   45.1831    1.6359   18.7355 C   0  0  0  0  0  0  0  0  0  0  0  0
   45.3759    3.1393   18.3847 C   0  0  0  0  0  0  0  0  0  0  0  0
   45.8028    3.9959   19.5607 C   0  0  0  0  0  0  0  0  0  0  0  0
   45.7790    5.3802   19.1275 N   0  0  0  0  0  0  0  0  0  0  0  0
   46.0379    6.1737   20.3162 C   0  0  0  0  0  0  0  0  0  0  0  0
   45.8605    7.6626   20.0423 C   0  0  0  0  0  0  0  0  0  0  0  0
   46.8948    8.0663   18.9806 C   0  0  0  0  0  0  0  0  0  0  0  0
   46.8119    9.4943   18.6390 N   0  0  0  0  0  0  0  0  0  0  0  0
  1  2  1  0  0  0  0
  2  3  1  0  0  0  0
  3  4  1  0  0  0  0
  4  5  1  0  0  0  0
  5  6  1  0  0  0  0
  6  7  1  0  0  0  0
  7  8  1  0  0  0  0
  8  9  1  0  0  0  0
  9 10  1  0  0  0  0
 10 11  1  0  0  0  0
 11 12  1  0  0  0  0
 12 13  1  0  0  0  0
 13 14  1  0  0  0  0
M  END
>  <CHROM.1>
-63.55410885,178.24881365,87.17271064,148.01094576,65.19145429,179.43820201
-172.99132713,173.45507667,-172.51572651,-62.27061350,-179.98195721,45.58870674
2.93750342,17.51712629,-2.06785268,1.29920981,0.97995139

>  <Name>
ligand

>  <RI>
0

>  <Rbt.Current_Directory>
/home/itssahil/PROJECTS/Mol_Feturizer/New_Systems/rnas/1TN1

>  <Rbt.Executable>
rbdock ($Id: //depot/dev/client3/rdock/2013.1/src/exe/rbdock.cxx#4 $)

>  <Rbt.Library>
libRbt.so (2013.1, Build901 2013/11/27)

>  <Rbt.Parameter_File>
/export/apps/rDock/src/rDock_2013.1_src/data/scripts/dock_solv.prm

>  <Rbt.Receptor>
prm/blind_docking_100.prm

>  <SCORE>
-9.56297

>  <SCORE.INTER>
-6.88256

>  <SCORE.INTER.CONST>
1

>  <SCORE.INTER.POLAR>
0

>  <SCORE.INTER.ROT>
11

>  <SCORE.INTER.SOLV>
12.1508

>  <SCORE.INTER.VDW>
-19.572

>  <SCORE.INTER.norm>
-0.491611

>  <SCORE.INTRA>
-2.68041

>  <SCORE.INTRA.DIHEDRAL>
-6.17541

>  <SCORE.INTRA.DIHEDRAL.0>
7.79482

>  <SCORE.INTRA.POLAR>
0

>  <SCORE.INTRA.POLAR.0>
0

>  <SCORE.INTRA.REPUL>
0

>  <SCORE.INTRA.REPUL.0>
0

>  <SCORE.INTRA.SOLV>
1.42695

>  <SCORE.INTRA.SOLV.lig_0>
-49.456

>  <SCORE.INTRA.VDW>
-0.306185

>  <SCORE.INTRA.VDW.0>
-0.478406

>  <SCORE.INTRA.norm>
-0.191458

>  <SCORE.RESTR>
0

>  <SCORE.RESTR.CAVITY>
0

>  <SCORE.RESTR.norm>
0

>  <SCORE.SYSTEM>
0

>  <SCORE.SYSTEM.CONST>
0

>  <SCORE.SYSTEM.DIHEDRAL>
0

>  <SCORE.SYSTEM.SOLV>
0

>  <SCORE.SYSTEM.norm>
0

>  <SCORE.heavy>
14

>  <SCORE.norm>
-0.683069

>  <RMSD>
4.237

$$$$
ligand
 OpenBabel11021811413D
libRbt.so/2013.1/901 2013/11/27
 14 13  0  0  0  0  0  0  0  0999 V2000
   43.7004   12.9985   16.5325 N   0  0  0  0  0  0  0  0  0  0  0  0
   42.5186   12.1452   16.7823 C   0  0  0  0  0  0  0  0  0  0  0  0
   42.5806   11.5028   18.1850 C   0  0  0  0  0  0  0  0  0  0  0  0
   41.3631   10.6362   18.5462 C   0  0  0  0  0  0  0  0  0  0  0  0
   41.5159   10.0382   19.9010 N   0  0  0  0  0  0  0  0  0  0  0  0
   40.8756    8.6985   19.9460 C   0  0  0  0  0  0  0  0  0  0  0  0
   41.6686    7.5953   20.7247 C   0  0  0  0  0  0  0  0  0  0  0  0
   43.1155    7.3647   20.2017 C   0  0  0  0  0  0  0  0  0  0  0  0
   43.8901    6.3162   20.9761 C   0  0  0  0  0  0  0  0  0  0  0  0
   45.1935    6.1837   20.3532 N   0  0  0  0  0  0  0  0  0  0  0  0
   45.7813    4.9790   20.9125 C   0  0  0  0  0  0  0  0  0  0  0  0
   46.3551    4.0807   19.8230 C   0  0  0  0  0  0  0  0  0  0  0  0
   45.1743    3.4197   19.0959 C   0  0  0  0  0  0  0  0  0  0  0  0
   45.6178    2.5099   18.0291 N   0  0  0  0  0  0  0  0  0  0  0  0
  1  2  1  0  0  0  0
  2  3  1  0  0  0  0
  3  4  1  0  0  0  0
  4  5  1  0  0  0  0
  5  6  1  0  0  0  0
  6  7  1  0  0  0  0
  7  8  1  0  0  0  0
  8  9  1  0  0  0  0
  9 10  1  0  0  0  0
 10 11  1  0  0  0  0
 11 12  1  0  0  0  0
 12 13  1  0  0  0  0
 13 14  1  0  0  0  0
M  END
>  <CHROM.1>
177.97340272,178.99281395,-146.78121185,138.94569743,-56.55217767,178.80399392
178.29986843,-167.25579295,131.98945228,-73.81612129,-179.17734676,43.52482899
7.74766655,19.28660481,-2.09693275,-0.68784939,2.56321424

>  <Name>
ligand

>  <RI>
0

>  <Rbt.Current_Directory>
/home/itssahil/PROJECTS/Mol_Feturizer/New_Systems/rnas/1TN1

>  <Rbt.Executable>
rbdock ($Id: //depot/dev/client3/rdock/2013.1/src/exe/rbdock.cxx#4 $)

>  <Rbt.Library>
libRbt.so (2013.1, Build901 2013/11/27)

>  <Rbt.Parameter_File>
/export/apps/rDock/src/rDock_2013.1_src/data/scripts/dock_solv.prm

>  <Rbt.Receptor>
prm/pocket_docking_6.prm

>  <SCORE>
-14.4556

>  <SCORE.INTER>
-11.7381

>  <SCORE.INTER.CONST>
1

>  <SCORE.INTER.POLAR>
0

>  <SCORE.INTER.ROT>
11

>  <SCORE.INTER.SOLV>
15.8006

>  <SCORE.INTER.VDW>
-24.0256

>  <SCORE.INTER.norm>
-0.838433

>  <SCORE.INTRA>
-2.71756

>  <SCORE.INTRA.DIHEDRAL>
-4.17673

>  <SCORE.INTRA.DIHEDRAL.0>
7.79482

>  <SCORE.INTRA.POLAR>
0

>  <SCORE.INTRA.POLAR.0>
0

>  <SCORE.INTRA.REPUL>
0

>  <SCORE.INTRA.REPUL.0>
0

>  <SCORE.INTRA.SOLV>
0.641738

>  <SCORE.INTRA.SOLV.lig_0>
-49.456

>  <SCORE.INTRA.VDW>
-0.950065

>  <SCORE.INTRA.VDW.0>
-0.478406

>  <SCORE.INTRA.norm>
-0.194111

>  <SCORE.RESTR>
0

>  <SCORE.RESTR.CAVITY>
0

>  <SCORE.RESTR.norm>
0

>  <SCORE.SYSTEM>
0

>  <SCORE.SYSTEM.CONST>
0

>  <SCORE.SYSTEM.DIHEDRAL>
0

>  <SCORE.SYSTEM.SOLV>
0

>  <SCORE.SYSTEM.norm>
0

>  <SCORE.heavy>
14

>  <SCORE.norm>
-1.03254

>  <RMSD>
4.249

$$$$
ligand
 OpenBabel11021811413D
libRbt.so/2013.1/901 2013/11/27
 14 13  0  0  0  0  0  0  0  0999 V2000
   44.1127   12.3806   15.8335 N   0  0  0  0  0  0  0  0  0  0  0  0
   43.6155   11.5929   16.9822 C   0  0  0  0  0  0  0  0  0  0  0  0
   42.1907   12.0313   17.3845 C   0  0  0  0  0  0  0  0  0  0  0  0
   41.6546   11.3685   18.6641 C   0  0  0  0  0  0  0  0  0  0  0  0
   41.5610    9.8915   18.5019 N   0  0  0  0  0  0  0  0  0  0  0  0
   41.0357    9.2708   19.7451 C   0  0  0  0  0  0  0  0  0  0  0  0
   41.5871    7.8425   20.0736 C   0  0  0  0  0  0  0  0  0  0  0  0
   43.1399    7.7543   20.1115 C   0  0  0  0  0  0  0  0  0  0  0  0
   43.6692    6.4061   20.5599 C   0  0  0  0  0  0  0  0  0  0  0  0
   45.1094    6.4199   20.3871 N   0  0  0  0  0  0  0  0  0  0  0  0
   45.5981    5.2088   21.0228 C   0  0  0  0  0  0  0  0  0  0  0  0
   46.3470    4.3230   20.0340 C   0  0  0  0  0  0  0  0  0  0  0  0
   45.3053    3.6746   19.1096 C   0  0  0  0  0  0  0  0  0  0  0  0
   45.9231    2.7890   18.1113 N   0  0  0  0  0  0  0  0  0  0  0  0
  1  2  1  0  0  0  0
  2  3  1  0  0  0  0
  3  4  1  0  0  0  0
  4  5  1  0  0  0  0
  5  6  1  0  0  0  0
  6  7  1  0  0  0  0
  7  8  1  0  0  0  0
  8  9  1  0  0  0  0
  9 10  1  0  0  0  0
 10 11  1  0  0  0  0
 11 12  1  0  0  0  0
 12 13  1  0  0  0  0
 13 14  1  0  0  0  0
M  END
>  <CHROM.1>
-173.77035948,-61.77361053,-179.73381420,-147.10834028,53.87765318,174.41389220
173.04096633,171.01740471,120.87304729,-73.60944786,-179.81919538,43.63187459
7.92529949,19.03755353,-2.07246613,-0.64840423,2.53831891

>  <Name>
ligand

>  <RI>
0

>  <Rbt.Current_Directory>
/home/itssahil/PROJECTS/Mol_Feturizer/New_Systems/rnas/1TN1

>  <Rbt.Executable>
rbdock ($Id: //depot/dev/client3/rdock/2013.1/src/exe/rbdock.cxx#4 $)

>  <Rbt.Library>
libRbt.so (2013.1, Build901 2013/11/27)

>  <Rbt.Parameter_File>
/export/apps/rDock/src/rDock_2013.1_src/data/scripts/dock_solv.prm

>  <Rbt.Receptor>
prm/pocket_docking_8.prm

>  <SCORE>
-14.1169

>  <SCORE.INTER>
-11.4848

>  <SCORE.INTER.CONST>
1

>  <SCORE.INTER.POLAR>
0

>  <SCORE.INTER.ROT>
11

>  <SCORE.INTER.SOLV>
16.2504

>  <SCORE.INTER.VDW>
-24.0067

>  <SCORE.INTER.norm>
-0.820345

>  <SCORE.INTRA>
-2.63211

>  <SCORE.INTRA.DIHEDRAL>
-4.55885

>  <SCORE.INTRA.DIHEDRAL.0>
7.79482

>  <SCORE.INTRA.POLAR>
0

>  <SCORE.INTRA.POLAR.0>
0

>  <SCORE.INTRA.REPUL>
0

>  <SCORE.INTRA.REPUL.0>
0

>  <SCORE.INTRA.SOLV>
0.981568

>  <SCORE.INTRA.SOLV.lig_0>
-49.456

>  <SCORE.INTRA.VDW>
-0.843472

>  <SCORE.INTRA.VDW.0>
-0.478406

>  <SCORE.INTRA.norm>
-0.188008

>  <SCORE.RESTR>
0

>  <SCORE.RESTR.CAVITY>
0

>  <SCORE.RESTR.norm>
0

>  <SCORE.SYSTEM>
0

>  <SCORE.SYSTEM.CONST>
0

>  <SCORE.SYSTEM.DIHEDRAL>
0

>  <SCORE.SYSTEM.SOLV>
0

>  <SCORE.SYSTEM.norm>
0

>  <SCORE.heavy>
14

>  <SCORE.norm>
-1.00835

>  <RMSD>
4.274

$$$$
ligand
 OpenBabel11021811413D
libRbt.so/2013.1/901 2013/11/27
 14 13  0  0  0  0  0  0  0  0999 V2000
   45.3362    2.0161   18.8825 N   0  0  0  0  0  0  0  0  0  0  0  0
   46.2302    3.1604   18.6023 C   0  0  0  0  0  0  0  0  0  0  0  0
   46.1962    4.1898   19.7526 C   0  0  0  0  0  0  0  0  0  0  0  0
   44.8001    4.7518   20.0672 C   0  0  0  0  0  0  0  0  0  0  0  0
   44.8677    5.7802   21.1415 N   0  0  0  0  0  0  0  0  0  0  0  0
   43.5072    6.2911   21.4495 C   0  0  0  0  0  0  0  0  0  0  0  0
   42.9071    7.2908   20.4041 C   0  0  0  0  0  0  0  0  0  0  0  0
   41.4339    7.7008   20.6906 C   0  0  0  0  0  0  0  0  0  0  0  0
   40.8587    8.6748   19.6810 C   0  0  0  0  0  0  0  0  0  0  0  0
   41.6018    9.9155   19.7946 N   0  0  0  0  0  0  0  0  0  0  0  0
   41.5784   10.5160   18.4723 C   0  0  0  0  0  0  0  0  0  0  0  0
   42.0539   11.9637   18.5088 C   0  0  0  0  0  0  0  0  0  0  0  0
   42.0633   12.4863   17.0642 C   0  0  0  0  0  0  0  0  0  0  0  0
   43.0821   11.8201   16.2390 N   0  0  0  0  0  0  0  0  0  0  0  0
  1  2  1  0  0  0  0
  2  3  1  0  0  0  0
  3  4  1  0  0  0  0
  4  5  1  0  0  0  0
  5  6  1  0  0  0  0
  6  7  1  0  0  0  0
  7  8  1  0  0  0  0
  8  9  1  0  0  0  0
  9 10  1  0  0  0  0
 10 11  1  0  0  0  0
 11 12  1  0  0  0  0
 12 13  1  0  0  0  0
 13 14  1  0  0  0  0
M  END
>  <CHROM.1>
-57.52068516,-177.34516081,-178.88606085,-75.80879544,174.61597984,179.66957041
-64.99238860,150.14585190,167.47355357,177.12303611,-67.21035251,43.32247337
7.61134793,19.33943475,-0.93984573,0.80075794,-0.69592982

>  <Name>
ligand

>  <RI>
0

>  <Rbt.Current_Directory>
/home/itssahil/PROJECTS/Mol_Feturizer/New_Systems/rnas/1TN1

>  <Rbt.Executable>
rbdock ($Id: //depot/dev/client3/rdock/2013.1/src/exe/rbdock.cxx#4 $)

>  <Rbt.Library>
libRbt.so (2013.1, Build901 2013/11/27)

>  <Rbt.Parameter_File>
/export/apps/rDock/src/rDock_2013.1_src/data/scripts/dock_solv.prm

>  <Rbt.Receptor>
prm/pocket_docking_6.prm

>  <SCORE>
-13.2641

>  <SCORE.INTER>
-10.7679

>  <SCORE.INTER.CONST>
1

>  <SCORE.INTER.POLAR>
0

>  <SCORE.INTER.ROT>
11

>  <SCORE.INTER.SOLV>
20.4949

>  <SCORE.INTER.VDW>
-24.9436

>  <SCORE.INTER.norm>
-0.769137

>  <SCORE.INTRA>
-2.49622

>  <SCORE.INTRA.DIHEDRAL>
-6.40117

>  <SCORE.INTRA.DIHEDRAL.0>
7.79482

>  <SCORE.INTRA.POLAR>
0

>  <SCORE.INTRA.POLAR.0>
0

>  <SCORE.INTRA.REPUL>
0

>  <SCORE.INTRA.REPUL.0>
0

>  <SCORE.INTRA.SOLV>
1.87969

>  <SCORE.INTRA.SOLV.lig_0>
-49.456

>  <SCORE.INTRA.VDW>
-0.235484

>  <SCORE.INTRA.VDW.0>
-0.478406

>  <SCORE.INTRA.norm>
-0.178302

>  <SCORE.RESTR>
0

>  <SCORE.RESTR.CAVITY>
0

>  <SCORE.RESTR.norm>
0

>  <SCORE.SYSTEM>
0

>  <SCORE.SYSTEM.CONST>
0

>  <SCORE.SYSTEM.DIHEDRAL>
0

>  <SCORE.SYSTEM.SOLV>
0

>  <SCORE.SYSTEM.norm>
0

>  <SCORE.heavy>
14

>  <SCORE.norm>
-0.947439

>  <RMSD>
4.291

$$$$
ligand
 OpenBabel11021811413D
libRbt.so/2013.1/901 2013/11/27
 14 13  0  0  0  0  0  0  0  0999 V2000
   46.3217    8.7083   18.8109 N   0  0  0  0  0  0  0  0  0  0  0  0
   46.4183    8.2318   20.2076 C   0  0  0  0  0  0  0  0  0  0  0  0
   45.1706    7.4141   20.6059 C   0  0  0  0  0  0  0  0  0  0  0  0
   45.0134    6.0808   19.8565 C   0  0  0  0  0  0  0  0  0  0  0  0
   46.1004    5.1313   20.2216 N   0  0  0  0  0  0  0  0  0  0  0  0
   46.1205    3.9858   19.2759 C   0  0  0  0  0  0  0  0  0  0  0  0
   44.8960    3.0138   19.3643 C   0  0  0  0  0  0  0  0  0  0  0  0
   45.1477    1.6158   18.7298 C   0  0  0  0  0  0  0  0  0  0  0  0
   45.2918    1.6417   17.2207 C   0  0  0  0  0  0  0  0  0  0  0  0
   45.5538    0.2844   16.7809 N   0  0  0  0  0  0  0  0  0  0  0  0
   44.9553    0.1707   15.4623 C   0  0  0  0  0  0  0  0  0  0  0  0
   45.1193   -1.2343   14.8947 C   0  0  0  0  0  0  0  0  0  0  0  0
   44.4890   -1.2462   13.4938 C   0  0  0  0  0  0  0  0  0  0  0  0
   44.6122   -2.5578   12.8403 N   0  0  0  0  0  0  0  0  0  0  0  0
  1  2  1  0  0  0  0
  2  3  1  0  0  0  0
  3  4  1  0  0  0  0
  4  5  1  0  0  0  0
  5  6  1  0  0  0  0
  6  7  1  0  0  0  0
  7  8  1  0  0  0  0
  8  9  1  0  0  0  0
  9 10  1  0  0  0  0
 10 11  1  0  0  0  0
 11 12  1  0  0  0  0
 12 13  1  0  0  0  0
 13 14  1  0  0  0  0
M  END
>  <CHROM.1>
66.50787207,66.49926223,-167.03035349,-68.46615562,-160.98434621,-68.42144256
178.57520141,148.33260361,-178.16865212,-178.66250837,179.04119618,45.37202280
2.94575920,17.69774432,-0.60833297,-1.44961756,-1.59415870

>  <Name>
ligand

>  <RI>
0

>  <Rbt.Current_Directory>
/home/itssahil/PROJECTS/Mol_Feturizer/New_Systems/rnas/1TN1

>  <Rbt.Executable>
rbdock ($Id: //depot/dev/client3/rdock/2013.1/src/exe/rbdock.cxx#4 $)

>  <Rbt.Library>
libRbt.so (2013.1, Build901 2013/11/27)

>  <Rbt.Parameter_File>
/export/apps/rDock/src/rDock_2013.1_src/data/scripts/dock_solv.prm

>  <Rbt.Receptor>
prm/blind_docking_100.prm

>  <SCORE>
-7.87384

>  <SCORE.INTER>
-6.06949

>  <SCORE.INTER.CONST>
1

>  <SCORE.INTER.POLAR>
0

>  <SCORE.INTER.ROT>
11

>  <SCORE.INTER.SOLV>
12.2284

>  <SCORE.INTER.VDW>
-19.0558

>  <SCORE.INTER.norm>
-0.433535

>  <SCORE.INTRA>
-1.80434

>  <SCORE.INTRA.DIHEDRAL>
-5.06237

>  <SCORE.INTRA.DIHEDRAL.0>
7.79482

>  <SCORE.INTRA.POLAR>
0

>  <SCORE.INTRA.POLAR.0>
0

>  <SCORE.INTRA.REPUL>
0

>  <SCORE.INTRA.REPUL.0>
0

>  <SCORE.INTRA.SOLV>
1.58341

>  <SCORE.INTRA.SOLV.lig_0>
-49.456

>  <SCORE.INTRA.VDW>
-0.0648625

>  <SCORE.INTRA.VDW.0>
-0.478406

>  <SCORE.INTRA.norm>
-0.128882

>  <SCORE.RESTR>
0

>  <SCORE.RESTR.CAVITY>
0

>  <SCORE.RESTR.norm>
0

>  <SCORE.SYSTEM>
0

>  <SCORE.SYSTEM.CONST>
0

>  <SCORE.SYSTEM.DIHEDRAL>
0

>  <SCORE.SYSTEM.SOLV>
0

>  <SCORE.SYSTEM.norm>
0

>  <SCORE.heavy>
14

>  <SCORE.norm>
-0.562417

>  <RMSD>
4.305

$$$$
ligand
 OpenBabel11021811413D
libRbt.so/2013.1/901 2013/11/27
 14 13  0  0  0  0  0  0  0  0999 V2000
   46.3974    1.6656   13.5175 N   0  0  0  0  0  0  0  0  0  0  0  0
   45.6846    0.4535   13.0592 C   0  0  0  0  0  0  0  0  0  0  0  0
   44.4590    0.1565   13.9500 C   0  0  0  0  0  0  0  0  0  0  0  0
   44.7989   -0.2174   15.4021 C   0  0  0  0  0  0  0  0  0  0  0  0
   45.3620    0.9489   16.1364 N   0  0  0  0  0  0  0  0  0  0  0  0
   45.6709    0.5716   17.5396 C   0  0  0  0  0  0  0  0  0  0  0  0
   46.3647    1.6800   18.4012 C   0  0  0  0  0  0  0  0  0  0  0  0
   45.4752    2.9288   18.6652 C   0  0  0  0  0  0  0  0  0  0  0  0
   46.1620    4.0145   19.4705 C   0  0  0  0  0  0  0  0  0  0  0  0
   45.2205    5.1068   19.6281 N   0  0  0  0  0  0  0  0  0  0  0  0
   45.8649    6.0636   20.5107 C   0  0  0  0  0  0  0  0  0  0  0  0
   44.9318    7.2174   20.8590 C   0  0  0  0  0  0  0  0  0  0  0  0
   44.6881    8.0224   19.5735 C   0  0  0  0  0  0  0  0  0  0  0  0
   45.9108    8.6818   19.0908 N   0  0  0  0  0  0  0  0  0  0  0  0
  1  2  1  0  0  0  0
  2  3  1  0  0  0  0
  3  4  1  0  0  0  0
  4  5  1  0  0  0  0
  5  6  1  0  0  0  0
  6  7  1  0  0  0  0
  7  8  1  0  0  0  0
  8  9  1  0  0  0  0
  9 10  1  0  0  0  0
 10 11  1  0  0  0  0
 11 12  1  0  0  0  0
 12 13  1  0  0  0  0
 13 14  1  0  0  0  0
M  END
>  <CHROM.1>
-65.59260085,68.15673907,179.43136780,175.89817522,65.69363968,-178.56216495
179.69176163,174.53966812,-175.17136347,-67.15552962,-66.01118388,45.49924875
3.37784446,17.55758855,1.55537160,1.52412977,-2.44224634

>  <Name>
ligand

>  <RI>
0

>  <Rbt.Current_Directory>
/home/itssahil/PROJECTS/Mol_Feturizer/New_Systems/rnas/1TN1

>  <Rbt.Executable>
rbdock ($Id: //depot/dev/client3/rdock/2013.1/src/exe/rbdock.cxx#4 $)

>  <Rbt.Library>
libRbt.so (2013.1, Build901 2013/11/27)

>  <Rbt.Parameter_File>
/export/apps/rDock/src/rDock_2013.1_src/data/scripts/dock_solv.prm

>  <Rbt.Receptor>
prm/blind_docking_60.prm

>  <SCORE>
-7.49064

>  <SCORE.INTER>
-5.73834

>  <SCORE.INTER.CONST>
1

>  <SCORE.INTER.POLAR>
0

>  <SCORE.INTER.ROT>
11

>  <SCORE.INTER.SOLV>
10.6474

>  <SCORE.INTER.VDW>
-18.308

>  <SCORE.INTER.norm>
-0.409882

>  <SCORE.INTRA>
-1.7523

>  <SCORE.INTRA.DIHEDRAL>
-6.91413

>  <SCORE.INTRA.DIHEDRAL.0>
7.79482

>  <SCORE.INTRA.POLAR>
0

>  <SCORE.INTRA.POLAR.0>
0

>  <SCORE.INTRA.REPUL>
0

>  <SCORE.INTRA.REPUL.0>
0

>  <SCORE.INTRA.SOLV>
4.83328

>  <SCORE.INTRA.SOLV.lig_0>
-49.456

>  <SCORE.INTRA.VDW>
-0.711874

>  <SCORE.INTRA.VDW.0>
-0.478406

>  <SCORE.INTRA.norm>
-0.125164

>  <SCORE.RESTR>
0

>  <SCORE.RESTR.CAVITY>
0

>  <SCORE.RESTR.norm>
0

>  <SCORE.SYSTEM>
0

>  <SCORE.SYSTEM.CONST>
0

>  <SCORE.SYSTEM.DIHEDRAL>
0

>  <SCORE.SYSTEM.SOLV>
0

>  <SCORE.SYSTEM.norm>
0

>  <SCORE.heavy>
14

>  <SCORE.norm>
-0.535046

>  <RMSD>
4.310

$$$$
ligand
 OpenBabel11021811413D
libRbt.so/2013.1/901 2013/11/27
 14 13  0  0  0  0  0  0  0  0999 V2000
   45.5825    9.9830   18.9147 N   0  0  0  0  0  0  0  0  0  0  0  0
   46.7283    9.1008   19.2245 C   0  0  0  0  0  0  0  0  0  0  0  0
   46.3273    7.9961   20.2259 C   0  0  0  0  0  0  0  0  0  0  0  0
   45.2243    7.0488   19.7257 C   0  0  0  0  0  0  0  0  0  0  0  0
   44.9537    5.9725   20.7181 N   0  0  0  0  0  0  0  0  0  0  0  0
   44.9067    4.6507   20.0419 C   0  0  0  0  0  0  0  0  0  0  0  0
   46.2819    4.1021   19.5320 C   0  0  0  0  0  0  0  0  0  0  0  0
   46.1772    2.7749   18.7270 C   0  0  0  0  0  0  0  0  0  0  0  0
   45.5723    2.9386   17.3463 C   0  0  0  0  0  0  0  0  0  0  0  0
   46.4883    3.7404   16.5575 N   0  0  0  0  0  0  0  0  0  0  0  0
   45.9272    3.7840   15.2184 C   0  0  0  0  0  0  0  0  0  0  0  0
   46.9646    4.2268   14.1932 C   0  0  0  0  0  0  0  0  0  0  0  0
   47.2207    5.7261   14.4089 C   0  0  0  0  0  0  0  0  0  0  0  0
   48.0175    5.9854   15.6174 N   0  0  0  0  0  0  0  0  0  0  0  0
  1  2  1  0  0  0  0
  2  3  1  0  0  0  0
  3  4  1  0  0  0  0
  4  5  1  0  0  0  0
  5  6  1  0  0  0  0
  6  7  1  0  0  0  0
  7  8  1  0  0  0  0
  8  9  1  0  0  0  0
  9 10  1  0  0  0  0
 10 11  1  0  0  0  0
 11 12  1  0  0  0  0
 12 13  1  0  0  0  0
 13 14  1  0  0  0  0
M  END
>  <CHROM.1>
61.32739237,176.82382654,-132.78903516,71.19567173,-175.18959535,72.02634559
65.90276368,175.58189269,-162.98154748,-71.92880181,73.74574650,46.16941700
5.57323512,17.88936248,-2.05336338,-1.23412611,-2.76308569

>  <Name>
ligand

>  <RI>
0

>  <Rbt.Current_Directory>
/home/itssahil/PROJECTS/Mol_Feturizer/New_Systems/rnas/1TN1

>  <Rbt.Executable>
rbdock ($Id: //depot/dev/client3/rdock/2013.1/src/exe/rbdock.cxx#4 $)

>  <Rbt.Library>
libRbt.so (2013.1, Build901 2013/11/27)

>  <Rbt.Parameter_File>
/export/apps/rDock/src/rDock_2013.1_src/data/scripts/dock_solv.prm

>  <Rbt.Receptor>
prm/pocket_docking_5.prm

>  <SCORE>
-4.13274

>  <SCORE.INTER>
-3.66336

>  <SCORE.INTER.CONST>
1

>  <SCORE.INTER.POLAR>
0

>  <SCORE.INTER.ROT>
11

>  <SCORE.INTER.SOLV>
11.9063

>  <SCORE.INTER.VDW>
-17.3443

>  <SCORE.INTER.norm>
-0.261668

>  <SCORE.INTRA>
-0.469383

>  <SCORE.INTRA.DIHEDRAL>
-4.33028

>  <SCORE.INTRA.DIHEDRAL.0>
7.79482

>  <SCORE.INTRA.POLAR>
0

>  <SCORE.INTRA.POLAR.0>
0

>  <SCORE.INTRA.REPUL>
0

>  <SCORE.INTRA.REPUL.0>
0

>  <SCORE.INTRA.SOLV>
3.98686

>  <SCORE.INTRA.SOLV.lig_0>
-49.456

>  <SCORE.INTRA.VDW>
-0.297674

>  <SCORE.INTRA.VDW.0>
-0.478406

>  <SCORE.INTRA.norm>
-0.0335274

>  <SCORE.RESTR>
0

>  <SCORE.RESTR.CAVITY>
0

>  <SCORE.RESTR.norm>
0

>  <SCORE.SYSTEM>
0

>  <SCORE.SYSTEM.CONST>
0

>  <SCORE.SYSTEM.DIHEDRAL>
0

>  <SCORE.SYSTEM.SOLV>
0

>  <SCORE.SYSTEM.norm>
0

>  <SCORE.heavy>
14

>  <SCORE.norm>
-0.295196

>  <RMSD>
4.364

$$$$
ligand
 OpenBabel11021811413D
libRbt.so/2013.1/901 2013/11/27
 14 13  0  0  0  0  0  0  0  0999 V2000
   47.8647    6.3337   13.9452 N   0  0  0  0  0  0  0  0  0  0  0  0
   47.1021    5.2574   13.2765 C   0  0  0  0  0  0  0  0  0  0  0  0
   46.1138    4.5840   14.2532 C   0  0  0  0  0  0  0  0  0  0  0  0
   46.7765    3.8675   15.4412 C   0  0  0  0  0  0  0  0  0  0  0  0
   45.7568    3.2169   16.3091 N   0  0  0  0  0  0  0  0  0  0  0  0
   46.4162    2.5282   17.4483 C   0  0  0  0  0  0  0  0  0  0  0  0
   45.9185    2.9477   18.8725 C   0  0  0  0  0  0  0  0  0  0  0  0
   46.1331    4.4528   19.2025 C   0  0  0  0  0  0  0  0  0  0  0  0
   45.6768    4.8493   20.5930 C   0  0  0  0  0  0  0  0  0  0  0  0
   45.9408    6.2665   20.7546 N   0  0  0  0  0  0  0  0  0  0  0  0
   44.7147    6.9458   20.3741 C   0  0  0  0  0  0  0  0  0  0  0  0
   44.9744    8.4027   20.0092 C   0  0  0  0  0  0  0  0  0  0  0  0
   45.8782    8.4166   18.7670 C   0  0  0  0  0  0  0  0  0  0  0  0
   46.1850    9.7832   18.3186 N   0  0  0  0  0  0  0  0  0  0  0  0
  1  2  1  0  0  0  0
  2  3  1  0  0  0  0
  3  4  1  0  0  0  0
  4  5  1  0  0  0  0
  5  6  1  0  0  0  0
  6  7  1  0  0  0  0
  7  8  1  0  0  0  0
  8  9  1  0  0  0  0
  9 10  1  0  0  0  0
 10 11  1  0  0  0  0
 11 12  1  0  0  0  0
 12 13  1  0  0  0  0
 13 14  1  0  0  0  0
M  END
>  <CHROM.1>
-63.15592435,-178.45205672,179.87335583,124.68050233,-60.84726510,-178.77943501
179.87376732,93.31993342,-159.41490374,63.82795754,179.52030040,46.10353923
5.56052812,17.68334870,-0.49611184,1.33200056,0.00509342

>  <Name>
ligand

>  <RI>
0

>  <Rbt.Current_Directory>
/home/itssahil/PROJECTS/Mol_Feturizer/New_Systems/rnas/1TN1

>  <Rbt.Executable>
rbdock ($Id: //depot/dev/client3/rdock/2013.1/src/exe/rbdock.cxx#4 $)

>  <Rbt.Library>
libRbt.so (2013.1, Build901 2013/11/27)

>  <Rbt.Parameter_File>
/export/apps/rDock/src/rDock_2013.1_src/data/scripts/dock_solv.prm

>  <Rbt.Receptor>
prm/blind_docking_60.prm

>  <SCORE>
-7.8262

>  <SCORE.INTER>
-5.50433

>  <SCORE.INTER.CONST>
1

>  <SCORE.INTER.POLAR>
0

>  <SCORE.INTER.ROT>
11

>  <SCORE.INTER.SOLV>
10.7415

>  <SCORE.INTER.VDW>
-18.1834

>  <SCORE.INTER.norm>
-0.393167

>  <SCORE.INTRA>
-2.32186

>  <SCORE.INTRA.DIHEDRAL>
-5.4811

>  <SCORE.INTRA.DIHEDRAL.0>
7.79482

>  <SCORE.INTRA.POLAR>
0

>  <SCORE.INTRA.POLAR.0>
0

>  <SCORE.INTRA.REPUL>
0

>  <SCORE.INTRA.REPUL.0>
0

>  <SCORE.INTRA.SOLV>
1.43331

>  <SCORE.INTRA.SOLV.lig_0>
-49.456

>  <SCORE.INTRA.VDW>
-0.297969

>  <SCORE.INTRA.VDW.0>
-0.478406

>  <SCORE.INTRA.norm>
-0.165847

>  <SCORE.RESTR>
0

>  <SCORE.RESTR.CAVITY>
0

>  <SCORE.RESTR.norm>
0

>  <SCORE.SYSTEM>
0

>  <SCORE.SYSTEM.CONST>
0

>  <SCORE.SYSTEM.DIHEDRAL>
0

>  <SCORE.SYSTEM.SOLV>
0

>  <SCORE.SYSTEM.norm>
0

>  <SCORE.heavy>
14

>  <SCORE.norm>
-0.559014

>  <RMSD>
4.399

$$$$
ligand
 OpenBabel11021811413D
libRbt.so/2013.1/901 2013/11/27
 14 13  0  0  0  0  0  0  0  0999 V2000
   45.3427   -2.7710   12.9149 N   0  0  0  0  0  0  0  0  0  0  0  0
   44.3106   -2.5269   13.9455 C   0  0  0  0  0  0  0  0  0  0  0  0
   44.4686   -1.1247   14.5723 C   0  0  0  0  0  0  0  0  0  0  0  0
   45.7653   -0.9246   15.3740 C   0  0  0  0  0  0  0  0  0  0  0  0
   45.7985    0.4214   16.0092 N   0  0  0  0  0  0  0  0  0  0  0  0
   45.2096    0.3608   17.3717 C   0  0  0  0  0  0  0  0  0  0  0  0
   45.8730    1.2964   18.4378 C   0  0  0  0  0  0  0  0  0  0  0  0
   45.6483    2.8139   18.1788 C   0  0  0  0  0  0  0  0  0  0  0  0
   46.1628    3.7105   19.2880 C   0  0  0  0  0  0  0  0  0  0  0  0
   45.7780    5.0717   18.9667 N   0  0  0  0  0  0  0  0  0  0  0  0
   46.0198    5.8482   20.1702 C   0  0  0  0  0  0  0  0  0  0  0  0
   45.7185    7.3261   19.9502 C   0  0  0  0  0  0  0  0  0  0  0  0
   46.7211    7.8555   18.9137 C   0  0  0  0  0  0  0  0  0  0  0  0
   46.4591    9.2569   18.5527 N   0  0  0  0  0  0  0  0  0  0  0  0
  1  2  1  0  0  0  0
  2  3  1  0  0  0  0
  3  4  1  0  0  0  0
  4  5  1  0  0  0  0
  5  6  1  0  0  0  0
  6  7  1  0  0  0  0
  7  8  1  0  0  0  0
  8  9  1  0  0  0  0
  9 10  1  0  0  0  0
 10 11  1  0  0  0  0
 11 12  1  0  0  0  0
 12 13  1  0  0  0  0
 13 14  1  0  0  0  0
M  END
>  <CHROM.1>
-65.31153588,-176.59385698,90.95388177,144.71996736,67.75236997,173.81602551
-174.92241936,167.76826679,177.22711181,-64.85635949,175.90959678,45.66250291
2.61514287,17.33211297,-2.96519362,1.45452242,1.89319075

>  <Name>
ligand

>  <RI>
0

>  <Rbt.Current_Directory>
/home/itssahil/PROJECTS/Mol_Feturizer/New_Systems/rnas/1TN1

>  <Rbt.Executable>
rbdock ($Id: //depot/dev/client3/rdock/2013.1/src/exe/rbdock.cxx#4 $)

>  <Rbt.Library>
libRbt.so (2013.1, Build901 2013/11/27)

>  <Rbt.Parameter_File>
/export/apps/rDock/src/rDock_2013.1_src/data/scripts/dock_solv.prm

>  <Rbt.Receptor>
prm/pocket_docking_5.prm

>  <SCORE>
-9.96436

>  <SCORE.INTER>
-7.46798

>  <SCORE.INTER.CONST>
1

>  <SCORE.INTER.POLAR>
0

>  <SCORE.INTER.ROT>
11

>  <SCORE.INTER.SOLV>
11.3565

>  <SCORE.INTER.VDW>
-19.6975

>  <SCORE.INTER.norm>
-0.533427

>  <SCORE.INTRA>
-2.49638

>  <SCORE.INTRA.DIHEDRAL>
-5.49399

>  <SCORE.INTRA.DIHEDRAL.0>
7.79482

>  <SCORE.INTRA.POLAR>
0

>  <SCORE.INTRA.POLAR.0>
0

>  <SCORE.INTRA.REPUL>
0

>  <SCORE.INTRA.REPUL.0>
0

>  <SCORE.INTRA.SOLV>
1.38641

>  <SCORE.INTRA.SOLV.lig_0>
-49.456

>  <SCORE.INTRA.VDW>
-0.44259

>  <SCORE.INTRA.VDW.0>
-0.478406

>  <SCORE.INTRA.norm>
-0.178313

>  <SCORE.RESTR>
0

>  <SCORE.RESTR.CAVITY>
0

>  <SCORE.RESTR.norm>
0

>  <SCORE.SYSTEM>
0

>  <SCORE.SYSTEM.CONST>
0

>  <SCORE.SYSTEM.DIHEDRAL>
0

>  <SCORE.SYSTEM.SOLV>
0

>  <SCORE.SYSTEM.norm>
0

>  <SCORE.heavy>
14

>  <SCORE.norm>
-0.71174

>  <RMSD>
4.443

$$$$
ligand
 OpenBabel11021811413D
libRbt.so/2013.1/901 2013/11/27
 14 13  0  0  0  0  0  0  0  0999 V2000
   46.5824    7.8479   18.7297 N   0  0  0  0  0  0  0  0  0  0  0  0
   46.2885    8.1790   20.1408 C   0  0  0  0  0  0  0  0  0  0  0  0
   45.1645    7.2814   20.7020 C   0  0  0  0  0  0  0  0  0  0  0  0
   45.5011    5.7816   20.7379 C   0  0  0  0  0  0  0  0  0  0  0  0
   45.5835    5.2194   19.3618 N   0  0  0  0  0  0  0  0  0  0  0  0
   46.1355    3.8408   19.4027 C   0  0  0  0  0  0  0  0  0  0  0  0
   45.4898    2.8234   18.4027 C   0  0  0  0  0  0  0  0  0  0  0  0
   46.1843    1.4314   18.3760 C   0  0  0  0  0  0  0  0  0  0  0  0
   45.4971    0.4178   17.4821 C   0  0  0  0  0  0  0  0  0  0  0  0
   45.5340    0.9315   16.1260 N   0  0  0  0  0  0  0  0  0  0  0  0
   44.9119   -0.0866   15.2976 C   0  0  0  0  0  0  0  0  0  0  0  0
   44.7007    0.4074   13.8712 C   0  0  0  0  0  0  0  0  0  0  0  0
   46.0863    0.6085   13.2391 C   0  0  0  0  0  0  0  0  0  0  0  0
   46.8160   -0.6589   13.0852 N   0  0  0  0  0  0  0  0  0  0  0  0
  1  2  1  0  0  0  0
  2  3  1  0  0  0  0
  3  4  1  0  0  0  0
  4  5  1  0  0  0  0
  5  6  1  0  0  0  0
  6  7  1  0  0  0  0
  7  8  1  0  0  0  0
  8  9  1  0  0  0  0
  9 10  1  0  0  0  0
 10 11  1  0  0  0  0
 11 12  1  0  0  0  0
 12 13  1  0  0  0  0
 13 14  1  0  0  0  0
M  END
>  <CHROM.1>
62.61087732,-68.85826748,170.23235047,141.62891606,174.35205173,175.82978810
61.73785837,177.98487699,171.77615397,66.47287767,65.60632551,45.74808822
3.14452915,17.49704692,-1.47338068,-1.38190418,-2.35495352

>  <Name>
ligand

>  <RI>
0

>  <Rbt.Current_Directory>
/home/itssahil/PROJECTS/Mol_Feturizer/New_Systems/rnas/1TN1

>  <Rbt.Executable>
rbdock ($Id: //depot/dev/client3/rdock/2013.1/src/exe/rbdock.cxx#4 $)

>  <Rbt.Library>
libRbt.so (2013.1, Build901 2013/11/27)

>  <Rbt.Parameter_File>
/export/apps/rDock/src/rDock_2013.1_src/data/scripts/dock_solv.prm

>  <Rbt.Receptor>
prm/blind_docking_100.prm

>  <SCORE>
-7.17843

>  <SCORE.INTER>
-6.20185

>  <SCORE.INTER.CONST>
1

>  <SCORE.INTER.POLAR>
0

>  <SCORE.INTER.ROT>
11

>  <SCORE.INTER.SOLV>
10.4787

>  <SCORE.INTER.VDW>
-18.5608

>  <SCORE.INTER.norm>
-0.442989

>  <SCORE.INTRA>
-0.976584

>  <SCORE.INTRA.DIHEDRAL>
-6.009

>  <SCORE.INTRA.DIHEDRAL.0>
7.79482

>  <SCORE.INTRA.POLAR>
0

>  <SCORE.INTRA.POLAR.0>
0

>  <SCORE.INTRA.REPUL>
0

>  <SCORE.INTRA.REPUL.0>
0

>  <SCORE.INTRA.SOLV>
5.08811

>  <SCORE.INTRA.SOLV.lig_0>
-49.456

>  <SCORE.INTRA.VDW>
-0.516139

>  <SCORE.INTRA.VDW.0>
-0.478406

>  <SCORE.INTRA.norm>
-0.069756

>  <SCORE.RESTR>
0

>  <SCORE.RESTR.CAVITY>
0

>  <SCORE.RESTR.norm>
0

>  <SCORE.SYSTEM>
0

>  <SCORE.SYSTEM.CONST>
0

>  <SCORE.SYSTEM.DIHEDRAL>
0

>  <SCORE.SYSTEM.SOLV>
0

>  <SCORE.SYSTEM.norm>
0

>  <SCORE.heavy>
14

>  <SCORE.norm>
-0.512745

>  <RMSD>
4.450

$$$$
ligand
 OpenBabel11021811413D
libRbt.so/2013.1/901 2013/11/27
 14 13  0  0  0  0  0  0  0  0999 V2000
   46.4955    9.2534   19.4230 N   0  0  0  0  0  0  0  0  0  0  0  0
   46.7349    7.7945   19.3862 C   0  0  0  0  0  0  0  0  0  0  0  0
   45.7674    7.0463   20.3286 C   0  0  0  0  0  0  0  0  0  0  0  0
   45.9191    5.5163   20.3180 C   0  0  0  0  0  0  0  0  0  0  0  0
   45.7530    4.9724   18.9421 N   0  0  0  0  0  0  0  0  0  0  0  0
   45.4056    3.5292   18.9991 C   0  0  0  0  0  0  0  0  0  0  0  0
   46.4549    2.5550   18.3649 C   0  0  0  0  0  0  0  0  0  0  0  0
   46.0476    1.0548   18.4274 C   0  0  0  0  0  0  0  0  0  0  0  0
   44.9286    0.6806   17.4752 C   0  0  0  0  0  0  0  0  0  0  0  0
   45.5116    0.5076   16.1582 N   0  0  0  0  0  0  0  0  0  0  0  0
   45.5391   -0.9250   15.9202 C   0  0  0  0  0  0  0  0  0  0  0  0
   46.4176   -1.2750   14.7248 C   0  0  0  0  0  0  0  0  0  0  0  0
   45.7347   -0.7166   13.4670 C   0  0  0  0  0  0  0  0  0  0  0  0
   44.4661   -1.4002   13.1738 N   0  0  0  0  0  0  0  0  0  0  0  0
  1  2  1  0  0  0  0
  2  3  1  0  0  0  0
  3  4  1  0  0  0  0
  4  5  1  0  0  0  0
  5  6  1  0  0  0  0
  6  7  1  0  0  0  0
  7  8  1  0  0  0  0
  8  9  1  0  0  0  0
  9 10  1  0  0  0  0
 10 11  1  0  0  0  0
 11 12  1  0  0  0  0
 12 13  1  0  0  0  0
 13 14  1  0  0  0  0
M  END
>  <CHROM.1>
178.17644941,-56.65327166,-159.30992457,-116.49474198,-179.25424802,72.38942066
80.10884115,105.78513021,-166.64204013,-67.22206028,-66.75242003,45.79836229
2.75643487,17.50798058,-0.65087654,-1.47454082,-1.66616720

>  <Name>
ligand

>  <RI>
0

>  <Rbt.Current_Directory>
/home/itssahil/PROJECTS/Mol_Feturizer/New_Systems/rnas/1TN1

>  <Rbt.Executable>
rbdock ($Id: //depot/dev/client3/rdock/2013.1/src/exe/rbdock.cxx#4 $)

>  <Rbt.Library>
libRbt.so (2013.1, Build901 2013/11/27)

>  <Rbt.Parameter_File>
/export/apps/rDock/src/rDock_2013.1_src/data/scripts/dock_solv.prm

>  <Rbt.Receptor>
prm/blind_docking_100.prm

>  <SCORE>
-6.83524

>  <SCORE.INTER>
-6.61391

>  <SCORE.INTER.CONST>
1

>  <SCORE.INTER.POLAR>
0

>  <SCORE.INTER.ROT>
11

>  <SCORE.INTER.SOLV>
14.3404

>  <SCORE.INTER.VDW>
-20.1227

>  <SCORE.INTER.norm>
-0.472422

>  <SCORE.INTRA>
-0.221335

>  <SCORE.INTRA.DIHEDRAL>
-2.66583

>  <SCORE.INTRA.DIHEDRAL.0>
7.79482

>  <SCORE.INTRA.POLAR>
0

>  <SCORE.INTRA.POLAR.0>
0

>  <SCORE.INTRA.REPUL>
0

>  <SCORE.INTRA.REPUL.0>
0

>  <SCORE.INTRA.SOLV>
2.48784

>  <SCORE.INTRA.SOLV.lig_0>
-49.456

>  <SCORE.INTRA.VDW>
-0.132341

>  <SCORE.INTRA.VDW.0>
-0.478406

>  <SCORE.INTRA.norm>
-0.0158097

>  <SCORE.RESTR>
0

>  <SCORE.RESTR.CAVITY>
0

>  <SCORE.RESTR.norm>
0

>  <SCORE.SYSTEM>
0

>  <SCORE.SYSTEM.CONST>
0

>  <SCORE.SYSTEM.DIHEDRAL>
0

>  <SCORE.SYSTEM.SOLV>
0

>  <SCORE.SYSTEM.norm>
0

>  <SCORE.heavy>
14

>  <SCORE.norm>
-0.488232

>  <RMSD>
4.475

$$$$
ligand
 OpenBabel11021811413D
libRbt.so/2013.1/901 2013/11/27
 14 13  0  0  0  0  0  0  0  0999 V2000
   45.6717    9.0302   19.3710 N   0  0  0  0  0  0  0  0  0  0  0  0
   45.2636    7.8460   20.1573 C   0  0  0  0  0  0  0  0  0  0  0  0
   46.0459    6.5888   19.7196 C   0  0  0  0  0  0  0  0  0  0  0  0
   45.6551    5.3009   20.4629 C   0  0  0  0  0  0  0  0  0  0  0  0
   46.5043    4.1566   20.0320 N   0  0  0  0  0  0  0  0  0  0  0  0
   45.7891    3.3398   19.0179 C   0  0  0  0  0  0  0  0  0  0  0  0
   46.6975    2.6267   17.9603 C   0  0  0  0  0  0  0  0  0  0  0  0
   45.9101    1.8280   16.8821 C   0  0  0  0  0  0  0  0  0  0  0  0
   45.2884    0.5451   17.3984 C   0  0  0  0  0  0  0  0  0  0  0  0
   44.6685   -0.1269   16.2722 N   0  0  0  0  0  0  0  0  0  0  0  0
   45.5806   -1.1917   15.8928 C   0  0  0  0  0  0  0  0  0  0  0  0
   44.9863   -2.0721   14.7997 C   0  0  0  0  0  0  0  0  0  0  0  0
   44.7782   -1.1933   13.5570 C   0  0  0  0  0  0  0  0  0  0  0  0
   46.0520   -0.7779   12.9507 N   0  0  0  0  0  0  0  0  0  0  0  0
  1  2  1  0  0  0  0
  2  3  1  0  0  0  0
  3  4  1  0  0  0  0
  4  5  1  0  0  0  0
  5  6  1  0  0  0  0
  6  7  1  0  0  0  0
  7  8  1  0  0  0  0
  8  9  1  0  0  0  0
  9 10  1  0  0  0  0
 10 11  1  0  0  0  0
 11 12  1  0  0  0  0
 12 13  1  0  0  0  0
 13 14  1  0  0  0  0
M  END
>  <CHROM.1>
-178.43688525,-177.00302215,-98.45758644,149.22412412,-177.68016499,-72.69119018
-176.36405025,102.01857420,174.39006929,62.91876055,68.77220408,45.63503961
2.56409559,17.46254512,0.96312596,-1.47891713,-0.02579879

>  <Name>
ligand

>  <RI>
0

>  <Rbt.Current_Directory>
/home/itssahil/PROJECTS/Mol_Feturizer/New_Systems/rnas/1TN1

>  <Rbt.Executable>
rbdock ($Id: //depot/dev/client3/rdock/2013.1/src/exe/rbdock.cxx#4 $)

>  <Rbt.Library>
libRbt.so (2013.1, Build901 2013/11/27)

>  <Rbt.Parameter_File>
/export/apps/rDock/src/rDock_2013.1_src/data/scripts/dock_solv.prm

>  <Rbt.Receptor>
prm/blind_docking_100.prm

>  <SCORE>
-7.94795

>  <SCORE.INTER>
-6.70205

>  <SCORE.INTER.CONST>
1

>  <SCORE.INTER.POLAR>
0

>  <SCORE.INTER.ROT>
11

>  <SCORE.INTER.SOLV>
12.7372

>  <SCORE.INTER.VDW>
-19.6471

>  <SCORE.INTER.norm>
-0.478718

>  <SCORE.INTRA>
-1.2459

>  <SCORE.INTRA.DIHEDRAL>
-4.25182

>  <SCORE.INTRA.DIHEDRAL.0>
7.79482

>  <SCORE.INTRA.POLAR>
0

>  <SCORE.INTRA.POLAR.0>
0

>  <SCORE.INTRA.REPUL>
0

>  <SCORE.INTRA.REPUL.0>
0

>  <SCORE.INTRA.SOLV>
1.78717

>  <SCORE.INTRA.SOLV.lig_0>
-49.456

>  <SCORE.INTRA.VDW>
-0.0135734

>  <SCORE.INTRA.VDW.0>
-0.478406

>  <SCORE.INTRA.norm>
-0.088993

>  <SCORE.RESTR>
0

>  <SCORE.RESTR.CAVITY>
0

>  <SCORE.RESTR.norm>
0

>  <SCORE.SYSTEM>
0

>  <SCORE.SYSTEM.CONST>
0

>  <SCORE.SYSTEM.DIHEDRAL>
0

>  <SCORE.SYSTEM.SOLV>
0

>  <SCORE.SYSTEM.norm>
0

>  <SCORE.heavy>
14

>  <SCORE.norm>
-0.567711

>  <RMSD>
4.574

$$$$
ligand
 OpenBabel11021811413D
libRbt.so/2013.1/901 2013/11/27
 14 13  0  0  0  0  0  0  0  0999 V2000
   44.6873    8.2226   19.4287 N   0  0  0  0  0  0  0  0  0  0  0  0
   43.6323    7.4680   20.1391 C   0  0  0  0  0  0  0  0  0  0  0  0
   44.2313    6.5945   21.2626 C   0  0  0  0  0  0  0  0  0  0  0  0
   45.1807    5.4877   20.7752 C   0  0  0  0  0  0  0  0  0  0  0  0
   44.4390    4.4431   20.0168 N   0  0  0  0  0  0  0  0  0  0  0  0
   45.3892    3.5768   19.2729 C   0  0  0  0  0  0  0  0  0  0  0  0
   44.9205    2.1006   19.0419 C   0  0  0  0  0  0  0  0  0  0  0  0
   45.9475    1.2213   18.2723 C   0  0  0  0  0  0  0  0  0  0  0  0
   46.0467    1.5421   16.7938 C   0  0  0  0  0  0  0  0  0  0  0  0
   44.8929    0.9558   16.1386 N   0  0  0  0  0  0  0  0  0  0  0  0
   45.1782    1.0005   14.7151 C   0  0  0  0  0  0  0  0  0  0  0  0
   44.3936   -0.0628   13.9554 C   0  0  0  0  0  0  0  0  0  0  0  0
   44.9028   -1.4360   14.4190 C   0  0  0  0  0  0  0  0  0  0  0  0
   44.3153   -2.5377   13.6420 N   0  0  0  0  0  0  0  0  0  0  0  0
  1  2  1  0  0  0  0
  2  3  1  0  0  0  0
  3  4  1  0  0  0  0
  4  5  1  0  0  0  0
  5  6  1  0  0  0  0
  6  7  1  0  0  0  0
  7  8  1  0  0  0  0
  8  9  1  0  0  0  0
  9 10  1  0  0  0  0
 10 11  1  0  0  0  0
 11 12  1  0  0  0  0
 12 13  1  0  0  0  0
 13 14  1  0  0  0  0
M  END
>  <CHROM.1>
-63.68408442,-68.11024354,165.90115668,150.47236481,-179.42251675,-73.21164507
-76.98514492,-166.72698591,155.77475356,-65.42895190,-173.76874715,44.86847939
2.75547083,17.70540092,1.68186666,-1.23623043,0.77491864

>  <Name>
ligand

>  <RI>
0

>  <Rbt.Current_Directory>
/home/itssahil/PROJECTS/Mol_Feturizer/New_Systems/rnas/1TN1

>  <Rbt.Executable>
rbdock ($Id: //depot/dev/client3/rdock/2013.1/src/exe/rbdock.cxx#4 $)

>  <Rbt.Library>
libRbt.so (2013.1, Build901 2013/11/27)

>  <Rbt.Parameter_File>
/export/apps/rDock/src/rDock_2013.1_src/data/scripts/dock_solv.prm

>  <Rbt.Receptor>
prm/pocket_docking_7.prm

>  <SCORE>
-5.95583

>  <SCORE.INTER>
-4.46171

>  <SCORE.INTER.CONST>
1

>  <SCORE.INTER.POLAR>
0

>  <SCORE.INTER.ROT>
11

>  <SCORE.INTER.SOLV>
15.3065

>  <SCORE.INTER.VDW>
-19.01

>  <SCORE.INTER.norm>
-0.318694

>  <SCORE.INTRA>
-1.49412

>  <SCORE.INTRA.DIHEDRAL>
-4.21419

>  <SCORE.INTRA.DIHEDRAL.0>
7.79482

>  <SCORE.INTRA.POLAR>
0

>  <SCORE.INTRA.POLAR.0>
0

>  <SCORE.INTRA.REPUL>
0

>  <SCORE.INTRA.REPUL.0>
0

>  <SCORE.INTRA.SOLV>
2.38711

>  <SCORE.INTRA.SOLV.lig_0>
-49.456

>  <SCORE.INTRA.VDW>
-0.580584

>  <SCORE.INTRA.VDW.0>
-0.478406

>  <SCORE.INTRA.norm>
-0.106723

>  <SCORE.RESTR>
0

>  <SCORE.RESTR.CAVITY>
0

>  <SCORE.RESTR.norm>
0

>  <SCORE.SYSTEM>
0

>  <SCORE.SYSTEM.CONST>
0

>  <SCORE.SYSTEM.DIHEDRAL>
0

>  <SCORE.SYSTEM.SOLV>
0

>  <SCORE.SYSTEM.norm>
0

>  <SCORE.heavy>
14

>  <SCORE.norm>
-0.425417

>  <RMSD>
4.586

$$$$
ligand
 OpenBabel11021811413D
libRbt.so/2013.1/901 2013/11/27
 14 13  0  0  0  0  0  0  0  0999 V2000
   47.7001   14.3589   18.8882 N   0  0  0  0  0  0  0  0  0  0  0  0
   46.8247   13.9565   17.7661 C   0  0  0  0  0  0  0  0  0  0  0  0
   46.9480   12.4450   17.4765 C   0  0  0  0  0  0  0  0  0  0  0  0
   46.4072   11.5338   18.5906 C   0  0  0  0  0  0  0  0  0  0  0  0
   46.6120   10.0982   18.2534 N   0  0  0  0  0  0  0  0  0  0  0  0
   46.3678    9.2503   19.4485 C   0  0  0  0  0  0  0  0  0  0  0  0
   46.3249    7.7071   19.1859 C   0  0  0  0  0  0  0  0  0  0  0  0
   45.9976    6.8571   20.4472 C   0  0  0  0  0  0  0  0  0  0  0  0
   45.8732    5.3712   20.1727 C   0  0  0  0  0  0  0  0  0  0  0  0
   45.5535    4.7178   21.4279 N   0  0  0  0  0  0  0  0  0  0  0  0
   44.1184    4.4948   21.4063 C   0  0  0  0  0  0  0  0  0  0  0  0
   43.3666    5.6352   22.0828 C   0  0  0  0  0  0  0  0  0  0  0  0
   41.8808    5.2480   22.1313 C   0  0  0  0  0  0  0  0  0  0  0  0
   41.2634    5.2460   20.7966 N   0  0  0  0  0  0  0  0  0  0  0  0
  1  2  1  0  0  0  0
  2  3  1  0  0  0  0
  3  4  1  0  0  0  0
  4  5  1  0  0  0  0
  5  6  1  0  0  0  0
  6  7  1  0  0  0  0
  7  8  1  0  0  0  0
  8  9  1  0  0  0  0
  9 10  1  0  0  0  0
 10 11  1  0  0  0  0
 11 12  1  0  0  0  0
 12 13  1  0  0  0  0
 13 14  1  0  0  0  0
M  END
>  <CHROM.1>
67.03589437,-177.84005681,167.47137832,170.69201632,-177.13672113,176.45735609
-179.33186564,99.49609702,-93.55129876,-174.63496275,-69.36267964,45.37418222
8.35131882,19.86243303,1.15796475,0.25184708,-0.28229833

>  <Name>
ligand

>  <RI>
0

>  <Rbt.Current_Directory>
/home/itssahil/PROJECTS/Mol_Feturizer/New_Systems/rnas/1TN1

>  <Rbt.Executable>
rbdock ($Id: //depot/dev/client3/rdock/2013.1/src/exe/rbdock.cxx#4 $)

>  <Rbt.Library>
libRbt.so (2013.1, Build901 2013/11/27)

>  <Rbt.Parameter_File>
/export/apps/rDock/src/rDock_2013.1_src/data/scripts/dock_solv.prm

>  <Rbt.Receptor>
prm/pocket_docking_8.prm

>  <SCORE>
-4.04893

>  <SCORE.INTER>
-2.12915

>  <SCORE.INTER.CONST>
1

>  <SCORE.INTER.POLAR>
0

>  <SCORE.INTER.ROT>
11

>  <SCORE.INTER.SOLV>
12.5123

>  <SCORE.INTER.VDW>
-16.5235

>  <SCORE.INTER.norm>
-0.152082

>  <SCORE.INTRA>
-1.91978

>  <SCORE.INTRA.DIHEDRAL>
-5.28211

>  <SCORE.INTRA.DIHEDRAL.0>
7.79482

>  <SCORE.INTRA.POLAR>
0

>  <SCORE.INTRA.POLAR.0>
0

>  <SCORE.INTRA.REPUL>
0

>  <SCORE.INTRA.REPUL.0>
0

>  <SCORE.INTRA.SOLV>
1.34008

>  <SCORE.INTRA.SOLV.lig_0>
-49.456

>  <SCORE.INTRA.VDW>
0.0512408

>  <SCORE.INTRA.VDW.0>
-0.478406

>  <SCORE.INTRA.norm>
-0.137127

>  <SCORE.RESTR>
0

>  <SCORE.RESTR.CAVITY>
0

>  <SCORE.RESTR.norm>
0

>  <SCORE.SYSTEM>
0

>  <SCORE.SYSTEM.CONST>
0

>  <SCORE.SYSTEM.DIHEDRAL>
0

>  <SCORE.SYSTEM.SOLV>
0

>  <SCORE.SYSTEM.norm>
0

>  <SCORE.heavy>
14

>  <SCORE.norm>
-0.289209

>  <RMSD>
4.610

$$$$
ligand
 OpenBabel11021811413D
libRbt.so/2013.1/901 2013/11/27
 14 13  0  0  0  0  0  0  0  0999 V2000
   46.3905    8.6354   19.0576 N   0  0  0  0  0  0  0  0  0  0  0  0
   45.9813    7.9192   20.2851 C   0  0  0  0  0  0  0  0  0  0  0  0
   45.2908    6.5804   19.9462 C   0  0  0  0  0  0  0  0  0  0  0  0
   46.2162    5.5234   19.3214 C   0  0  0  0  0  0  0  0  0  0  0  0
   45.4415    4.3355   18.8686 N   0  0  0  0  0  0  0  0  0  0  0  0
   46.2541    3.1020   19.0264 C   0  0  0  0  0  0  0  0  0  0  0  0
   46.1385    2.0618   17.8616 C   0  0  0  0  0  0  0  0  0  0  0  0
   44.6840    1.5918   17.5719 C   0  0  0  0  0  0  0  0  0  0  0  0
   44.5776    0.5727   16.4543 C   0  0  0  0  0  0  0  0  0  0  0  0
   45.2281   -0.6431   16.9048 N   0  0  0  0  0  0  0  0  0  0  0  0
   45.9406   -1.1642   15.7514 C   0  0  0  0  0  0  0  0  0  0  0  0
   45.0575   -2.0883   14.9210 C   0  0  0  0  0  0  0  0  0  0  0  0
   44.5218   -1.2751   13.7328 C   0  0  0  0  0  0  0  0  0  0  0  0
   45.5694   -0.9815   12.7433 N   0  0  0  0  0  0  0  0  0  0  0  0
  1  2  1  0  0  0  0
  2  3  1  0  0  0  0
  3  4  1  0  0  0  0
  4  5  1  0  0  0  0
  5  6  1  0  0  0  0
  6  7  1  0  0  0  0
  7  8  1  0  0  0  0
  8  9  1  0  0  0  0
  9 10  1  0  0  0  0
 10 11  1  0  0  0  0
 11 12  1  0  0  0  0
 12 13  1  0  0  0  0
 13 14  1  0  0  0  0
M  END
>  <CHROM.1>
67.72811439,-172.78095039,-146.79730350,-139.69107073,-56.30735668,-179.32598760
66.53545925,-140.68031256,-88.64133670,99.25005531,71.39785030,45.52079380
2.44054982,17.31777586,-0.44125078,-1.47665200,-1.46962652

>  <Name>
ligand

>  <RI>
0

>  <Rbt.Current_Directory>
/home/itssahil/PROJECTS/Mol_Feturizer/New_Systems/rnas/1TN1

>  <Rbt.Executable>
rbdock ($Id: //depot/dev/client3/rdock/2013.1/src/exe/rbdock.cxx#4 $)

>  <Rbt.Library>
libRbt.so (2013.1, Build901 2013/11/27)

>  <Rbt.Parameter_File>
/export/apps/rDock/src/rDock_2013.1_src/data/scripts/dock_solv.prm

>  <Rbt.Receptor>
prm/blind_docking_80.prm

>  <SCORE>
-4.62623

>  <SCORE.INTER>
-6.14025

>  <SCORE.INTER.CONST>
1

>  <SCORE.INTER.POLAR>
0

>  <SCORE.INTER.ROT>
11

>  <SCORE.INTER.SOLV>
12.9389

>  <SCORE.INTER.VDW>
-19.3398

>  <SCORE.INTER.norm>
-0.438589

>  <SCORE.INTRA>
1.51402

>  <SCORE.INTRA.DIHEDRAL>
0.405614

>  <SCORE.INTRA.DIHEDRAL.0>
7.79482

>  <SCORE.INTRA.POLAR>
0

>  <SCORE.INTRA.POLAR.0>
0

>  <SCORE.INTRA.REPUL>
0

>  <SCORE.INTRA.REPUL.0>
0

>  <SCORE.INTRA.SOLV>
2.83115

>  <SCORE.INTRA.SOLV.lig_0>
-49.456

>  <SCORE.INTRA.VDW>
-0.104361

>  <SCORE.INTRA.VDW.0>
-0.478406

>  <SCORE.INTRA.norm>
0.108144

>  <SCORE.RESTR>
0

>  <SCORE.RESTR.CAVITY>
0

>  <SCORE.RESTR.norm>
0

>  <SCORE.SYSTEM>
0

>  <SCORE.SYSTEM.CONST>
0

>  <SCORE.SYSTEM.DIHEDRAL>
0

>  <SCORE.SYSTEM.SOLV>
0

>  <SCORE.SYSTEM.norm>
0

>  <SCORE.heavy>
14

>  <SCORE.norm>
-0.330445

>  <RMSD>
4.685

$$$$
ligand
 OpenBabel11021811413D
libRbt.so/2013.1/901 2013/11/27
 14 13  0  0  0  0  0  0  0  0999 V2000
   44.9369   -2.3794   12.7655 N   0  0  0  0  0  0  0  0  0  0  0  0
   44.6405   -1.5111   13.9254 C   0  0  0  0  0  0  0  0  0  0  0  0
   45.7131   -1.6642   15.0255 C   0  0  0  0  0  0  0  0  0  0  0  0
   45.4645   -0.8165   16.2839 C   0  0  0  0  0  0  0  0  0  0  0  0
   45.5179    0.6374   15.9679 N   0  0  0  0  0  0  0  0  0  0  0  0
   44.4118    1.3530   16.6544 C   0  0  0  0  0  0  0  0  0  0  0  0
   44.4570    1.3262   18.2195 C   0  0  0  0  0  0  0  0  0  0  0  0
   45.8426    1.6980   18.8212 C   0  0  0  0  0  0  0  0  0  0  0  0
   46.2671    3.1284   18.5515 C   0  0  0  0  0  0  0  0  0  0  0  0
   45.4442    3.9936   19.3753 N   0  0  0  0  0  0  0  0  0  0  0  0
   46.0992    5.2900   19.3689 C   0  0  0  0  0  0  0  0  0  0  0  0
   45.4424    6.2516   20.3523 C   0  0  0  0  0  0  0  0  0  0  0  0
   46.2031    7.5841   20.2778 C   0  0  0  0  0  0  0  0  0  0  0  0
   45.9938    8.2723   18.9951 N   0  0  0  0  0  0  0  0  0  0  0  0
  1  2  1  0  0  0  0
  2  3  1  0  0  0  0
  3  4  1  0  0  0  0
  4  5  1  0  0  0  0
  5  6  1  0  0  0  0
  6  7  1  0  0  0  0
  7  8  1  0  0  0  0
  8  9  1  0  0  0  0
  9 10  1  0  0  0  0
 10 11  1  0  0  0  0
 11 12  1  0  0  0  0
 12 13  1  0  0  0  0
 13 14  1  0  0  0  0
M  END
>  <CHROM.1>
-178.74074741,-63.96577138,136.96101989,63.53662266,48.47927330,65.07901750
72.21729237,165.17574382,-172.25025521,179.78162672,68.70879010,45.45956807
2.36870843,17.47057982,-2.98890728,1.48356708,1.99593332

>  <Name>
ligand

>  <RI>
0

>  <Rbt.Current_Directory>
/home/itssahil/PROJECTS/Mol_Feturizer/New_Systems/rnas/1TN1

>  <Rbt.Executable>
rbdock ($Id: //depot/dev/client3/rdock/2013.1/src/exe/rbdock.cxx#4 $)

>  <Rbt.Library>
libRbt.so (2013.1, Build901 2013/11/27)

>  <Rbt.Parameter_File>
/export/apps/rDock/src/rDock_2013.1_src/data/scripts/dock_solv.prm

>  <Rbt.Receptor>
prm/blind_docking_60.prm

>  <SCORE>
-9.24637

>  <SCORE.INTER>
-8.01025

>  <SCORE.INTER.CONST>
1

>  <SCORE.INTER.POLAR>
0

>  <SCORE.INTER.ROT>
11

>  <SCORE.INTER.SOLV>
11.1865

>  <SCORE.INTER.VDW>
-20.0023

>  <SCORE.INTER.norm>
-0.572161

>  <SCORE.INTRA>
-1.23612

>  <SCORE.INTRA.DIHEDRAL>
-5.09758

>  <SCORE.INTRA.DIHEDRAL.0>
7.79482

>  <SCORE.INTRA.POLAR>
0

>  <SCORE.INTRA.POLAR.0>
0

>  <SCORE.INTRA.REPUL>
0

>  <SCORE.INTRA.REPUL.0>
0

>  <SCORE.INTRA.SOLV>
2.25663

>  <SCORE.INTRA.SOLV.lig_0>
-49.456

>  <SCORE.INTRA.VDW>
0.184357

>  <SCORE.INTRA.VDW.0>
-0.478406

>  <SCORE.INTRA.norm>
-0.0882944

>  <SCORE.RESTR>
0

>  <SCORE.RESTR.CAVITY>
0

>  <SCORE.RESTR.norm>
0

>  <SCORE.SYSTEM>
0

>  <SCORE.SYSTEM.CONST>
0

>  <SCORE.SYSTEM.DIHEDRAL>
0

>  <SCORE.SYSTEM.SOLV>
0

>  <SCORE.SYSTEM.norm>
0

>  <SCORE.heavy>
14

>  <SCORE.norm>
-0.660455

>  <RMSD>
4.730

$$$$
ligand
 OpenBabel11021811413D
libRbt.so/2013.1/901 2013/11/27
 14 13  0  0  0  0  0  0  0  0999 V2000
   46.9351   -1.9953   13.1213 N   0  0  0  0  0  0  0  0  0  0  0  0
   46.9605   -1.3357   14.4448 C   0  0  0  0  0  0  0  0  0  0  0  0
   45.6564   -1.6036   15.2268 C   0  0  0  0  0  0  0  0  0  0  0  0
   45.6101   -0.9738   16.6287 C   0  0  0  0  0  0  0  0  0  0  0  0
   45.7376    0.5075   16.5535 N   0  0  0  0  0  0  0  0  0  0  0  0
   45.6114    1.1031   17.9086 C   0  0  0  0  0  0  0  0  0  0  0  0
   44.1620    1.5153   18.3344 C   0  0  0  0  0  0  0  0  0  0  0  0
   44.0955    2.3214   19.6634 C   0  0  0  0  0  0  0  0  0  0  0  0
   44.8061    3.6596   19.6078 C   0  0  0  0  0  0  0  0  0  0  0  0
   44.5233    4.3590   20.8468 N   0  0  0  0  0  0  0  0  0  0  0  0
   45.1914    5.6443   20.7398 C   0  0  0  0  0  0  0  0  0  0  0  0
   44.2746    6.7863   21.1623 C   0  0  0  0  0  0  0  0  0  0  0  0
   43.0756    6.7993   20.2021 C   0  0  0  0  0  0  0  0  0  0  0  0
   42.1842    7.9442   20.4419 N   0  0  0  0  0  0  0  0  0  0  0  0
  1  2  1  0  0  0  0
  2  3  1  0  0  0  0
  3  4  1  0  0  0  0
  4  5  1  0  0  0  0
  5  6  1  0  0  0  0
  6  7  1  0  0  0  0
  7  8  1  0  0  0  0
  8  9  1  0  0  0  0
  9 10  1  0  0  0  0
 10 11  1  0  0  0  0
 11 12  1  0  0  0  0
 12 13  1  0  0  0  0
 13 14  1  0  0  0  0
M  END
>  <CHROM.1>
178.91036625,60.34856572,176.71614847,-91.32920627,-171.47685187,63.12118444
173.18609906,-178.60500337,133.40546460,-62.02020669,-174.71357805,44.91601817
2.48072988,18.20606018,0.56583260,1.25338696,-1.51854585

>  <Name>
ligand

>  <RI>
0

>  <Rbt.Current_Directory>
/home/itssahil/PROJECTS/Mol_Feturizer/New_Systems/rnas/1TN1

>  <Rbt.Executable>
rbdock ($Id: //depot/dev/client3/rdock/2013.1/src/exe/rbdock.cxx#4 $)

>  <Rbt.Library>
libRbt.so (2013.1, Build901 2013/11/27)

>  <Rbt.Parameter_File>
/export/apps/rDock/src/rDock_2013.1_src/data/scripts/dock_solv.prm

>  <Rbt.Receptor>
prm/blind_docking_100.prm

>  <SCORE>
-8.05781

>  <SCORE.INTER>
-5.59639

>  <SCORE.INTER.CONST>
1

>  <SCORE.INTER.POLAR>
0

>  <SCORE.INTER.ROT>
11

>  <SCORE.INTER.SOLV>
16.4819

>  <SCORE.INTER.VDW>
-20.1582

>  <SCORE.INTER.norm>
-0.399742

>  <SCORE.INTRA>
-2.46142

>  <SCORE.INTRA.DIHEDRAL>
-5.47416

>  <SCORE.INTRA.DIHEDRAL.0>
7.79482

>  <SCORE.INTRA.POLAR>
0

>  <SCORE.INTRA.POLAR.0>
0

>  <SCORE.INTRA.REPUL>
0

>  <SCORE.INTRA.REPUL.0>
0

>  <SCORE.INTRA.SOLV>
0.883681

>  <SCORE.INTRA.SOLV.lig_0>
-49.456

>  <SCORE.INTRA.VDW>
-0.166179

>  <SCORE.INTRA.VDW.0>
-0.478406

>  <SCORE.INTRA.norm>
-0.175816

>  <SCORE.RESTR>
0

>  <SCORE.RESTR.CAVITY>
0

>  <SCORE.RESTR.norm>
0

>  <SCORE.SYSTEM>
0

>  <SCORE.SYSTEM.CONST>
0

>  <SCORE.SYSTEM.DIHEDRAL>
0

>  <SCORE.SYSTEM.SOLV>
0

>  <SCORE.SYSTEM.norm>
0

>  <SCORE.heavy>
14

>  <SCORE.norm>
-0.575558

>  <RMSD>
4.738

$$$$
ligand
 OpenBabel11021811413D
libRbt.so/2013.1/901 2013/11/27
 14 13  0  0  0  0  0  0  0  0999 V2000
   45.3295   13.2474   16.3071 N   0  0  0  0  0  0  0  0  0  0  0  0
   44.2661   12.2682   16.6196 C   0  0  0  0  0  0  0  0  0  0  0  0
   42.9735   12.9762   17.0800 C   0  0  0  0  0  0  0  0  0  0  0  0
   41.8187   12.0278   17.4420 C   0  0  0  0  0  0  0  0  0  0  0  0
   42.1631   11.1943   18.6266 N   0  0  0  0  0  0  0  0  0  0  0  0
   41.0701   10.2292   18.9105 C   0  0  0  0  0  0  0  0  0  0  0  0
   41.4061    9.1155   19.9588 C   0  0  0  0  0  0  0  0  0  0  0  0
   42.6849    8.2945   19.6253 C   0  0  0  0  0  0  0  0  0  0  0  0
   43.0043    7.2136   20.6395 C   0  0  0  0  0  0  0  0  0  0  0  0
   44.2643    6.6073   20.2534 N   0  0  0  0  0  0  0  0  0  0  0  0
   44.4865    5.5201   21.1906 C   0  0  0  0  0  0  0  0  0  0  0  0
   45.9153    4.9958   21.1078 C   0  0  0  0  0  0  0  0  0  0  0  0
   46.1045    4.3804   19.7130 C   0  0  0  0  0  0  0  0  0  0  0  0
   45.2101    3.2355   19.4850 N   0  0  0  0  0  0  0  0  0  0  0  0
  1  2  1  0  0  0  0
  2  3  1  0  0  0  0
  3  4  1  0  0  0  0
  4  5  1  0  0  0  0
  5  6  1  0  0  0  0
  6  7  1  0  0  0  0
  7  8  1  0  0  0  0
  8  9  1  0  0  0  0
  9 10  1  0  0  0  0
 10 11  1  0  0  0  0
 11 12  1  0  0  0  0
 12 13  1  0  0  0  0
 13 14  1  0  0  0  0
M  END
>  <CHROM.1>
-179.30488914,64.71305336,-176.60475942,169.14074269,-54.39233198,-179.78104925
-175.77171206,-176.09919640,-167.02179849,-64.78862832,-62.44890904,43.62095810
8.66473361,19.06868051,-1.83506851,-0.39387110,2.64868168

>  <Name>
ligand

>  <RI>
0

>  <Rbt.Current_Directory>
/home/itssahil/PROJECTS/Mol_Feturizer/New_Systems/rnas/1TN1

>  <Rbt.Executable>
rbdock ($Id: //depot/dev/client3/rdock/2013.1/src/exe/rbdock.cxx#4 $)

>  <Rbt.Library>
libRbt.so (2013.1, Build901 2013/11/27)

>  <Rbt.Parameter_File>
/export/apps/rDock/src/rDock_2013.1_src/data/scripts/dock_solv.prm

>  <Rbt.Receptor>
prm/pocket_docking_5.prm

>  <SCORE>
-13.722

>  <SCORE.INTER>
-10.8681

>  <SCORE.INTER.CONST>
1

>  <SCORE.INTER.POLAR>
0

>  <SCORE.INTER.ROT>
11

>  <SCORE.INTER.SOLV>
14.6035

>  <SCORE.INTER.VDW>
-23.0466

>  <SCORE.INTER.norm>
-0.776295

>  <SCORE.INTRA>
-2.85382

>  <SCORE.INTRA.DIHEDRAL>
-7.16512

>  <SCORE.INTRA.DIHEDRAL.0>
7.79482

>  <SCORE.INTRA.POLAR>
0

>  <SCORE.INTRA.POLAR.0>
0

>  <SCORE.INTRA.REPUL>
0

>  <SCORE.INTRA.REPUL.0>
0

>  <SCORE.INTRA.SOLV>
2.51913

>  <SCORE.INTRA.SOLV.lig_0>
-49.456

>  <SCORE.INTRA.VDW>
-0.530828

>  <SCORE.INTRA.VDW.0>
-0.478406

>  <SCORE.INTRA.norm>
-0.203844

>  <SCORE.RESTR>
0

>  <SCORE.RESTR.CAVITY>
0

>  <SCORE.RESTR.norm>
0

>  <SCORE.SYSTEM>
0

>  <SCORE.SYSTEM.CONST>
0

>  <SCORE.SYSTEM.DIHEDRAL>
0

>  <SCORE.SYSTEM.SOLV>
0

>  <SCORE.SYSTEM.norm>
0

>  <SCORE.heavy>
14

>  <SCORE.norm>
-0.980139

>  <RMSD>
4.742

$$$$
ligand
 OpenBabel11021811413D
libRbt.so/2013.1/901 2013/11/27
 14 13  0  0  0  0  0  0  0  0999 V2000
   44.3735   12.4313   15.3129 N   0  0  0  0  0  0  0  0  0  0  0  0
   43.7807   11.7301   16.4721 C   0  0  0  0  0  0  0  0  0  0  0  0
   42.4996   12.4412   16.9591 C   0  0  0  0  0  0  0  0  0  0  0  0
   41.9652   11.9418   18.3114 C   0  0  0  0  0  0  0  0  0  0  0  0
   41.6102   10.4975   18.2453 N   0  0  0  0  0  0  0  0  0  0  0  0
   40.9288   10.0784   19.4970 C   0  0  0  0  0  0  0  0  0  0  0  0
   41.1899    8.6017   19.9478 C   0  0  0  0  0  0  0  0  0  0  0  0
   42.6954    8.2424   20.1052 C   0  0  0  0  0  0  0  0  0  0  0  0
   42.9420    6.8500   20.6523 C   0  0  0  0  0  0  0  0  0  0  0  0
   44.3772    6.6454   20.7023 N   0  0  0  0  0  0  0  0  0  0  0  0
   44.5710    5.3199   21.2639 C   0  0  0  0  0  0  0  0  0  0  0  0
   45.9854    4.8098   21.0142 C   0  0  0  0  0  0  0  0  0  0  0  0
   46.1254    4.5470   19.5071 C   0  0  0  0  0  0  0  0  0  0  0  0
   45.3186    3.3993   19.0660 N   0  0  0  0  0  0  0  0  0  0  0  0
  1  2  1  0  0  0  0
  2  3  1  0  0  0  0
  3  4  1  0  0  0  0
  4  5  1  0  0  0  0
  5  6  1  0  0  0  0
  6  7  1  0  0  0  0
  7  8  1  0  0  0  0
  8  9  1  0  0  0  0
  9 10  1  0  0  0  0
 10 11  1  0  0  0  0
 11 12  1  0  0  0  0
 12 13  1  0  0  0  0
 13 14  1  0  0  0  0
M  END
>  <CHROM.1>
-169.06963166,-60.92389855,-172.41394298,-147.41157195,55.19310861,175.16405842
178.22252838,178.47816767,163.78434101,-68.73169329,-69.22500168,43.45430075
8.39546874,19.07576873,-1.95556003,-0.58966734,2.49723706

>  <Name>
ligand

>  <RI>
0

>  <Rbt.Current_Directory>
/home/itssahil/PROJECTS/Mol_Feturizer/New_Systems/rnas/1TN1

>  <Rbt.Executable>
rbdock ($Id: //depot/dev/client3/rdock/2013.1/src/exe/rbdock.cxx#4 $)

>  <Rbt.Library>
libRbt.so (2013.1, Build901 2013/11/27)

>  <Rbt.Parameter_File>
/export/apps/rDock/src/rDock_2013.1_src/data/scripts/dock_solv.prm

>  <Rbt.Receptor>
prm/pocket_docking_7.prm

>  <SCORE>
-14.0923

>  <SCORE.INTER>
-11.7725

>  <SCORE.INTER.CONST>
1

>  <SCORE.INTER.POLAR>
0

>  <SCORE.INTER.ROT>
11

>  <SCORE.INTER.SOLV>
18.6945

>  <SCORE.INTER.VDW>
-25.0132

>  <SCORE.INTER.norm>
-0.840893

>  <SCORE.INTRA>
-2.31979

>  <SCORE.INTRA.DIHEDRAL>
-5.62283

>  <SCORE.INTRA.DIHEDRAL.0>
7.79482

>  <SCORE.INTRA.POLAR>
0

>  <SCORE.INTRA.POLAR.0>
0

>  <SCORE.INTRA.REPUL>
0

>  <SCORE.INTRA.REPUL.0>
0

>  <SCORE.INTRA.SOLV>
2.44074

>  <SCORE.INTRA.SOLV.lig_0>
-49.456

>  <SCORE.INTRA.VDW>
-0.728748

>  <SCORE.INTRA.VDW.0>
-0.478406

>  <SCORE.INTRA.norm>
-0.165699

>  <SCORE.RESTR>
0

>  <SCORE.RESTR.CAVITY>
0

>  <SCORE.RESTR.norm>
0

>  <SCORE.SYSTEM>
0

>  <SCORE.SYSTEM.CONST>
0

>  <SCORE.SYSTEM.DIHEDRAL>
0

>  <SCORE.SYSTEM.SOLV>
0

>  <SCORE.SYSTEM.norm>
0

>  <SCORE.heavy>
14

>  <SCORE.norm>
-1.00659

>  <RMSD>
4.743

$$$$
ligand
 OpenBabel11021811413D
libRbt.so/2013.1/901 2013/11/27
 14 13  0  0  0  0  0  0  0  0999 V2000
   47.5847   -2.3077   13.2393 N   0  0  0  0  0  0  0  0  0  0  0  0
   47.3124   -0.9574   13.7774 C   0  0  0  0  0  0  0  0  0  0  0  0
   45.8124   -0.7751   14.0946 C   0  0  0  0  0  0  0  0  0  0  0  0
   45.3150   -1.5696   15.3134 C   0  0  0  0  0  0  0  0  0  0  0  0
   45.9010   -1.0368   16.5740 N   0  0  0  0  0  0  0  0  0  0  0  0
   45.1675    0.1803   17.0069 C   0  0  0  0  0  0  0  0  0  0  0  0
   45.9204    1.0960   18.0300 C   0  0  0  0  0  0  0  0  0  0  0  0
   45.1893    2.4331   18.3433 C   0  0  0  0  0  0  0  0  0  0  0  0
   45.9761    3.3695   19.2394 C   0  0  0  0  0  0  0  0  0  0  0  0
   45.1730    4.5602   19.4437 N   0  0  0  0  0  0  0  0  0  0  0  0
   45.8292    5.3059   20.5034 C   0  0  0  0  0  0  0  0  0  0  0  0
   45.6445    6.8083   20.3251 C   0  0  0  0  0  0  0  0  0  0  0  0
   44.1428    7.1093   20.4449 C   0  0  0  0  0  0  0  0  0  0  0  0
   43.8312    8.5129   20.1355 N   0  0  0  0  0  0  0  0  0  0  0  0
  1  2  1  0  0  0  0
  2  3  1  0  0  0  0
  3  4  1  0  0  0  0
  4  5  1  0  0  0  0
  5  6  1  0  0  0  0
  6  7  1  0  0  0  0
  7  8  1  0  0  0  0
  8  9  1  0  0  0  0
  9 10  1  0  0  0  0
 10 11  1  0  0  0  0
 11 12  1  0  0  0  0
 12 13  1  0  0  0  0
 13 14  1  0  0  0  0
M  END
>  <CHROM.1>
71.12607649,68.17164446,79.69704266,-161.47291233,173.81135243,-174.97863537
-179.84903593,168.99978556,148.04533106,63.57245216,-173.45158396,45.62854394
2.33773956,17.60515693,-0.69576310,1.35750508,-0.25015771

>  <Name>
ligand

>  <RI>
0

>  <Rbt.Current_Directory>
/home/itssahil/PROJECTS/Mol_Feturizer/New_Systems/rnas/1TN1

>  <Rbt.Executable>
rbdock ($Id: //depot/dev/client3/rdock/2013.1/src/exe/rbdock.cxx#4 $)

>  <Rbt.Library>
libRbt.so (2013.1, Build901 2013/11/27)

>  <Rbt.Parameter_File>
/export/apps/rDock/src/rDock_2013.1_src/data/scripts/dock_solv.prm

>  <Rbt.Receptor>
prm/pocket_docking_7.prm

>  <SCORE>
-7.57184

>  <SCORE.INTER>
-5.59614

>  <SCORE.INTER.CONST>
1

>  <SCORE.INTER.POLAR>
0

>  <SCORE.INTER.ROT>
11

>  <SCORE.INTER.SOLV>
16.4492

>  <SCORE.INTER.VDW>
-20.1472

>  <SCORE.INTER.norm>
-0.399725

>  <SCORE.INTRA>
-1.97569

>  <SCORE.INTRA.DIHEDRAL>
-5.32234

>  <SCORE.INTRA.DIHEDRAL.0>
7.79482

>  <SCORE.INTRA.POLAR>
0

>  <SCORE.INTRA.POLAR.0>
0

>  <SCORE.INTRA.REPUL>
0

>  <SCORE.INTRA.REPUL.0>
0

>  <SCORE.INTRA.SOLV>
1.85162

>  <SCORE.INTRA.SOLV.lig_0>
-49.456

>  <SCORE.INTRA.VDW>
-0.24033

>  <SCORE.INTRA.VDW.0>
-0.478406

>  <SCORE.INTRA.norm>
-0.141121

>  <SCORE.RESTR>
0

>  <SCORE.RESTR.CAVITY>
0

>  <SCORE.RESTR.norm>
0

>  <SCORE.SYSTEM>
0

>  <SCORE.SYSTEM.CONST>
0

>  <SCORE.SYSTEM.DIHEDRAL>
0

>  <SCORE.SYSTEM.SOLV>
0

>  <SCORE.SYSTEM.norm>
0

>  <SCORE.heavy>
14

>  <SCORE.norm>
-0.540845

>  <RMSD>
4.753

$$$$
ligand
 OpenBabel11021811413D
libRbt.so/2013.1/901 2013/11/27
 14 13  0  0  0  0  0  0  0  0999 V2000
   46.5821   -0.5338   13.1913 N   0  0  0  0  0  0  0  0  0  0  0  0
   45.2137   -0.9659   13.5489 C   0  0  0  0  0  0  0  0  0  0  0  0
   45.1948   -1.6855   14.9148 C   0  0  0  0  0  0  0  0  0  0  0  0
   45.7467   -0.8536   16.0841 C   0  0  0  0  0  0  0  0  0  0  0  0
   45.0323    0.4476   16.1981 N   0  0  0  0  0  0  0  0  0  0  0  0
   44.5258    0.6356   17.5819 C   0  0  0  0  0  0  0  0  0  0  0  0
   45.4013    1.5488   18.5048 C   0  0  0  0  0  0  0  0  0  0  0  0
   45.5452    3.0124   17.9975 C   0  0  0  0  0  0  0  0  0  0  0  0
   46.1769    3.9536   19.0046 C   0  0  0  0  0  0  0  0  0  0  0  0
   45.2313    4.1349   20.0897 N   0  0  0  0  0  0  0  0  0  0  0  0
   45.8598    5.0621   21.0144 C   0  0  0  0  0  0  0  0  0  0  0  0
   45.6998    6.5056   20.5519 C   0  0  0  0  0  0  0  0  0  0  0  0
   44.3011    6.9776   20.9774 C   0  0  0  0  0  0  0  0  0  0  0  0
   43.2328    6.2741   20.2517 N   0  0  0  0  0  0  0  0  0  0  0  0
  1  2  1  0  0  0  0
  2  3  1  0  0  0  0
  3  4  1  0  0  0  0
  4  5  1  0  0  0  0
  5  6  1  0  0  0  0
  6  7  1  0  0  0  0
  7  8  1  0  0  0  0
  8  9  1  0  0  0  0
  9 10  1  0  0  0  0
 10 11  1  0  0  0  0
 11 12  1  0  0  0  0
 12 13  1  0  0  0  0
 13 14  1  0  0  0  0
M  END
>  <CHROM.1>
57.40074321,55.30759148,127.27414040,99.33034420,61.51392705,169.61748191
-69.18090416,-178.77937153,80.97282942,81.43184898,-67.24997203,45.26749262
2.46518973,17.85096448,-1.35353970,1.22688705,0.51428288

>  <Name>
ligand

>  <RI>
0

>  <Rbt.Current_Directory>
/home/itssahil/PROJECTS/Mol_Feturizer/New_Systems/rnas/1TN1

>  <Rbt.Executable>
rbdock ($Id: //depot/dev/client3/rdock/2013.1/src/exe/rbdock.cxx#4 $)

>  <Rbt.Library>
libRbt.so (2013.1, Build901 2013/11/27)

>  <Rbt.Parameter_File>
/export/apps/rDock/src/rDock_2013.1_src/data/scripts/dock_solv.prm

>  <Rbt.Receptor>
prm/blind_docking_100.prm

>  <SCORE>
-5.21767

>  <SCORE.INTER>
-6.84764

>  <SCORE.INTER.CONST>
1

>  <SCORE.INTER.POLAR>
0

>  <SCORE.INTER.ROT>
11

>  <SCORE.INTER.SOLV>
12.5581

>  <SCORE.INTER.VDW>
-19.6844

>  <SCORE.INTER.norm>
-0.489117

>  <SCORE.INTRA>
1.62997

>  <SCORE.INTRA.DIHEDRAL>
-2.79774

>  <SCORE.INTRA.DIHEDRAL.0>
7.79482

>  <SCORE.INTRA.POLAR>
0

>  <SCORE.INTRA.POLAR.0>
0

>  <SCORE.INTRA.REPUL>
0

>  <SCORE.INTRA.REPUL.0>
0

>  <SCORE.INTRA.SOLV>
5.63594

>  <SCORE.INTRA.SOLV.lig_0>
-49.456

>  <SCORE.INTRA.VDW>
0.210875

>  <SCORE.INTRA.VDW.0>
-0.478406

>  <SCORE.INTRA.norm>
0.116427

>  <SCORE.RESTR>
0

>  <SCORE.RESTR.CAVITY>
0

>  <SCORE.RESTR.norm>
0

>  <SCORE.SYSTEM>
0

>  <SCORE.SYSTEM.CONST>
0

>  <SCORE.SYSTEM.DIHEDRAL>
0

>  <SCORE.SYSTEM.SOLV>
0

>  <SCORE.SYSTEM.norm>
0

>  <SCORE.heavy>
14

>  <SCORE.norm>
-0.372691

>  <RMSD>
4.754

$$$$
ligand
 OpenBabel11021811413D
libRbt.so/2013.1/901 2013/11/27
 14 13  0  0  0  0  0  0  0  0999 V2000
   44.9061   12.0359   16.8965 N   0  0  0  0  0  0  0  0  0  0  0  0
   44.9548   11.1213   18.0577 C   0  0  0  0  0  0  0  0  0  0  0  0
   43.6583   10.2902   18.1683 C   0  0  0  0  0  0  0  0  0  0  0  0
   42.3905   11.1158   18.4422 C   0  0  0  0  0  0  0  0  0  0  0  0
   41.1777   10.2524   18.4305 N   0  0  0  0  0  0  0  0  0  0  0  0
   41.0565    9.5200   19.7172 C   0  0  0  0  0  0  0  0  0  0  0  0
   41.6792    8.0834   19.7393 C   0  0  0  0  0  0  0  0  0  0  0  0
   41.5558    7.3587   21.1105 C   0  0  0  0  0  0  0  0  0  0  0  0
   42.1917    5.9826   21.1389 C   0  0  0  0  0  0  0  0  0  0  0  0
   43.6104    6.1489   20.8857 N   0  0  0  0  0  0  0  0  0  0  0  0
   44.2386    4.9108   21.3126 C   0  0  0  0  0  0  0  0  0  0  0  0
   45.7540    4.9731   21.1607 C   0  0  0  0  0  0  0  0  0  0  0  0
   46.0709    4.9688   19.6575 C   0  0  0  0  0  0  0  0  0  0  0  0
   45.7747    3.6717   19.0310 N   0  0  0  0  0  0  0  0  0  0  0  0
  1  2  1  0  0  0  0
  2  3  1  0  0  0  0
  3  4  1  0  0  0  0
  4  5  1  0  0  0  0
  5  6  1  0  0  0  0
  6  7  1  0  0  0  0
  7  8  1  0  0  0  0
  8  9  1  0  0  0  0
  9 10  1  0  0  0  0
 10 11  1  0  0  0  0
 11 12  1  0  0  0  0
 12 13  1  0  0  0  0
 13 14  1  0  0  0  0
M  END
>  <CHROM.1>
-64.14155755,175.67631798,78.99474171,-93.97051823,178.93239123,-178.48681438
62.08670093,163.22229667,-177.35939927,-69.77669342,-69.56261292,43.50122276
7.88805070,19.55377549,-1.85103703,-0.37158772,2.66827267

>  <Name>
ligand

>  <RI>
0

>  <Rbt.Current_Directory>
/home/itssahil/PROJECTS/Mol_Feturizer/New_Systems/rnas/1TN1

>  <Rbt.Executable>
rbdock ($Id: //depot/dev/client3/rdock/2013.1/src/exe/rbdock.cxx#4 $)

>  <Rbt.Library>
libRbt.so (2013.1, Build901 2013/11/27)

>  <Rbt.Parameter_File>
/export/apps/rDock/src/rDock_2013.1_src/data/scripts/dock_solv.prm

>  <Rbt.Receptor>
prm/pocket_docking_7.prm

>  <SCORE>
-10.9554

>  <SCORE.INTER>
-9.4524

>  <SCORE.INTER.CONST>
1

>  <SCORE.INTER.POLAR>
0

>  <SCORE.INTER.ROT>
11

>  <SCORE.INTER.SOLV>
16.6088

>  <SCORE.INTER.VDW>
-22.7712

>  <SCORE.INTER.norm>
-0.675171

>  <SCORE.INTRA>
-1.50302

>  <SCORE.INTRA.DIHEDRAL>
-5.71714

>  <SCORE.INTRA.DIHEDRAL.0>
7.79482

>  <SCORE.INTRA.POLAR>
0

>  <SCORE.INTRA.POLAR.0>
0

>  <SCORE.INTRA.REPUL>
0

>  <SCORE.INTRA.REPUL.0>
0

>  <SCORE.INTRA.SOLV>
2.61785

>  <SCORE.INTRA.SOLV.lig_0>
-49.456

>  <SCORE.INTRA.VDW>
0.046629

>  <SCORE.INTRA.VDW.0>
-0.478406

>  <SCORE.INTRA.norm>
-0.107358

>  <SCORE.RESTR>
0

>  <SCORE.RESTR.CAVITY>
0

>  <SCORE.RESTR.norm>
0

>  <SCORE.SYSTEM>
0

>  <SCORE.SYSTEM.CONST>
0

>  <SCORE.SYSTEM.DIHEDRAL>
0

>  <SCORE.SYSTEM.SOLV>
0

>  <SCORE.SYSTEM.norm>
0

>  <SCORE.heavy>
14

>  <SCORE.norm>
-0.782529

>  <RMSD>
4.765

$$$$
ligand
 OpenBabel11021811413D
libRbt.so/2013.1/901 2013/11/27
 14 13  0  0  0  0  0  0  0  0999 V2000
   46.0485    8.7331   19.2052 N   0  0  0  0  0  0  0  0  0  0  0  0
   46.4345    7.5844   20.0529 C   0  0  0  0  0  0  0  0  0  0  0  0
   45.3210    6.5153   20.0849 C   0  0  0  0  0  0  0  0  0  0  0  0
   45.6707    5.2509   20.8866 C   0  0  0  0  0  0  0  0  0  0  0  0
   44.5586    4.2623   20.8375 N   0  0  0  0  0  0  0  0  0  0  0  0
   44.5921    3.5152   19.5540 C   0  0  0  0  0  0  0  0  0  0  0  0
   44.0688    2.0405   19.6156 C   0  0  0  0  0  0  0  0  0  0  0  0
   44.0693    1.3086   18.2428 C   0  0  0  0  0  0  0  0  0  0  0  0
   45.4302    1.2500   17.5770 C   0  0  0  0  0  0  0  0  0  0  0  0
   45.7119    2.5663   17.0364 N   0  0  0  0  0  0  0  0  0  0  0  0
   47.0520    2.4902   16.4813 C   0  0  0  0  0  0  0  0  0  0  0  0
   47.3011    3.6036   15.4706 C   0  0  0  0  0  0  0  0  0  0  0  0
   46.3791    3.3540   14.2675 C   0  0  0  0  0  0  0  0  0  0  0  0
   46.7339    2.1255   13.5411 N   0  0  0  0  0  0  0  0  0  0  0  0
  1  2  1  0  0  0  0
  2  3  1  0  0  0  0
  3  4  1  0  0  0  0
  4  5  1  0  0  0  0
  5  6  1  0  0  0  0
  6  7  1  0  0  0  0
  7  8  1  0  0  0  0
  8  9  1  0  0  0  0
  9 10  1  0  0  0  0
 10 11  1  0  0  0  0
 11 12  1  0  0  0  0
 12 13  1  0  0  0  0
 13 14  1  0  0  0  0
M  END
>  <CHROM.1>
176.97344694,-178.61324986,79.75541783,148.85525754,177.81647364,57.63801714
-75.30310623,176.64155124,160.07417413,-66.29961601,-66.09539018,45.66936489
3.89978307,18.06112790,-1.80451579,-1.06669488,-2.49851859

>  <Name>
ligand

>  <RI>
0

>  <Rbt.Current_Directory>
/home/itssahil/PROJECTS/Mol_Feturizer/New_Systems/rnas/1TN1

>  <Rbt.Executable>
rbdock ($Id: //depot/dev/client3/rdock/2013.1/src/exe/rbdock.cxx#4 $)

>  <Rbt.Library>
libRbt.so (2013.1, Build901 2013/11/27)

>  <Rbt.Parameter_File>
/export/apps/rDock/src/rDock_2013.1_src/data/scripts/dock_solv.prm

>  <Rbt.Receptor>
prm/blind_docking_60.prm

>  <SCORE>
-5.10104

>  <SCORE.INTER>
-4.2235

>  <SCORE.INTER.CONST>
1

>  <SCORE.INTER.POLAR>
0

>  <SCORE.INTER.ROT>
11

>  <SCORE.INTER.SOLV>
11.4381

>  <SCORE.INTER.VDW>
-17.5617

>  <SCORE.INTER.norm>
-0.301679

>  <SCORE.INTRA>
-0.877533

>  <SCORE.INTRA.DIHEDRAL>
-5.34726

>  <SCORE.INTRA.DIHEDRAL.0>
7.79482

>  <SCORE.INTRA.POLAR>
0

>  <SCORE.INTRA.POLAR.0>
0

>  <SCORE.INTRA.REPUL>
0

>  <SCORE.INTRA.REPUL.0>
0

>  <SCORE.INTRA.SOLV>
2.93334

>  <SCORE.INTRA.SOLV.lig_0>
-49.456

>  <SCORE.INTRA.VDW>
0.329425

>  <SCORE.INTRA.VDW.0>
-0.478406

>  <SCORE.INTRA.norm>
-0.0626809

>  <SCORE.RESTR>
0

>  <SCORE.RESTR.CAVITY>
0

>  <SCORE.RESTR.norm>
0

>  <SCORE.SYSTEM>
0

>  <SCORE.SYSTEM.CONST>
0

>  <SCORE.SYSTEM.DIHEDRAL>
0

>  <SCORE.SYSTEM.SOLV>
0

>  <SCORE.SYSTEM.norm>
0

>  <SCORE.heavy>
14

>  <SCORE.norm>
-0.36436

>  <RMSD>
4.767

$$$$
ligand
 OpenBabel11021811413D
libRbt.so/2013.1/901 2013/11/27
 14 13  0  0  0  0  0  0  0  0999 V2000
   50.0564    3.3852   14.1974 N   0  0  0  0  0  0  0  0  0  0  0  0
   49.2717    2.1355   14.1007 C   0  0  0  0  0  0  0  0  0  0  0  0
   47.7872    2.3805   14.4477 C   0  0  0  0  0  0  0  0  0  0  0  0
   47.5372    2.8595   15.8871 C   0  0  0  0  0  0  0  0  0  0  0  0
   46.0804    3.0091   16.1551 N   0  0  0  0  0  0  0  0  0  0  0  0
   45.5060    1.7157   16.6066 C   0  0  0  0  0  0  0  0  0  0  0  0
   45.7231    1.3699   18.1184 C   0  0  0  0  0  0  0  0  0  0  0  0
   45.0674    2.3814   19.1018 C   0  0  0  0  0  0  0  0  0  0  0  0
   45.7981    3.7063   19.2001 C   0  0  0  0  0  0  0  0  0  0  0  0
   45.1467    4.4920   20.2309 N   0  0  0  0  0  0  0  0  0  0  0  0
   45.6750    5.8385   20.0986 C   0  0  0  0  0  0  0  0  0  0  0  0
   44.8128    6.8515   20.8426 C   0  0  0  0  0  0  0  0  0  0  0  0
   43.4326    6.8714   20.1682 C   0  0  0  0  0  0  0  0  0  0  0  0
   42.5062    7.8048   20.8263 N   0  0  0  0  0  0  0  0  0  0  0  0
  1  2  1  0  0  0  0
  2  3  1  0  0  0  0
  3  4  1  0  0  0  0
  4  5  1  0  0  0  0
  5  6  1  0  0  0  0
  6  7  1  0  0  0  0
  7  8  1  0  0  0  0
  8  9  1  0  0  0  0
  9 10  1  0  0  0  0
 10 11  1  0  0  0  0
 11 12  1  0  0  0  0
 12 13  1  0  0  0  0
 13 14  1  0  0  0  0
M  END
>  <CHROM.1>
-62.71824114,-177.34279512,86.86531906,80.92818935,61.92760963,-74.04198090
-175.02869220,-167.97757931,164.06022465,-64.24518432,178.97826729,46.02864848
3.91408281,17.85582554,-0.69992443,0.80894066,0.24270653

>  <Name>
ligand

>  <RI>
0

>  <Rbt.Current_Directory>
/home/itssahil/PROJECTS/Mol_Feturizer/New_Systems/rnas/1TN1

>  <Rbt.Executable>
rbdock ($Id: //depot/dev/client3/rdock/2013.1/src/exe/rbdock.cxx#4 $)

>  <Rbt.Library>
libRbt.so (2013.1, Build901 2013/11/27)

>  <Rbt.Parameter_File>
/export/apps/rDock/src/rDock_2013.1_src/data/scripts/dock_solv.prm

>  <Rbt.Receptor>
prm/blind_docking_60.prm

>  <SCORE>
-4.5349

>  <SCORE.INTER>
-2.53095

>  <SCORE.INTER.CONST>
1

>  <SCORE.INTER.POLAR>
0

>  <SCORE.INTER.ROT>
11

>  <SCORE.INTER.SOLV>
12.948

>  <SCORE.INTER.VDW>
-16.9366

>  <SCORE.INTER.norm>
-0.180782

>  <SCORE.INTRA>
-2.00395

>  <SCORE.INTRA.DIHEDRAL>
-5.6312

>  <SCORE.INTRA.DIHEDRAL.0>
7.79482

>  <SCORE.INTRA.POLAR>
0

>  <SCORE.INTRA.POLAR.0>
0

>  <SCORE.INTRA.REPUL>
0

>  <SCORE.INTRA.REPUL.0>
0

>  <SCORE.INTRA.SOLV>
2.02732

>  <SCORE.INTRA.SOLV.lig_0>
-49.456

>  <SCORE.INTRA.VDW>
-0.202003

>  <SCORE.INTRA.VDW.0>
-0.478406

>  <SCORE.INTRA.norm>
-0.143139

>  <SCORE.RESTR>
0

>  <SCORE.RESTR.CAVITY>
0

>  <SCORE.RESTR.norm>
0

>  <SCORE.SYSTEM>
0

>  <SCORE.SYSTEM.CONST>
0

>  <SCORE.SYSTEM.DIHEDRAL>
0

>  <SCORE.SYSTEM.SOLV>
0

>  <SCORE.SYSTEM.norm>
0

>  <SCORE.heavy>
14

>  <SCORE.norm>
-0.323921

>  <RMSD>
4.782

$$$$
ligand
 OpenBabel11021811413D
libRbt.so/2013.1/901 2013/11/27
 14 13  0  0  0  0  0  0  0  0999 V2000
   44.6150   -3.0321   12.4581 N   0  0  0  0  0  0  0  0  0  0  0  0
   44.3035   -2.3260   13.7197 C   0  0  0  0  0  0  0  0  0  0  0  0
   45.3471   -1.2275   14.0167 C   0  0  0  0  0  0  0  0  0  0  0  0
   45.0509   -0.3852   15.2683 C   0  0  0  0  0  0  0  0  0  0  0  0
   46.0664    0.6895   15.4418 N   0  0  0  0  0  0  0  0  0  0  0  0
   45.6244    1.6499   16.4854 C   0  0  0  0  0  0  0  0  0  0  0  0
   45.8207    1.1783   17.9657 C   0  0  0  0  0  0  0  0  0  0  0  0
   45.1404    2.0975   19.0206 C   0  0  0  0  0  0  0  0  0  0  0  0
   45.7942    3.4578   19.1648 C   0  0  0  0  0  0  0  0  0  0  0  0
   45.1259    4.1540   20.2479 N   0  0  0  0  0  0  0  0  0  0  0  0
   45.9529    5.3096   20.5485 C   0  0  0  0  0  0  0  0  0  0  0  0
   45.4573    6.5543   19.8216 C   0  0  0  0  0  0  0  0  0  0  0  0
   46.4411    7.6938   20.1275 C   0  0  0  0  0  0  0  0  0  0  0  0
   46.0694    8.9453   19.4505 N   0  0  0  0  0  0  0  0  0  0  0  0
  1  2  1  0  0  0  0
  2  3  1  0  0  0  0
  3  4  1  0  0  0  0
  4  5  1  0  0  0  0
  5  6  1  0  0  0  0
  6  7  1  0  0  0  0
  7  8  1  0  0  0  0
  8  9  1  0  0  0  0
  9 10  1  0  0  0  0
 10 11  1  0  0  0  0
 11 12  1  0  0  0  0
 12 13  1  0  0  0  0
 13 14  1  0  0  0  0
M  END
>  <CHROM.1>
176.44122744,-177.18947591,168.86587487,78.33760879,-170.50738138,-69.51520546
-175.48386247,167.85949508,95.46926385,-176.40422450,178.93072515,45.48638045
2.48270991,17.40999319,-2.24963038,1.42362801,1.29982236

>  <Name>
ligand

>  <RI>
0

>  <Rbt.Current_Directory>
/home/itssahil/PROJECTS/Mol_Feturizer/New_Systems/rnas/1TN1

>  <Rbt.Executable>
rbdock ($Id: //depot/dev/client3/rdock/2013.1/src/exe/rbdock.cxx#4 $)

>  <Rbt.Library>
libRbt.so (2013.1, Build901 2013/11/27)

>  <Rbt.Parameter_File>
/export/apps/rDock/src/rDock_2013.1_src/data/scripts/dock_solv.prm

>  <Rbt.Receptor>
prm/pocket_docking_5.prm

>  <SCORE>
-9.55161

>  <SCORE.INTER>
-6.7711

>  <SCORE.INTER.CONST>
1

>  <SCORE.INTER.POLAR>
0

>  <SCORE.INTER.ROT>
11

>  <SCORE.INTER.SOLV>
10.8536

>  <SCORE.INTER.VDW>
-19.0653

>  <SCORE.INTER.norm>
-0.48365

>  <SCORE.INTRA>
-2.78051

>  <SCORE.INTRA.DIHEDRAL>
-5.63962

>  <SCORE.INTRA.DIHEDRAL.0>
7.79482

>  <SCORE.INTRA.POLAR>
0

>  <SCORE.INTRA.POLAR.0>
0

>  <SCORE.INTRA.REPUL>
0

>  <SCORE.INTRA.REPUL.0>
0

>  <SCORE.INTRA.SOLV>
0.0333144

>  <SCORE.INTRA.SOLV.lig_0>
-49.456

>  <SCORE.INTRA.VDW>
0.0226419

>  <SCORE.INTRA.VDW.0>
-0.478406

>  <SCORE.INTRA.norm>
-0.198608

>  <SCORE.RESTR>
0

>  <SCORE.RESTR.CAVITY>
0

>  <SCORE.RESTR.norm>
0

>  <SCORE.SYSTEM>
0

>  <SCORE.SYSTEM.CONST>
0

>  <SCORE.SYSTEM.DIHEDRAL>
0

>  <SCORE.SYSTEM.SOLV>
0

>  <SCORE.SYSTEM.norm>
0

>  <SCORE.heavy>
14

>  <SCORE.norm>
-0.682258

>  <RMSD>
4.795

$$$$
ligand
 OpenBabel11021811413D
libRbt.so/2013.1/901 2013/11/27
 14 13  0  0  0  0  0  0  0  0999 V2000
   44.2547   15.5414   14.7595 N   0  0  0  0  0  0  0  0  0  0  0  0
   44.8377   14.2233   14.4280 C   0  0  0  0  0  0  0  0  0  0  0  0
   44.8451   13.2909   15.6586 C   0  0  0  0  0  0  0  0  0  0  0  0
   45.4638   11.9058   15.4083 C   0  0  0  0  0  0  0  0  0  0  0  0
   45.4381   11.0775   16.6452 N   0  0  0  0  0  0  0  0  0  0  0  0
   46.4899   10.0304   16.5837 C   0  0  0  0  0  0  0  0  0  0  0  0
   46.4064    8.9219   17.6867 C   0  0  0  0  0  0  0  0  0  0  0  0
   46.6586    9.4426   19.1308 C   0  0  0  0  0  0  0  0  0  0  0  0
   46.4932    8.3846   20.2043 C   0  0  0  0  0  0  0  0  0  0  0  0
   45.0985    7.9856   20.2167 N   0  0  0  0  0  0  0  0  0  0  0  0
   45.0732    6.6444   20.7737 C   0  0  0  0  0  0  0  0  0  0  0  0
   43.6462    6.1726   21.0270 C   0  0  0  0  0  0  0  0  0  0  0  0
   43.7233    4.7609   21.6280 C   0  0  0  0  0  0  0  0  0  0  0  0
   42.3931    4.1593   21.8055 N   0  0  0  0  0  0  0  0  0  0  0  0
  1  2  1  0  0  0  0
  2  3  1  0  0  0  0
  3  4  1  0  0  0  0
  4  5  1  0  0  0  0
  5  6  1  0  0  0  0
  6  7  1  0  0  0  0
  7  8  1  0  0  0  0
  8  9  1  0  0  0  0
  9 10  1  0  0  0  0
 10 11  1  0  0  0  0
 11 12  1  0  0  0  0
 12 13  1  0  0  0  0
 13 14  1  0  0  0  0
M  END
>  <CHROM.1>
-178.76619225,179.63928373,-156.40971276,-168.93840766,-65.91409950,176.43874001
-65.37629569,155.59992108,172.03309935,-179.31355363,-175.04911464,45.05900204
9.46713307,18.28254424,1.46857912,0.01432328,-0.65302935

>  <Name>
ligand

>  <RI>
0

>  <Rbt.Current_Directory>
/home/itssahil/PROJECTS/Mol_Feturizer/New_Systems/rnas/1TN1

>  <Rbt.Executable>
rbdock ($Id: //depot/dev/client3/rdock/2013.1/src/exe/rbdock.cxx#4 $)

>  <Rbt.Library>
libRbt.so (2013.1, Build901 2013/11/27)

>  <Rbt.Parameter_File>
/export/apps/rDock/src/rDock_2013.1_src/data/scripts/dock_solv.prm

>  <Rbt.Receptor>
prm/pocket_docking_7.prm

>  <SCORE>
-4.8175

>  <SCORE.INTER>
-1.13104

>  <SCORE.INTER.CONST>
1

>  <SCORE.INTER.POLAR>
0

>  <SCORE.INTER.ROT>
11

>  <SCORE.INTER.SOLV>
10.6918

>  <SCORE.INTER.VDW>
-15.2513

>  <SCORE.INTER.norm>
-0.0807883

>  <SCORE.INTRA>
-3.68647

>  <SCORE.INTRA.DIHEDRAL>
-6.42334

>  <SCORE.INTRA.DIHEDRAL.0>
7.79482

>  <SCORE.INTRA.POLAR>
0

>  <SCORE.INTRA.POLAR.0>
0

>  <SCORE.INTRA.REPUL>
0

>  <SCORE.INTRA.REPUL.0>
0

>  <SCORE.INTRA.SOLV>
0.666215

>  <SCORE.INTRA.SOLV.lig_0>
-49.456

>  <SCORE.INTRA.VDW>
-0.807906

>  <SCORE.INTRA.VDW.0>
-0.478406

>  <SCORE.INTRA.norm>
-0.263319

>  <SCORE.RESTR>
0

>  <SCORE.RESTR.CAVITY>
0

>  <SCORE.RESTR.norm>
0

>  <SCORE.SYSTEM>
0

>  <SCORE.SYSTEM.CONST>
0

>  <SCORE.SYSTEM.DIHEDRAL>
0

>  <SCORE.SYSTEM.SOLV>
0

>  <SCORE.SYSTEM.norm>
0

>  <SCORE.heavy>
14

>  <SCORE.norm>
-0.344107

>  <RMSD>
4.803

$$$$
ligand
 OpenBabel11021811413D
libRbt.so/2013.1/901 2013/11/27
 14 13  0  0  0  0  0  0  0  0999 V2000
   45.9030    8.4809   19.1720 N   0  0  0  0  0  0  0  0  0  0  0  0
   46.3542    7.2488   19.8544 C   0  0  0  0  0  0  0  0  0  0  0  0
   45.1752    6.2818   20.0973 C   0  0  0  0  0  0  0  0  0  0  0  0
   45.5660    4.9496   20.7578 C   0  0  0  0  0  0  0  0  0  0  0  0
   46.5187    4.1887   19.9035 N   0  0  0  0  0  0  0  0  0  0  0  0
   45.7784    3.2647   19.0062 C   0  0  0  0  0  0  0  0  0  0  0  0
   46.5429    1.9604   18.5983 C   0  0  0  0  0  0  0  0  0  0  0  0
   45.7591    1.0468   17.6127 C   0  0  0  0  0  0  0  0  0  0  0  0
   45.5931    1.6370   16.2260 C   0  0  0  0  0  0  0  0  0  0  0  0
   45.1402    0.5749   15.3478 N   0  0  0  0  0  0  0  0  0  0  0  0
   44.9956    1.1787   14.0347 C   0  0  0  0  0  0  0  0  0  0  0  0
   45.2953    0.1780   12.9247 C   0  0  0  0  0  0  0  0  0  0  0  0
   44.2154   -0.9133   12.9789 C   0  0  0  0  0  0  0  0  0  0  0  0
   44.3527   -1.7722   14.1647 N   0  0  0  0  0  0  0  0  0  0  0  0
  1  2  1  0  0  0  0
  2  3  1  0  0  0  0
  3  4  1  0  0  0  0
  4  5  1  0  0  0  0
  5  6  1  0  0  0  0
  6  7  1  0  0  0  0
  7  8  1  0  0  0  0
  8  9  1  0  0  0  0
  9 10  1  0  0  0  0
 10 11  1  0  0  0  0
 11 12  1  0  0  0  0
 12 13  1  0  0  0  0
 13 14  1  0  0  0  0
M  END
>  <CHROM.1>
177.86181554,-61.24883479,-91.88096584,-150.73630340,-177.62596791,68.54814342
166.75654057,-179.93414932,148.10375493,65.49390100,-70.15105448,45.51356901
2.73600213,17.19135945,0.89701802,-1.37136406,0.06845160

>  <Name>
ligand

>  <RI>
0

>  <Rbt.Current_Directory>
/home/itssahil/PROJECTS/Mol_Feturizer/New_Systems/rnas/1TN1

>  <Rbt.Executable>
rbdock ($Id: //depot/dev/client3/rdock/2013.1/src/exe/rbdock.cxx#4 $)

>  <Rbt.Library>
libRbt.so (2013.1, Build901 2013/11/27)

>  <Rbt.Parameter_File>
/export/apps/rDock/src/rDock_2013.1_src/data/scripts/dock_solv.prm

>  <Rbt.Receptor>
prm/pocket_docking_5.prm

>  <SCORE>
-5.70378

>  <SCORE.INTER>
-5.09094

>  <SCORE.INTER.CONST>
1

>  <SCORE.INTER.POLAR>
0

>  <SCORE.INTER.ROT>
11

>  <SCORE.INTER.SOLV>
14.1608

>  <SCORE.INTER.VDW>
-19.0476

>  <SCORE.INTER.norm>
-0.363638

>  <SCORE.INTRA>
-0.612837

>  <SCORE.INTRA.DIHEDRAL>
-4.42202

>  <SCORE.INTRA.DIHEDRAL.0>
7.79482

>  <SCORE.INTRA.POLAR>
0

>  <SCORE.INTRA.POLAR.0>
0

>  <SCORE.INTRA.REPUL>
0

>  <SCORE.INTRA.REPUL.0>
0

>  <SCORE.INTRA.SOLV>
3.42722

>  <SCORE.INTRA.SOLV.lig_0>
-49.456

>  <SCORE.INTRA.VDW>
-0.115438

>  <SCORE.INTRA.VDW.0>
-0.478406

>  <SCORE.INTRA.norm>
-0.0437741

>  <SCORE.RESTR>
0

>  <SCORE.RESTR.CAVITY>
0

>  <SCORE.RESTR.norm>
0

>  <SCORE.SYSTEM>
0

>  <SCORE.SYSTEM.CONST>
0

>  <SCORE.SYSTEM.DIHEDRAL>
0

>  <SCORE.SYSTEM.SOLV>
0

>  <SCORE.SYSTEM.norm>
0

>  <SCORE.heavy>
14

>  <SCORE.norm>
-0.407413

>  <RMSD>
4.821

$$$$
ligand
 OpenBabel11021811413D
libRbt.so/2013.1/901 2013/11/27
 14 13  0  0  0  0  0  0  0  0999 V2000
   45.2869    3.9746   19.0167 N   0  0  0  0  0  0  0  0  0  0  0  0
   46.1815    4.7318   19.9186 C   0  0  0  0  0  0  0  0  0  0  0  0
   45.5351    4.9323   21.3064 C   0  0  0  0  0  0  0  0  0  0  0  0
   44.3560    5.9188   21.3266 C   0  0  0  0  0  0  0  0  0  0  0  0
   43.2746    5.4780   20.4033 N   0  0  0  0  0  0  0  0  0  0  0  0
   42.0740    6.3366   20.5718 C   0  0  0  0  0  0  0  0  0  0  0  0
   42.2153    7.8070   20.0523 C   0  0  0  0  0  0  0  0  0  0  0  0
   40.8621    8.5591   19.8985 C   0  0  0  0  0  0  0  0  0  0  0  0
   41.0102   10.0417   19.6181 C   0  0  0  0  0  0  0  0  0  0  0  0
   41.7484   10.1826   18.3773 N   0  0  0  0  0  0  0  0  0  0  0  0
   41.8901   11.6115   18.1585 C   0  0  0  0  0  0  0  0  0  0  0  0
   42.8037   11.9065   16.9746 C   0  0  0  0  0  0  0  0  0  0  0  0
   44.2159   11.4305   17.3475 C   0  0  0  0  0  0  0  0  0  0  0  0
   45.2020   11.7448   16.3026 N   0  0  0  0  0  0  0  0  0  0  0  0
  1  2  1  0  0  0  0
  2  3  1  0  0  0  0
  3  4  1  0  0  0  0
  4  5  1  0  0  0  0
  5  6  1  0  0  0  0
  6  7  1  0  0  0  0
  7  8  1  0  0  0  0
  8  9  1  0  0  0  0
  9 10  1  0  0  0  0
 10 11  1  0  0  0  0
 11 12  1  0  0  0  0
 12 13  1  0  0  0  0
 13 14  1  0  0  0  0
M  END
>  <CHROM.1>
-70.87443348,58.67602908,172.34263881,70.16692814,164.86679464,170.45182258
60.10243726,-178.95884759,172.76061322,-65.88673317,-176.41549017,43.33233227
8.18983319,19.23406329,-1.27990660,0.39566256,-0.52797449

>  <Name>
ligand

>  <RI>
0

>  <Rbt.Current_Directory>
/home/itssahil/PROJECTS/Mol_Feturizer/New_Systems/rnas/1TN1

>  <Rbt.Executable>
rbdock ($Id: //depot/dev/client3/rdock/2013.1/src/exe/rbdock.cxx#4 $)

>  <Rbt.Library>
libRbt.so (2013.1, Build901 2013/11/27)

>  <Rbt.Parameter_File>
/export/apps/rDock/src/rDock_2013.1_src/data/scripts/dock_solv.prm

>  <Rbt.Receptor>
prm/pocket_docking_6.prm

>  <SCORE>
-12.3328

>  <SCORE.INTER>
-11.0701

>  <SCORE.INTER.CONST>
1

>  <SCORE.INTER.POLAR>
0

>  <SCORE.INTER.ROT>
11

>  <SCORE.INTER.SOLV>
16.1918

>  <SCORE.INTER.VDW>
-23.7106

>  <SCORE.INTER.norm>
-0.79072

>  <SCORE.INTRA>
-1.26272

>  <SCORE.INTRA.DIHEDRAL>
-5.80352

>  <SCORE.INTRA.DIHEDRAL.0>
7.79482

>  <SCORE.INTRA.POLAR>
0

>  <SCORE.INTRA.POLAR.0>
0

>  <SCORE.INTRA.REPUL>
0

>  <SCORE.INTRA.REPUL.0>
0

>  <SCORE.INTRA.SOLV>
3.58531

>  <SCORE.INTRA.SOLV.lig_0>
-49.456

>  <SCORE.INTRA.VDW>
-0.153611

>  <SCORE.INTRA.VDW.0>
-0.478406

>  <SCORE.INTRA.norm>
-0.0901942

>  <SCORE.RESTR>
0

>  <SCORE.RESTR.CAVITY>
0

>  <SCORE.RESTR.norm>
0

>  <SCORE.SYSTEM>
0

>  <SCORE.SYSTEM.CONST>
0

>  <SCORE.SYSTEM.DIHEDRAL>
0

>  <SCORE.SYSTEM.SOLV>
0

>  <SCORE.SYSTEM.norm>
0

>  <SCORE.heavy>
14

>  <SCORE.norm>
-0.880914

>  <RMSD>
4.860

$$$$
ligand
 OpenBabel11021811413D
libRbt.so/2013.1/901 2013/11/27
 14 13  0  0  0  0  0  0  0  0999 V2000
   46.2096    8.3655   19.2306 N   0  0  0  0  0  0  0  0  0  0  0  0
   46.3641    6.8990   19.1186 C   0  0  0  0  0  0  0  0  0  0  0  0
   45.7826    6.1805   20.3554 C   0  0  0  0  0  0  0  0  0  0  0  0
   45.8827    4.6469   20.3103 C   0  0  0  0  0  0  0  0  0  0  0  0
   45.1110    4.0945   19.1633 N   0  0  0  0  0  0  0  0  0  0  0  0
   45.2576    2.6172   19.1097 C   0  0  0  0  0  0  0  0  0  0  0  0
   46.4533    2.0866   18.2489 C   0  0  0  0  0  0  0  0  0  0  0  0
   46.3634    2.4569   16.7405 C   0  0  0  0  0  0  0  0  0  0  0  0
   45.2607    1.7324   15.9935 C   0  0  0  0  0  0  0  0  0  0  0  0
   45.5614    0.3138   16.0337 N   0  0  0  0  0  0  0  0  0  0  0  0
   44.7297   -0.2983   15.0123 C   0  0  0  0  0  0  0  0  0  0  0  0
   45.1507   -1.7376   14.7391 C   0  0  0  0  0  0  0  0  0  0  0  0
   44.2696   -2.2712   13.5994 C   0  0  0  0  0  0  0  0  0  0  0  0
   44.6313   -3.6433   13.2133 N   0  0  0  0  0  0  0  0  0  0  0  0
  1  2  1  0  0  0  0
  2  3  1  0  0  0  0
  3  4  1  0  0  0  0
  4  5  1  0  0  0  0
  5  6  1  0  0  0  0
  6  7  1  0  0  0  0
  7  8  1  0  0  0  0
  8  9  1  0  0  0  0
  9 10  1  0  0  0  0
 10 11  1  0  0  0  0
 11 12  1  0  0  0  0
 12 13  1  0  0  0  0
 13 14  1  0  0  0  0
M  END
>  <CHROM.1>
179.09323852,-61.98254597,178.08078427,-90.27989605,-62.20836975,-69.78171714
-63.06606268,-164.05427116,167.97424907,-176.97077625,177.58070949,45.50202685
2.24590665,17.20501163,-0.45259443,-1.43610868,-1.44028547

>  <Name>
ligand

>  <RI>
0

>  <Rbt.Current_Directory>
/home/itssahil/PROJECTS/Mol_Feturizer/New_Systems/rnas/1TN1

>  <Rbt.Executable>
rbdock ($Id: //depot/dev/client3/rdock/2013.1/src/exe/rbdock.cxx#4 $)

>  <Rbt.Library>
libRbt.so (2013.1, Build901 2013/11/27)

>  <Rbt.Parameter_File>
/export/apps/rDock/src/rDock_2013.1_src/data/scripts/dock_solv.prm

>  <Rbt.Receptor>
prm/blind_docking_100.prm

>  <SCORE>
-8.67279

>  <SCORE.INTER>
-5.65789

>  <SCORE.INTER.CONST>
1

>  <SCORE.INTER.POLAR>
0

>  <SCORE.INTER.ROT>
11

>  <SCORE.INTER.SOLV>
13.4559

>  <SCORE.INTER.VDW>
-19.1906

>  <SCORE.INTER.norm>
-0.404135

>  <SCORE.INTRA>
-3.0149

>  <SCORE.INTRA.DIHEDRAL>
-6.34938

>  <SCORE.INTRA.DIHEDRAL.0>
7.79482

>  <SCORE.INTRA.POLAR>
0

>  <SCORE.INTRA.POLAR.0>
0

>  <SCORE.INTRA.REPUL>
0

>  <SCORE.INTRA.REPUL.0>
0

>  <SCORE.INTRA.SOLV>
1.41235

>  <SCORE.INTRA.SOLV.lig_0>
-49.456

>  <SCORE.INTRA.VDW>
-0.546388

>  <SCORE.INTRA.VDW.0>
-0.478406

>  <SCORE.INTRA.norm>
-0.21535

>  <SCORE.RESTR>
0

>  <SCORE.RESTR.CAVITY>
0

>  <SCORE.RESTR.norm>
0

>  <SCORE.SYSTEM>
0

>  <SCORE.SYSTEM.CONST>
0

>  <SCORE.SYSTEM.DIHEDRAL>
0

>  <SCORE.SYSTEM.SOLV>
0

>  <SCORE.SYSTEM.norm>
0

>  <SCORE.heavy>
14

>  <SCORE.norm>
-0.619485

>  <RMSD>
4.872

$$$$
ligand
 OpenBabel11021811413D
libRbt.so/2013.1/901 2013/11/27
 14 13  0  0  0  0  0  0  0  0999 V2000
   45.0877    8.2683   20.1999 N   0  0  0  0  0  0  0  0  0  0  0  0
   46.4904    7.8358   20.0195 C   0  0  0  0  0  0  0  0  0  0  0  0
   46.5705    6.5281   19.2024 C   0  0  0  0  0  0  0  0  0  0  0  0
   45.9027    5.3146   19.8699 C   0  0  0  0  0  0  0  0  0  0  0  0
   45.9830    4.1124   18.9955 N   0  0  0  0  0  0  0  0  0  0  0  0
   44.9330    3.1318   19.3733 C   0  0  0  0  0  0  0  0  0  0  0  0
   44.6080    2.0405   18.2984 C   0  0  0  0  0  0  0  0  0  0  0  0
   45.7830    1.0621   18.0112 C   0  0  0  0  0  0  0  0  0  0  0  0
   45.4348   -0.0503   17.0416 C   0  0  0  0  0  0  0  0  0  0  0  0
   45.1501    0.5599   15.7567 N   0  0  0  0  0  0  0  0  0  0  0  0
   44.4052   -0.4322   15.0013 C   0  0  0  0  0  0  0  0  0  0  0  0
   44.8001   -0.4242   13.5291 C   0  0  0  0  0  0  0  0  0  0  0  0
   46.2554   -0.9076   13.4358 C   0  0  0  0  0  0  0  0  0  0  0  0
   46.7401   -0.9455   12.0479 N   0  0  0  0  0  0  0  0  0  0  0  0
  1  2  1  0  0  0  0
  2  3  1  0  0  0  0
  3  4  1  0  0  0  0
  4  5  1  0  0  0  0
  5  6  1  0  0  0  0
  6  7  1  0  0  0  0
  7  8  1  0  0  0  0
  8  9  1  0  0  0  0
  9 10  1  0  0  0  0
 10 11  1  0  0  0  0
 11 12  1  0  0  0  0
 12 13  1  0  0  0  0
 13 14  1  0  0  0  0
M  END
>  <CHROM.1>
-63.02971468,177.95208278,-158.39905871,162.13584464,65.45012799,176.01135560
64.69624076,-161.36540648,-142.12877356,66.76258869,179.70540870,45.58164925
2.57794883,17.19892051,-1.50081963,-1.15394547,-2.39717213

>  <Name>
ligand

>  <RI>
0

>  <Rbt.Current_Directory>
/home/itssahil/PROJECTS/Mol_Feturizer/New_Systems/rnas/1TN1

>  <Rbt.Executable>
rbdock ($Id: //depot/dev/client3/rdock/2013.1/src/exe/rbdock.cxx#4 $)

>  <Rbt.Library>
libRbt.so (2013.1, Build901 2013/11/27)

>  <Rbt.Parameter_File>
/export/apps/rDock/src/rDock_2013.1_src/data/scripts/dock_solv.prm

>  <Rbt.Receptor>
prm/blind_docking_100.prm

>  <SCORE>
-7.28239

>  <SCORE.INTER>
-4.70949

>  <SCORE.INTER.CONST>
1

>  <SCORE.INTER.POLAR>
0

>  <SCORE.INTER.ROT>
11

>  <SCORE.INTER.SOLV>
12.6444

>  <SCORE.INTER.VDW>
-18.2878

>  <SCORE.INTER.norm>
-0.336392

>  <SCORE.INTRA>
-2.5729

>  <SCORE.INTRA.DIHEDRAL>
-5.61919

>  <SCORE.INTRA.DIHEDRAL.0>
7.79482

>  <SCORE.INTRA.POLAR>
0

>  <SCORE.INTRA.POLAR.0>
0

>  <SCORE.INTRA.REPUL>
0

>  <SCORE.INTRA.REPUL.0>
0

>  <SCORE.INTRA.SOLV>
1.73606

>  <SCORE.INTRA.SOLV.lig_0>
-49.456

>  <SCORE.INTRA.VDW>
-0.631334

>  <SCORE.INTRA.VDW.0>
-0.478406

>  <SCORE.INTRA.norm>
-0.183779

>  <SCORE.RESTR>
0

>  <SCORE.RESTR.CAVITY>
0

>  <SCORE.RESTR.norm>
0

>  <SCORE.SYSTEM>
0

>  <SCORE.SYSTEM.CONST>
0

>  <SCORE.SYSTEM.DIHEDRAL>
0

>  <SCORE.SYSTEM.SOLV>
0

>  <SCORE.SYSTEM.norm>
0

>  <SCORE.heavy>
14

>  <SCORE.norm>
-0.520171

>  <RMSD>
4.885

$$$$
ligand
 OpenBabel11021811413D
libRbt.so/2013.1/901 2013/11/27
 14 13  0  0  0  0  0  0  0  0999 V2000
   43.7816    7.5266   20.0472 N   0  0  0  0  0  0  0  0  0  0  0  0
   45.2101    7.7110   20.3826 C   0  0  0  0  0  0  0  0  0  0  0  0
   46.0756    6.5857   19.7753 C   0  0  0  0  0  0  0  0  0  0  0  0
   45.7439    5.1752   20.2893 C   0  0  0  0  0  0  0  0  0  0  0  0
   46.6322    4.1564   19.6653 N   0  0  0  0  0  0  0  0  0  0  0  0
   45.8252    3.1702   18.9017 C   0  0  0  0  0  0  0  0  0  0  0  0
   46.5437    1.8186   18.5715 C   0  0  0  0  0  0  0  0  0  0  0  0
   45.6437    0.7840   17.8367 C   0  0  0  0  0  0  0  0  0  0  0  0
   45.4165    1.0972   16.3707 C   0  0  0  0  0  0  0  0  0  0  0  0
   44.6427    0.0091   15.8037 N   0  0  0  0  0  0  0  0  0  0  0  0
   45.6094   -0.9908   15.3849 C   0  0  0  0  0  0  0  0  0  0  0  0
   44.9486   -2.1012   14.5764 C   0  0  0  0  0  0  0  0  0  0  0  0
   44.5532   -1.5118   13.2139 C   0  0  0  0  0  0  0  0  0  0  0  0
   43.9258   -2.5119   12.3370 N   0  0  0  0  0  0  0  0  0  0  0  0
  1  2  1  0  0  0  0
  2  3  1  0  0  0  0
  3  4  1  0  0  0  0
  4  5  1  0  0  0  0
  5  6  1  0  0  0  0
  6  7  1  0  0  0  0
  7  8  1  0  0  0  0
  8  9  1  0  0  0  0
  9 10  1  0  0  0  0
 10 11  1  0  0  0  0
 11 12  1  0  0  0  0
 12 13  1  0  0  0  0
 13 14  1  0  0  0  0
M  END
>  <CHROM.1>
-62.05345810,-179.38807665,-119.42729971,-161.70818761,176.97983367,75.50028789
176.24493846,-87.11322408,-171.31609030,70.89417293,178.88796282,45.32539522
2.20842557,17.36846933,1.47073280,-0.80563912,0.57597540

>  <Name>
ligand

>  <RI>
0

>  <Rbt.Current_Directory>
/home/itssahil/PROJECTS/Mol_Feturizer/New_Systems/rnas/1TN1

>  <Rbt.Executable>
rbdock ($Id: //depot/dev/client3/rdock/2013.1/src/exe/rbdock.cxx#4 $)

>  <Rbt.Library>
libRbt.so (2013.1, Build901 2013/11/27)

>  <Rbt.Parameter_File>
/export/apps/rDock/src/rDock_2013.1_src/data/scripts/dock_solv.prm

>  <Rbt.Receptor>
prm/blind_docking_100.prm

>  <SCORE>
-7.43633

>  <SCORE.INTER>
-6.13121

>  <SCORE.INTER.CONST>
1

>  <SCORE.INTER.POLAR>
0

>  <SCORE.INTER.ROT>
11

>  <SCORE.INTER.SOLV>
16.6213

>  <SCORE.INTER.VDW>
-20.5612

>  <SCORE.INTER.norm>
-0.437943

>  <SCORE.INTRA>
-1.30512

>  <SCORE.INTRA.DIHEDRAL>
-4.2694

>  <SCORE.INTRA.DIHEDRAL.0>
7.79482

>  <SCORE.INTRA.POLAR>
0

>  <SCORE.INTRA.POLAR.0>
0

>  <SCORE.INTRA.REPUL>
0

>  <SCORE.INTRA.REPUL.0>
0

>  <SCORE.INTRA.SOLV>
1.06969

>  <SCORE.INTRA.SOLV.lig_0>
-49.456

>  <SCORE.INTRA.VDW>
0.294731

>  <SCORE.INTRA.VDW.0>
-0.478406

>  <SCORE.INTRA.norm>
-0.0932232

>  <SCORE.RESTR>
0

>  <SCORE.RESTR.CAVITY>
0

>  <SCORE.RESTR.norm>
0

>  <SCORE.SYSTEM>
0

>  <SCORE.SYSTEM.CONST>
0

>  <SCORE.SYSTEM.DIHEDRAL>
0

>  <SCORE.SYSTEM.SOLV>
0

>  <SCORE.SYSTEM.norm>
0

>  <SCORE.heavy>
14

>  <SCORE.norm>
-0.531166

>  <RMSD>
4.899

$$$$
ligand
 OpenBabel11021811413D
libRbt.so/2013.1/901 2013/11/27
 14 13  0  0  0  0  0  0  0  0999 V2000
   45.9915    8.4400   19.1082 N   0  0  0  0  0  0  0  0  0  0  0  0
   46.2372    7.7123   20.3721 C   0  0  0  0  0  0  0  0  0  0  0  0
   45.5667    6.3216   20.3546 C   0  0  0  0  0  0  0  0  0  0  0  0
   46.1233    5.3561   19.2953 C   0  0  0  0  0  0  0  0  0  0  0  0
   45.4266    4.0417   19.3516 N   0  0  0  0  0  0  0  0  0  0  0  0
   46.1971    3.0195   18.5977 C   0  0  0  0  0  0  0  0  0  0  0  0
   45.6925    1.5448   18.7480 C   0  0  0  0  0  0  0  0  0  0  0  0
   44.3329    1.2641   18.0459 C   0  0  0  0  0  0  0  0  0  0  0  0
   44.4302    1.1569   16.5366 C   0  0  0  0  0  0  0  0  0  0  0  0
   45.2860    0.0263   16.2306 N   0  0  0  0  0  0  0  0  0  0  0  0
   44.8040   -0.5079   14.9689 C   0  0  0  0  0  0  0  0  0  0  0  0
   45.5063   -1.8124   14.6109 C   0  0  0  0  0  0  0  0  0  0  0  0
   45.0466   -2.2162   13.2018 C   0  0  0  0  0  0  0  0  0  0  0  0
   43.6308   -2.6129   13.1717 N   0  0  0  0  0  0  0  0  0  0  0  0
  1  2  1  0  0  0  0
  2  3  1  0  0  0  0
  3  4  1  0  0  0  0
  4  5  1  0  0  0  0
  5  6  1  0  0  0  0
  6  7  1  0  0  0  0
  7  8  1  0  0  0  0
  8  9  1  0  0  0  0
  9 10  1  0  0  0  0
 10 11  1  0  0  0  0
 11 12  1  0  0  0  0
 12 13  1  0  0  0  0
 13 14  1  0  0  0  0
M  END
>  <CHROM.1>
64.11868145,179.77506279,-164.85015207,171.35076825,70.37429562,75.04152948
62.45469204,149.09802031,-172.89789378,-173.94079717,-68.59159260,45.30521269
2.26661824,17.32828279,0.15502727,-1.44333951,-0.82703833

>  <Name>
ligand

>  <RI>
0

>  <Rbt.Current_Directory>
/home/itssahil/PROJECTS/Mol_Feturizer/New_Systems/rnas/1TN1

>  <Rbt.Executable>
rbdock ($Id: //depot/dev/client3/rdock/2013.1/src/exe/rbdock.cxx#4 $)

>  <Rbt.Library>
libRbt.so (2013.1, Build901 2013/11/27)

>  <Rbt.Parameter_File>
/export/apps/rDock/src/rDock_2013.1_src/data/scripts/dock_solv.prm

>  <Rbt.Receptor>
prm/pocket_docking_6.prm

>  <SCORE>
-8.20524

>  <SCORE.INTER>
-6.36386

>  <SCORE.INTER.CONST>
1

>  <SCORE.INTER.POLAR>
0

>  <SCORE.INTER.ROT>
11

>  <SCORE.INTER.SOLV>
14.1259

>  <SCORE.INTER.VDW>
-19.8845

>  <SCORE.INTER.norm>
-0.454562

>  <SCORE.INTRA>
-1.84138

>  <SCORE.INTRA.DIHEDRAL>
-5.08847

>  <SCORE.INTRA.DIHEDRAL.0>
7.79482

>  <SCORE.INTRA.POLAR>
0

>  <SCORE.INTRA.POLAR.0>
0

>  <SCORE.INTRA.REPUL>
0

>  <SCORE.INTRA.REPUL.0>
0

>  <SCORE.INTRA.SOLV>
2.38331

>  <SCORE.INTRA.SOLV.lig_0>
-49.456

>  <SCORE.INTRA.VDW>
-0.488802

>  <SCORE.INTRA.VDW.0>
-0.478406

>  <SCORE.INTRA.norm>
-0.131527

>  <SCORE.RESTR>
0

>  <SCORE.RESTR.CAVITY>
0

>  <SCORE.RESTR.norm>
0

>  <SCORE.SYSTEM>
0

>  <SCORE.SYSTEM.CONST>
0

>  <SCORE.SYSTEM.DIHEDRAL>
0

>  <SCORE.SYSTEM.SOLV>
0

>  <SCORE.SYSTEM.norm>
0

>  <SCORE.heavy>
14

>  <SCORE.norm>
-0.586089

>  <RMSD>
4.900

$$$$
ligand
 OpenBabel11021811413D
libRbt.so/2013.1/901 2013/11/27
 14 13  0  0  0  0  0  0  0  0999 V2000
   45.9676    8.6300   19.2370 N   0  0  0  0  0  0  0  0  0  0  0  0
   46.4353    7.4126   19.9343 C   0  0  0  0  0  0  0  0  0  0  0  0
   45.2576    6.4681   20.2586 C   0  0  0  0  0  0  0  0  0  0  0  0
   45.6665    5.1341   20.9046 C   0  0  0  0  0  0  0  0  0  0  0  0
   46.5620    4.3568   20.0044 N   0  0  0  0  0  0  0  0  0  0  0  0
   45.7663    3.6797   18.9485 C   0  0  0  0  0  0  0  0  0  0  0  0
   46.1570    2.1917   18.6561 C   0  0  0  0  0  0  0  0  0  0  0  0
   45.3276    1.5289   17.5189 C   0  0  0  0  0  0  0  0  0  0  0  0
   45.6614    0.0686   17.2845 C   0  0  0  0  0  0  0  0  0  0  0  0
   44.9845   -0.3475   16.0709 N   0  0  0  0  0  0  0  0  0  0  0  0
   45.4633   -1.6893   15.7881 C   0  0  0  0  0  0  0  0  0  0  0  0
   44.9029   -2.2156   14.4720 C   0  0  0  0  0  0  0  0  0  0  0  0
   45.5830   -1.4396   13.3339 C   0  0  0  0  0  0  0  0  0  0  0  0
   45.1805   -1.9319   12.0079 N   0  0  0  0  0  0  0  0  0  0  0  0
  1  2  1  0  0  0  0
  2  3  1  0  0  0  0
  3  4  1  0  0  0  0
  4  5  1  0  0  0  0
  5  6  1  0  0  0  0
  6  7  1  0  0  0  0
  7  8  1  0  0  0  0
  8  9  1  0  0  0  0
  9 10  1  0  0  0  0
 10 11  1  0  0  0  0
 11 12  1  0  0  0  0
 12 13  1  0  0  0  0
 13 14  1  0  0  0  0
M  END
>  <CHROM.1>
176.25626140,-60.66760193,-78.82972601,-136.09965096,-178.44922394,-177.15560735
-170.71882591,172.85452364,-175.92059045,71.11015609,176.14401607,45.63680338
2.27460287,17.45880281,0.23028640,-1.49823844,-0.71964474

>  <Name>
ligand

>  <RI>
0

>  <Rbt.Current_Directory>
/home/itssahil/PROJECTS/Mol_Feturizer/New_Systems/rnas/1TN1

>  <Rbt.Executable>
rbdock ($Id: //depot/dev/client3/rdock/2013.1/src/exe/rbdock.cxx#4 $)

>  <Rbt.Library>
libRbt.so (2013.1, Build901 2013/11/27)

>  <Rbt.Parameter_File>
/export/apps/rDock/src/rDock_2013.1_src/data/scripts/dock_solv.prm

>  <Rbt.Receptor>
prm/blind_docking_60.prm

>  <SCORE>
-10.6864

>  <SCORE.INTER>
-7.96368

>  <SCORE.INTER.CONST>
1

>  <SCORE.INTER.POLAR>
0

>  <SCORE.INTER.ROT>
11

>  <SCORE.INTER.SOLV>
12.4928

>  <SCORE.INTER.VDW>
-20.4067

>  <SCORE.INTER.norm>
-0.568834

>  <SCORE.INTRA>
-2.72268

>  <SCORE.INTRA.DIHEDRAL>
-5.5447

>  <SCORE.INTRA.DIHEDRAL.0>
7.79482

>  <SCORE.INTRA.POLAR>
0

>  <SCORE.INTRA.POLAR.0>
0

>  <SCORE.INTRA.REPUL>
0

>  <SCORE.INTRA.REPUL.0>
0

>  <SCORE.INTRA.SOLV>
0.647131

>  <SCORE.INTRA.SOLV.lig_0>
-49.456

>  <SCORE.INTRA.VDW>
-0.273896

>  <SCORE.INTRA.VDW.0>
-0.478406

>  <SCORE.INTRA.norm>
-0.194477

>  <SCORE.RESTR>
0

>  <SCORE.RESTR.CAVITY>
0

>  <SCORE.RESTR.norm>
0

>  <SCORE.SYSTEM>
0

>  <SCORE.SYSTEM.CONST>
0

>  <SCORE.SYSTEM.DIHEDRAL>
0

>  <SCORE.SYSTEM.SOLV>
0

>  <SCORE.SYSTEM.norm>
0

>  <SCORE.heavy>
14

>  <SCORE.norm>
-0.763312

>  <RMSD>
4.907

$$$$
ligand
 OpenBabel11021811413D
libRbt.so/2013.1/901 2013/11/27
 14 13  0  0  0  0  0  0  0  0999 V2000
   45.8747    4.6022   18.6040 N   0  0  0  0  0  0  0  0  0  0  0  0
   46.0433    5.6623   19.6212 C   0  0  0  0  0  0  0  0  0  0  0  0
   45.9200    5.0896   21.0498 C   0  0  0  0  0  0  0  0  0  0  0  0
   44.4998    4.6508   21.4429 C   0  0  0  0  0  0  0  0  0  0  0  0
   43.5840    5.8213   21.5309 N   0  0  0  0  0  0  0  0  0  0  0  0
   42.2934    5.5147   20.8624 C   0  0  0  0  0  0  0  0  0  0  0  0
   41.2703    6.6981   20.7910 C   0  0  0  0  0  0  0  0  0  0  0  0
   41.8526    8.0049   20.1797 C   0  0  0  0  0  0  0  0  0  0  0  0
   40.8046    9.0487   19.8465 C   0  0  0  0  0  0  0  0  0  0  0  0
   41.4702   10.3363   19.7871 N   0  0  0  0  0  0  0  0  0  0  0  0
   41.6891   10.6064   18.3768 C   0  0  0  0  0  0  0  0  0  0  0  0
   42.2134   12.0203   18.1547 C   0  0  0  0  0  0  0  0  0  0  0  0
   42.5685   12.1557   16.6662 C   0  0  0  0  0  0  0  0  0  0  0  0
   43.7448   11.3525   16.3005 N   0  0  0  0  0  0  0  0  0  0  0  0
  1  2  1  0  0  0  0
  2  3  1  0  0  0  0
  3  4  1  0  0  0  0
  4  5  1  0  0  0  0
  5  6  1  0  0  0  0
  6  7  1  0  0  0  0
  7  8  1  0  0  0  0
  8  9  1  0  0  0  0
  9 10  1  0  0  0  0
 10 11  1  0  0  0  0
 11 12  1  0  0  0  0
 12 13  1  0  0  0  0
 13 14  1  0  0  0  0
M  END
>  <CHROM.1>
-70.39555711,-66.59275016,135.27680064,-175.81208662,52.76806287,168.02714159
158.50789632,99.69269689,172.24522853,173.45963918,-69.46507799,43.13040362
7.96881761,19.51545354,-1.17130325,0.48860901,-0.61878000

>  <Name>
ligand

>  <RI>
0

>  <Rbt.Current_Directory>
/home/itssahil/PROJECTS/Mol_Feturizer/New_Systems/rnas/1TN1

>  <Rbt.Executable>
rbdock ($Id: //depot/dev/client3/rdock/2013.1/src/exe/rbdock.cxx#4 $)

>  <Rbt.Library>
libRbt.so (2013.1, Build901 2013/11/27)

>  <Rbt.Parameter_File>
/export/apps/rDock/src/rDock_2013.1_src/data/scripts/dock_solv.prm

>  <Rbt.Receptor>
prm/pocket_docking_7.prm

>  <SCORE>
-10.0681

>  <SCORE.INTER>
-9.72749

>  <SCORE.INTER.CONST>
1

>  <SCORE.INTER.POLAR>
0

>  <SCORE.INTER.ROT>
11

>  <SCORE.INTER.SOLV>
20.4041

>  <SCORE.INTER.VDW>
-24.2197

>  <SCORE.INTER.norm>
-0.694821

>  <SCORE.INTRA>
-0.340613

>  <SCORE.INTRA.DIHEDRAL>
-2.41986

>  <SCORE.INTRA.DIHEDRAL.0>
7.79482

>  <SCORE.INTRA.POLAR>
0

>  <SCORE.INTRA.POLAR.0>
0

>  <SCORE.INTRA.REPUL>
0

>  <SCORE.INTRA.REPUL.0>
0

>  <SCORE.INTRA.SOLV>
2.83055

>  <SCORE.INTRA.SOLV.lig_0>
-49.456

>  <SCORE.INTRA.VDW>
-0.545958

>  <SCORE.INTRA.VDW.0>
-0.478406

>  <SCORE.INTRA.norm>
-0.0243295

>  <SCORE.RESTR>
0

>  <SCORE.RESTR.CAVITY>
0

>  <SCORE.RESTR.norm>
0

>  <SCORE.SYSTEM>
0

>  <SCORE.SYSTEM.CONST>
0

>  <SCORE.SYSTEM.DIHEDRAL>
0

>  <SCORE.SYSTEM.SOLV>
0

>  <SCORE.SYSTEM.norm>
0

>  <SCORE.heavy>
14

>  <SCORE.norm>
-0.71915

>  <RMSD>
4.955

$$$$
ligand
 OpenBabel11021811413D
libRbt.so/2013.1/901 2013/11/27
 14 13  0  0  0  0  0  0  0  0999 V2000
   46.0059    3.6453   19.3241 N   0  0  0  0  0  0  0  0  0  0  0  0
   45.0920    4.6027   19.9838 C   0  0  0  0  0  0  0  0  0  0  0  0
   45.7999    5.9453   20.2670 C   0  0  0  0  0  0  0  0  0  0  0  0
   44.9027    7.0203   20.9022 C   0  0  0  0  0  0  0  0  0  0  0  0
   43.7894    7.3957   19.9877 N   0  0  0  0  0  0  0  0  0  0  0  0
   42.5241    6.7547   20.4291 C   0  0  0  0  0  0  0  0  0  0  0  0
   41.3545    7.7357   20.7784 C   0  0  0  0  0  0  0  0  0  0  0  0
   40.9534    8.6859   19.6137 C   0  0  0  0  0  0  0  0  0  0  0  0
   41.9914    9.7451   19.2982 C   0  0  0  0  0  0  0  0  0  0  0  0
   41.4613   10.5766   18.2342 N   0  0  0  0  0  0  0  0  0  0  0  0
   42.0503   11.8905   18.4249 C   0  0  0  0  0  0  0  0  0  0  0  0
   42.4297   12.5300   17.0943 C   0  0  0  0  0  0  0  0  0  0  0  0
   43.6317   11.7559   16.5325 C   0  0  0  0  0  0  0  0  0  0  0  0
   44.2438   12.4384   15.3826 N   0  0  0  0  0  0  0  0  0  0  0  0
  1  2  1  0  0  0  0
  2  3  1  0  0  0  0
  3  4  1  0  0  0  0
  4  5  1  0  0  0  0
  5  6  1  0  0  0  0
  6  7  1  0  0  0  0
  7  8  1  0  0  0  0
  8  9  1  0  0  0  0
  9 10  1  0  0  0  0
 10 11  1  0  0  0  0
 11 12  1  0  0  0  0
 12 13  1  0  0  0  0
 13 14  1  0  0  0  0
M  END
>  <CHROM.1>
177.65266573,-62.98066340,102.80188263,120.54910905,57.46321156,-69.96509739
-178.00493319,150.69537786,140.39395431,-70.42115173,-169.09618594,43.30192707
8.62305068,19.01837439,-1.23196783,0.49311232,-0.59489473

>  <Name>
ligand

>  <RI>
0

>  <Rbt.Current_Directory>
/home/itssahil/PROJECTS/Mol_Feturizer/New_Systems/rnas/1TN1

>  <Rbt.Executable>
rbdock ($Id: //depot/dev/client3/rdock/2013.1/src/exe/rbdock.cxx#4 $)

>  <Rbt.Library>
libRbt.so (2013.1, Build901 2013/11/27)

>  <Rbt.Parameter_File>
/export/apps/rDock/src/rDock_2013.1_src/data/scripts/dock_solv.prm

>  <Rbt.Receptor>
prm/pocket_docking_8.prm

>  <SCORE>
-11.4143

>  <SCORE.INTER>
-10.3444

>  <SCORE.INTER.CONST>
1

>  <SCORE.INTER.POLAR>
0

>  <SCORE.INTER.ROT>
11

>  <SCORE.INTER.SOLV>
18.7596

>  <SCORE.INTER.VDW>
-24.0828

>  <SCORE.INTER.norm>
-0.738889

>  <SCORE.INTRA>
-1.06984

>  <SCORE.INTRA.DIHEDRAL>
-2.81555

>  <SCORE.INTRA.DIHEDRAL.0>
7.79482

>  <SCORE.INTRA.POLAR>
0

>  <SCORE.INTRA.POLAR.0>
0

>  <SCORE.INTRA.REPUL>
0

>  <SCORE.INTRA.REPUL.0>
0

>  <SCORE.INTRA.SOLV>
1.6093

>  <SCORE.INTRA.SOLV.lig_0>
-49.456

>  <SCORE.INTRA.VDW>
-0.46671

>  <SCORE.INTRA.VDW.0>
-0.478406

>  <SCORE.INTRA.norm>
-0.0764171

>  <SCORE.RESTR>
0

>  <SCORE.RESTR.CAVITY>
0

>  <SCORE.RESTR.norm>
0

>  <SCORE.SYSTEM>
0

>  <SCORE.SYSTEM.CONST>
0

>  <SCORE.SYSTEM.DIHEDRAL>
0

>  <SCORE.SYSTEM.SOLV>
0

>  <SCORE.SYSTEM.norm>
0

>  <SCORE.heavy>
14

>  <SCORE.norm>
-0.815306

>  <RMSD>
4.955

$$$$
ligand
 OpenBabel11021811413D
libRbt.so/2013.1/901 2013/11/27
 14 13  0  0  0  0  0  0  0  0999 V2000
   46.1515   -2.8076   12.1237 N   0  0  0  0  0  0  0  0  0  0  0  0
   46.0300   -1.6293   13.0092 C   0  0  0  0  0  0  0  0  0  0  0  0
   44.6254   -1.5521   13.6456 C   0  0  0  0  0  0  0  0  0  0  0  0
   44.3914   -0.3174   14.5316 C   0  0  0  0  0  0  0  0  0  0  0  0
   45.3684   -0.2722   15.6540 N   0  0  0  0  0  0  0  0  0  0  0  0
   45.0426    0.8483   16.5733 C   0  0  0  0  0  0  0  0  0  0  0  0
   45.7824    0.8282   17.9533 C   0  0  0  0  0  0  0  0  0  0  0  0
   45.3073    1.9290   18.9447 C   0  0  0  0  0  0  0  0  0  0  0  0
   45.7944    3.3222   18.5973 C   0  0  0  0  0  0  0  0  0  0  0  0
   45.3481    4.2182   19.6472 N   0  0  0  0  0  0  0  0  0  0  0  0
   46.0492    5.4710   19.4260 C   0  0  0  0  0  0  0  0  0  0  0  0
   45.6554    6.5204   20.4589 C   0  0  0  0  0  0  0  0  0  0  0  0
   46.4713    7.7888   20.1670 C   0  0  0  0  0  0  0  0  0  0  0  0
   46.0830    8.4190   18.8962 N   0  0  0  0  0  0  0  0  0  0  0  0
  1  2  1  0  0  0  0
  2  3  1  0  0  0  0
  3  4  1  0  0  0  0
  4  5  1  0  0  0  0
  5  6  1  0  0  0  0
  6  7  1  0  0  0  0
  7  8  1  0  0  0  0
  8  9  1  0  0  0  0
  9 10  1  0  0  0  0
 10 11  1  0  0  0  0
 11 12  1  0  0  0  0
 12 13  1  0  0  0  0
 13 14  1  0  0  0  0
M  END
>  <CHROM.1>
-177.27247601,-59.23388028,-174.35605277,167.04937012,-173.92538911,-74.16866259
-176.42014262,168.91548424,179.23618807,178.51110439,67.57615086,45.57853717
2.34044591,17.11651262,-1.83092685,1.35723419,0.89770263

>  <Name>
ligand

>  <RI>
0

>  <Rbt.Current_Directory>
/home/itssahil/PROJECTS/Mol_Feturizer/New_Systems/rnas/1TN1

>  <Rbt.Executable>
rbdock ($Id: //depot/dev/client3/rdock/2013.1/src/exe/rbdock.cxx#4 $)

>  <Rbt.Library>
libRbt.so (2013.1, Build901 2013/11/27)

>  <Rbt.Parameter_File>
/export/apps/rDock/src/rDock_2013.1_src/data/scripts/dock_solv.prm

>  <Rbt.Receptor>
prm/blind_docking_60.prm

>  <SCORE>
-8.90727

>  <SCORE.INTER>
-5.82154

>  <SCORE.INTER.CONST>
1

>  <SCORE.INTER.POLAR>
0

>  <SCORE.INTER.ROT>
11

>  <SCORE.INTER.SOLV>
10.124

>  <SCORE.INTER.VDW>
-18.189

>  <SCORE.INTER.norm>
-0.415824

>  <SCORE.INTRA>
-3.08572

>  <SCORE.INTRA.DIHEDRAL>
-6.29339

>  <SCORE.INTRA.DIHEDRAL.0>
7.79482

>  <SCORE.INTRA.POLAR>
0

>  <SCORE.INTRA.POLAR.0>
0

>  <SCORE.INTRA.REPUL>
0

>  <SCORE.INTRA.REPUL.0>
0

>  <SCORE.INTRA.SOLV>
1.11923

>  <SCORE.INTRA.SOLV.lig_0>
-49.456

>  <SCORE.INTRA.VDW>
-0.498644

>  <SCORE.INTRA.VDW.0>
-0.478406

>  <SCORE.INTRA.norm>
-0.220409

>  <SCORE.RESTR>
0

>  <SCORE.RESTR.CAVITY>
0

>  <SCORE.RESTR.norm>
0

>  <SCORE.SYSTEM>
0

>  <SCORE.SYSTEM.CONST>
0

>  <SCORE.SYSTEM.DIHEDRAL>
0

>  <SCORE.SYSTEM.SOLV>
0

>  <SCORE.SYSTEM.norm>
0

>  <SCORE.heavy>
14

>  <SCORE.norm>
-0.636233

>  <RMSD>
4.976

$$$$
ligand
 OpenBabel11021811413D
libRbt.so/2013.1/901 2013/11/27
 14 13  0  0  0  0  0  0  0  0999 V2000
   47.0255    9.1366   18.9462 N   0  0  0  0  0  0  0  0  0  0  0  0
   46.6383    7.9591   19.7529 C   0  0  0  0  0  0  0  0  0  0  0  0
   46.5655    6.6859   18.8825 C   0  0  0  0  0  0  0  0  0  0  0  0
   46.0901    5.4277   19.6275 C   0  0  0  0  0  0  0  0  0  0  0  0
   45.9848    4.2664   18.7020 N   0  0  0  0  0  0  0  0  0  0  0  0
   45.0040    3.2807   19.2246 C   0  0  0  0  0  0  0  0  0  0  0  0
   45.3141    1.7804   18.9004 C   0  0  0  0  0  0  0  0  0  0  0  0
   45.1615    1.4109   17.3969 C   0  0  0  0  0  0  0  0  0  0  0  0
   45.4129   -0.0534   17.0943 C   0  0  0  0  0  0  0  0  0  0  0  0
   45.1409   -0.2639   15.6850 N   0  0  0  0  0  0  0  0  0  0  0  0
   45.8894   -1.4501   15.3080 C   0  0  0  0  0  0  0  0  0  0  0  0
   45.5412   -1.9036   13.8951 C   0  0  0  0  0  0  0  0  0  0  0  0
   44.1670   -2.5879   13.9520 C   0  0  0  0  0  0  0  0  0  0  0  0
   43.7573   -3.1211   12.6442 N   0  0  0  0  0  0  0  0  0  0  0  0
  1  2  1  0  0  0  0
  2  3  1  0  0  0  0
  3  4  1  0  0  0  0
  4  5  1  0  0  0  0
  5  6  1  0  0  0  0
  6  7  1  0  0  0  0
  7  8  1  0  0  0  0
  8  9  1  0  0  0  0
  9 10  1  0  0  0  0
 10 11  1  0  0  0  0
 11 12  1  0  0  0  0
 12 13  1  0  0  0  0
 13 14  1  0  0  0  0
M  END
>  <CHROM.1>
-176.64801307,177.19004636,-154.96308857,-147.37904854,-69.07152982,-177.87295861
175.92157852,156.88832939,171.98399854,-75.80205618,-177.43595745,45.54949897
2.18327380,17.14395632,-0.83829934,-1.32443893,-1.91354642

>  <Name>
ligand

>  <RI>
0

>  <Rbt.Current_Directory>
/home/itssahil/PROJECTS/Mol_Feturizer/New_Systems/rnas/1TN1

>  <Rbt.Executable>
rbdock ($Id: //depot/dev/client3/rdock/2013.1/src/exe/rbdock.cxx#4 $)

>  <Rbt.Library>
libRbt.so (2013.1, Build901 2013/11/27)

>  <Rbt.Parameter_File>
/export/apps/rDock/src/rDock_2013.1_src/data/scripts/dock_solv.prm

>  <Rbt.Receptor>
prm/pocket_docking_7.prm

>  <SCORE>
-9.38285

>  <SCORE.INTER>
-6.39162

>  <SCORE.INTER.CONST>
1

>  <SCORE.INTER.POLAR>
0

>  <SCORE.INTER.ROT>
11

>  <SCORE.INTER.SOLV>
15.0012

>  <SCORE.INTER.VDW>
-20.1948

>  <SCORE.INTER.norm>
-0.456544

>  <SCORE.INTRA>
-2.99123

>  <SCORE.INTRA.DIHEDRAL>
-4.8503

>  <SCORE.INTRA.DIHEDRAL.0>
7.79482

>  <SCORE.INTRA.POLAR>
0

>  <SCORE.INTRA.POLAR.0>
0

>  <SCORE.INTRA.REPUL>
0

>  <SCORE.INTRA.REPUL.0>
0

>  <SCORE.INTRA.SOLV>
0.518273

>  <SCORE.INTRA.SOLV.lig_0>
-49.456

>  <SCORE.INTRA.VDW>
-0.82522

>  <SCORE.INTRA.VDW.0>
-0.478406

>  <SCORE.INTRA.norm>
-0.213659

>  <SCORE.RESTR>
0

>  <SCORE.RESTR.CAVITY>
0

>  <SCORE.RESTR.norm>
0

>  <SCORE.SYSTEM>
0

>  <SCORE.SYSTEM.CONST>
0

>  <SCORE.SYSTEM.DIHEDRAL>
0

>  <SCORE.SYSTEM.SOLV>
0

>  <SCORE.SYSTEM.norm>
0

>  <SCORE.heavy>
14

>  <SCORE.norm>
-0.670203

>  <RMSD>
4.980

$$$$
ligand
 OpenBabel11021811413D
libRbt.so/2013.1/901 2013/11/27
 14 13  0  0  0  0  0  0  0  0999 V2000
   49.7350    8.7953   16.4920 N   0  0  0  0  0  0  0  0  0  0  0  0
   49.2956    9.4029   15.2173 C   0  0  0  0  0  0  0  0  0  0  0  0
   47.8338    9.0255   14.8939 C   0  0  0  0  0  0  0  0  0  0  0  0
   46.7926    9.6116   15.8616 C   0  0  0  0  0  0  0  0  0  0  0  0
   46.9766    9.0705   17.2363 N   0  0  0  0  0  0  0  0  0  0  0  0
   45.9283    9.6051   18.1430 C   0  0  0  0  0  0  0  0  0  0  0  0
   46.2364    9.4927   19.6742 C   0  0  0  0  0  0  0  0  0  0  0  0
   46.5054    8.0404   20.1630 C   0  0  0  0  0  0  0  0  0  0  0  0
   45.2957    7.1299   20.0827 C   0  0  0  0  0  0  0  0  0  0  0  0
   45.7204    5.7993   20.4743 N   0  0  0  0  0  0  0  0  0  0  0  0
   44.5229    4.9775   20.4553 C   0  0  0  0  0  0  0  0  0  0  0  0
   44.0295    4.6782   21.8660 C   0  0  0  0  0  0  0  0  0  0  0  0
   42.6368    4.0412   21.7459 C   0  0  0  0  0  0  0  0  0  0  0  0
   41.6326    4.9916   21.2448 N   0  0  0  0  0  0  0  0  0  0  0  0
  1  2  1  0  0  0  0
  2  3  1  0  0  0  0
  3  4  1  0  0  0  0
  4  5  1  0  0  0  0
  5  6  1  0  0  0  0
  6  7  1  0  0  0  0
  7  8  1  0  0  0  0
  8  9  1  0  0  0  0
  9 10  1  0  0  0  0
 10 11  1  0  0  0  0
 11 12  1  0  0  0  0
 12 13  1  0  0  0  0
 13 14  1  0  0  0  0
M  END
>  <CHROM.1>
66.71563502,-64.07879887,-177.68641035,-161.81317115,-57.48093751,-66.59300104
175.90701941,176.94987005,-105.21861536,169.57200793,-67.65500059,45.93865444
7.47597043,18.82501288,-0.75829105,-0.66492993,2.84288040

>  <Name>
ligand

>  <RI>
0

>  <Rbt.Current_Directory>
/home/itssahil/PROJECTS/Mol_Feturizer/New_Systems/rnas/1TN1

>  <Rbt.Executable>
rbdock ($Id: //depot/dev/client3/rdock/2013.1/src/exe/rbdock.cxx#4 $)

>  <Rbt.Library>
libRbt.so (2013.1, Build901 2013/11/27)

>  <Rbt.Parameter_File>
/export/apps/rDock/src/rDock_2013.1_src/data/scripts/dock_solv.prm

>  <Rbt.Receptor>
prm/pocket_docking_8.prm

>  <SCORE>
-2.84073

>  <SCORE.INTER>
-1.97247

>  <SCORE.INTER.CONST>
1

>  <SCORE.INTER.POLAR>
0

>  <SCORE.INTER.ROT>
11

>  <SCORE.INTER.SOLV>
8.97921

>  <SCORE.INTER.VDW>
-15.2414

>  <SCORE.INTER.norm>
-0.140891

>  <SCORE.INTRA>
-0.868259

>  <SCORE.INTRA.DIHEDRAL>
-5.38234

>  <SCORE.INTRA.DIHEDRAL.0>
7.79482

>  <SCORE.INTRA.POLAR>
0

>  <SCORE.INTRA.POLAR.0>
0

>  <SCORE.INTRA.REPUL>
0

>  <SCORE.INTRA.REPUL.0>
0

>  <SCORE.INTRA.SOLV>
4.57559

>  <SCORE.INTRA.SOLV.lig_0>
-49.456

>  <SCORE.INTRA.VDW>
-0.464881

>  <SCORE.INTRA.VDW.0>
-0.478406

>  <SCORE.INTRA.norm>
-0.0620185

>  <SCORE.RESTR>
0

>  <SCORE.RESTR.CAVITY>
0

>  <SCORE.RESTR.norm>
0

>  <SCORE.SYSTEM>
0

>  <SCORE.SYSTEM.CONST>
0

>  <SCORE.SYSTEM.DIHEDRAL>
0

>  <SCORE.SYSTEM.SOLV>
0

>  <SCORE.SYSTEM.norm>
0

>  <SCORE.heavy>
14

>  <SCORE.norm>
-0.202909

>  <RMSD>
4.986

$$$$
ligand
 OpenBabel11021811413D
libRbt.so/2013.1/901 2013/11/27
 14 13  0  0  0  0  0  0  0  0999 V2000
   44.4638   12.4350   17.0888 N   0  0  0  0  0  0  0  0  0  0  0  0
   43.2852   11.9399   16.3451 C   0  0  0  0  0  0  0  0  0  0  0  0
   41.9771   12.2416   17.1078 C   0  0  0  0  0  0  0  0  0  0  0  0
   41.8565   11.5435   18.4724 C   0  0  0  0  0  0  0  0  0  0  0  0
   41.9421   10.0645   18.3255 N   0  0  0  0  0  0  0  0  0  0  0  0
   41.4387    9.3967   19.5532 C   0  0  0  0  0  0  0  0  0  0  0  0
   42.0183    7.9691   19.8331 C   0  0  0  0  0  0  0  0  0  0  0  0
   41.4426    7.2887   21.1083 C   0  0  0  0  0  0  0  0  0  0  0  0
   42.0472    5.9309   21.4077 C   0  0  0  0  0  0  0  0  0  0  0  0
   43.4665    6.1231   21.6382 N   0  0  0  0  0  0  0  0  0  0  0  0
   44.0974    4.8552   21.3154 C   0  0  0  0  0  0  0  0  0  0  0  0
   45.6167    4.9764   21.2995 C   0  0  0  0  0  0  0  0  0  0  0  0
   45.9964    5.9091   20.1394 C   0  0  0  0  0  0  0  0  0  0  0  0
   45.8364    5.2600   18.8295 N   0  0  0  0  0  0  0  0  0  0  0  0
  1  2  1  0  0  0  0
  2  3  1  0  0  0  0
  3  4  1  0  0  0  0
  4  5  1  0  0  0  0
  5  6  1  0  0  0  0
  6  7  1  0  0  0  0
  7  8  1  0  0  0  0
  8  9  1  0  0  0  0
  9 10  1  0  0  0  0
 10 11  1  0  0  0  0
 11 12  1  0  0  0  0
 12 13  1  0  0  0  0
 13 14  1  0  0  0  0
M  END
>  <CHROM.1>
-63.20357194,-58.69978197,-163.58898555,-153.89988032,-178.62403152,-177.63155997
61.71310244,-154.61057576,170.92598343,-65.66854603,-73.64717154,43.24863613
8.28089758,19.46190510,-1.82621580,-0.38855486,2.53852454

>  <Name>
ligand

>  <RI>
0

>  <Rbt.Current_Directory>
/home/itssahil/PROJECTS/Mol_Feturizer/New_Systems/rnas/1TN1

>  <Rbt.Executable>
rbdock ($Id: //depot/dev/client3/rdock/2013.1/src/exe/rbdock.cxx#4 $)

>  <Rbt.Library>
libRbt.so (2013.1, Build901 2013/11/27)

>  <Rbt.Parameter_File>
/export/apps/rDock/src/rDock_2013.1_src/data/scripts/dock_solv.prm

>  <Rbt.Receptor>
prm/pocket_docking_8.prm

>  <SCORE>
-12.4587

>  <SCORE.INTER>
-10.8831

>  <SCORE.INTER.CONST>
1

>  <SCORE.INTER.POLAR>
0

>  <SCORE.INTER.ROT>
11

>  <SCORE.INTER.SOLV>
17.5585

>  <SCORE.INTER.VDW>
-24.0416

>  <SCORE.INTER.norm>
-0.777363

>  <SCORE.INTRA>
-1.57558

>  <SCORE.INTRA.DIHEDRAL>
-5.70255

>  <SCORE.INTRA.DIHEDRAL.0>
7.79482

>  <SCORE.INTRA.POLAR>
0

>  <SCORE.INTRA.POLAR.0>
0

>  <SCORE.INTRA.REPUL>
0

>  <SCORE.INTRA.REPUL.0>
0

>  <SCORE.INTRA.SOLV>
3.75549

>  <SCORE.INTRA.SOLV.lig_0>
-49.456

>  <SCORE.INTRA.VDW>
-0.60205

>  <SCORE.INTRA.VDW.0>
-0.478406

>  <SCORE.INTRA.norm>
-0.112541

>  <SCORE.RESTR>
0

>  <SCORE.RESTR.CAVITY>
0

>  <SCORE.RESTR.norm>
0

>  <SCORE.SYSTEM>
0

>  <SCORE.SYSTEM.CONST>
0

>  <SCORE.SYSTEM.DIHEDRAL>
0

>  <SCORE.SYSTEM.SOLV>
0

>  <SCORE.SYSTEM.norm>
0

>  <SCORE.heavy>
14

>  <SCORE.norm>
-0.889904

>  <RMSD>
5.012

$$$$
ligand
 OpenBabel11021811413D
libRbt.so/2013.1/901 2013/11/27
 14 13  0  0  0  0  0  0  0  0999 V2000
   44.4323   12.5667   16.0417 N   0  0  0  0  0  0  0  0  0  0  0  0
   43.8648   13.2476   17.2255 C   0  0  0  0  0  0  0  0  0  0  0  0
   42.3220   13.1849   17.2190 C   0  0  0  0  0  0  0  0  0  0  0  0
   41.7381   11.7755   17.4098 C   0  0  0  0  0  0  0  0  0  0  0  0
   42.1267   11.2104   18.7312 N   0  0  0  0  0  0  0  0  0  0  0  0
   41.5487    9.8523   18.8989 C   0  0  0  0  0  0  0  0  0  0  0  0
   42.3089    8.9113   19.8932 C   0  0  0  0  0  0  0  0  0  0  0  0
   41.6550    7.5104   20.0677 C   0  0  0  0  0  0  0  0  0  0  0  0
   42.3548    6.6264   21.0814 C   0  0  0  0  0  0  0  0  0  0  0  0
   43.7286    6.4611   20.6460 N   0  0  0  0  0  0  0  0  0  0  0  0
   44.1586    5.1745   21.1651 C   0  0  0  0  0  0  0  0  0  0  0  0
   45.6772    5.0452   21.1472 C   0  0  0  0  0  0  0  0  0  0  0  0
   46.1293    5.0792   19.6794 C   0  0  0  0  0  0  0  0  0  0  0  0
   46.0664    6.4337   19.1100 N   0  0  0  0  0  0  0  0  0  0  0  0
  1  2  1  0  0  0  0
  2  3  1  0  0  0  0
  3  4  1  0  0  0  0
  4  5  1  0  0  0  0
  5  6  1  0  0  0  0
  6  7  1  0  0  0  0
  7  8  1  0  0  0  0
  8  9  1  0  0  0  0
  9 10  1  0  0  0  0
 10 11  1  0  0  0  0
 11 12  1  0  0  0  0
 12 13  1  0  0  0  0
 13 14  1  0  0  0  0
M  END
>  <CHROM.1>
67.28377953,61.99359174,179.75255478,155.33530161,178.62907114,-177.18003490
-58.72670901,-151.97076256,-163.12916651,-64.30167977,74.86290276,43.43626424
8.79121571,19.16565463,-1.82808467,-0.34685395,2.60526142

>  <Name>
ligand

>  <RI>
0

>  <Rbt.Current_Directory>
/home/itssahil/PROJECTS/Mol_Feturizer/New_Systems/rnas/1TN1

>  <Rbt.Executable>
rbdock ($Id: //depot/dev/client3/rdock/2013.1/src/exe/rbdock.cxx#4 $)

>  <Rbt.Library>
libRbt.so (2013.1, Build901 2013/11/27)

>  <Rbt.Parameter_File>
/export/apps/rDock/src/rDock_2013.1_src/data/scripts/dock_solv.prm

>  <Rbt.Receptor>
prm/pocket_docking_8.prm

>  <SCORE>
-11.3182

>  <SCORE.INTER>
-10.5677

>  <SCORE.INTER.CONST>
1

>  <SCORE.INTER.POLAR>
0

>  <SCORE.INTER.ROT>
11

>  <SCORE.INTER.SOLV>
14.3927

>  <SCORE.INTER.VDW>
-22.7761

>  <SCORE.INTER.norm>
-0.754839

>  <SCORE.INTRA>
-0.750452

>  <SCORE.INTRA.DIHEDRAL>
-5.47875

>  <SCORE.INTRA.DIHEDRAL.0>
7.79482

>  <SCORE.INTRA.POLAR>
0

>  <SCORE.INTRA.POLAR.0>
0

>  <SCORE.INTRA.REPUL>
0

>  <SCORE.INTRA.REPUL.0>
0

>  <SCORE.INTRA.SOLV>
4.97591

>  <SCORE.INTRA.SOLV.lig_0>
-49.456

>  <SCORE.INTRA.VDW>
-0.499031

>  <SCORE.INTRA.VDW.0>
-0.478406

>  <SCORE.INTRA.norm>
-0.0536037

>  <SCORE.RESTR>
0

>  <SCORE.RESTR.CAVITY>
0

>  <SCORE.RESTR.norm>
0

>  <SCORE.SYSTEM>
0

>  <SCORE.SYSTEM.CONST>
0

>  <SCORE.SYSTEM.DIHEDRAL>
0

>  <SCORE.SYSTEM.SOLV>
0

>  <SCORE.SYSTEM.norm>
0

>  <SCORE.heavy>
14

>  <SCORE.norm>
-0.808443

>  <RMSD>
5.024

$$$$
ligand
 OpenBabel11021811413D
libRbt.so/2013.1/901 2013/11/27
 14 13  0  0  0  0  0  0  0  0999 V2000
   43.4766   -3.2349   12.6410 N   0  0  0  0  0  0  0  0  0  0  0  0
   44.0827   -3.1869   13.9891 C   0  0  0  0  0  0  0  0  0  0  0  0
   44.7593   -1.8235   14.2485 C   0  0  0  0  0  0  0  0  0  0  0  0
   45.4582   -1.7053   15.6129 C   0  0  0  0  0  0  0  0  0  0  0  0
   45.9974   -0.3332   15.8201 N   0  0  0  0  0  0  0  0  0  0  0  0
   45.3108    0.3210   16.9635 C   0  0  0  0  0  0  0  0  0  0  0  0
   45.9864    1.6275   17.5009 C   0  0  0  0  0  0  0  0  0  0  0  0
   45.2171    2.3053   18.6710 C   0  0  0  0  0  0  0  0  0  0  0  0
   45.8909    3.5519   19.2103 C   0  0  0  0  0  0  0  0  0  0  0  0
   45.0726    4.0591   20.2954 N   0  0  0  0  0  0  0  0  0  0  0  0
   45.8764    5.0690   20.9615 C   0  0  0  0  0  0  0  0  0  0  0  0
   45.6330    6.4535   20.3723 C   0  0  0  0  0  0  0  0  0  0  0  0
   44.1794    6.8417   20.6827 C   0  0  0  0  0  0  0  0  0  0  0  0
   43.8116    8.1364   20.0901 N   0  0  0  0  0  0  0  0  0  0  0  0
  1  2  1  0  0  0  0
  2  3  1  0  0  0  0
  3  4  1  0  0  0  0
  4  5  1  0  0  0  0
  5  6  1  0  0  0  0
  6  7  1  0  0  0  0
  7  8  1  0  0  0  0
  8  9  1  0  0  0  0
  9 10  1  0  0  0  0
 10 11  1  0  0  0  0
 11 12  1  0  0  0  0
 12 13  1  0  0  0  0
 13 14  1  0  0  0  0
M  END
>  <CHROM.1>
-178.00459514,-175.94039494,115.91327764,166.72701445,178.34706057,178.64261107
-179.39606516,168.36701163,91.16993238,65.63692735,-176.75520093,45.05394270
2.00576925,17.64727346,1.61474295,0.67284879,-2.54127779

>  <Name>
ligand

>  <RI>
0

>  <Rbt.Current_Directory>
/home/itssahil/PROJECTS/Mol_Feturizer/New_Systems/rnas/1TN1

>  <Rbt.Executable>
rbdock ($Id: //depot/dev/client3/rdock/2013.1/src/exe/rbdock.cxx#4 $)

>  <Rbt.Library>
libRbt.so (2013.1, Build901 2013/11/27)

>  <Rbt.Parameter_File>
/export/apps/rDock/src/rDock_2013.1_src/data/scripts/dock_solv.prm

>  <Rbt.Receptor>
prm/pocket_docking_7.prm

>  <SCORE>
-10.9978

>  <SCORE.INTER>
-8.26879

>  <SCORE.INTER.CONST>
1

>  <SCORE.INTER.POLAR>
0

>  <SCORE.INTER.ROT>
11

>  <SCORE.INTER.SOLV>
17.0455

>  <SCORE.INTER.VDW>
-22.1277

>  <SCORE.INTER.norm>
-0.590628

>  <SCORE.INTRA>
-2.72898

>  <SCORE.INTRA.DIHEDRAL>
-5.46902

>  <SCORE.INTRA.DIHEDRAL.0>
7.79482

>  <SCORE.INTRA.POLAR>
0

>  <SCORE.INTRA.POLAR.0>
0

>  <SCORE.INTRA.REPUL>
0

>  <SCORE.INTRA.REPUL.0>
0

>  <SCORE.INTRA.SOLV>
0.402546

>  <SCORE.INTRA.SOLV.lig_0>
-49.456

>  <SCORE.INTRA.VDW>
-0.195746

>  <SCORE.INTRA.VDW.0>
-0.478406

>  <SCORE.INTRA.norm>
-0.194927

>  <SCORE.RESTR>
0

>  <SCORE.RESTR.CAVITY>
0

>  <SCORE.RESTR.norm>
0

>  <SCORE.SYSTEM>
0

>  <SCORE.SYSTEM.CONST>
0

>  <SCORE.SYSTEM.DIHEDRAL>
0

>  <SCORE.SYSTEM.SOLV>
0

>  <SCORE.SYSTEM.norm>
0

>  <SCORE.heavy>
14

>  <SCORE.norm>
-0.785555

>  <RMSD>
5.035

$$$$
ligand
 OpenBabel11021811413D
libRbt.so/2013.1/901 2013/11/27
 14 13  0  0  0  0  0  0  0  0999 V2000
   45.8903    8.4661   19.2366 N   0  0  0  0  0  0  0  0  0  0  0  0
   46.4459    7.1877   19.7309 C   0  0  0  0  0  0  0  0  0  0  0  0
   45.3439    6.3046   20.3551 C   0  0  0  0  0  0  0  0  0  0  0  0
   45.8350    4.9472   20.8845 C   0  0  0  0  0  0  0  0  0  0  0  0
   46.3962    4.1159   19.7843 N   0  0  0  0  0  0  0  0  0  0  0  0
   45.3339    3.2624   19.1928 C   0  0  0  0  0  0  0  0  0  0  0  0
   45.8356    1.9987   18.4159 C   0  0  0  0  0  0  0  0  0  0  0  0
   44.6938    1.1075   17.8481 C   0  0  0  0  0  0  0  0  0  0  0  0
   45.1831   -0.1179   17.1011 C   0  0  0  0  0  0  0  0  0  0  0  0
   45.7814    0.3342   15.8594 N   0  0  0  0  0  0  0  0  0  0  0  0
   46.0877   -0.8681   15.1043 C   0  0  0  0  0  0  0  0  0  0  0  0
   47.1005   -0.5900   13.9996 C   0  0  0  0  0  0  0  0  0  0  0  0
   47.3416   -1.9077   13.2477 C   0  0  0  0  0  0  0  0  0  0  0  0
   48.3146   -1.7542   12.1557 N   0  0  0  0  0  0  0  0  0  0  0  0
  1  2  1  0  0  0  0
  2  3  1  0  0  0  0
  3  4  1  0  0  0  0
  4  5  1  0  0  0  0
  5  6  1  0  0  0  0
  6  7  1  0  0  0  0
  7  8  1  0  0  0  0
  8  9  1  0  0  0  0
  9 10  1  0  0  0  0
 10 11  1  0  0  0  0
 11 12  1  0  0  0  0
 12 13  1  0  0  0  0
 13 14  1  0  0  0  0
M  END
>  <CHROM.1>
179.48096547,-62.04818328,-91.15792634,-158.74368298,178.25111569,-179.77593101
-70.42671829,-173.24994688,-161.95650763,-179.10787082,-179.74954394,46.11291719
2.32026203,17.35139193,-1.79118925,-1.00405144,-2.64971686

>  <Name>
ligand

>  <RI>
0

>  <Rbt.Current_Directory>
/home/itssahil/PROJECTS/Mol_Feturizer/New_Systems/rnas/1TN1

>  <Rbt.Executable>
rbdock ($Id: //depot/dev/client3/rdock/2013.1/src/exe/rbdock.cxx#4 $)

>  <Rbt.Library>
libRbt.so (2013.1, Build901 2013/11/27)

>  <Rbt.Parameter_File>
/export/apps/rDock/src/rDock_2013.1_src/data/scripts/dock_solv.prm

>  <Rbt.Receptor>
prm/blind_docking_60.prm

>  <SCORE>
-9.27574

>  <SCORE.INTER>
-5.99534

>  <SCORE.INTER.CONST>
1

>  <SCORE.INTER.POLAR>
0

>  <SCORE.INTER.ROT>
11

>  <SCORE.INTER.SOLV>
10.877

>  <SCORE.INTER.VDW>
-18.5559

>  <SCORE.INTER.norm>
-0.428239

>  <SCORE.INTRA>
-3.2804

>  <SCORE.INTRA.DIHEDRAL>
-6.10504

>  <SCORE.INTRA.DIHEDRAL.0>
7.79482

>  <SCORE.INTRA.POLAR>
0

>  <SCORE.INTRA.POLAR.0>
0

>  <SCORE.INTRA.REPUL>
0

>  <SCORE.INTRA.REPUL.0>
0

>  <SCORE.INTRA.SOLV>
0.638062

>  <SCORE.INTRA.SOLV.lig_0>
-49.456

>  <SCORE.INTRA.VDW>
-0.546907

>  <SCORE.INTRA.VDW.0>
-0.478406

>  <SCORE.INTRA.norm>
-0.234314

>  <SCORE.RESTR>
0

>  <SCORE.RESTR.CAVITY>
0

>  <SCORE.RESTR.norm>
0

>  <SCORE.SYSTEM>
0

>  <SCORE.SYSTEM.CONST>
0

>  <SCORE.SYSTEM.DIHEDRAL>
0

>  <SCORE.SYSTEM.SOLV>
0

>  <SCORE.SYSTEM.norm>
0

>  <SCORE.heavy>
14

>  <SCORE.norm>
-0.662553

>  <RMSD>
5.063

$$$$
ligand
 OpenBabel11021811413D
libRbt.so/2013.1/901 2013/11/27
 14 13  0  0  0  0  0  0  0  0999 V2000
   45.7748    8.4381   19.3786 N   0  0  0  0  0  0  0  0  0  0  0  0
   46.3117    7.1612   19.8968 C   0  0  0  0  0  0  0  0  0  0  0  0
   45.1741    6.1723   20.2314 C   0  0  0  0  0  0  0  0  0  0  0  0
   45.6475    4.8025   20.7448 C   0  0  0  0  0  0  0  0  0  0  0  0
   46.4821    4.1091   19.7256 N   0  0  0  0  0  0  0  0  0  0  0  0
   45.6162    3.4678   18.7029 C   0  0  0  0  0  0  0  0  0  0  0  0
   45.1489    2.0095   19.0302 C   0  0  0  0  0  0  0  0  0  0  0  0
   44.1828    1.4001   17.9739 C   0  0  0  0  0  0  0  0  0  0  0  0
   44.8269    1.1457   16.6250 C   0  0  0  0  0  0  0  0  0  0  0  0
   45.1407    2.4345   16.0379 N   0  0  0  0  0  0  0  0  0  0  0  0
   45.7315    2.1483   14.7422 C   0  0  0  0  0  0  0  0  0  0  0  0
   46.8846    3.0961   14.4335 C   0  0  0  0  0  0  0  0  0  0  0  0
   46.3165    4.5229   14.3976 C   0  0  0  0  0  0  0  0  0  0  0  0
   47.3530    5.5266   14.1127 N   0  0  0  0  0  0  0  0  0  0  0  0
  1  2  1  0  0  0  0
  2  3  1  0  0  0  0
  3  4  1  0  0  0  0
  4  5  1  0  0  0  0
  5  6  1  0  0  0  0
  6  7  1  0  0  0  0
  7  8  1  0  0  0  0
  8  9  1  0  0  0  0
  9 10  1  0  0  0  0
 10 11  1  0  0  0  0
 11 12  1  0  0  0  0
 12 13  1  0  0  0  0
 13 14  1  0  0  0  0
M  END
>  <CHROM.1>
178.54496182,-60.91888613,-80.22093173,-88.24303279,176.87828538,67.28882007
-67.70067910,-179.00772236,-141.23266907,-61.49854658,179.68605686,45.75634966
4.03060213,17.57389044,-1.59651051,-1.21476196,-2.24743972

>  <Name>
ligand

>  <RI>
0

>  <Rbt.Current_Directory>
/home/itssahil/PROJECTS/Mol_Feturizer/New_Systems/rnas/1TN1

>  <Rbt.Executable>
rbdock ($Id: //depot/dev/client3/rdock/2013.1/src/exe/rbdock.cxx#4 $)

>  <Rbt.Library>
libRbt.so (2013.1, Build901 2013/11/27)

>  <Rbt.Parameter_File>
/export/apps/rDock/src/rDock_2013.1_src/data/scripts/dock_solv.prm

>  <Rbt.Receptor>
prm/blind_docking_80.prm

>  <SCORE>
-6.01712

>  <SCORE.INTER>
-4.43847

>  <SCORE.INTER.CONST>
1

>  <SCORE.INTER.POLAR>
0

>  <SCORE.INTER.ROT>
11

>  <SCORE.INTER.SOLV>
12.5086

>  <SCORE.INTER.VDW>
-18.0618

>  <SCORE.INTER.norm>
-0.317034

>  <SCORE.INTRA>
-1.57865

>  <SCORE.INTRA.DIHEDRAL>
-5.5789

>  <SCORE.INTRA.DIHEDRAL.0>
7.79482

>  <SCORE.INTRA.POLAR>
0

>  <SCORE.INTRA.POLAR.0>
0

>  <SCORE.INTRA.REPUL>
0

>  <SCORE.INTRA.REPUL.0>
0

>  <SCORE.INTRA.SOLV>
1.77327

>  <SCORE.INTRA.SOLV.lig_0>
-49.456

>  <SCORE.INTRA.VDW>
0.324163

>  <SCORE.INTRA.VDW.0>
-0.478406

>  <SCORE.INTRA.norm>
-0.112761

>  <SCORE.RESTR>
0

>  <SCORE.RESTR.CAVITY>
0

>  <SCORE.RESTR.norm>
0

>  <SCORE.SYSTEM>
0

>  <SCORE.SYSTEM.CONST>
0

>  <SCORE.SYSTEM.DIHEDRAL>
0

>  <SCORE.SYSTEM.SOLV>
0

>  <SCORE.SYSTEM.norm>
0

>  <SCORE.heavy>
14

>  <SCORE.norm>
-0.429794

>  <RMSD>
5.080

$$$$
ligand
 OpenBabel11021811413D
libRbt.so/2013.1/901 2013/11/27
 14 13  0  0  0  0  0  0  0  0999 V2000
   41.6881   12.8309   17.2072 N   0  0  0  0  0  0  0  0  0  0  0  0
   42.4974   11.7125   17.7377 C   0  0  0  0  0  0  0  0  0  0  0  0
   41.6220   10.7158   18.5276 C   0  0  0  0  0  0  0  0  0  0  0  0
   42.3846    9.5115   19.1039 C   0  0  0  0  0  0  0  0  0  0  0  0
   41.4554    8.5628   19.7770 N   0  0  0  0  0  0  0  0  0  0  0  0
   42.2231    7.4922   20.4633 C   0  0  0  0  0  0  0  0  0  0  0  0
   41.3793    6.5197   21.3548 C   0  0  0  0  0  0  0  0  0  0  0  0
   42.2334    5.5446   22.2151 C   0  0  0  0  0  0  0  0  0  0  0  0
   42.8930    4.4367   21.4175 C   0  0  0  0  0  0  0  0  0  0  0  0
   43.8212    5.0555   20.4902 N   0  0  0  0  0  0  0  0  0  0  0  0
   45.1238    4.9928   21.1296 C   0  0  0  0  0  0  0  0  0  0  0  0
   46.2464    4.9127   20.1016 C   0  0  0  0  0  0  0  0  0  0  0  0
   46.1841    6.1864   19.2451 C   0  0  0  0  0  0  0  0  0  0  0  0
   46.4682    7.3976   20.0293 N   0  0  0  0  0  0  0  0  0  0  0  0
  1  2  1  0  0  0  0
  2  3  1  0  0  0  0
  3  4  1  0  0  0  0
  4  5  1  0  0  0  0
  5  6  1  0  0  0  0
  6  7  1  0  0  0  0
  7  8  1  0  0  0  0
  8  9  1  0  0  0  0
  9 10  1  0  0  0  0
 10 11  1  0  0  0  0
 11 12  1  0  0  0  0
 12 13  1  0  0  0  0
 13 14  1  0  0  0  0
M  END
>  <CHROM.1>
179.42883000,-176.57990089,-173.36259833,173.04794989,-171.65273397,-72.86408956
63.20746532,96.71317016,150.58204551,61.12994088,64.85903228,43.30139755
7.56189818,19.91450389,-1.95786297,-0.28576918,2.60692714

>  <Name>
ligand

>  <RI>
0

>  <Rbt.Current_Directory>
/home/itssahil/PROJECTS/Mol_Feturizer/New_Systems/rnas/1TN1

>  <Rbt.Executable>
rbdock ($Id: //depot/dev/client3/rdock/2013.1/src/exe/rbdock.cxx#4 $)

>  <Rbt.Library>
libRbt.so (2013.1, Build901 2013/11/27)

>  <Rbt.Parameter_File>
/export/apps/rDock/src/rDock_2013.1_src/data/scripts/dock_solv.prm

>  <Rbt.Receptor>
prm/blind_docking_100.prm

>  <SCORE>
-10.5385

>  <SCORE.INTER>
-9.62554

>  <SCORE.INTER.CONST>
1

>  <SCORE.INTER.POLAR>
0

>  <SCORE.INTER.ROT>
11

>  <SCORE.INTER.SOLV>
20.1369

>  <SCORE.INTER.VDW>
-24.0627

>  <SCORE.INTER.norm>
-0.687539

>  <SCORE.INTRA>
-0.912975

>  <SCORE.INTRA.DIHEDRAL>
-5.22573

>  <SCORE.INTRA.DIHEDRAL.0>
7.79482

>  <SCORE.INTRA.POLAR>
0

>  <SCORE.INTRA.POLAR.0>
0

>  <SCORE.INTRA.REPUL>
0

>  <SCORE.INTRA.REPUL.0>
0

>  <SCORE.INTRA.SOLV>
3.11803

>  <SCORE.INTRA.SOLV.lig_0>
-49.456

>  <SCORE.INTRA.VDW>
0.140872

>  <SCORE.INTRA.VDW.0>
-0.478406

>  <SCORE.INTRA.norm>
-0.0652125

>  <SCORE.RESTR>
0

>  <SCORE.RESTR.CAVITY>
0

>  <SCORE.RESTR.norm>
0

>  <SCORE.SYSTEM>
0

>  <SCORE.SYSTEM.CONST>
0

>  <SCORE.SYSTEM.DIHEDRAL>
0

>  <SCORE.SYSTEM.SOLV>
0

>  <SCORE.SYSTEM.norm>
0

>  <SCORE.heavy>
14

>  <SCORE.norm>
-0.752751

>  <RMSD>
5.129

$$$$
ligand
 OpenBabel11021811413D
libRbt.so/2013.1/901 2013/11/27
 14 13  0  0  0  0  0  0  0  0999 V2000
   44.8344   -2.2338   12.0128 N   0  0  0  0  0  0  0  0  0  0  0  0
   44.1109   -2.7330   13.2021 C   0  0  0  0  0  0  0  0  0  0  0  0
   44.7136   -2.1601   14.5031 C   0  0  0  0  0  0  0  0  0  0  0  0
   44.5530   -0.6398   14.6674 C   0  0  0  0  0  0  0  0  0  0  0  0
   45.1387   -0.1767   15.9554 N   0  0  0  0  0  0  0  0  0  0  0  0
   44.4118    1.0213   16.4486 C   0  0  0  0  0  0  0  0  0  0  0  0
   44.3595    1.1880   18.0047 C   0  0  0  0  0  0  0  0  0  0  0  0
   45.7545    1.3556   18.6727 C   0  0  0  0  0  0  0  0  0  0  0  0
   46.3425    2.7458   18.5294 C   0  0  0  0  0  0  0  0  0  0  0  0
   45.5422    3.6468   19.3370 N   0  0  0  0  0  0  0  0  0  0  0  0
   46.3151    4.8712   19.4519 C   0  0  0  0  0  0  0  0  0  0  0  0
   45.4319    6.0548   19.8290 C   0  0  0  0  0  0  0  0  0  0  0  0
   46.3133    7.3131   19.8221 C   0  0  0  0  0  0  0  0  0  0  0  0
   45.5428    8.5326   20.1081 N   0  0  0  0  0  0  0  0  0  0  0  0
  1  2  1  0  0  0  0
  2  3  1  0  0  0  0
  3  4  1  0  0  0  0
  4  5  1  0  0  0  0
  5  6  1  0  0  0  0
  6  7  1  0  0  0  0
  7  8  1  0  0  0  0
  8  9  1  0  0  0  0
  9 10  1  0  0  0  0
 10 11  1  0  0  0  0
 11 12  1  0  0  0  0
 12 13  1  0  0  0  0
 13 14  1  0  0  0  0
M  END
>  <CHROM.1>
65.82682792,178.99327037,-150.18093176,149.66344729,62.05866653,77.89244769
69.03363486,165.86561826,159.69725224,-175.80178435,177.10017466,45.24028243
2.05597380,17.18186639,2.52121483,1.41491760,2.82531976

>  <Name>
ligand

>  <RI>
0

>  <Rbt.Current_Directory>
/home/itssahil/PROJECTS/Mol_Feturizer/New_Systems/rnas/1TN1

>  <Rbt.Executable>
rbdock ($Id: //depot/dev/client3/rdock/2013.1/src/exe/rbdock.cxx#4 $)

>  <Rbt.Library>
libRbt.so (2013.1, Build901 2013/11/27)

>  <Rbt.Parameter_File>
/export/apps/rDock/src/rDock_2013.1_src/data/scripts/dock_solv.prm

>  <Rbt.Receptor>
prm/pocket_docking_7.prm

>  <SCORE>
-9.43615

>  <SCORE.INTER>
-7.3805

>  <SCORE.INTER.CONST>
1

>  <SCORE.INTER.POLAR>
0

>  <SCORE.INTER.ROT>
11

>  <SCORE.INTER.SOLV>
12.9804

>  <SCORE.INTER.VDW>
-20.1805

>  <SCORE.INTER.norm>
-0.527179

>  <SCORE.INTRA>
-2.05565

>  <SCORE.INTRA.DIHEDRAL>
-4.32873

>  <SCORE.INTRA.DIHEDRAL.0>
7.79482

>  <SCORE.INTRA.POLAR>
0

>  <SCORE.INTRA.POLAR.0>
0

>  <SCORE.INTRA.REPUL>
0

>  <SCORE.INTRA.REPUL.0>
0

>  <SCORE.INTRA.SOLV>
1.63378

>  <SCORE.INTRA.SOLV.lig_0>
-49.456

>  <SCORE.INTRA.VDW>
-0.708174

>  <SCORE.INTRA.VDW.0>
-0.478406

>  <SCORE.INTRA.norm>
-0.146832

>  <SCORE.RESTR>
0

>  <SCORE.RESTR.CAVITY>
0

>  <SCORE.RESTR.norm>
0

>  <SCORE.SYSTEM>
0

>  <SCORE.SYSTEM.CONST>
0

>  <SCORE.SYSTEM.DIHEDRAL>
0

>  <SCORE.SYSTEM.SOLV>
0

>  <SCORE.SYSTEM.norm>
0

>  <SCORE.heavy>
14

>  <SCORE.norm>
-0.674011

>  <RMSD>
5.145

$$$$
ligand
 OpenBabel11021811413D
libRbt.so/2013.1/901 2013/11/27
 14 13  0  0  0  0  0  0  0  0999 V2000
   46.1060    8.3587   19.0354 N   0  0  0  0  0  0  0  0  0  0  0  0
   46.1995    6.8872   19.1497 C   0  0  0  0  0  0  0  0  0  0  0  0
   45.9129    6.4203   20.5933 C   0  0  0  0  0  0  0  0  0  0  0  0
   46.0386    4.9037   20.8121 C   0  0  0  0  0  0  0  0  0  0  0  0
   44.9986    4.1650   20.0444 N   0  0  0  0  0  0  0  0  0  0  0  0
   45.6331    3.1432   19.1725 C   0  0  0  0  0  0  0  0  0  0  0  0
   44.6455    2.2415   18.3578 C   0  0  0  0  0  0  0  0  0  0  0  0
   45.3452    1.2697   17.3646 C   0  0  0  0  0  0  0  0  0  0  0  0
   44.3917    0.5585   16.4245 C   0  0  0  0  0  0  0  0  0  0  0  0
   45.1836   -0.2909   15.5552 N   0  0  0  0  0  0  0  0  0  0  0  0
   44.4978   -0.2997   14.2748 C   0  0  0  0  0  0  0  0  0  0  0  0
   44.9385   -1.4780   13.4142 C   0  0  0  0  0  0  0  0  0  0  0  0
   44.2906   -2.7447   13.9935 C   0  0  0  0  0  0  0  0  0  0  0  0
   44.6324   -3.9473   13.2191 N   0  0  0  0  0  0  0  0  0  0  0  0
  1  2  1  0  0  0  0
  2  3  1  0  0  0  0
  3  4  1  0  0  0  0
  4  5  1  0  0  0  0
  5  6  1  0  0  0  0
  6  7  1  0  0  0  0
  7  8  1  0  0  0  0
  8  9  1  0  0  0  0
  9 10  1  0  0  0  0
 10 11  1  0  0  0  0
 11 12  1  0  0  0  0
 12 13  1  0  0  0  0
 13 14  1  0  0  0  0
M  END
>  <CHROM.1>
-177.92981448,-65.51236927,125.28104617,177.10964293,174.91923689,-170.82570128
179.24821161,-146.39421155,-161.46507473,74.37208360,178.97988808,45.20098420
2.08479644,17.24374684,-0.79946455,-1.39378816,-1.76317984

>  <Name>
ligand

>  <RI>
0

>  <Rbt.Current_Directory>
/home/itssahil/PROJECTS/Mol_Feturizer/New_Systems/rnas/1TN1

>  <Rbt.Executable>
rbdock ($Id: //depot/dev/client3/rdock/2013.1/src/exe/rbdock.cxx#4 $)

>  <Rbt.Library>
libRbt.so (2013.1, Build901 2013/11/27)

>  <Rbt.Parameter_File>
/export/apps/rDock/src/rDock_2013.1_src/data/scripts/dock_solv.prm

>  <Rbt.Receptor>
prm/blind_docking_80.prm

>  <SCORE>
-8.2291

>  <SCORE.INTER>
-5.55186

>  <SCORE.INTER.CONST>
1

>  <SCORE.INTER.POLAR>
0

>  <SCORE.INTER.ROT>
11

>  <SCORE.INTER.SOLV>
14.6276

>  <SCORE.INTER.VDW>
-19.5104

>  <SCORE.INTER.norm>
-0.396561

>  <SCORE.INTRA>
-2.67724

>  <SCORE.INTRA.DIHEDRAL>
-4.31196

>  <SCORE.INTRA.DIHEDRAL.0>
7.79482

>  <SCORE.INTRA.POLAR>
0

>  <SCORE.INTRA.POLAR.0>
0

>  <SCORE.INTRA.REPUL>
0

>  <SCORE.INTRA.REPUL.0>
0

>  <SCORE.INTRA.SOLV>
0.588364

>  <SCORE.INTRA.SOLV.lig_0>
-49.456

>  <SCORE.INTRA.VDW>
-0.815443

>  <SCORE.INTRA.VDW.0>
-0.478406

>  <SCORE.INTRA.norm>
-0.191231

>  <SCORE.RESTR>
0

>  <SCORE.RESTR.CAVITY>
0

>  <SCORE.RESTR.norm>
0

>  <SCORE.SYSTEM>
0

>  <SCORE.SYSTEM.CONST>
0

>  <SCORE.SYSTEM.DIHEDRAL>
0

>  <SCORE.SYSTEM.SOLV>
0

>  <SCORE.SYSTEM.norm>
0

>  <SCORE.heavy>
14

>  <SCORE.norm>
-0.587793

>  <RMSD>
5.151

$$$$
ligand
 OpenBabel11021811413D
libRbt.so/2013.1/901 2013/11/27
 14 13  0  0  0  0  0  0  0  0999 V2000
   43.5045   -3.3750   12.5234 N   0  0  0  0  0  0  0  0  0  0  0  0
   44.1695   -3.3285   13.8435 C   0  0  0  0  0  0  0  0  0  0  0  0
   44.7107   -1.9145   14.1462 C   0  0  0  0  0  0  0  0  0  0  0  0
   45.4880   -1.7961   15.4674 C   0  0  0  0  0  0  0  0  0  0  0  0
   45.7806   -0.3724   15.7896 N   0  0  0  0  0  0  0  0  0  0  0  0
   45.3345   -0.0565   17.1709 C   0  0  0  0  0  0  0  0  0  0  0  0
   45.3590    1.4603   17.5597 C   0  0  0  0  0  0  0  0  0  0  0  0
   44.8643    1.7534   19.0053 C   0  0  0  0  0  0  0  0  0  0  0  0
   44.8328    3.2277   19.3580 C   0  0  0  0  0  0  0  0  0  0  0  0
   46.2043    3.6982   19.4025 N   0  0  0  0  0  0  0  0  0  0  0  0
   46.1791    4.9254   20.1791 C   0  0  0  0  0  0  0  0  0  0  0  0
   46.0322    6.1495   19.2829 C   0  0  0  0  0  0  0  0  0  0  0  0
   46.0323    7.3908   20.1880 C   0  0  0  0  0  0  0  0  0  0  0  0
   45.8140    8.6315   19.4293 N   0  0  0  0  0  0  0  0  0  0  0  0
  1  2  1  0  0  0  0
  2  3  1  0  0  0  0
  3  4  1  0  0  0  0
  4  5  1  0  0  0  0
  5  6  1  0  0  0  0
  6  7  1  0  0  0  0
  7  8  1  0  0  0  0
  8  9  1  0  0  0  0
  9 10  1  0  0  0  0
 10 11  1  0  0  0  0
 11 12  1  0  0  0  0
 12 13  1  0  0  0  0
 13 14  1  0  0  0  0
M  END
>  <CHROM.1>
-176.72151554,-170.78379137,128.02783744,-170.12499869,179.09431072,-177.51113925
-67.45569081,-160.36656065,-93.27234047,-179.34178894,-176.57362561,45.30755695
1.88516244,17.38206551,2.25391568,1.35880202,3.03397233

>  <Name>
ligand

>  <RI>
0

>  <Rbt.Current_Directory>
/home/itssahil/PROJECTS/Mol_Feturizer/New_Systems/rnas/1TN1

>  <Rbt.Executable>
rbdock ($Id: //depot/dev/client3/rdock/2013.1/src/exe/rbdock.cxx#4 $)

>  <Rbt.Library>
libRbt.so (2013.1, Build901 2013/11/27)

>  <Rbt.Parameter_File>
/export/apps/rDock/src/rDock_2013.1_src/data/scripts/dock_solv.prm

>  <Rbt.Receptor>
prm/blind_docking_60.prm

>  <SCORE>
-10.5253

>  <SCORE.INTER>
-7.88761

>  <SCORE.INTER.CONST>
1

>  <SCORE.INTER.POLAR>
0

>  <SCORE.INTER.ROT>
11

>  <SCORE.INTER.SOLV>
15.3467

>  <SCORE.INTER.VDW>
-21.3073

>  <SCORE.INTER.norm>
-0.563401

>  <SCORE.INTRA>
-2.63767

>  <SCORE.INTRA.DIHEDRAL>
-4.93787

>  <SCORE.INTRA.DIHEDRAL.0>
7.79482

>  <SCORE.INTRA.POLAR>
0

>  <SCORE.INTRA.POLAR.0>
0

>  <SCORE.INTRA.REPUL>
0

>  <SCORE.INTRA.REPUL.0>
0

>  <SCORE.INTRA.SOLV>
0.323716

>  <SCORE.INTRA.SOLV.lig_0>
-49.456

>  <SCORE.INTRA.VDW>
-0.330598

>  <SCORE.INTRA.VDW.0>
-0.478406

>  <SCORE.INTRA.norm>
-0.188405

>  <SCORE.RESTR>
0

>  <SCORE.RESTR.CAVITY>
0

>  <SCORE.RESTR.norm>
0

>  <SCORE.SYSTEM>
0

>  <SCORE.SYSTEM.CONST>
0

>  <SCORE.SYSTEM.DIHEDRAL>
0

>  <SCORE.SYSTEM.SOLV>
0

>  <SCORE.SYSTEM.norm>
0

>  <SCORE.heavy>
14

>  <SCORE.norm>
-0.751806

>  <RMSD>
5.186

$$$$
ligand
 OpenBabel11021811413D
libRbt.so/2013.1/901 2013/11/27
 14 13  0  0  0  0  0  0  0  0999 V2000
   45.4749   12.4440   16.3685 N   0  0  0  0  0  0  0  0  0  0  0  0
   44.6444   11.2206   16.3440 C   0  0  0  0  0  0  0  0  0  0  0  0
   44.3598   10.7107   17.7734 C   0  0  0  0  0  0  0  0  0  0  0  0
   45.6126   10.3203   18.5748 C   0  0  0  0  0  0  0  0  0  0  0  0
   46.2955    9.1482   17.9616 N   0  0  0  0  0  0  0  0  0  0  0  0
   47.2315    8.5314   18.9364 C   0  0  0  0  0  0  0  0  0  0  0  0
   46.5622    7.7247   20.0998 C   0  0  0  0  0  0  0  0  0  0  0  0
   45.6974    6.5224   19.6234 C   0  0  0  0  0  0  0  0  0  0  0  0
   44.8379    5.9122   20.7133 C   0  0  0  0  0  0  0  0  0  0  0  0
   43.9754    6.9580   21.2298 N   0  0  0  0  0  0  0  0  0  0  0  0
   42.7594    6.8984   20.4377 C   0  0  0  0  0  0  0  0  0  0  0  0
   42.0380    8.2410   20.4217 C   0  0  0  0  0  0  0  0  0  0  0  0
   40.6954    8.0387   19.7030 C   0  0  0  0  0  0  0  0  0  0  0  0
   39.8163    7.1036   20.4210 N   0  0  0  0  0  0  0  0  0  0  0  0
  1  2  1  0  0  0  0
  2  3  1  0  0  0  0
  3  4  1  0  0  0  0
  4  5  1  0  0  0  0
  5  6  1  0  0  0  0
  6  7  1  0  0  0  0
  7  8  1  0  0  0  0
  8  9  1  0  0  0  0
  9 10  1  0  0  0  0
 10 11  1  0  0  0  0
 11 12  1  0  0  0  0
 12 13  1  0  0  0  0
 13 14  1  0  0  0  0
M  END
>  <CHROM.1>
-61.34540179,-65.25754184,-162.81769624,73.11622046,60.38995487,-168.63175354
58.22591110,91.00430764,-155.18428328,-173.59788281,63.30038831,44.28591690
8.55516306,19.18639213,0.94195673,0.08304700,-0.64361778

>  <Name>
ligand

>  <RI>
0

>  <Rbt.Current_Directory>
/home/itssahil/PROJECTS/Mol_Feturizer/New_Systems/rnas/1TN1

>  <Rbt.Executable>
rbdock ($Id: //depot/dev/client3/rdock/2013.1/src/exe/rbdock.cxx#4 $)

>  <Rbt.Library>
libRbt.so (2013.1, Build901 2013/11/27)

>  <Rbt.Parameter_File>
/export/apps/rDock/src/rDock_2013.1_src/data/scripts/dock_solv.prm

>  <Rbt.Receptor>
prm/pocket_docking_8.prm

>  <SCORE>
-8.7342

>  <SCORE.INTER>
-7.58223

>  <SCORE.INTER.CONST>
1

>  <SCORE.INTER.POLAR>
0

>  <SCORE.INTER.ROT>
11

>  <SCORE.INTER.SOLV>
9.89976

>  <SCORE.INTER.VDW>
-19.2881

>  <SCORE.INTER.norm>
-0.541588

>  <SCORE.INTRA>
-1.15198

>  <SCORE.INTRA.DIHEDRAL>
-5.51702

>  <SCORE.INTRA.DIHEDRAL.0>
7.79482

>  <SCORE.INTRA.POLAR>
0

>  <SCORE.INTRA.POLAR.0>
0

>  <SCORE.INTRA.REPUL>
0

>  <SCORE.INTRA.REPUL.0>
0

>  <SCORE.INTRA.SOLV>
3.37225

>  <SCORE.INTRA.SOLV.lig_0>
-49.456

>  <SCORE.INTRA.VDW>
-0.0795951

>  <SCORE.INTRA.VDW.0>
-0.478406

>  <SCORE.INTRA.norm>
-0.0822841

>  <SCORE.RESTR>
0

>  <SCORE.RESTR.CAVITY>
0

>  <SCORE.RESTR.norm>
0

>  <SCORE.SYSTEM>
0

>  <SCORE.SYSTEM.CONST>
0

>  <SCORE.SYSTEM.DIHEDRAL>
0

>  <SCORE.SYSTEM.SOLV>
0

>  <SCORE.SYSTEM.norm>
0

>  <SCORE.heavy>
14

>  <SCORE.norm>
-0.623872

>  <RMSD>
5.193

$$$$
ligand
 OpenBabel11021811413D
libRbt.so/2013.1/901 2013/11/27
 14 13  0  0  0  0  0  0  0  0999 V2000
   46.5071    4.7346   19.6085 N   0  0  0  0  0  0  0  0  0  0  0  0
   46.0079    4.7549   21.0004 C   0  0  0  0  0  0  0  0  0  0  0  0
   44.5229    5.1743   21.0546 C   0  0  0  0  0  0  0  0  0  0  0  0
   44.2433    6.6036   20.5616 C   0  0  0  0  0  0  0  0  0  0  0  0
   42.7804    6.8751   20.5117 N   0  0  0  0  0  0  0  0  0  0  0  0
   42.5334    8.2896   20.1313 C   0  0  0  0  0  0  0  0  0  0  0  0
   41.0460    8.6520   19.8018 C   0  0  0  0  0  0  0  0  0  0  0  0
   40.7944   10.1729   19.5920 C   0  0  0  0  0  0  0  0  0  0  0  0
   41.4777   10.7465   18.3661 C   0  0  0  0  0  0  0  0  0  0  0  0
   42.9034   10.7780   18.6321 N   0  0  0  0  0  0  0  0  0  0  0  0
   43.5255   11.2610   17.4117 C   0  0  0  0  0  0  0  0  0  0  0  0
   43.7553   12.7670   17.4611 C   0  0  0  0  0  0  0  0  0  0  0  0
   44.4362   13.1766   16.1464 C   0  0  0  0  0  0  0  0  0  0  0  0
   45.8045   12.6480   16.0412 N   0  0  0  0  0  0  0  0  0  0  0  0
  1  2  1  0  0  0  0
  2  3  1  0  0  0  0
  3  4  1  0  0  0  0
  4  5  1  0  0  0  0
  5  6  1  0  0  0  0
  6  7  1  0  0  0  0
  7  8  1  0  0  0  0
  8  9  1  0  0  0  0
  9 10  1  0  0  0  0
 10 11  1  0  0  0  0
 11 12  1  0  0  0  0
 12 13  1  0  0  0  0
 13 14  1  0  0  0  0
M  END
>  <CHROM.1>
-63.51768698,174.01246155,175.79376019,169.95216696,172.34609604,66.23939773
-70.86984309,176.89160722,94.82931287,178.96270918,-67.93972493,43.59521610
9.04540382,19.02302359,-1.41592477,0.32718634,-0.52480381

>  <Name>
ligand

>  <RI>
0

>  <Rbt.Current_Directory>
/home/itssahil/PROJECTS/Mol_Feturizer/New_Systems/rnas/1TN1

>  <Rbt.Executable>
rbdock ($Id: //depot/dev/client3/rdock/2013.1/src/exe/rbdock.cxx#4 $)

>  <Rbt.Library>
libRbt.so (2013.1, Build901 2013/11/27)

>  <Rbt.Parameter_File>
/export/apps/rDock/src/rDock_2013.1_src/data/scripts/dock_solv.prm

>  <Rbt.Receptor>
prm/pocket_docking_5.prm

>  <SCORE>
-10.1777

>  <SCORE.INTER>
-8.62561

>  <SCORE.INTER.CONST>
1

>  <SCORE.INTER.POLAR>
0

>  <SCORE.INTER.ROT>
11

>  <SCORE.INTER.SOLV>
15.7741

>  <SCORE.INTER.VDW>
-21.9418

>  <SCORE.INTER.norm>
-0.616115

>  <SCORE.INTRA>
-1.5521

>  <SCORE.INTRA.DIHEDRAL>
-5.70517

>  <SCORE.INTRA.DIHEDRAL.0>
7.79482

>  <SCORE.INTRA.POLAR>
0

>  <SCORE.INTRA.POLAR.0>
0

>  <SCORE.INTRA.REPUL>
0

>  <SCORE.INTRA.REPUL.0>
0

>  <SCORE.INTRA.SOLV>
2.39722

>  <SCORE.INTRA.SOLV.lig_0>
-49.456

>  <SCORE.INTRA.VDW>
0.101878

>  <SCORE.INTRA.VDW.0>
-0.478406

>  <SCORE.INTRA.norm>
-0.110864

>  <SCORE.RESTR>
0

>  <SCORE.RESTR.CAVITY>
0

>  <SCORE.RESTR.norm>
0

>  <SCORE.SYSTEM>
0

>  <SCORE.SYSTEM.CONST>
0

>  <SCORE.SYSTEM.DIHEDRAL>
0

>  <SCORE.SYSTEM.SOLV>
0

>  <SCORE.SYSTEM.norm>
0

>  <SCORE.heavy>
14

>  <SCORE.norm>
-0.726979

>  <RMSD>
5.195

$$$$
ligand
 OpenBabel11021811413D
libRbt.so/2013.1/901 2013/11/27
 14 13  0  0  0  0  0  0  0  0999 V2000
   45.1929    8.3762   19.8421 N   0  0  0  0  0  0  0  0  0  0  0  0
   44.8822    6.9398   20.0079 C   0  0  0  0  0  0  0  0  0  0  0  0
   46.1705    6.0889   20.0275 C   0  0  0  0  0  0  0  0  0  0  0  0
   45.9345    4.5728   20.1263 C   0  0  0  0  0  0  0  0  0  0  0  0
   45.2142    4.0648   18.9265 N   0  0  0  0  0  0  0  0  0  0  0  0
   44.7371    2.6780   19.1631 C   0  0  0  0  0  0  0  0  0  0  0  0
   45.7435    1.5415   18.7790 C   0  0  0  0  0  0  0  0  0  0  0  0
   45.9501    1.3671   17.2469 C   0  0  0  0  0  0  0  0  0  0  0  0
   44.7961    0.6785   16.5447 C   0  0  0  0  0  0  0  0  0  0  0  0
   45.1698    0.5030   15.1540 N   0  0  0  0  0  0  0  0  0  0  0  0
   44.4517   -0.6728   14.6943 C   0  0  0  0  0  0  0  0  0  0  0  0
   44.8885   -1.0802   13.2919 C   0  0  0  0  0  0  0  0  0  0  0  0
   44.0784   -2.3238   12.8957 C   0  0  0  0  0  0  0  0  0  0  0  0
   44.4758   -2.8501   11.5812 N   0  0  0  0  0  0  0  0  0  0  0  0
  1  2  1  0  0  0  0
  2  3  1  0  0  0  0
  3  4  1  0  0  0  0
  4  5  1  0  0  0  0
  5  6  1  0  0  0  0
  6  7  1  0  0  0  0
  7  8  1  0  0  0  0
  8  9  1  0  0  0  0
  9 10  1  0  0  0  0
 10 11  1  0  0  0  0
 11 12  1  0  0  0  0
 12 13  1  0  0  0  0
 13 14  1  0  0  0  0
M  END
>  <CHROM.1>
-177.09774050,63.75553101,-167.77965213,-88.98476390,-70.76122554,-75.30597876
-176.02447946,151.77065369,-172.74781545,-179.97278339,-176.79160779,45.12042234
2.13441218,17.02034377,1.23269483,-1.31028365,0.37850758

>  <Name>
ligand

>  <RI>
0

>  <Rbt.Current_Directory>
/home/itssahil/PROJECTS/Mol_Feturizer/New_Systems/rnas/1TN1

>  <Rbt.Executable>
rbdock ($Id: //depot/dev/client3/rdock/2013.1/src/exe/rbdock.cxx#4 $)

>  <Rbt.Library>
libRbt.so (2013.1, Build901 2013/11/27)

>  <Rbt.Parameter_File>
/export/apps/rDock/src/rDock_2013.1_src/data/scripts/dock_solv.prm

>  <Rbt.Receptor>
prm/blind_docking_60.prm

>  <SCORE>
-7.40532

>  <SCORE.INTER>
-4.66517

>  <SCORE.INTER.CONST>
1

>  <SCORE.INTER.POLAR>
0

>  <SCORE.INTER.ROT>
11

>  <SCORE.INTER.SOLV>
11.1344

>  <SCORE.INTER.VDW>
-17.7549

>  <SCORE.INTER.norm>
-0.333227

>  <SCORE.INTRA>
-2.74015

>  <SCORE.INTRA.DIHEDRAL>
-4.97953

>  <SCORE.INTRA.DIHEDRAL.0>
7.79482

>  <SCORE.INTRA.POLAR>
0

>  <SCORE.INTRA.POLAR.0>
0

>  <SCORE.INTRA.REPUL>
0

>  <SCORE.INTRA.REPUL.0>
0

>  <SCORE.INTRA.SOLV>
0.758832

>  <SCORE.INTRA.SOLV.lig_0>
-49.456

>  <SCORE.INTRA.VDW>
-0.629797

>  <SCORE.INTRA.VDW.0>
-0.478406

>  <SCORE.INTRA.norm>
-0.195725

>  <SCORE.RESTR>
0

>  <SCORE.RESTR.CAVITY>
0

>  <SCORE.RESTR.norm>
0

>  <SCORE.SYSTEM>
0

>  <SCORE.SYSTEM.CONST>
0

>  <SCORE.SYSTEM.DIHEDRAL>
0

>  <SCORE.SYSTEM.SOLV>
0

>  <SCORE.SYSTEM.norm>
0

>  <SCORE.heavy>
14

>  <SCORE.norm>
-0.528951

>  <RMSD>
5.213

$$$$
ligand
 OpenBabel11021811413D
libRbt.so/2013.1/901 2013/11/27
 14 13  0  0  0  0  0  0  0  0999 V2000
   46.4691    4.9817   19.9525 N   0  0  0  0  0  0  0  0  0  0  0  0
   45.1392    4.4851   20.3671 C   0  0  0  0  0  0  0  0  0  0  0  0
   44.2664    5.6287   20.9277 C   0  0  0  0  0  0  0  0  0  0  0  0
   42.8031    5.2426   21.1995 C   0  0  0  0  0  0  0  0  0  0  0  0
   41.9932    6.4384   21.5607 N   0  0  0  0  0  0  0  0  0  0  0  0
   41.7648    7.2851   20.3617 C   0  0  0  0  0  0  0  0  0  0  0  0
   40.8833    8.5590   20.5907 C   0  0  0  0  0  0  0  0  0  0  0  0
   40.8673    9.5450   19.3874 C   0  0  0  0  0  0  0  0  0  0  0  0
   42.2261   10.1273   19.0507 C   0  0  0  0  0  0  0  0  0  0  0  0
   42.0455   11.0581   17.9528 N   0  0  0  0  0  0  0  0  0  0  0  0
   43.3682   11.2752   17.3933 C   0  0  0  0  0  0  0  0  0  0  0  0
   43.2903   11.8763   15.9948 C   0  0  0  0  0  0  0  0  0  0  0  0
   44.7199   11.9397   15.4360 C   0  0  0  0  0  0  0  0  0  0  0  0
   45.5857   12.8290   16.2249 N   0  0  0  0  0  0  0  0  0  0  0  0
  1  2  1  0  0  0  0
  2  3  1  0  0  0  0
  3  4  1  0  0  0  0
  4  5  1  0  0  0  0
  5  6  1  0  0  0  0
  6  7  1  0  0  0  0
  7  8  1  0  0  0  0
  8  9  1  0  0  0  0
  9 10  1  0  0  0  0
 10 11  1  0  0  0  0
 11 12  1  0  0  0  0
 12 13  1  0  0  0  0
 13 14  1  0  0  0  0
M  END
>  <CHROM.1>
171.85391014,-172.37137176,72.48866931,178.10648848,169.98546482,-62.11060375
-177.84054601,-162.91087490,162.48613216,-174.54138903,-63.18658949,43.24411909
8.66216420,19.02858433,-1.58427483,0.39784714,-0.58653827

>  <Name>
ligand

>  <RI>
0

>  <Rbt.Current_Directory>
/home/itssahil/PROJECTS/Mol_Feturizer/New_Systems/rnas/1TN1

>  <Rbt.Executable>
rbdock ($Id: //depot/dev/client3/rdock/2013.1/src/exe/rbdock.cxx#4 $)

>  <Rbt.Library>
libRbt.so (2013.1, Build901 2013/11/27)

>  <Rbt.Parameter_File>
/export/apps/rDock/src/rDock_2013.1_src/data/scripts/dock_solv.prm

>  <Rbt.Receptor>
prm/pocket_docking_8.prm

>  <SCORE>
-10.9595

>  <SCORE.INTER>
-8.74864

>  <SCORE.INTER.CONST>
1

>  <SCORE.INTER.POLAR>
0

>  <SCORE.INTER.ROT>
11

>  <SCORE.INTER.SOLV>
17.1546

>  <SCORE.INTER.VDW>
-22.484

>  <SCORE.INTER.norm>
-0.624903

>  <SCORE.INTRA>
-2.21086

>  <SCORE.INTRA.DIHEDRAL>
-6.18648

>  <SCORE.INTRA.DIHEDRAL.0>
7.79482

>  <SCORE.INTRA.POLAR>
0

>  <SCORE.INTRA.POLAR.0>
0

>  <SCORE.INTRA.REPUL>
0

>  <SCORE.INTRA.REPUL.0>
0

>  <SCORE.INTRA.SOLV>
0.946044

>  <SCORE.INTRA.SOLV.lig_0>
-49.456

>  <SCORE.INTRA.VDW>
0.409359

>  <SCORE.INTRA.VDW.0>
-0.478406

>  <SCORE.INTRA.norm>
-0.157919

>  <SCORE.RESTR>
0

>  <SCORE.RESTR.CAVITY>
0

>  <SCORE.RESTR.norm>
0

>  <SCORE.SYSTEM>
0

>  <SCORE.SYSTEM.CONST>
0

>  <SCORE.SYSTEM.DIHEDRAL>
0

>  <SCORE.SYSTEM.SOLV>
0

>  <SCORE.SYSTEM.norm>
0

>  <SCORE.heavy>
14

>  <SCORE.norm>
-0.782822

>  <RMSD>
5.228

$$$$
ligand
 OpenBabel11021811413D
libRbt.so/2013.1/901 2013/11/27
 14 13  0  0  0  0  0  0  0  0999 V2000
   46.2590    0.6493   12.5626 N   0  0  0  0  0  0  0  0  0  0  0  0
   45.3686   -0.5180   12.3843 C   0  0  0  0  0  0  0  0  0  0  0  0
   45.3025   -1.3709   13.6697 C   0  0  0  0  0  0  0  0  0  0  0  0
   44.6221   -0.6791   14.8623 C   0  0  0  0  0  0  0  0  0  0  0  0
   45.3780    0.5339   15.2790 N   0  0  0  0  0  0  0  0  0  0  0  0
   44.5343    1.3901   16.1518 C   0  0  0  0  0  0  0  0  0  0  0  0
   44.5216    1.0046   17.6695 C   0  0  0  0  0  0  0  0  0  0  0  0
   45.9151    1.0849   18.3567 C   0  0  0  0  0  0  0  0  0  0  0  0
   46.4850    2.4879   18.4308 C   0  0  0  0  0  0  0  0  0  0  0  0
   45.6225    3.2672   19.2988 N   0  0  0  0  0  0  0  0  0  0  0  0
   46.2226    4.5877   19.3746 C   0  0  0  0  0  0  0  0  0  0  0  0
   45.2698    5.5979   20.0031 C   0  0  0  0  0  0  0  0  0  0  0  0
   45.9409    6.9779   19.9295 C   0  0  0  0  0  0  0  0  0  0  0  0
   45.0749    8.0454   20.4521 N   0  0  0  0  0  0  0  0  0  0  0  0
  1  2  1  0  0  0  0
  2  3  1  0  0  0  0
  3  4  1  0  0  0  0
  4  5  1  0  0  0  0
  5  6  1  0  0  0  0
  6  7  1  0  0  0  0
  7  8  1  0  0  0  0
  8  9  1  0  0  0  0
  9 10  1  0  0  0  0
 10 11  1  0  0  0  0
 11 12  1  0  0  0  0
 12 13  1  0  0  0  0
 13 14  1  0  0  0  0
M  END
>  <CHROM.1>
66.90369019,-62.78133036,164.11201643,84.38839687,61.25612560,65.25974372
65.33521514,178.36005295,167.58191527,-175.21542290,177.17885814,45.46543376
2.36104129,17.03038777,-1.86077851,1.46313445,1.05464953

>  <Name>
ligand

>  <RI>
0

>  <Rbt.Current_Directory>
/home/itssahil/PROJECTS/Mol_Feturizer/New_Systems/rnas/1TN1

>  <Rbt.Executable>
rbdock ($Id: //depot/dev/client3/rdock/2013.1/src/exe/rbdock.cxx#4 $)

>  <Rbt.Library>
libRbt.so (2013.1, Build901 2013/11/27)

>  <Rbt.Parameter_File>
/export/apps/rDock/src/rDock_2013.1_src/data/scripts/dock_solv.prm

>  <Rbt.Receptor>
prm/blind_docking_60.prm

>  <SCORE>
-6.33168

>  <SCORE.INTER>
-4.68187

>  <SCORE.INTER.CONST>
1

>  <SCORE.INTER.POLAR>
0

>  <SCORE.INTER.ROT>
11

>  <SCORE.INTER.SOLV>
12.8196

>  <SCORE.INTER.VDW>
-18.3278

>  <SCORE.INTER.norm>
-0.334419

>  <SCORE.INTRA>
-1.64981

>  <SCORE.INTRA.DIHEDRAL>
-6.49597

>  <SCORE.INTRA.DIHEDRAL.0>
7.79482

>  <SCORE.INTRA.POLAR>
0

>  <SCORE.INTRA.POLAR.0>
0

>  <SCORE.INTRA.REPUL>
0

>  <SCORE.INTRA.REPUL.0>
0

>  <SCORE.INTRA.SOLV>
4.1216

>  <SCORE.INTRA.SOLV.lig_0>
-49.456

>  <SCORE.INTRA.VDW>
-0.462626

>  <SCORE.INTRA.VDW.0>
-0.478406

>  <SCORE.INTRA.norm>
-0.117844

>  <SCORE.RESTR>
0

>  <SCORE.RESTR.CAVITY>
0

>  <SCORE.RESTR.norm>
0

>  <SCORE.SYSTEM>
0

>  <SCORE.SYSTEM.CONST>
0

>  <SCORE.SYSTEM.DIHEDRAL>
0

>  <SCORE.SYSTEM.SOLV>
0

>  <SCORE.SYSTEM.norm>
0

>  <SCORE.heavy>
14

>  <SCORE.norm>
-0.452263

>  <RMSD>
5.230

$$$$
ligand
 OpenBabel11021811413D
libRbt.so/2013.1/901 2013/11/27
 14 13  0  0  0  0  0  0  0  0999 V2000
   45.9828    8.4270   19.3444 N   0  0  0  0  0  0  0  0  0  0  0  0
   46.1130    7.1644   20.1034 C   0  0  0  0  0  0  0  0  0  0  0  0
   46.1843    5.9481   19.1550 C   0  0  0  0  0  0  0  0  0  0  0  0
   46.2350    4.5852   19.8650 C   0  0  0  0  0  0  0  0  0  0  0  0
   46.2610    3.4698   18.8793 N   0  0  0  0  0  0  0  0  0  0  0  0
   45.1326    2.5367   19.1300 C   0  0  0  0  0  0  0  0  0  0  0  0
   45.0195    1.3298   18.1387 C   0  0  0  0  0  0  0  0  0  0  0  0
   44.7140    1.7410   16.6697 C   0  0  0  0  0  0  0  0  0  0  0  0
   44.3147    0.5826   15.7766 C   0  0  0  0  0  0  0  0  0  0  0  0
   45.4898   -0.2444   15.5780 N   0  0  0  0  0  0  0  0  0  0  0  0
   45.0147   -1.4684   14.9568 C   0  0  0  0  0  0  0  0  0  0  0  0
   44.8843   -1.3128   13.4461 C   0  0  0  0  0  0  0  0  0  0  0  0
   44.0915   -2.5195   12.9214 C   0  0  0  0  0  0  0  0  0  0  0  0
   44.8266   -3.7822   13.0882 N   0  0  0  0  0  0  0  0  0  0  0  0
  1  2  1  0  0  0  0
  2  3  1  0  0  0  0
  3  4  1  0  0  0  0
  4  5  1  0  0  0  0
  5  6  1  0  0  0  0
  6  7  1  0  0  0  0
  7  8  1  0  0  0  0
  8  9  1  0  0  0  0
  9 10  1  0  0  0  0
 10 11  1  0  0  0  0
 11 12  1  0  0  0  0
 12 13  1  0  0  0  0
 13 14  1  0  0  0  0
M  END
>  <CHROM.1>
-176.47473534,178.30156755,-123.67010584,178.57279143,-64.64005815,-167.66779382
-69.60826508,168.72754955,84.09547076,-167.52559753,-66.12892590,45.30441617
1.88978345,16.93242333,0.49523562,-1.41902027,-0.46637182

>  <Name>
ligand

>  <RI>
0

>  <Rbt.Current_Directory>
/home/itssahil/PROJECTS/Mol_Feturizer/New_Systems/rnas/1TN1

>  <Rbt.Executable>
rbdock ($Id: //depot/dev/client3/rdock/2013.1/src/exe/rbdock.cxx#4 $)

>  <Rbt.Library>
libRbt.so (2013.1, Build901 2013/11/27)

>  <Rbt.Parameter_File>
/export/apps/rDock/src/rDock_2013.1_src/data/scripts/dock_solv.prm

>  <Rbt.Receptor>
prm/blind_docking_100.prm

>  <SCORE>
-6.66798

>  <SCORE.INTER>
-5.22429

>  <SCORE.INTER.CONST>
1

>  <SCORE.INTER.POLAR>
0

>  <SCORE.INTER.ROT>
11

>  <SCORE.INTER.SOLV>
13.8992

>  <SCORE.INTER.VDW>
-19.0493

>  <SCORE.INTER.norm>
-0.373164

>  <SCORE.INTRA>
-1.44368

>  <SCORE.INTRA.DIHEDRAL>
-4.27935

>  <SCORE.INTRA.DIHEDRAL.0>
7.79482

>  <SCORE.INTRA.POLAR>
0

>  <SCORE.INTRA.POLAR.0>
0

>  <SCORE.INTRA.REPUL>
0

>  <SCORE.INTRA.REPUL.0>
0

>  <SCORE.INTRA.SOLV>
1.33057

>  <SCORE.INTRA.SOLV.lig_0>
-49.456

>  <SCORE.INTRA.VDW>
0.0307082

>  <SCORE.INTRA.VDW.0>
-0.478406

>  <SCORE.INTRA.norm>
-0.10312

>  <SCORE.RESTR>
0

>  <SCORE.RESTR.CAVITY>
0

>  <SCORE.RESTR.norm>
0

>  <SCORE.SYSTEM>
0

>  <SCORE.SYSTEM.CONST>
0

>  <SCORE.SYSTEM.DIHEDRAL>
0

>  <SCORE.SYSTEM.SOLV>
0

>  <SCORE.SYSTEM.norm>
0

>  <SCORE.heavy>
14

>  <SCORE.norm>
-0.476284

>  <RMSD>
5.306

$$$$
ligand
 OpenBabel11021811413D
libRbt.so/2013.1/901 2013/11/27
 14 13  0  0  0  0  0  0  0  0999 V2000
   46.4629    4.3776   20.1400 N   0  0  0  0  0  0  0  0  0  0  0  0
   45.5131    5.3428   20.7344 C   0  0  0  0  0  0  0  0  0  0  0  0
   44.2857    4.6218   21.3325 C   0  0  0  0  0  0  0  0  0  0  0  0
   43.1768    5.5589   21.8384 C   0  0  0  0  0  0  0  0  0  0  0  0
   42.5800    6.3350   20.7168 N   0  0  0  0  0  0  0  0  0  0  0  0
   41.3900    7.0880   21.1895 C   0  0  0  0  0  0  0  0  0  0  0  0
   40.8173    8.1468   20.1879 C   0  0  0  0  0  0  0  0  0  0  0  0
   41.8372    9.2463   19.7742 C   0  0  0  0  0  0  0  0  0  0  0  0
   41.2666   10.2947   18.8392 C   0  0  0  0  0  0  0  0  0  0  0  0
   42.3251   11.2409   18.5415 N   0  0  0  0  0  0  0  0  0  0  0  0
   41.8772   11.9861   17.3781 C   0  0  0  0  0  0  0  0  0  0  0  0
   42.8816   13.0632   16.9851 C   0  0  0  0  0  0  0  0  0  0  0  0
   42.8398   14.1541   18.0659 C   0  0  0  0  0  0  0  0  0  0  0  0
   41.5592   14.8770   18.0764 N   0  0  0  0  0  0  0  0  0  0  0  0
  1  2  1  0  0  0  0
  2  3  1  0  0  0  0
  3  4  1  0  0  0  0
  4  5  1  0  0  0  0
  5  6  1  0  0  0  0
  6  7  1  0  0  0  0
  7  8  1  0  0  0  0
  8  9  1  0  0  0  0
  9 10  1  0  0  0  0
 10 11  1  0  0  0  0
 11 12  1  0  0  0  0
 12 13  1  0  0  0  0
 13 14  1  0  0  0  0
M  END
>  <CHROM.1>
-173.80857437,64.45434390,172.05684678,169.31803063,-58.67903035,-178.14831653
-179.83728338,164.16977620,177.79034560,-70.13205741,-67.15744845,42.77213867
9.02372228,19.55720922,-1.31483316,0.28948398,-0.44651797

>  <Name>
ligand

>  <RI>
0

>  <Rbt.Current_Directory>
/home/itssahil/PROJECTS/Mol_Feturizer/New_Systems/rnas/1TN1

>  <Rbt.Executable>
rbdock ($Id: //depot/dev/client3/rdock/2013.1/src/exe/rbdock.cxx#4 $)

>  <Rbt.Library>
libRbt.so (2013.1, Build901 2013/11/27)

>  <Rbt.Parameter_File>
/export/apps/rDock/src/rDock_2013.1_src/data/scripts/dock_solv.prm

>  <Rbt.Receptor>
prm/pocket_docking_8.prm

>  <SCORE>
-12.4602

>  <SCORE.INTER>
-9.61289

>  <SCORE.INTER.CONST>
1

>  <SCORE.INTER.POLAR>
0

>  <SCORE.INTER.ROT>
11

>  <SCORE.INTER.SOLV>
17.914

>  <SCORE.INTER.VDW>
-23.3132

>  <SCORE.INTER.norm>
-0.686635

>  <SCORE.INTRA>
-2.84735

>  <SCORE.INTRA.DIHEDRAL>
-6.64317

>  <SCORE.INTRA.DIHEDRAL.0>
7.79482

>  <SCORE.INTRA.POLAR>
0

>  <SCORE.INTRA.POLAR.0>
0

>  <SCORE.INTRA.REPUL>
0

>  <SCORE.INTRA.REPUL.0>
0

>  <SCORE.INTRA.SOLV>
2.31364

>  <SCORE.INTRA.SOLV.lig_0>
-49.456

>  <SCORE.INTRA.VDW>
-0.682585

>  <SCORE.INTRA.VDW.0>
-0.478406

>  <SCORE.INTRA.norm>
-0.203382

>  <SCORE.RESTR>
0

>  <SCORE.RESTR.CAVITY>
0

>  <SCORE.RESTR.norm>
0

>  <SCORE.SYSTEM>
0

>  <SCORE.SYSTEM.CONST>
0

>  <SCORE.SYSTEM.DIHEDRAL>
0

>  <SCORE.SYSTEM.SOLV>
0

>  <SCORE.SYSTEM.norm>
0

>  <SCORE.heavy>
14

>  <SCORE.norm>
-0.890017

>  <RMSD>
5.306

$$$$
ligand
 OpenBabel11021811413D
libRbt.so/2013.1/901 2013/11/27
 14 13  0  0  0  0  0  0  0  0999 V2000
   45.5735    6.0670   19.9485 N   0  0  0  0  0  0  0  0  0  0  0  0
   45.5827    5.1299   21.0925 C   0  0  0  0  0  0  0  0  0  0  0  0
   44.1778    4.5397   21.3417 C   0  0  0  0  0  0  0  0  0  0  0  0
   43.1279    5.5617   21.8078 C   0  0  0  0  0  0  0  0  0  0  0  0
   42.8167    6.5384   20.7281 N   0  0  0  0  0  0  0  0  0  0  0  0
   41.5443    7.2448   21.0260 C   0  0  0  0  0  0  0  0  0  0  0  0
   41.0386    8.2255   19.9149 C   0  0  0  0  0  0  0  0  0  0  0  0
   42.0141    9.3988   19.6114 C   0  0  0  0  0  0  0  0  0  0  0  0
   41.4644   10.4193   18.6340 C   0  0  0  0  0  0  0  0  0  0  0  0
   42.4693   11.4517   18.4651 N   0  0  0  0  0  0  0  0  0  0  0  0
   42.1263   12.1436   17.2349 C   0  0  0  0  0  0  0  0  0  0  0  0
   43.1046   11.8084   16.1152 C   0  0  0  0  0  0  0  0  0  0  0  0
   44.4784   12.3673   16.5156 C   0  0  0  0  0  0  0  0  0  0  0  0
   44.4925   13.8375   16.5463 N   0  0  0  0  0  0  0  0  0  0  0  0
  1  2  1  0  0  0  0
  2  3  1  0  0  0  0
  3  4  1  0  0  0  0
  4  5  1  0  0  0  0
  5  6  1  0  0  0  0
  6  7  1  0  0  0  0
  7  8  1  0  0  0  0
  8  9  1  0  0  0  0
  9 10  1  0  0  0  0
 10 11  1  0  0  0  0
 11 12  1  0  0  0  0
 12 13  1  0  0  0  0
 13 14  1  0  0  0  0
M  END
>  <CHROM.1>
-66.26282329,67.34121160,163.03183097,-175.47657195,-61.40718779,-174.39828198
179.26167271,161.50093111,-107.78626615,-65.39617813,-67.10912251,43.14336974
8.90930677,19.21312720,-1.49429201,0.26099452,-0.56885834

>  <Name>
ligand

>  <RI>
0

>  <Rbt.Current_Directory>
/home/itssahil/PROJECTS/Mol_Feturizer/New_Systems/rnas/1TN1

>  <Rbt.Executable>
rbdock ($Id: //depot/dev/client3/rdock/2013.1/src/exe/rbdock.cxx#4 $)

>  <Rbt.Library>
libRbt.so (2013.1, Build901 2013/11/27)

>  <Rbt.Parameter_File>
/export/apps/rDock/src/rDock_2013.1_src/data/scripts/dock_solv.prm

>  <Rbt.Receptor>
prm/pocket_docking_8.prm

>  <SCORE>
-12.2109

>  <SCORE.INTER>
-11.3086

>  <SCORE.INTER.CONST>
1

>  <SCORE.INTER.POLAR>
0

>  <SCORE.INTER.ROT>
11

>  <SCORE.INTER.SOLV>
13.377

>  <SCORE.INTER.VDW>
-22.9314

>  <SCORE.INTER.norm>
-0.807755

>  <SCORE.INTRA>
-0.902302

>  <SCORE.INTRA.DIHEDRAL>
-5.42772

>  <SCORE.INTRA.DIHEDRAL.0>
7.79482

>  <SCORE.INTRA.POLAR>
0

>  <SCORE.INTRA.POLAR.0>
0

>  <SCORE.INTRA.REPUL>
0

>  <SCORE.INTRA.REPUL.0>
0

>  <SCORE.INTRA.SOLV>
4.76741

>  <SCORE.INTRA.SOLV.lig_0>
-49.456

>  <SCORE.INTRA.VDW>
-0.572143

>  <SCORE.INTRA.VDW.0>
-0.478406

>  <SCORE.INTRA.norm>
-0.0644501

>  <SCORE.RESTR>
0

>  <SCORE.RESTR.CAVITY>
0

>  <SCORE.RESTR.norm>
0

>  <SCORE.SYSTEM>
0

>  <SCORE.SYSTEM.CONST>
0

>  <SCORE.SYSTEM.DIHEDRAL>
0

>  <SCORE.SYSTEM.SOLV>
0

>  <SCORE.SYSTEM.norm>
0

>  <SCORE.heavy>
14

>  <SCORE.norm>
-0.872205

>  <RMSD>
5.317

$$$$
ligand
 OpenBabel11021811413D
libRbt.so/2013.1/901 2013/11/27
 14 13  0  0  0  0  0  0  0  0999 V2000
   46.4780    0.2467   13.1142 N   0  0  0  0  0  0  0  0  0  0  0  0
   46.6643   -1.2197   13.0696 C   0  0  0  0  0  0  0  0  0  0  0  0
   45.5054   -1.9514   13.7806 C   0  0  0  0  0  0  0  0  0  0  0  0
   45.4156   -1.6898   15.2931 C   0  0  0  0  0  0  0  0  0  0  0  0
   44.9070   -0.3181   15.5689 N   0  0  0  0  0  0  0  0  0  0  0  0
   45.3025    0.1110   16.9350 C   0  0  0  0  0  0  0  0  0  0  0  0
   44.3546    1.1540   17.6177 C   0  0  0  0  0  0  0  0  0  0  0  0
   44.8952    1.7183   18.9629 C   0  0  0  0  0  0  0  0  0  0  0  0
   46.1156    2.6054   18.8121 C   0  0  0  0  0  0  0  0  0  0  0  0
   45.6681    3.9836   18.8796 N   0  0  0  0  0  0  0  0  0  0  0  0
   46.2912    4.5469   20.0645 C   0  0  0  0  0  0  0  0  0  0  0  0
   45.3031    5.3813   20.8711 C   0  0  0  0  0  0  0  0  0  0  0  0
   45.0117    6.6594   20.0702 C   0  0  0  0  0  0  0  0  0  0  0  0
   46.2116    7.4918   19.8964 N   0  0  0  0  0  0  0  0  0  0  0  0
  1  2  1  0  0  0  0
  2  3  1  0  0  0  0
  3  4  1  0  0  0  0
  4  5  1  0  0  0  0
  5  6  1  0  0  0  0
  6  7  1  0  0  0  0
  7  8  1  0  0  0  0
  8  9  1  0  0  0  0
  9 10  1  0  0  0  0
 10 11  1  0  0  0  0
 11 12  1  0  0  0  0
 12 13  1  0  0  0  0
 13 14  1  0  0  0  0
M  END
>  <CHROM.1>
-65.16565356,73.27687953,-158.36774553,-152.68473209,-172.42025987,68.43645103
100.23153499,116.43980287,-136.05844407,-70.59111162,-63.34682722,45.58018444
2.05105771,17.35276388,-1.53861917,1.10888820,0.68225352

>  <Name>
ligand

>  <RI>
0

>  <Rbt.Current_Directory>
/home/itssahil/PROJECTS/Mol_Feturizer/New_Systems/rnas/1TN1

>  <Rbt.Executable>
rbdock ($Id: //depot/dev/client3/rdock/2013.1/src/exe/rbdock.cxx#4 $)

>  <Rbt.Library>
libRbt.so (2013.1, Build901 2013/11/27)

>  <Rbt.Parameter_File>
/export/apps/rDock/src/rDock_2013.1_src/data/scripts/dock_solv.prm

>  <Rbt.Receptor>
prm/pocket_docking_7.prm

>  <SCORE>
-3.87508

>  <SCORE.INTER>
-6.48321

>  <SCORE.INTER.CONST>
1

>  <SCORE.INTER.POLAR>
0

>  <SCORE.INTER.ROT>
11

>  <SCORE.INTER.SOLV>
12.1811

>  <SCORE.INTER.VDW>
-19.3158

>  <SCORE.INTER.norm>
-0.463087

>  <SCORE.INTRA>
2.60814

>  <SCORE.INTRA.DIHEDRAL>
1.13012

>  <SCORE.INTRA.DIHEDRAL.0>
7.79482

>  <SCORE.INTRA.POLAR>
0

>  <SCORE.INTRA.POLAR.0>
0

>  <SCORE.INTRA.REPUL>
0

>  <SCORE.INTRA.REPUL.0>
0

>  <SCORE.INTRA.SOLV>
4.95125

>  <SCORE.INTRA.SOLV.lig_0>
-49.456

>  <SCORE.INTRA.VDW>
-0.432547

>  <SCORE.INTRA.VDW.0>
-0.478406

>  <SCORE.INTRA.norm>
0.186295

>  <SCORE.RESTR>
0

>  <SCORE.RESTR.CAVITY>
0

>  <SCORE.RESTR.norm>
0

>  <SCORE.SYSTEM>
0

>  <SCORE.SYSTEM.CONST>
0

>  <SCORE.SYSTEM.DIHEDRAL>
0

>  <SCORE.SYSTEM.SOLV>
0

>  <SCORE.SYSTEM.norm>
0

>  <SCORE.heavy>
14

>  <SCORE.norm>
-0.276791

>  <RMSD>
5.332

$$$$
ligand
 OpenBabel11021811413D
libRbt.so/2013.1/901 2013/11/27
 14 13  0  0  0  0  0  0  0  0999 V2000
   44.2575   12.9138   16.9132 N   0  0  0  0  0  0  0  0  0  0  0  0
   42.8756   13.3989   17.1192 C   0  0  0  0  0  0  0  0  0  0  0  0
   41.8789   12.2230   17.2078 C   0  0  0  0  0  0  0  0  0  0  0  0
   42.0830   11.3012   18.4213 C   0  0  0  0  0  0  0  0  0  0  0  0
   41.0848   10.1967   18.4273 N   0  0  0  0  0  0  0  0  0  0  0  0
   41.1793    9.4263   19.6939 C   0  0  0  0  0  0  0  0  0  0  0  0
   40.3974    8.0698   19.7208 C   0  0  0  0  0  0  0  0  0  0  0  0
   40.4826    7.3144   21.0782 C   0  0  0  0  0  0  0  0  0  0  0  0
   41.8854    6.8778   21.4527 C   0  0  0  0  0  0  0  0  0  0  0  0
   42.3201    5.9046   20.4687 N   0  0  0  0  0  0  0  0  0  0  0  0
   43.7699    5.9877   20.4402 C   0  0  0  0  0  0  0  0  0  0  0  0
   44.4104    4.8085   21.1631 C   0  0  0  0  0  0  0  0  0  0  0  0
   45.9339    4.9514   21.0263 C   0  0  0  0  0  0  0  0  0  0  0  0
   46.3795    4.8360   19.6296 N   0  0  0  0  0  0  0  0  0  0  0  0
  1  2  1  0  0  0  0
  2  3  1  0  0  0  0
  3  4  1  0  0  0  0
  4  5  1  0  0  0  0
  5  6  1  0  0  0  0
  6  7  1  0  0  0  0
  7  8  1  0  0  0  0
  8  9  1  0  0  0  0
  9 10  1  0  0  0  0
 10 11  1  0  0  0  0
 11 12  1  0  0  0  0
 12 13  1  0  0  0  0
 13 14  1  0  0  0  0
M  END
>  <CHROM.1>
64.78234759,-179.87929483,-172.45832918,-168.14526188,-178.13650519,-63.35959974
-64.67136696,153.35955765,104.42685660,177.54868846,-64.73661260,42.78100968
8.44356470,19.48328061,-1.81805739,-0.24788282,2.64550986

>  <Name>
ligand

>  <RI>
0

>  <Rbt.Current_Directory>
/home/itssahil/PROJECTS/Mol_Feturizer/New_Systems/rnas/1TN1

>  <Rbt.Executable>
rbdock ($Id: //depot/dev/client3/rdock/2013.1/src/exe/rbdock.cxx#4 $)

>  <Rbt.Library>
libRbt.so (2013.1, Build901 2013/11/27)

>  <Rbt.Parameter_File>
/export/apps/rDock/src/rDock_2013.1_src/data/scripts/dock_solv.prm

>  <Rbt.Receptor>
prm/pocket_docking_8.prm

>  <SCORE>
-10.9692

>  <SCORE.INTER>
-9.07719

>  <SCORE.INTER.CONST>
1

>  <SCORE.INTER.POLAR>
0

>  <SCORE.INTER.ROT>
11

>  <SCORE.INTER.SOLV>
19.1463

>  <SCORE.INTER.VDW>
-23.3669

>  <SCORE.INTER.norm>
-0.648371

>  <SCORE.INTRA>
-1.89196

>  <SCORE.INTRA.DIHEDRAL>
-5.7946

>  <SCORE.INTRA.DIHEDRAL.0>
7.79482

>  <SCORE.INTRA.POLAR>
0

>  <SCORE.INTRA.POLAR.0>
0

>  <SCORE.INTRA.REPUL>
0

>  <SCORE.INTRA.REPUL.0>
0

>  <SCORE.INTRA.SOLV>
2.14436

>  <SCORE.INTRA.SOLV.lig_0>
-49.456

>  <SCORE.INTRA.VDW>
-0.066843

>  <SCORE.INTRA.VDW.0>
-0.478406

>  <SCORE.INTRA.norm>
-0.13514

>  <SCORE.RESTR>
0

>  <SCORE.RESTR.CAVITY>
0

>  <SCORE.RESTR.norm>
0

>  <SCORE.SYSTEM>
0

>  <SCORE.SYSTEM.CONST>
0

>  <SCORE.SYSTEM.DIHEDRAL>
0

>  <SCORE.SYSTEM.SOLV>
0

>  <SCORE.SYSTEM.norm>
0

>  <SCORE.heavy>
14

>  <SCORE.norm>
-0.783511

>  <RMSD>
5.337

$$$$
ligand
 OpenBabel11021811413D
libRbt.so/2013.1/901 2013/11/27
 14 13  0  0  0  0  0  0  0  0999 V2000
   45.4922    5.5922   19.6307 N   0  0  0  0  0  0  0  0  0  0  0  0
   45.7618    5.1010   20.9994 C   0  0  0  0  0  0  0  0  0  0  0  0
   44.4781    4.5510   21.6578 C   0  0  0  0  0  0  0  0  0  0  0  0
   43.3632    5.5915   21.8538 C   0  0  0  0  0  0  0  0  0  0  0  0
   42.7505    5.9699   20.5508 N   0  0  0  0  0  0  0  0  0  0  0  0
   42.4851    7.4311   20.5134 C   0  0  0  0  0  0  0  0  0  0  0  0
   41.0571    7.8472   20.0238 C   0  0  0  0  0  0  0  0  0  0  0  0
   40.8623    9.3826   19.8658 C   0  0  0  0  0  0  0  0  0  0  0  0
   41.7603   10.0126   18.8192 C   0  0  0  0  0  0  0  0  0  0  0  0
   41.4773   11.4352   18.7960 N   0  0  0  0  0  0  0  0  0  0  0  0
   42.3470   11.9975   17.7776 C   0  0  0  0  0  0  0  0  0  0  0  0
   42.2971   13.5209   17.7807 C   0  0  0  0  0  0  0  0  0  0  0  0
   43.2900   14.0206   16.7204 C   0  0  0  0  0  0  0  0  0  0  0  0
   43.3498   15.4889   16.6635 N   0  0  0  0  0  0  0  0  0  0  0  0
  1  2  1  0  0  0  0
  2  3  1  0  0  0  0
  3  4  1  0  0  0  0
  4  5  1  0  0  0  0
  5  6  1  0  0  0  0
  6  7  1  0  0  0  0
  7  8  1  0  0  0  0
  8  9  1  0  0  0  0
  9 10  1  0  0  0  0
 10 11  1  0  0  0  0
 11 12  1  0  0  0  0
 12 13  1  0  0  0  0
 13 14  1  0  0  0  0
M  END
>  <CHROM.1>
-62.65560482,71.38214328,-139.69077255,-132.08639353,-174.35035689,62.92994284
-179.41229141,-179.56349981,-171.95250774,177.49420687,-178.44855833,42.91213358
9.13852205,19.40398848,-1.40041087,0.20809877,-0.45209118

>  <Name>
ligand

>  <RI>
0

>  <Rbt.Current_Directory>
/home/itssahil/PROJECTS/Mol_Feturizer/New_Systems/rnas/1TN1

>  <Rbt.Executable>
rbdock ($Id: //depot/dev/client3/rdock/2013.1/src/exe/rbdock.cxx#4 $)

>  <Rbt.Library>
libRbt.so (2013.1, Build901 2013/11/27)

>  <Rbt.Parameter_File>
/export/apps/rDock/src/rDock_2013.1_src/data/scripts/dock_solv.prm

>  <Rbt.Receptor>
prm/pocket_docking_6.prm

>  <SCORE>
-12.1298

>  <SCORE.INTER>
-10.6564

>  <SCORE.INTER.CONST>
1

>  <SCORE.INTER.POLAR>
0

>  <SCORE.INTER.ROT>
11

>  <SCORE.INTER.SOLV>
14.7456

>  <SCORE.INTER.VDW>
-22.9528

>  <SCORE.INTER.norm>
-0.761169

>  <SCORE.INTRA>
-1.47343

>  <SCORE.INTRA.DIHEDRAL>
-5.0576

>  <SCORE.INTRA.DIHEDRAL.0>
7.79482

>  <SCORE.INTRA.POLAR>
0

>  <SCORE.INTRA.POLAR.0>
0

>  <SCORE.INTRA.REPUL>
0

>  <SCORE.INTRA.REPUL.0>
0

>  <SCORE.INTRA.SOLV>
3.3881

>  <SCORE.INTRA.SOLV.lig_0>
-49.456

>  <SCORE.INTRA.VDW>
-0.63868

>  <SCORE.INTRA.VDW.0>
-0.478406

>  <SCORE.INTRA.norm>
-0.105245

>  <SCORE.RESTR>
0

>  <SCORE.RESTR.CAVITY>
0

>  <SCORE.RESTR.norm>
0

>  <SCORE.SYSTEM>
0

>  <SCORE.SYSTEM.CONST>
0

>  <SCORE.SYSTEM.DIHEDRAL>
0

>  <SCORE.SYSTEM.SOLV>
0

>  <SCORE.SYSTEM.norm>
0

>  <SCORE.heavy>
14

>  <SCORE.norm>
-0.866414

>  <RMSD>
5.389

$$$$
ligand
 OpenBabel11021811413D
libRbt.so/2013.1/901 2013/11/27
 14 13  0  0  0  0  0  0  0  0999 V2000
   48.2480   -1.2323   12.6641 N   0  0  0  0  0  0  0  0  0  0  0  0
   47.4334   -0.9490   13.8654 C   0  0  0  0  0  0  0  0  0  0  0  0
   45.9983   -1.4966   13.7083 C   0  0  0  0  0  0  0  0  0  0  0  0
   45.0654   -1.1957   14.8929 C   0  0  0  0  0  0  0  0  0  0  0  0
   44.8640    0.2704   15.0555 N   0  0  0  0  0  0  0  0  0  0  0  0
   44.6368    0.6018   16.4857 C   0  0  0  0  0  0  0  0  0  0  0  0
   45.8501    1.2546   17.2300 C   0  0  0  0  0  0  0  0  0  0  0  0
   45.6694    1.3558   18.7719 C   0  0  0  0  0  0  0  0  0  0  0  0
   44.5908    2.3305   19.2026 C   0  0  0  0  0  0  0  0  0  0  0  0
   45.1410    3.6687   19.0987 N   0  0  0  0  0  0  0  0  0  0  0  0
   44.8617    4.3137   20.3698 C   0  0  0  0  0  0  0  0  0  0  0  0
   45.8272    5.4627   20.6362 C   0  0  0  0  0  0  0  0  0  0  0  0
   45.5535    6.5521   19.5883 C   0  0  0  0  0  0  0  0  0  0  0  0
   46.4649    7.6980   19.7271 N   0  0  0  0  0  0  0  0  0  0  0  0
  1  2  1  0  0  0  0
  2  3  1  0  0  0  0
  3  4  1  0  0  0  0
  4  5  1  0  0  0  0
  5  6  1  0  0  0  0
  6  7  1  0  0  0  0
  7  8  1  0  0  0  0
  8  9  1  0  0  0  0
  9 10  1  0  0  0  0
 10 11  1  0  0  0  0
 11 12  1  0  0  0  0
 12 13  1  0  0  0  0
 13 14  1  0  0  0  0
M  END
>  <CHROM.1>
-177.70154500,63.09375067,-149.42802435,104.24807568,-169.71680520,-67.89741871
-78.20830165,-129.89271120,156.83311538,66.16427945,-178.18261287,45.72871929
2.04511253,17.23570591,-1.43505194,0.78094839,0.63503803

>  <Name>
ligand

>  <RI>
0

>  <Rbt.Current_Directory>
/home/itssahil/PROJECTS/Mol_Feturizer/New_Systems/rnas/1TN1

>  <Rbt.Executable>
rbdock ($Id: //depot/dev/client3/rdock/2013.1/src/exe/rbdock.cxx#4 $)

>  <Rbt.Library>
libRbt.so (2013.1, Build901 2013/11/27)

>  <Rbt.Parameter_File>
/export/apps/rDock/src/rDock_2013.1_src/data/scripts/dock_solv.prm

>  <Rbt.Receptor>
prm/blind_docking_80.prm

>  <SCORE>
-5.91184

>  <SCORE.INTER>
-4.70688

>  <SCORE.INTER.CONST>
1

>  <SCORE.INTER.POLAR>
0

>  <SCORE.INTER.ROT>
11

>  <SCORE.INTER.SOLV>
10.8254

>  <SCORE.INTER.VDW>
-17.6797

>  <SCORE.INTER.norm>
-0.336205

>  <SCORE.INTRA>
-1.20496

>  <SCORE.INTRA.DIHEDRAL>
-2.63678

>  <SCORE.INTRA.DIHEDRAL.0>
7.79482

>  <SCORE.INTRA.POLAR>
0

>  <SCORE.INTRA.POLAR.0>
0

>  <SCORE.INTRA.REPUL>
0

>  <SCORE.INTRA.REPUL.0>
0

>  <SCORE.INTRA.SOLV>
1.18664

>  <SCORE.INTRA.SOLV.lig_0>
-49.456

>  <SCORE.INTRA.VDW>
-0.479893

>  <SCORE.INTRA.VDW.0>
-0.478406

>  <SCORE.INTRA.norm>
-0.0860687

>  <SCORE.RESTR>
0

>  <SCORE.RESTR.CAVITY>
0

>  <SCORE.RESTR.norm>
0

>  <SCORE.SYSTEM>
0

>  <SCORE.SYSTEM.CONST>
0

>  <SCORE.SYSTEM.DIHEDRAL>
0

>  <SCORE.SYSTEM.SOLV>
0

>  <SCORE.SYSTEM.norm>
0

>  <SCORE.heavy>
14

>  <SCORE.norm>
-0.422274

>  <RMSD>
5.407

$$$$
ligand
 OpenBabel11021811413D
libRbt.so/2013.1/901 2013/11/27
 14 13  0  0  0  0  0  0  0  0999 V2000
   45.5985    8.5716   19.9883 N   0  0  0  0  0  0  0  0  0  0  0  0
   46.3657    7.3154   20.1319 C   0  0  0  0  0  0  0  0  0  0  0  0
   45.5164    6.0929   19.7220 C   0  0  0  0  0  0  0  0  0  0  0  0
   46.2764    4.7563   19.7232 C   0  0  0  0  0  0  0  0  0  0  0  0
   45.4145    3.6509   19.2217 N   0  0  0  0  0  0  0  0  0  0  0  0
   46.2524    2.5641   18.6530 C   0  0  0  0  0  0  0  0  0  0  0  0
   45.4848    1.2630   18.2407 C   0  0  0  0  0  0  0  0  0  0  0  0
   44.4503    1.4713   17.0975 C   0  0  0  0  0  0  0  0  0  0  0  0
   45.0752    1.6646   15.7297 C   0  0  0  0  0  0  0  0  0  0  0  0
   45.7000    2.9736   15.7131 N   0  0  0  0  0  0  0  0  0  0  0  0
   46.5886    2.9760   14.5641 C   0  0  0  0  0  0  0  0  0  0  0  0
   47.2003    4.3532   14.3350 C   0  0  0  0  0  0  0  0  0  0  0  0
   46.0985    5.2631   13.7711 C   0  0  0  0  0  0  0  0  0  0  0  0
   46.6177    6.5774   13.3642 N   0  0  0  0  0  0  0  0  0  0  0  0
  1  2  1  0  0  0  0
  2  3  1  0  0  0  0
  3  4  1  0  0  0  0
  4  5  1  0  0  0  0
  5  6  1  0  0  0  0
  6  7  1  0  0  0  0
  7  8  1  0  0  0  0
  8  9  1  0  0  0  0
  9 10  1  0  0  0  0
 10 11  1  0  0  0  0
 11 12  1  0  0  0  0
 12 13  1  0  0  0  0
 13 14  1  0  0  0  0
M  END
>  <CHROM.1>
174.89221092,-175.82161792,154.48704319,173.09605468,63.44206263,73.55501260
-71.23271320,164.44419969,173.71550869,-73.08139225,-173.31411653,45.90283031
4.24904570,17.16113936,-1.68573318,-1.36324777,-2.25944950

>  <Name>
ligand

>  <RI>
0

>  <Rbt.Current_Directory>
/home/itssahil/PROJECTS/Mol_Feturizer/New_Systems/rnas/1TN1

>  <Rbt.Executable>
rbdock ($Id: //depot/dev/client3/rdock/2013.1/src/exe/rbdock.cxx#4 $)

>  <Rbt.Library>
libRbt.so (2013.1, Build901 2013/11/27)

>  <Rbt.Parameter_File>
/export/apps/rDock/src/rDock_2013.1_src/data/scripts/dock_solv.prm

>  <Rbt.Receptor>
prm/blind_docking_80.prm

>  <SCORE>
-6.16301

>  <SCORE.INTER>
-3.8989

>  <SCORE.INTER.CONST>
1

>  <SCORE.INTER.POLAR>
0

>  <SCORE.INTER.ROT>
11

>  <SCORE.INTER.SOLV>
14.9884

>  <SCORE.INTER.VDW>
-18.5287

>  <SCORE.INTER.norm>
-0.278493

>  <SCORE.INTRA>
-2.26411

>  <SCORE.INTRA.DIHEDRAL>
-4.8741

>  <SCORE.INTRA.DIHEDRAL.0>
7.79482

>  <SCORE.INTRA.POLAR>
0

>  <SCORE.INTRA.POLAR.0>
0

>  <SCORE.INTRA.REPUL>
0

>  <SCORE.INTRA.REPUL.0>
0

>  <SCORE.INTRA.SOLV>
2.15629

>  <SCORE.INTRA.SOLV.lig_0>
-49.456

>  <SCORE.INTRA.VDW>
-0.905201

>  <SCORE.INTRA.VDW.0>
-0.478406

>  <SCORE.INTRA.norm>
-0.161722

>  <SCORE.RESTR>
0

>  <SCORE.RESTR.CAVITY>
0

>  <SCORE.RESTR.norm>
0

>  <SCORE.SYSTEM>
0

>  <SCORE.SYSTEM.CONST>
0

>  <SCORE.SYSTEM.DIHEDRAL>
0

>  <SCORE.SYSTEM.SOLV>
0

>  <SCORE.SYSTEM.norm>
0

>  <SCORE.heavy>
14

>  <SCORE.norm>
-0.440215

>  <RMSD>
5.432

$$$$
ligand
 OpenBabel11021811413D
libRbt.so/2013.1/901 2013/11/27
 14 13  0  0  0  0  0  0  0  0999 V2000
   46.2356    4.2413   19.9160 N   0  0  0  0  0  0  0  0  0  0  0  0
   45.6559    5.5891   20.1019 C   0  0  0  0  0  0  0  0  0  0  0  0
   44.2623    5.5110   20.7619 C   0  0  0  0  0  0  0  0  0  0  0  0
   43.5452    6.8635   20.9047 C   0  0  0  0  0  0  0  0  0  0  0  0
   42.2316    6.7026   21.5865 N   0  0  0  0  0  0  0  0  0  0  0  0
   41.1254    6.8029   20.6001 C   0  0  0  0  0  0  0  0  0  0  0  0
   40.6691    8.2572   20.2406 C   0  0  0  0  0  0  0  0  0  0  0  0
   41.6963    9.0515   19.3836 C   0  0  0  0  0  0  0  0  0  0  0  0
   41.2610   10.4664   19.0558 C   0  0  0  0  0  0  0  0  0  0  0  0
   42.2702   11.0473   18.1907 N   0  0  0  0  0  0  0  0  0  0  0  0
   42.1089   12.4865   18.3015 C   0  0  0  0  0  0  0  0  0  0  0  0
   42.6451   13.2044   17.0685 C   0  0  0  0  0  0  0  0  0  0  0  0
   42.4949   14.7144   17.3078 C   0  0  0  0  0  0  0  0  0  0  0  0
   41.0863   15.1215   17.4210 N   0  0  0  0  0  0  0  0  0  0  0  0
  1  2  1  0  0  0  0
  2  3  1  0  0  0  0
  3  4  1  0  0  0  0
  4  5  1  0  0  0  0
  5  6  1  0  0  0  0
  6  7  1  0  0  0  0
  7  8  1  0  0  0  0
  8  9  1  0  0  0  0
  9 10  1  0  0  0  0
 10 11  1  0  0  0  0
 11 12  1  0  0  0  0
 12 13  1  0  0  0  0
 13 14  1  0  0  0  0
M  END
>  <CHROM.1>
-176.01764704,-178.24446781,-104.61588468,-83.36307549,71.01713404,-179.08840447
-176.47106159,-159.24270723,-155.66707215,-177.25294056,-64.27557782,42.66328898
9.28997730,19.34579296,-1.29316549,0.31809891,-0.44102696

>  <Name>
ligand

>  <RI>
0

>  <Rbt.Current_Directory>
/home/itssahil/PROJECTS/Mol_Feturizer/New_Systems/rnas/1TN1

>  <Rbt.Executable>
rbdock ($Id: //depot/dev/client3/rdock/2013.1/src/exe/rbdock.cxx#4 $)

>  <Rbt.Library>
libRbt.so (2013.1, Build901 2013/11/27)

>  <Rbt.Parameter_File>
/export/apps/rDock/src/rDock_2013.1_src/data/scripts/dock_solv.prm

>  <Rbt.Receptor>
prm/pocket_docking_7.prm

>  <SCORE>
-10.9054

>  <SCORE.INTER>
-8.62534

>  <SCORE.INTER.CONST>
1

>  <SCORE.INTER.POLAR>
0

>  <SCORE.INTER.ROT>
11

>  <SCORE.INTER.SOLV>
18.1166

>  <SCORE.INTER.VDW>
-22.7224

>  <SCORE.INTER.norm>
-0.616096

>  <SCORE.INTRA>
-2.28009

>  <SCORE.INTRA.DIHEDRAL>
-4.97221

>  <SCORE.INTRA.DIHEDRAL.0>
7.79482

>  <SCORE.INTRA.POLAR>
0

>  <SCORE.INTRA.POLAR.0>
0

>  <SCORE.INTRA.REPUL>
0

>  <SCORE.INTRA.REPUL.0>
0

>  <SCORE.INTRA.SOLV>
1.05542

>  <SCORE.INTRA.SOLV.lig_0>
-49.456

>  <SCORE.INTRA.VDW>
-0.321693

>  <SCORE.INTRA.VDW.0>
-0.478406

>  <SCORE.INTRA.norm>
-0.162863

>  <SCORE.RESTR>
0

>  <SCORE.RESTR.CAVITY>
0

>  <SCORE.RESTR.norm>
0

>  <SCORE.SYSTEM>
0

>  <SCORE.SYSTEM.CONST>
0

>  <SCORE.SYSTEM.DIHEDRAL>
0

>  <SCORE.SYSTEM.SOLV>
0

>  <SCORE.SYSTEM.norm>
0

>  <SCORE.heavy>
14

>  <SCORE.norm>
-0.778959

>  <RMSD>
5.434

$$$$
ligand
 OpenBabel11021811413D
libRbt.so/2013.1/901 2013/11/27
 14 13  0  0  0  0  0  0  0  0999 V2000
   46.7600    7.6413   19.2960 N   0  0  0  0  0  0  0  0  0  0  0  0
   46.1055    6.3869   19.7267 C   0  0  0  0  0  0  0  0  0  0  0  0
   44.9672    6.6679   20.7313 C   0  0  0  0  0  0  0  0  0  0  0  0
   44.2304    5.4141   21.2305 C   0  0  0  0  0  0  0  0  0  0  0  0
   43.1270    5.7778   22.1614 N   0  0  0  0  0  0  0  0  0  0  0  0
   41.8180    5.6927   21.4642 C   0  0  0  0  0  0  0  0  0  0  0  0
   41.1784    7.0625   21.0559 C   0  0  0  0  0  0  0  0  0  0  0  0
   42.0122    7.8689   20.0192 C   0  0  0  0  0  0  0  0  0  0  0  0
   41.3918    9.1961   19.6289 C   0  0  0  0  0  0  0  0  0  0  0  0
   42.2646    9.8187   18.6517 N   0  0  0  0  0  0  0  0  0  0  0  0
   41.7559   11.1663   18.4650 C   0  0  0  0  0  0  0  0  0  0  0  0
   42.4916   11.8897   17.3431 C   0  0  0  0  0  0  0  0  0  0  0  0
   41.8708   13.2883   17.2064 C   0  0  0  0  0  0  0  0  0  0  0  0
   42.1113   14.1213   18.3943 N   0  0  0  0  0  0  0  0  0  0  0  0
  1  2  1  0  0  0  0
  2  3  1  0  0  0  0
  3  4  1  0  0  0  0
  4  5  1  0  0  0  0
  5  6  1  0  0  0  0
  6  7  1  0  0  0  0
  7  8  1  0  0  0  0
  8  9  1  0  0  0  0
  9 10  1  0  0  0  0
 10 11  1  0  0  0  0
 11 12  1  0  0  0  0
 12 13  1  0  0  0  0
 13 14  1  0  0  0  0
M  END
>  <CHROM.1>
179.93224991,-178.36241348,102.70220218,-103.95503085,63.63184554,-179.84962875
-179.21193594,-171.12841641,-173.72962640,179.04391654,65.85408157,43.00582503
8.71349083,19.66962748,-1.29432525,0.23053931,-0.50791013

>  <Name>
ligand

>  <RI>
0

>  <Rbt.Current_Directory>
/home/itssahil/PROJECTS/Mol_Feturizer/New_Systems/rnas/1TN1

>  <Rbt.Executable>
rbdock ($Id: //depot/dev/client3/rdock/2013.1/src/exe/rbdock.cxx#4 $)

>  <Rbt.Library>
libRbt.so (2013.1, Build901 2013/11/27)

>  <Rbt.Parameter_File>
/export/apps/rDock/src/rDock_2013.1_src/data/scripts/dock_solv.prm

>  <Rbt.Receptor>
prm/pocket_docking_8.prm

>  <SCORE>
-13.0839

>  <SCORE.INTER>
-10.0919

>  <SCORE.INTER.CONST>
1

>  <SCORE.INTER.POLAR>
0

>  <SCORE.INTER.ROT>
11

>  <SCORE.INTER.SOLV>
17.8812

>  <SCORE.INTER.VDW>
-23.6217

>  <SCORE.INTER.norm>
-0.720848

>  <SCORE.INTRA>
-2.99207

>  <SCORE.INTRA.DIHEDRAL>
-5.53403

>  <SCORE.INTRA.DIHEDRAL.0>
7.79482

>  <SCORE.INTRA.POLAR>
0

>  <SCORE.INTRA.POLAR.0>
0

>  <SCORE.INTRA.REPUL>
0

>  <SCORE.INTRA.REPUL.0>
0

>  <SCORE.INTRA.SOLV>
1.08018

>  <SCORE.INTRA.SOLV.lig_0>
-49.456

>  <SCORE.INTRA.VDW>
-0.765147

>  <SCORE.INTRA.VDW.0>
-0.478406

>  <SCORE.INTRA.norm>
-0.21372

>  <SCORE.RESTR>
0

>  <SCORE.RESTR.CAVITY>
0

>  <SCORE.RESTR.norm>
0

>  <SCORE.SYSTEM>
0

>  <SCORE.SYSTEM.CONST>
0

>  <SCORE.SYSTEM.DIHEDRAL>
0

>  <SCORE.SYSTEM.SOLV>
0

>  <SCORE.SYSTEM.norm>
0

>  <SCORE.heavy>
14

>  <SCORE.norm>
-0.934568

>  <RMSD>
5.446

$$$$
ligand
 OpenBabel11021811413D
libRbt.so/2013.1/901 2013/11/27
 14 13  0  0  0  0  0  0  0  0999 V2000
   46.2693    5.7707   19.8185 N   0  0  0  0  0  0  0  0  0  0  0  0
   45.7951    5.0061   20.9923 C   0  0  0  0  0  0  0  0  0  0  0  0
   44.2526    4.9747   21.0518 C   0  0  0  0  0  0  0  0  0  0  0  0
   43.5914    6.3495   21.2429 C   0  0  0  0  0  0  0  0  0  0  0  0
   42.1148    6.2604   21.0753 N   0  0  0  0  0  0  0  0  0  0  0  0
   41.6554    7.2288   20.0468 C   0  0  0  0  0  0  0  0  0  0  0  0
   41.0012    8.5408   20.5971 C   0  0  0  0  0  0  0  0  0  0  0  0
   40.7157    9.6136   19.5071 C   0  0  0  0  0  0  0  0  0  0  0  0
   41.9642   10.1832   18.8623 C   0  0  0  0  0  0  0  0  0  0  0  0
   41.5445   11.1898   17.9057 N   0  0  0  0  0  0  0  0  0  0  0  0
   42.7663   11.7462   17.3514 C   0  0  0  0  0  0  0  0  0  0  0  0
   42.9954   13.1752   17.8296 C   0  0  0  0  0  0  0  0  0  0  0  0
   41.8395   14.0348   17.2960 C   0  0  0  0  0  0  0  0  0  0  0  0
   41.9899   15.4529   17.6551 N   0  0  0  0  0  0  0  0  0  0  0  0
  1  2  1  0  0  0  0
  2  3  1  0  0  0  0
  3  4  1  0  0  0  0
  4  5  1  0  0  0  0
  5  6  1  0  0  0  0
  6  7  1  0  0  0  0
  7  8  1  0  0  0  0
  8  9  1  0  0  0  0
  9 10  1  0  0  0  0
 10 11  1  0  0  0  0
 11 12  1  0  0  0  0
 12 13  1  0  0  0  0
 13 14  1  0  0  0  0
M  END
>  <CHROM.1>
-63.65721238,171.06713328,-125.28016200,-101.95578425,171.85420831,-65.61763525
-178.29925460,177.78269063,-109.57820907,-63.42662123,-177.68075323,42.74957743
9.25174239,19.37381622,-1.30678235,0.20177982,-0.43740232

>  <Name>
ligand

>  <RI>
0

>  <Rbt.Current_Directory>
/home/itssahil/PROJECTS/Mol_Feturizer/New_Systems/rnas/1TN1

>  <Rbt.Executable>
rbdock ($Id: //depot/dev/client3/rdock/2013.1/src/exe/rbdock.cxx#4 $)

>  <Rbt.Library>
libRbt.so (2013.1, Build901 2013/11/27)

>  <Rbt.Parameter_File>
/export/apps/rDock/src/rDock_2013.1_src/data/scripts/dock_solv.prm

>  <Rbt.Receptor>
prm/pocket_docking_7.prm

>  <SCORE>
-11.87

>  <SCORE.INTER>
-10.4592

>  <SCORE.INTER.CONST>
1

>  <SCORE.INTER.POLAR>
0

>  <SCORE.INTER.ROT>
11

>  <SCORE.INTER.SOLV>
16.3109

>  <SCORE.INTER.VDW>
-23.3431

>  <SCORE.INTER.norm>
-0.747084

>  <SCORE.INTRA>
-1.41078

>  <SCORE.INTRA.DIHEDRAL>
-3.74803

>  <SCORE.INTRA.DIHEDRAL.0>
7.79482

>  <SCORE.INTRA.POLAR>
0

>  <SCORE.INTRA.POLAR.0>
0

>  <SCORE.INTRA.REPUL>
0

>  <SCORE.INTRA.REPUL.0>
0

>  <SCORE.INTRA.SOLV>
1.26289

>  <SCORE.INTRA.SOLV.lig_0>
-49.456

>  <SCORE.INTRA.VDW>
-0.168208

>  <SCORE.INTRA.VDW.0>
-0.478406

>  <SCORE.INTRA.norm>
-0.10077

>  <SCORE.RESTR>
0

>  <SCORE.RESTR.CAVITY>
0

>  <SCORE.RESTR.norm>
0

>  <SCORE.SYSTEM>
0

>  <SCORE.SYSTEM.CONST>
0

>  <SCORE.SYSTEM.DIHEDRAL>
0

>  <SCORE.SYSTEM.SOLV>
0

>  <SCORE.SYSTEM.norm>
0

>  <SCORE.heavy>
14

>  <SCORE.norm>
-0.847854

>  <RMSD>
5.448

$$$$
ligand
 OpenBabel11021811413D
libRbt.so/2013.1/901 2013/11/27
 14 13  0  0  0  0  0  0  0  0999 V2000
   46.2666    7.5223   19.8352 N   0  0  0  0  0  0  0  0  0  0  0  0
   45.1109    6.7418   20.3275 C   0  0  0  0  0  0  0  0  0  0  0  0
   45.5669    5.4117   20.9654 C   0  0  0  0  0  0  0  0  0  0  0  0
   46.3133    4.4664   20.0097 C   0  0  0  0  0  0  0  0  0  0  0  0
   45.4399    4.0527   18.8772 N   0  0  0  0  0  0  0  0  0  0  0  0
   44.6290    2.8685   19.2602 C   0  0  0  0  0  0  0  0  0  0  0  0
   45.1847    1.4846   18.7826 C   0  0  0  0  0  0  0  0  0  0  0  0
   45.1667    1.2915   17.2390 C   0  0  0  0  0  0  0  0  0  0  0  0
   45.4680   -0.1258   16.7925 C   0  0  0  0  0  0  0  0  0  0  0  0
   45.3562   -0.1641   15.3466 N   0  0  0  0  0  0  0  0  0  0  0  0
   45.3118   -1.5709   14.9880 C   0  0  0  0  0  0  0  0  0  0  0  0
   44.2542   -1.8421   13.9243 C   0  0  0  0  0  0  0  0  0  0  0  0
   44.2918   -3.3440   13.6039 C   0  0  0  0  0  0  0  0  0  0  0  0
   45.4568   -3.7080   12.7835 N   0  0  0  0  0  0  0  0  0  0  0  0
  1  2  1  0  0  0  0
  2  3  1  0  0  0  0
  3  4  1  0  0  0  0
  4  5  1  0  0  0  0
  5  6  1  0  0  0  0
  6  7  1  0  0  0  0
  7  8  1  0  0  0  0
  8  9  1  0  0  0  0
  9 10  1  0  0  0  0
 10 11  1  0  0  0  0
 11 12  1  0  0  0  0
 12 13  1  0  0  0  0
 13 14  1  0  0  0  0
M  END
>  <CHROM.1>
-60.91483098,-62.06790584,-86.12335552,-98.15718065,-66.59741261,-169.66114275
177.46189247,-165.91780090,136.88782605,179.49094159,-74.85486147,45.27249183
1.64879447,17.33851516,-1.23090941,-1.35368952,-2.16666370

>  <Name>
ligand

>  <RI>
0

>  <Rbt.Current_Directory>
/home/itssahil/PROJECTS/Mol_Feturizer/New_Systems/rnas/1TN1

>  <Rbt.Executable>
rbdock ($Id: //depot/dev/client3/rdock/2013.1/src/exe/rbdock.cxx#4 $)

>  <Rbt.Library>
libRbt.so (2013.1, Build901 2013/11/27)

>  <Rbt.Parameter_File>
/export/apps/rDock/src/rDock_2013.1_src/data/scripts/dock_solv.prm

>  <Rbt.Receptor>
prm/pocket_docking_8.prm

>  <SCORE>
-8.07696

>  <SCORE.INTER>
-7.04353

>  <SCORE.INTER.CONST>
1

>  <SCORE.INTER.POLAR>
0

>  <SCORE.INTER.ROT>
11

>  <SCORE.INTER.SOLV>
14.398

>  <SCORE.INTER.VDW>
-20.4283

>  <SCORE.INTER.norm>
-0.503109

>  <SCORE.INTRA>
-1.03343

>  <SCORE.INTRA.DIHEDRAL>
-3.89224

>  <SCORE.INTRA.DIHEDRAL.0>
7.79482

>  <SCORE.INTRA.POLAR>
0

>  <SCORE.INTRA.POLAR.0>
0

>  <SCORE.INTRA.REPUL>
0

>  <SCORE.INTRA.REPUL.0>
0

>  <SCORE.INTRA.SOLV>
2.63999

>  <SCORE.INTRA.SOLV.lig_0>
-49.456

>  <SCORE.INTRA.VDW>
-0.40731

>  <SCORE.INTRA.VDW.0>
-0.478406

>  <SCORE.INTRA.norm>
-0.0738167

>  <SCORE.RESTR>
0

>  <SCORE.RESTR.CAVITY>
0

>  <SCORE.RESTR.norm>
0

>  <SCORE.SYSTEM>
0

>  <SCORE.SYSTEM.CONST>
0

>  <SCORE.SYSTEM.DIHEDRAL>
0

>  <SCORE.SYSTEM.SOLV>
0

>  <SCORE.SYSTEM.norm>
0

>  <SCORE.heavy>
14

>  <SCORE.norm>
-0.576926

>  <RMSD>
5.459

$$$$
ligand
 OpenBabel11021811413D
libRbt.so/2013.1/901 2013/11/27
 14 13  0  0  0  0  0  0  0  0999 V2000
   43.5551   15.9385   16.2506 N   0  0  0  0  0  0  0  0  0  0  0  0
   43.7105   14.4716   16.3565 C   0  0  0  0  0  0  0  0  0  0  0  0
   42.7284   13.8796   17.3904 C   0  0  0  0  0  0  0  0  0  0  0  0
   42.7805   12.3483   17.5186 C   0  0  0  0  0  0  0  0  0  0  0  0
   41.8164   11.8649   18.5448 N   0  0  0  0  0  0  0  0  0  0  0  0
   42.0025   10.4098   18.7789 C   0  0  0  0  0  0  0  0  0  0  0  0
   40.8343    9.6911   19.5346 C   0  0  0  0  0  0  0  0  0  0  0  0
   40.9870    8.1450   19.6163 C   0  0  0  0  0  0  0  0  0  0  0  0
   42.0490    7.6821   20.5944 C   0  0  0  0  0  0  0  0  0  0  0  0
   43.3424    8.0202   20.0312 N   0  0  0  0  0  0  0  0  0  0  0  0
   44.3150    7.2293   20.7648 C   0  0  0  0  0  0  0  0  0  0  0  0
   45.0365    6.2452   19.8514 C   0  0  0  0  0  0  0  0  0  0  0  0
   45.8332    5.2814   20.7437 C   0  0  0  0  0  0  0  0  0  0  0  0
   46.5562    4.2684   19.9603 N   0  0  0  0  0  0  0  0  0  0  0  0
  1  2  1  0  0  0  0
  2  3  1  0  0  0  0
  3  4  1  0  0  0  0
  4  5  1  0  0  0  0
  5  6  1  0  0  0  0
  6  7  1  0  0  0  0
  7  8  1  0  0  0  0
  8  9  1  0  0  0  0
  9 10  1  0  0  0  0
 10 11  1  0  0  0  0
 11 12  1  0  0  0  0
 12 13  1  0  0  0  0
 13 14  1  0  0  0  0
M  END
>  <CHROM.1>
177.43864606,179.33166339,-172.76904304,-164.49283426,173.28297793,73.50836288
-70.72572689,-163.34714640,116.82808346,-169.29161962,179.08637455,43.25311338
9.67668356,18.99556936,-1.79028342,-0.23272535,2.70647045

>  <Name>
ligand

>  <RI>
0

>  <Rbt.Current_Directory>
/home/itssahil/PROJECTS/Mol_Feturizer/New_Systems/rnas/1TN1

>  <Rbt.Executable>
rbdock ($Id: //depot/dev/client3/rdock/2013.1/src/exe/rbdock.cxx#4 $)

>  <Rbt.Library>
libRbt.so (2013.1, Build901 2013/11/27)

>  <Rbt.Parameter_File>
/export/apps/rDock/src/rDock_2013.1_src/data/scripts/dock_solv.prm

>  <Rbt.Receptor>
prm/pocket_docking_5.prm

>  <SCORE>
-10.7848

>  <SCORE.INTER>
-8.45911

>  <SCORE.INTER.CONST>
1

>  <SCORE.INTER.POLAR>
0

>  <SCORE.INTER.ROT>
11

>  <SCORE.INTER.SOLV>
17.0676

>  <SCORE.INTER.VDW>
-22.2619

>  <SCORE.INTER.norm>
-0.604222

>  <SCORE.INTRA>
-2.32573

>  <SCORE.INTRA.DIHEDRAL>
-4.38032

>  <SCORE.INTRA.DIHEDRAL.0>
7.79482

>  <SCORE.INTRA.POLAR>
0

>  <SCORE.INTRA.POLAR.0>
0

>  <SCORE.INTRA.REPUL>
0

>  <SCORE.INTRA.REPUL.0>
0

>  <SCORE.INTRA.SOLV>
0.834603

>  <SCORE.INTRA.SOLV.lig_0>
-49.456

>  <SCORE.INTRA.VDW>
-0.552868

>  <SCORE.INTRA.VDW.0>
-0.478406

>  <SCORE.INTRA.norm>
-0.166123

>  <SCORE.RESTR>
0

>  <SCORE.RESTR.CAVITY>
0

>  <SCORE.RESTR.norm>
0

>  <SCORE.SYSTEM>
0

>  <SCORE.SYSTEM.CONST>
0

>  <SCORE.SYSTEM.DIHEDRAL>
0

>  <SCORE.SYSTEM.SOLV>
0

>  <SCORE.SYSTEM.norm>
0

>  <SCORE.heavy>
14

>  <SCORE.norm>
-0.770346

>  <RMSD>
5.471

$$$$
ligand
 OpenBabel11021811413D
libRbt.so/2013.1/901 2013/11/27
 14 13  0  0  0  0  0  0  0  0999 V2000
   48.4247    4.1142   13.3262 N   0  0  0  0  0  0  0  0  0  0  0  0
   48.1155    4.6173   14.6821 C   0  0  0  0  0  0  0  0  0  0  0  0
   46.6527    4.3119   15.0705 C   0  0  0  0  0  0  0  0  0  0  0  0
   46.3203    2.8152   15.1857 C   0  0  0  0  0  0  0  0  0  0  0  0
   44.9453    2.6126   15.7192 N   0  0  0  0  0  0  0  0  0  0  0  0
   44.7331    1.1828   16.0619 C   0  0  0  0  0  0  0  0  0  0  0  0
   44.7405    0.8451   17.5910 C   0  0  0  0  0  0  0  0  0  0  0  0
   46.0929    1.1421   18.3004 C   0  0  0  0  0  0  0  0  0  0  0  0
   46.3841    2.6196   18.4766 C   0  0  0  0  0  0  0  0  0  0  0  0
   45.4431    3.1398   19.4504 N   0  0  0  0  0  0  0  0  0  0  0  0
   45.5582    4.5861   19.3818 C   0  0  0  0  0  0  0  0  0  0  0  0
   45.5789    5.2104   20.7722 C   0  0  0  0  0  0  0  0  0  0  0  0
   45.4121    6.7281   20.6027 C   0  0  0  0  0  0  0  0  0  0  0  0
   46.4812    7.3162   19.7817 N   0  0  0  0  0  0  0  0  0  0  0  0
  1  2  1  0  0  0  0
  2  3  1  0  0  0  0
  3  4  1  0  0  0  0
  4  5  1  0  0  0  0
  5  6  1  0  0  0  0
  6  7  1  0  0  0  0
  7  8  1  0  0  0  0
  8  9  1  0  0  0  0
  9 10  1  0  0  0  0
 10 11  1  0  0  0  0
 11 12  1  0  0  0  0
 12 13  1  0  0  0  0
 13 14  1  0  0  0  0
M  END
>  <CHROM.1>
64.29875551,173.20092853,-169.46298069,105.45779610,-62.57628392,71.73170807
68.99349409,-168.16491500,-136.58701873,-168.63284605,-59.35740469,46.06293294
3.65984349,17.45747041,-1.22866852,1.07030562,0.80152521

>  <Name>
ligand

>  <RI>
0

>  <Rbt.Current_Directory>
/home/itssahil/PROJECTS/Mol_Feturizer/New_Systems/rnas/1TN1

>  <Rbt.Executable>
rbdock ($Id: //depot/dev/client3/rdock/2013.1/src/exe/rbdock.cxx#4 $)

>  <Rbt.Library>
libRbt.so (2013.1, Build901 2013/11/27)

>  <Rbt.Parameter_File>
/export/apps/rDock/src/rDock_2013.1_src/data/scripts/dock_solv.prm

>  <Rbt.Receptor>
prm/blind_docking_100.prm

>  <SCORE>
-5.67507

>  <SCORE.INTER>
-4.69246

>  <SCORE.INTER.CONST>
1

>  <SCORE.INTER.POLAR>
0

>  <SCORE.INTER.ROT>
11

>  <SCORE.INTER.SOLV>
12.5639

>  <SCORE.INTER.VDW>
-18.2496

>  <SCORE.INTER.norm>
-0.335176

>  <SCORE.INTRA>
-0.982608

>  <SCORE.INTRA.DIHEDRAL>
-3.96865

>  <SCORE.INTRA.DIHEDRAL.0>
7.79482

>  <SCORE.INTRA.POLAR>
0

>  <SCORE.INTRA.POLAR.0>
0

>  <SCORE.INTRA.REPUL>
0

>  <SCORE.INTRA.REPUL.0>
0

>  <SCORE.INTRA.SOLV>
3.54035

>  <SCORE.INTRA.SOLV.lig_0>
-49.456

>  <SCORE.INTRA.VDW>
-0.768458

>  <SCORE.INTRA.VDW.0>
-0.478406

>  <SCORE.INTRA.norm>
-0.0701863

>  <SCORE.RESTR>
0

>  <SCORE.RESTR.CAVITY>
0

>  <SCORE.RESTR.norm>
0

>  <SCORE.SYSTEM>
0

>  <SCORE.SYSTEM.CONST>
0

>  <SCORE.SYSTEM.DIHEDRAL>
0

>  <SCORE.SYSTEM.SOLV>
0

>  <SCORE.SYSTEM.norm>
0

>  <SCORE.heavy>
14

>  <SCORE.norm>
-0.405362

>  <RMSD>
5.479

$$$$
ligand
 OpenBabel11021811413D
libRbt.so/2013.1/901 2013/11/27
 14 13  0  0  0  0  0  0  0  0999 V2000
   45.6040    8.1596   19.9387 N   0  0  0  0  0  0  0  0  0  0  0  0
   45.6595    6.7280   20.3058 C   0  0  0  0  0  0  0  0  0  0  0  0
   46.0489    5.8556   19.0929 C   0  0  0  0  0  0  0  0  0  0  0  0
   46.0832    4.3448   19.3761 C   0  0  0  0  0  0  0  0  0  0  0  0
   46.4142    3.5775   18.1440 N   0  0  0  0  0  0  0  0  0  0  0  0
   46.5527    2.1327   18.4606 C   0  0  0  0  0  0  0  0  0  0  0  0
   45.2126    1.3272   18.5462 C   0  0  0  0  0  0  0  0  0  0  0  0
   44.6519    0.8787   17.1660 C   0  0  0  0  0  0  0  0  0  0  0  0
   45.4450   -0.2358   16.5121 C   0  0  0  0  0  0  0  0  0  0  0  0
   44.7563   -0.6070   15.2905 N   0  0  0  0  0  0  0  0  0  0  0  0
   45.2596   -1.9219   14.9337 C   0  0  0  0  0  0  0  0  0  0  0  0
   44.2110   -2.7360   14.1847 C   0  0  0  0  0  0  0  0  0  0  0  0
   43.9766   -2.0557   12.8275 C   0  0  0  0  0  0  0  0  0  0  0  0
   45.1580   -2.1344   11.9552 N   0  0  0  0  0  0  0  0  0  0  0  0
  1  2  1  0  0  0  0
  2  3  1  0  0  0  0
  3  4  1  0  0  0  0
  4  5  1  0  0  0  0
  5  6  1  0  0  0  0
  6  7  1  0  0  0  0
  7  8  1  0  0  0  0
  8  9  1  0  0  0  0
  9 10  1  0  0  0  0
 10 11  1  0  0  0  0
 11 12  1  0  0  0  0
 12 13  1  0  0  0  0
 13 14  1  0  0  0  0
M  END
>  <CHROM.1>
-178.01411588,177.78041228,175.34602268,81.86444853,81.70652922,71.92385428
176.11013138,-161.60078081,150.21863934,66.94266643,66.85296215,45.35949185
1.66499656,16.90980265,0.88997604,-1.37493438,-0.04206605

>  <Name>
ligand

>  <RI>
0

>  <Rbt.Current_Directory>
/home/itssahil/PROJECTS/Mol_Feturizer/New_Systems/rnas/1TN1

>  <Rbt.Executable>
rbdock ($Id: //depot/dev/client3/rdock/2013.1/src/exe/rbdock.cxx#4 $)

>  <Rbt.Library>
libRbt.so (2013.1, Build901 2013/11/27)

>  <Rbt.Parameter_File>
/export/apps/rDock/src/rDock_2013.1_src/data/scripts/dock_solv.prm

>  <Rbt.Receptor>
prm/blind_docking_60.prm

>  <SCORE>
-8.27847

>  <SCORE.INTER>
-7.10535

>  <SCORE.INTER.CONST>
1

>  <SCORE.INTER.POLAR>
0

>  <SCORE.INTER.ROT>
11

>  <SCORE.INTER.SOLV>
12.4767

>  <SCORE.INTER.VDW>
-19.8291

>  <SCORE.INTER.norm>
-0.507525

>  <SCORE.INTRA>
-1.17312

>  <SCORE.INTRA.DIHEDRAL>
-3.95157

>  <SCORE.INTRA.DIHEDRAL.0>
7.79482

>  <SCORE.INTRA.POLAR>
0

>  <SCORE.INTRA.POLAR.0>
0

>  <SCORE.INTRA.REPUL>
0

>  <SCORE.INTRA.REPUL.0>
0

>  <SCORE.INTRA.SOLV>
2.10593

>  <SCORE.INTRA.SOLV.lig_0>
-49.456

>  <SCORE.INTRA.VDW>
-0.250301

>  <SCORE.INTRA.VDW.0>
-0.478406

>  <SCORE.INTRA.norm>
-0.0837942

>  <SCORE.RESTR>
0

>  <SCORE.RESTR.CAVITY>
0

>  <SCORE.RESTR.norm>
0

>  <SCORE.SYSTEM>
0

>  <SCORE.SYSTEM.CONST>
0

>  <SCORE.SYSTEM.DIHEDRAL>
0

>  <SCORE.SYSTEM.SOLV>
0

>  <SCORE.SYSTEM.norm>
0

>  <SCORE.heavy>
14

>  <SCORE.norm>
-0.591319

>  <RMSD>
5.481

$$$$
ligand
 OpenBabel11021811413D
libRbt.so/2013.1/901 2013/11/27
 14 13  0  0  0  0  0  0  0  0999 V2000
   46.1323    6.6211   18.8897 N   0  0  0  0  0  0  0  0  0  0  0  0
   46.1084    6.6675   20.3677 C   0  0  0  0  0  0  0  0  0  0  0  0
   45.6909    5.3050   20.9621 C   0  0  0  0  0  0  0  0  0  0  0  0
   44.2420    4.8908   20.6571 C   0  0  0  0  0  0  0  0  0  0  0  0
   43.2745    5.8536   21.2515 N   0  0  0  0  0  0  0  0  0  0  0  0
   41.8827    5.4521   20.9222 C   0  0  0  0  0  0  0  0  0  0  0  0
   40.7551    6.3040   21.5969 C   0  0  0  0  0  0  0  0  0  0  0  0
   40.7887    7.8133   21.2213 C   0  0  0  0  0  0  0  0  0  0  0  0
   40.4744    8.0922   19.7644 C   0  0  0  0  0  0  0  0  0  0  0  0
   40.5556    9.5267   19.5642 N   0  0  0  0  0  0  0  0  0  0  0  0
   41.8592    9.7729   18.9729 C   0  0  0  0  0  0  0  0  0  0  0  0
   41.9403   11.1672   18.3625 C   0  0  0  0  0  0  0  0  0  0  0  0
   43.3033   11.2904   17.6645 C   0  0  0  0  0  0  0  0  0  0  0  0
   43.4750   12.5947   17.0073 N   0  0  0  0  0  0  0  0  0  0  0  0
  1  2  1  0  0  0  0
  2  3  1  0  0  0  0
  3  4  1  0  0  0  0
  4  5  1  0  0  0  0
  5  6  1  0  0  0  0
  6  7  1  0  0  0  0
  7  8  1  0  0  0  0
  8  9  1  0  0  0  0
  9 10  1  0  0  0  0
 10 11  1  0  0  0  0
 11 12  1  0  0  0  0
 12 13  1  0  0  0  0
 13 14  1  0  0  0  0
M  END
>  <CHROM.1>
-66.21856058,-62.59312377,178.82619285,174.55111173,60.50721152,66.67089053
-179.47360654,99.63354589,164.51397859,-175.36656046,178.55237230,42.89140354
7.95339683,19.80056957,-1.27747101,0.24334001,-0.52632714

>  <Name>
ligand

>  <RI>
0

>  <Rbt.Current_Directory>
/home/itssahil/PROJECTS/Mol_Feturizer/New_Systems/rnas/1TN1

>  <Rbt.Executable>
rbdock ($Id: //depot/dev/client3/rdock/2013.1/src/exe/rbdock.cxx#4 $)

>  <Rbt.Library>
libRbt.so (2013.1, Build901 2013/11/27)

>  <Rbt.Parameter_File>
/export/apps/rDock/src/rDock_2013.1_src/data/scripts/dock_solv.prm

>  <Rbt.Receptor>
prm/blind_docking_60.prm

>  <SCORE>
-11.2311

>  <SCORE.INTER>
-8.82043

>  <SCORE.INTER.CONST>
1

>  <SCORE.INTER.POLAR>
0

>  <SCORE.INTER.ROT>
11

>  <SCORE.INTER.SOLV>
16.5491

>  <SCORE.INTER.VDW>
-22.33

>  <SCORE.INTER.norm>
-0.630031

>  <SCORE.INTRA>
-2.41187

>  <SCORE.INTRA.DIHEDRAL>
-6.24683

>  <SCORE.INTRA.DIHEDRAL.0>
7.79482

>  <SCORE.INTRA.POLAR>
0

>  <SCORE.INTRA.POLAR.0>
0

>  <SCORE.INTRA.REPUL>
0

>  <SCORE.INTRA.REPUL.0>
0

>  <SCORE.INTRA.SOLV>
2.20813

>  <SCORE.INTRA.SOLV.lig_0>
-49.456

>  <SCORE.INTRA.VDW>
-0.392521

>  <SCORE.INTRA.VDW.0>
-0.478406

>  <SCORE.INTRA.norm>
-0.172276

>  <SCORE.RESTR>
0.00123599

>  <SCORE.RESTR.CAVITY>
0.00123599

>  <SCORE.RESTR.norm>
8.82851e-05

>  <SCORE.SYSTEM>
0

>  <SCORE.SYSTEM.CONST>
0

>  <SCORE.SYSTEM.DIHEDRAL>
0

>  <SCORE.SYSTEM.SOLV>
0

>  <SCORE.SYSTEM.norm>
0

>  <SCORE.heavy>
14

>  <SCORE.norm>
-0.802219

>  <RMSD>
5.504

$$$$
ligand
 OpenBabel11021811413D
libRbt.so/2013.1/901 2013/11/27
 14 13  0  0  0  0  0  0  0  0999 V2000
   46.3818    8.2218   19.2022 N   0  0  0  0  0  0  0  0  0  0  0  0
   46.1575    7.0542   20.0817 C   0  0  0  0  0  0  0  0  0  0  0  0
   45.8006    5.7968   19.2598 C   0  0  0  0  0  0  0  0  0  0  0  0
   45.4725    4.5534   20.1025 C   0  0  0  0  0  0  0  0  0  0  0  0
   45.1250    3.3955   19.2336 N   0  0  0  0  0  0  0  0  0  0  0  0
   46.3597    2.7667   18.6980 C   0  0  0  0  0  0  0  0  0  0  0  0
   46.2612    1.2337   18.3938 C   0  0  0  0  0  0  0  0  0  0  0  0
   45.3627    0.8850   17.1726 C   0  0  0  0  0  0  0  0  0  0  0  0
   45.4985   -0.5485   16.6978 C   0  0  0  0  0  0  0  0  0  0  0  0
   44.7206   -0.6839   15.4809 N   0  0  0  0  0  0  0  0  0  0  0  0
   45.0876   -1.9703   14.9150 C   0  0  0  0  0  0  0  0  0  0  0  0
   44.0775   -2.4282   13.8694 C   0  0  0  0  0  0  0  0  0  0  0  0
   44.5775   -3.7613   13.2926 C   0  0  0  0  0  0  0  0  0  0  0  0
   45.8071   -3.5983   12.5024 N   0  0  0  0  0  0  0  0  0  0  0  0
  1  2  1  0  0  0  0
  2  3  1  0  0  0  0
  3  4  1  0  0  0  0
  4  5  1  0  0  0  0
  5  6  1  0  0  0  0
  6  7  1  0  0  0  0
  7  8  1  0  0  0  0
  8  9  1  0  0  0  0
  9 10  1  0  0  0  0
 10 11  1  0  0  0  0
 11 12  1  0  0  0  0
 12 13  1  0  0  0  0
 13 14  1  0  0  0  0
M  END
>  <CHROM.1>
-176.69736242,179.31301422,79.69484656,150.99160286,70.22275690,167.66871831
-173.99526914,168.76772278,163.59893043,177.79934503,-67.82854898,45.47783731
1.49390713,17.06464274,-0.20911871,-1.46943211,-1.20628426

>  <Name>
ligand

>  <RI>
0

>  <Rbt.Current_Directory>
/home/itssahil/PROJECTS/Mol_Feturizer/New_Systems/rnas/1TN1

>  <Rbt.Executable>
rbdock ($Id: //depot/dev/client3/rdock/2013.1/src/exe/rbdock.cxx#4 $)

>  <Rbt.Library>
libRbt.so (2013.1, Build901 2013/11/27)

>  <Rbt.Parameter_File>
/export/apps/rDock/src/rDock_2013.1_src/data/scripts/dock_solv.prm

>  <Rbt.Receptor>
prm/blind_docking_100.prm

>  <SCORE>
-9.65201

>  <SCORE.INTER>
-7.30819

>  <SCORE.INTER.CONST>
1

>  <SCORE.INTER.POLAR>
0

>  <SCORE.INTER.ROT>
11

>  <SCORE.INTER.SOLV>
14.1241

>  <SCORE.INTER.VDW>
-20.5135

>  <SCORE.INTER.norm>
-0.522013

>  <SCORE.INTRA>
-2.34383

>  <SCORE.INTRA.DIHEDRAL>
-5.19825

>  <SCORE.INTRA.DIHEDRAL.0>
7.79482

>  <SCORE.INTRA.POLAR>
0

>  <SCORE.INTRA.POLAR.0>
0

>  <SCORE.INTRA.REPUL>
0

>  <SCORE.INTRA.REPUL.0>
0

>  <SCORE.INTRA.SOLV>
1.00511

>  <SCORE.INTRA.SOLV.lig_0>
-49.456

>  <SCORE.INTRA.VDW>
-0.247257

>  <SCORE.INTRA.VDW.0>
-0.478406

>  <SCORE.INTRA.norm>
-0.167416

>  <SCORE.RESTR>
0

>  <SCORE.RESTR.CAVITY>
0

>  <SCORE.RESTR.norm>
0

>  <SCORE.SYSTEM>
0

>  <SCORE.SYSTEM.CONST>
0

>  <SCORE.SYSTEM.DIHEDRAL>
0

>  <SCORE.SYSTEM.SOLV>
0

>  <SCORE.SYSTEM.norm>
0

>  <SCORE.heavy>
14

>  <SCORE.norm>
-0.689429

>  <RMSD>
5.520

$$$$
ligand
 OpenBabel11021811413D
libRbt.so/2013.1/901 2013/11/27
 14 13  0  0  0  0  0  0  0  0999 V2000
   46.0855    6.4126   20.3820 N   0  0  0  0  0  0  0  0  0  0  0  0
   45.8040    5.0669   20.9269 C   0  0  0  0  0  0  0  0  0  0  0  0
   44.2943    4.7475   20.8730 C   0  0  0  0  0  0  0  0  0  0  0  0
   43.4223    5.6220   21.7889 C   0  0  0  0  0  0  0  0  0  0  0  0
   41.9748    5.3838   21.5351 N   0  0  0  0  0  0  0  0  0  0  0  0
   41.4588    6.3647   20.5459 C   0  0  0  0  0  0  0  0  0  0  0  0
   40.7504    7.6246   21.1483 C   0  0  0  0  0  0  0  0  0  0  0  0
   40.3922    8.7148   20.0979 C   0  0  0  0  0  0  0  0  0  0  0  0
   41.5985    9.3987   19.4847 C   0  0  0  0  0  0  0  0  0  0  0  0
   41.1107   10.4363   18.5960 N   0  0  0  0  0  0  0  0  0  0  0  0
   42.2836   11.1808   18.1719 C   0  0  0  0  0  0  0  0  0  0  0  0
   41.9208   12.2677   17.1667 C   0  0  0  0  0  0  0  0  0  0  0  0
   43.2153   13.0052   16.7922 C   0  0  0  0  0  0  0  0  0  0  0  0
   44.1564   12.1407   16.0643 N   0  0  0  0  0  0  0  0  0  0  0  0
  1  2  1  0  0  0  0
  2  3  1  0  0  0  0
  3  4  1  0  0  0  0
  4  5  1  0  0  0  0
  5  6  1  0  0  0  0
  6  7  1  0  0  0  0
  7  8  1  0  0  0  0
  8  9  1  0  0  0  0
  9 10  1  0  0  0  0
 10 11  1  0  0  0  0
 11 12  1  0  0  0  0
 12 13  1  0  0  0  0
 13 14  1  0  0  0  0
M  END
>  <CHROM.1>
-66.32159291,171.94452854,-93.38978949,-96.52857563,172.32814001,-67.56971115
-176.53002035,172.50394167,177.00824242,179.39121796,65.97390100,42.74743966
8.45467614,19.54115184,-1.41162357,0.24108213,-0.58074207

>  <Name>
ligand

>  <RI>
0

>  <Rbt.Current_Directory>
/home/itssahil/PROJECTS/Mol_Feturizer/New_Systems/rnas/1TN1

>  <Rbt.Executable>
rbdock ($Id: //depot/dev/client3/rdock/2013.1/src/exe/rbdock.cxx#4 $)

>  <Rbt.Library>
libRbt.so (2013.1, Build901 2013/11/27)

>  <Rbt.Parameter_File>
/export/apps/rDock/src/rDock_2013.1_src/data/scripts/dock_solv.prm

>  <Rbt.Receptor>
prm/blind_docking_80.prm

>  <SCORE>
-12.9791

>  <SCORE.INTER>
-10.9266

>  <SCORE.INTER.CONST>
1

>  <SCORE.INTER.POLAR>
0

>  <SCORE.INTER.ROT>
11

>  <SCORE.INTER.SOLV>
17.6706

>  <SCORE.INTER.VDW>
-24.108

>  <SCORE.INTER.norm>
-0.780474

>  <SCORE.INTRA>
-2.05242

>  <SCORE.INTRA.DIHEDRAL>
-5.2054

>  <SCORE.INTRA.DIHEDRAL.0>
7.79482

>  <SCORE.INTRA.POLAR>
0

>  <SCORE.INTRA.POLAR.0>
0

>  <SCORE.INTRA.REPUL>
0

>  <SCORE.INTRA.REPUL.0>
0

>  <SCORE.INTRA.SOLV>
1.6171

>  <SCORE.INTRA.SOLV.lig_0>
-49.456

>  <SCORE.INTRA.VDW>
-0.25827

>  <SCORE.INTRA.VDW.0>
-0.478406

>  <SCORE.INTRA.norm>
-0.146602

>  <SCORE.RESTR>
0

>  <SCORE.RESTR.CAVITY>
0

>  <SCORE.RESTR.norm>
0

>  <SCORE.SYSTEM>
0

>  <SCORE.SYSTEM.CONST>
0

>  <SCORE.SYSTEM.DIHEDRAL>
0

>  <SCORE.SYSTEM.SOLV>
0

>  <SCORE.SYSTEM.norm>
0

>  <SCORE.heavy>
14

>  <SCORE.norm>
-0.927075

>  <RMSD>
5.520

$$$$
ligand
 OpenBabel11021811413D
libRbt.so/2013.1/901 2013/11/27
 14 13  0  0  0  0  0  0  0  0999 V2000
   46.1224    6.3940   20.3871 N   0  0  0  0  0  0  0  0  0  0  0  0
   45.8186    5.0534   20.9326 C   0  0  0  0  0  0  0  0  0  0  0  0
   44.3050    4.7553   20.8697 C   0  0  0  0  0  0  0  0  0  0  0  0
   43.4362    5.6659   21.7528 C   0  0  0  0  0  0  0  0  0  0  0  0
   41.9892    5.4683   21.4635 N   0  0  0  0  0  0  0  0  0  0  0  0
   41.5148    6.4909   20.4960 C   0  0  0  0  0  0  0  0  0  0  0  0
   40.8139    7.7427   21.1238 C   0  0  0  0  0  0  0  0  0  0  0  0
   40.4642    8.8569   20.0959 C   0  0  0  0  0  0  0  0  0  0  0  0
   41.6760    9.5261   19.4773 C   0  0  0  0  0  0  0  0  0  0  0  0
   41.2095   10.6851   18.7402 N   0  0  0  0  0  0  0  0  0  0  0  0
   42.3527   11.1602   17.9805 C   0  0  0  0  0  0  0  0  0  0  0  0
   42.0774   12.5208   17.3510 C   0  0  0  0  0  0  0  0  0  0  0  0
   42.0398   13.5579   18.4836 C   0  0  0  0  0  0  0  0  0  0  0  0
   41.7803   14.9166   17.9843 N   0  0  0  0  0  0  0  0  0  0  0  0
  1  2  1  0  0  0  0
  2  3  1  0  0  0  0
  3  4  1  0  0  0  0
  4  5  1  0  0  0  0
  5  6  1  0  0  0  0
  6  7  1  0  0  0  0
  7  8  1  0  0  0  0
  8  9  1  0  0  0  0
  9 10  1  0  0  0  0
 10 11  1  0  0  0  0
 11 12  1  0  0  0  0
 12 13  1  0  0  0  0
 13 14  1  0  0  0  0
M  END
>  <CHROM.1>
-64.92327390,170.46499386,-95.90123437,-96.89892324,173.96993391,-66.38565833
-169.83241565,-170.42567431,-169.80226633,70.59293013,179.93573512,42.54276870
8.77075607,19.79566388,-1.30144161,0.16240564,-0.42064670

>  <Name>
ligand

>  <RI>
0

>  <Rbt.Current_Directory>
/home/itssahil/PROJECTS/Mol_Feturizer/New_Systems/rnas/1TN1

>  <Rbt.Executable>
rbdock ($Id: //depot/dev/client3/rdock/2013.1/src/exe/rbdock.cxx#4 $)

>  <Rbt.Library>
libRbt.so (2013.1, Build901 2013/11/27)

>  <Rbt.Parameter_File>
/export/apps/rDock/src/rDock_2013.1_src/data/scripts/dock_solv.prm

>  <Rbt.Receptor>
prm/pocket_docking_7.prm

>  <SCORE>
-12.8555

>  <SCORE.INTER>
-10.8764

>  <SCORE.INTER.CONST>
1

>  <SCORE.INTER.POLAR>
0

>  <SCORE.INTER.ROT>
11

>  <SCORE.INTER.SOLV>
16.9089

>  <SCORE.INTER.VDW>
-23.8205

>  <SCORE.INTER.norm>
-0.776883

>  <SCORE.INTRA>
-1.97913

>  <SCORE.INTRA.DIHEDRAL>
-4.51325

>  <SCORE.INTRA.DIHEDRAL.0>
7.79482

>  <SCORE.INTRA.POLAR>
0

>  <SCORE.INTRA.POLAR.0>
0

>  <SCORE.INTRA.REPUL>
0

>  <SCORE.INTRA.REPUL.0>
0

>  <SCORE.INTRA.SOLV>
1.22489

>  <SCORE.INTRA.SOLV.lig_0>
-49.456

>  <SCORE.INTRA.VDW>
-0.334945

>  <SCORE.INTRA.VDW.0>
-0.478406

>  <SCORE.INTRA.norm>
-0.141366

>  <SCORE.RESTR>
0

>  <SCORE.RESTR.CAVITY>
0

>  <SCORE.RESTR.norm>
0

>  <SCORE.SYSTEM>
0

>  <SCORE.SYSTEM.CONST>
0

>  <SCORE.SYSTEM.DIHEDRAL>
0

>  <SCORE.SYSTEM.SOLV>
0

>  <SCORE.SYSTEM.norm>
0

>  <SCORE.heavy>
14

>  <SCORE.norm>
-0.918249

>  <RMSD>
5.533

$$$$
ligand
 OpenBabel11021811413D
libRbt.so/2013.1/901 2013/11/27
 14 13  0  0  0  0  0  0  0  0999 V2000
   42.4984   15.5914   16.4175 N   0  0  0  0  0  0  0  0  0  0  0  0
   41.2963   15.0735   17.1058 C   0  0  0  0  0  0  0  0  0  0  0  0
   41.6605   14.4465   18.4690 C   0  0  0  0  0  0  0  0  0  0  0  0
   42.4751   13.1457   18.3779 C   0  0  0  0  0  0  0  0  0  0  0  0
   41.6994   12.0766   17.6910 N   0  0  0  0  0  0  0  0  0  0  0  0
   42.0483   10.7469   18.2541 C   0  0  0  0  0  0  0  0  0  0  0  0
   41.0487   10.1788   19.3172 C   0  0  0  0  0  0  0  0  0  0  0  0
   41.2772    8.6801   19.6667 C   0  0  0  0  0  0  0  0  0  0  0  0
   42.6694    8.3740   20.1835 C   0  0  0  0  0  0  0  0  0  0  0  0
   42.7091    6.9663   20.5317 N   0  0  0  0  0  0  0  0  0  0  0  0
   44.1164    6.6186   20.6238 C   0  0  0  0  0  0  0  0  0  0  0  0
   44.3054    5.1566   21.0109 C   0  0  0  0  0  0  0  0  0  0  0  0
   45.8114    4.8559   20.9698 C   0  0  0  0  0  0  0  0  0  0  0  0
   46.3549    4.9266   19.6051 N   0  0  0  0  0  0  0  0  0  0  0  0
  1  2  1  0  0  0  0
  2  3  1  0  0  0  0
  3  4  1  0  0  0  0
  4  5  1  0  0  0  0
  5  6  1  0  0  0  0
  6  7  1  0  0  0  0
  7  8  1  0  0  0  0
  8  9  1  0  0  0  0
  9 10  1  0  0  0  0
 10 11  1  0  0  0  0
 11 12  1  0  0  0  0
 12 13  1  0  0  0  0
 13 14  1  0  0  0  0
M  END
>  <CHROM.1>
-68.38564898,-62.79436314,-147.07795770,98.87367998,168.07829650,57.58530617
176.98126141,163.00743002,179.02748133,175.42544609,-66.61709922,42.85484141
9.77405674,19.15910592,-1.89112653,-0.26250030,2.71791890

>  <Name>
ligand

>  <RI>
0

>  <Rbt.Current_Directory>
/home/itssahil/PROJECTS/Mol_Feturizer/New_Systems/rnas/1TN1

>  <Rbt.Executable>
rbdock ($Id: //depot/dev/client3/rdock/2013.1/src/exe/rbdock.cxx#4 $)

>  <Rbt.Library>
libRbt.so (2013.1, Build901 2013/11/27)

>  <Rbt.Parameter_File>
/export/apps/rDock/src/rDock_2013.1_src/data/scripts/dock_solv.prm

>  <Rbt.Receptor>
prm/pocket_docking_6.prm

>  <SCORE>
-10.5202

>  <SCORE.INTER>
-9.14547

>  <SCORE.INTER.CONST>
1

>  <SCORE.INTER.POLAR>
0

>  <SCORE.INTER.ROT>
11

>  <SCORE.INTER.SOLV>
17.4086

>  <SCORE.INTER.VDW>
-22.8332

>  <SCORE.INTER.norm>
-0.653248

>  <SCORE.INTRA>
-1.37469

>  <SCORE.INTRA.DIHEDRAL>
-4.89812

>  <SCORE.INTRA.DIHEDRAL.0>
7.79482

>  <SCORE.INTRA.POLAR>
0

>  <SCORE.INTRA.POLAR.0>
0

>  <SCORE.INTRA.REPUL>
0

>  <SCORE.INTRA.REPUL.0>
0

>  <SCORE.INTRA.SOLV>
2.47718

>  <SCORE.INTRA.SOLV.lig_0>
-49.456

>  <SCORE.INTRA.VDW>
-0.16422

>  <SCORE.INTRA.VDW.0>
-0.478406

>  <SCORE.INTRA.norm>
-0.0981922

>  <SCORE.RESTR>
0

>  <SCORE.RESTR.CAVITY>
0

>  <SCORE.RESTR.norm>
0

>  <SCORE.SYSTEM>
0

>  <SCORE.SYSTEM.CONST>
0

>  <SCORE.SYSTEM.DIHEDRAL>
0

>  <SCORE.SYSTEM.SOLV>
0

>  <SCORE.SYSTEM.norm>
0

>  <SCORE.heavy>
14

>  <SCORE.norm>
-0.75144

>  <RMSD>
5.544

$$$$
ligand
 OpenBabel11021811413D
libRbt.so/2013.1/901 2013/11/27
 14 13  0  0  0  0  0  0  0  0999 V2000
   46.3152    4.6846   21.1521 N   0  0  0  0  0  0  0  0  0  0  0  0
   45.3477    5.5413   20.4329 C   0  0  0  0  0  0  0  0  0  0  0  0
   44.0741    5.7728   21.2746 C   0  0  0  0  0  0  0  0  0  0  0  0
   42.9516    6.5264   20.5426 C   0  0  0  0  0  0  0  0  0  0  0  0
   41.7890    6.7596   21.4429 N   0  0  0  0  0  0  0  0  0  0  0  0
   40.5779    7.0804   20.6448 C   0  0  0  0  0  0  0  0  0  0  0  0
   40.4230    8.5806   20.2232 C   0  0  0  0  0  0  0  0  0  0  0  0
   41.5867    9.1154   19.3400 C   0  0  0  0  0  0  0  0  0  0  0  0
   41.4080   10.5525   18.8906 C   0  0  0  0  0  0  0  0  0  0  0  0
   42.5906   10.9281   18.1390 N   0  0  0  0  0  0  0  0  0  0  0  0
   42.2290   12.1251   17.4001 C   0  0  0  0  0  0  0  0  0  0  0  0
   43.4392   12.7387   16.7056 C   0  0  0  0  0  0  0  0  0  0  0  0
   43.9167   11.7428   15.6379 C   0  0  0  0  0  0  0  0  0  0  0  0
   45.1404   12.1982   14.9611 N   0  0  0  0  0  0  0  0  0  0  0  0
  1  2  1  0  0  0  0
  2  3  1  0  0  0  0
  3  4  1  0  0  0  0
  4  5  1  0  0  0  0
  5  6  1  0  0  0  0
  6  7  1  0  0  0  0
  7  8  1  0  0  0  0
  8  9  1  0  0  0  0
  9 10  1  0  0  0  0
 10 11  1  0  0  0  0
 11 12  1  0  0  0  0
 12 13  1  0  0  0  0
 13 14  1  0  0  0  0
M  END
>  <CHROM.1>
-173.68956106,-177.45147123,-161.97524443,-84.24351782,60.37175954,177.82897272
177.23323292,163.37053654,172.43467628,65.43790835,-176.29337490,42.98452292
8.88198994,19.05629710,-1.52797116,0.33855175,-0.65133329

>  <Name>
ligand

>  <RI>
0

>  <Rbt.Current_Directory>
/home/itssahil/PROJECTS/Mol_Feturizer/New_Systems/rnas/1TN1

>  <Rbt.Executable>
rbdock ($Id: //depot/dev/client3/rdock/2013.1/src/exe/rbdock.cxx#4 $)

>  <Rbt.Library>
libRbt.so (2013.1, Build901 2013/11/27)

>  <Rbt.Parameter_File>
/export/apps/rDock/src/rDock_2013.1_src/data/scripts/dock_solv.prm

>  <Rbt.Receptor>
prm/pocket_docking_7.prm

>  <SCORE>
-12.0262

>  <SCORE.INTER>
-8.93189

>  <SCORE.INTER.CONST>
1

>  <SCORE.INTER.POLAR>
0

>  <SCORE.INTER.ROT>
11

>  <SCORE.INTER.SOLV>
22.7871

>  <SCORE.INTER.VDW>
-24.4836

>  <SCORE.INTER.norm>
-0.637992

>  <SCORE.INTRA>
-3.0943

>  <SCORE.INTRA.DIHEDRAL>
-6.47913

>  <SCORE.INTRA.DIHEDRAL.0>
7.79482

>  <SCORE.INTRA.POLAR>
0

>  <SCORE.INTRA.POLAR.0>
0

>  <SCORE.INTRA.REPUL>
0

>  <SCORE.INTRA.REPUL.0>
0

>  <SCORE.INTRA.SOLV>
0.754022

>  <SCORE.INTRA.SOLV.lig_0>
-49.456

>  <SCORE.INTRA.VDW>
-0.231745

>  <SCORE.INTRA.VDW.0>
-0.478406

>  <SCORE.INTRA.norm>
-0.221021

>  <SCORE.RESTR>
0

>  <SCORE.RESTR.CAVITY>
0

>  <SCORE.RESTR.norm>
0

>  <SCORE.SYSTEM>
0

>  <SCORE.SYSTEM.CONST>
0

>  <SCORE.SYSTEM.DIHEDRAL>
0

>  <SCORE.SYSTEM.SOLV>
0

>  <SCORE.SYSTEM.norm>
0

>  <SCORE.heavy>
14

>  <SCORE.norm>
-0.859014

>  <RMSD>
5.562

$$$$
ligand
 OpenBabel11021811413D
libRbt.so/2013.1/901 2013/11/27
 14 13  0  0  0  0  0  0  0  0999 V2000
   45.0683    4.9260   20.3647 N   0  0  0  0  0  0  0  0  0  0  0  0
   44.1347    4.5900   21.4613 C   0  0  0  0  0  0  0  0  0  0  0  0
   43.2936    5.8173   21.8740 C   0  0  0  0  0  0  0  0  0  0  0  0
   42.3386    6.3338   20.7853 C   0  0  0  0  0  0  0  0  0  0  0  0
   41.5526    7.5001   21.2735 N   0  0  0  0  0  0  0  0  0  0  0  0
   40.7174    8.0520   20.1759 C   0  0  0  0  0  0  0  0  0  0  0  0
   41.0897    9.4979   19.7039 C   0  0  0  0  0  0  0  0  0  0  0  0
   42.4091    9.5782   18.8835 C   0  0  0  0  0  0  0  0  0  0  0  0
   43.6360    9.1144   19.6440 C   0  0  0  0  0  0  0  0  0  0  0  0
   44.7500    9.1014   18.7150 N   0  0  0  0  0  0  0  0  0  0  0  0
   45.8854    8.5892   19.4622 C   0  0  0  0  0  0  0  0  0  0  0  0
   47.0520    8.2507   18.5414 C   0  0  0  0  0  0  0  0  0  0  0  0
   47.4698    9.5443   17.8259 C   0  0  0  0  0  0  0  0  0  0  0  0
   48.4894    9.3038   16.7937 N   0  0  0  0  0  0  0  0  0  0  0  0
  1  2  1  0  0  0  0
  2  3  1  0  0  0  0
  3  4  1  0  0  0  0
  4  5  1  0  0  0  0
  5  6  1  0  0  0  0
  6  7  1  0  0  0  0
  7  8  1  0  0  0  0
  8  9  1  0  0  0  0
  9 10  1  0  0  0  0
 10 11  1  0  0  0  0
 11 12  1  0  0  0  0
 12 13  1  0  0  0  0
 13 14  1  0  0  0  0
M  END
>  <CHROM.1>
64.90323793,179.03832245,175.46086952,-114.40770049,72.72925986,-60.79543174
173.63684285,-177.19827177,168.27501402,60.66166012,-173.37456497,44.13442015
7.87142898,19.67904238,-2.60419012,0.28776631,-0.52428978

>  <Name>
ligand

>  <RI>
0

>  <Rbt.Current_Directory>
/home/itssahil/PROJECTS/Mol_Feturizer/New_Systems/rnas/1TN1

>  <Rbt.Executable>
rbdock ($Id: //depot/dev/client3/rdock/2013.1/src/exe/rbdock.cxx#4 $)

>  <Rbt.Library>
libRbt.so (2013.1, Build901 2013/11/27)

>  <Rbt.Parameter_File>
/export/apps/rDock/src/rDock_2013.1_src/data/scripts/dock_solv.prm

>  <Rbt.Receptor>
prm/blind_docking_60.prm

>  <SCORE>
-11.7684

>  <SCORE.INTER>
-9.93618

>  <SCORE.INTER.CONST>
1

>  <SCORE.INTER.POLAR>
0

>  <SCORE.INTER.ROT>
11

>  <SCORE.INTER.SOLV>
13.5179

>  <SCORE.INTER.VDW>
-22.0634

>  <SCORE.INTER.norm>
-0.709727

>  <SCORE.INTRA>
-1.83227

>  <SCORE.INTRA.DIHEDRAL>
-5.48235

>  <SCORE.INTRA.DIHEDRAL.0>
7.79482

>  <SCORE.INTRA.POLAR>
0

>  <SCORE.INTRA.POLAR.0>
0

>  <SCORE.INTRA.REPUL>
0

>  <SCORE.INTRA.REPUL.0>
0

>  <SCORE.INTRA.SOLV>
3.40783

>  <SCORE.INTRA.SOLV.lig_0>
-49.456

>  <SCORE.INTRA.VDW>
-0.795005

>  <SCORE.INTRA.VDW.0>
-0.478406

>  <SCORE.INTRA.norm>
-0.130876

>  <SCORE.RESTR>
0

>  <SCORE.RESTR.CAVITY>
0

>  <SCORE.RESTR.norm>
0

>  <SCORE.SYSTEM>
0

>  <SCORE.SYSTEM.CONST>
0

>  <SCORE.SYSTEM.DIHEDRAL>
0

>  <SCORE.SYSTEM.SOLV>
0

>  <SCORE.SYSTEM.norm>
0

>  <SCORE.heavy>
14

>  <SCORE.norm>
-0.840603

>  <RMSD>
5.581

$$$$
ligand
 OpenBabel11021811413D
libRbt.so/2013.1/901 2013/11/27
 14 13  0  0  0  0  0  0  0  0999 V2000
   42.8181   16.1385   16.9073 N   0  0  0  0  0  0  0  0  0  0  0  0
   42.8699   14.6813   16.6600 C   0  0  0  0  0  0  0  0  0  0  0  0
   42.1753   13.8977   17.7947 C   0  0  0  0  0  0  0  0  0  0  0  0
   42.1473   12.3734   17.5954 C   0  0  0  0  0  0  0  0  0  0  0  0
   41.5421   11.6916   18.7725 N   0  0  0  0  0  0  0  0  0  0  0  0
   41.7181   10.2208   18.6604 C   0  0  0  0  0  0  0  0  0  0  0  0
   41.2252    9.3848   19.8893 C   0  0  0  0  0  0  0  0  0  0  0  0
   41.6138    7.8795   19.8304 C   0  0  0  0  0  0  0  0  0  0  0  0
   41.3500    7.1248   21.1187 C   0  0  0  0  0  0  0  0  0  0  0  0
   41.9286    5.8019   20.9793 N   0  0  0  0  0  0  0  0  0  0  0  0
   43.3247    5.9362   21.3570 C   0  0  0  0  0  0  0  0  0  0  0  0
   44.1324    4.7085   20.9526 C   0  0  0  0  0  0  0  0  0  0  0  0
   45.6202    5.0631   21.0962 C   0  0  0  0  0  0  0  0  0  0  0  0
   46.0307    6.1246   20.1647 N   0  0  0  0  0  0  0  0  0  0  0  0
  1  2  1  0  0  0  0
  2  3  1  0  0  0  0
  3  4  1  0  0  0  0
  4  5  1  0  0  0  0
  5  6  1  0  0  0  0
  6  7  1  0  0  0  0
  7  8  1  0  0  0  0
  8  9  1  0  0  0  0
  9 10  1  0  0  0  0
 10 11  1  0  0  0  0
 11 12  1  0  0  0  0
 12 13  1  0  0  0  0
 13 14  1  0  0  0  0
M  END
>  <CHROM.1>
178.27747273,176.26591982,-171.03266577,175.42610252,-171.40753914,170.00304831
-172.09643566,85.28628498,-166.73815601,167.44366367,-64.51481705,42.74960127
9.35880196,19.41283552,-1.72959795,-0.15594647,2.72041164

>  <Name>
ligand

>  <RI>
0

>  <Rbt.Current_Directory>
/home/itssahil/PROJECTS/Mol_Feturizer/New_Systems/rnas/1TN1

>  <Rbt.Executable>
rbdock ($Id: //depot/dev/client3/rdock/2013.1/src/exe/rbdock.cxx#4 $)

>  <Rbt.Library>
libRbt.so (2013.1, Build901 2013/11/27)

>  <Rbt.Parameter_File>
/export/apps/rDock/src/rDock_2013.1_src/data/scripts/dock_solv.prm

>  <Rbt.Receptor>
prm/pocket_docking_8.prm

>  <SCORE>
-11.0398

>  <SCORE.INTER>
-8.93217

>  <SCORE.INTER.CONST>
1

>  <SCORE.INTER.POLAR>
0

>  <SCORE.INTER.ROT>
11

>  <SCORE.INTER.SOLV>
15.0392

>  <SCORE.INTER.VDW>
-21.9012

>  <SCORE.INTER.norm>
-0.638012

>  <SCORE.INTRA>
-2.10768

>  <SCORE.INTRA.DIHEDRAL>
-5.4872

>  <SCORE.INTRA.DIHEDRAL.0>
7.79482

>  <SCORE.INTRA.POLAR>
0

>  <SCORE.INTRA.POLAR.0>
0

>  <SCORE.INTRA.REPUL>
0

>  <SCORE.INTRA.REPUL.0>
0

>  <SCORE.INTRA.SOLV>
0.879341

>  <SCORE.INTRA.SOLV.lig_0>
-49.456

>  <SCORE.INTRA.VDW>
0.196255

>  <SCORE.INTRA.VDW.0>
-0.478406

>  <SCORE.INTRA.norm>
-0.150548

>  <SCORE.RESTR>
0

>  <SCORE.RESTR.CAVITY>
0

>  <SCORE.RESTR.norm>
0

>  <SCORE.SYSTEM>
0

>  <SCORE.SYSTEM.CONST>
0

>  <SCORE.SYSTEM.DIHEDRAL>
0

>  <SCORE.SYSTEM.SOLV>
0

>  <SCORE.SYSTEM.norm>
0

>  <SCORE.heavy>
14

>  <SCORE.norm>
-0.78856

>  <RMSD>
5.591

$$$$
ligand
 OpenBabel11021811413D
libRbt.so/2013.1/901 2013/11/27
 14 13  0  0  0  0  0  0  0  0999 V2000
   42.2825   12.8685   17.3851 N   0  0  0  0  0  0  0  0  0  0  0  0
   42.6599   11.5036   17.8116 C   0  0  0  0  0  0  0  0  0  0  0  0
   41.5208   10.8335   18.6100 C   0  0  0  0  0  0  0  0  0  0  0  0
   41.8727    9.4547   19.1923 C   0  0  0  0  0  0  0  0  0  0  0  0
   40.7319    8.8953   19.9683 N   0  0  0  0  0  0  0  0  0  0  0  0
   41.2223    7.9022   20.9582 C   0  0  0  0  0  0  0  0  0  0  0  0
   41.3710    6.4359   20.4290 C   0  0  0  0  0  0  0  0  0  0  0  0
   42.0357    5.4596   21.4416 C   0  0  0  0  0  0  0  0  0  0  0  0
   43.4974    5.7563   21.7139 C   0  0  0  0  0  0  0  0  0  0  0  0
   44.2128    5.6297   20.4583 N   0  0  0  0  0  0  0  0  0  0  0  0
   45.6182    5.8022   20.7818 C   0  0  0  0  0  0  0  0  0  0  0  0
   46.0822    7.2284   20.5100 C   0  0  0  0  0  0  0  0  0  0  0  0
   46.0281    7.4532   18.9913 C   0  0  0  0  0  0  0  0  0  0  0  0
   46.4859    8.7983   18.6122 N   0  0  0  0  0  0  0  0  0  0  0  0
  1  2  1  0  0  0  0
  2  3  1  0  0  0  0
  3  4  1  0  0  0  0
  4  5  1  0  0  0  0
  5  6  1  0  0  0  0
  6  7  1  0  0  0  0
  7  8  1  0  0  0  0
  8  9  1  0  0  0  0
  9 10  1  0  0  0  0
 10 11  1  0  0  0  0
 11 12  1  0  0  0  0
 12 13  1  0  0  0  0
 13 14  1  0  0  0  0
M  END
>  <CHROM.1>
-175.17929186,178.80333509,-156.53073572,-86.85471138,173.47610297,-67.58095544
-61.10506720,-175.02858977,-97.86950708,-66.93055830,-178.77699288,43.25861436
8.14402732,19.77623703,-1.94027530,-0.18240116,2.61374580

>  <Name>
ligand

>  <RI>
0

>  <Rbt.Current_Directory>
/home/itssahil/PROJECTS/Mol_Feturizer/New_Systems/rnas/1TN1

>  <Rbt.Executable>
rbdock ($Id: //depot/dev/client3/rdock/2013.1/src/exe/rbdock.cxx#4 $)

>  <Rbt.Library>
libRbt.so (2013.1, Build901 2013/11/27)

>  <Rbt.Parameter_File>
/export/apps/rDock/src/rDock_2013.1_src/data/scripts/dock_solv.prm

>  <Rbt.Receptor>
prm/blind_docking_80.prm

>  <SCORE>
-12.2546

>  <SCORE.INTER>
-9.79903

>  <SCORE.INTER.CONST>
1

>  <SCORE.INTER.POLAR>
0

>  <SCORE.INTER.ROT>
11

>  <SCORE.INTER.SOLV>
15.5542

>  <SCORE.INTER.VDW>
-22.6508

>  <SCORE.INTER.norm>
-0.699931

>  <SCORE.INTRA>
-2.45561

>  <SCORE.INTRA.DIHEDRAL>
-5.35361

>  <SCORE.INTRA.DIHEDRAL.0>
7.79482

>  <SCORE.INTRA.POLAR>
0

>  <SCORE.INTRA.POLAR.0>
0

>  <SCORE.INTRA.REPUL>
0

>  <SCORE.INTRA.REPUL.0>
0

>  <SCORE.INTRA.SOLV>
1.04132

>  <SCORE.INTRA.SOLV.lig_0>
-49.456

>  <SCORE.INTRA.VDW>
-0.299466

>  <SCORE.INTRA.VDW.0>
-0.478406

>  <SCORE.INTRA.norm>
-0.175401

>  <SCORE.RESTR>
0

>  <SCORE.RESTR.CAVITY>
0

>  <SCORE.RESTR.norm>
0

>  <SCORE.SYSTEM>
0

>  <SCORE.SYSTEM.CONST>
0

>  <SCORE.SYSTEM.DIHEDRAL>
0

>  <SCORE.SYSTEM.SOLV>
0

>  <SCORE.SYSTEM.norm>
0

>  <SCORE.heavy>
14

>  <SCORE.norm>
-0.875331

>  <RMSD>
5.638

$$$$
ligand
 OpenBabel11021811413D
libRbt.so/2013.1/901 2013/11/27
 14 13  0  0  0  0  0  0  0  0999 V2000
   41.0037    6.2409   21.0477 N   0  0  0  0  0  0  0  0  0  0  0  0
   41.5220    7.5702   20.6587 C   0  0  0  0  0  0  0  0  0  0  0  0
   40.4076    8.4466   20.0471 C   0  0  0  0  0  0  0  0  0  0  0  0
   40.8583    9.8563   19.6306 C   0  0  0  0  0  0  0  0  0  0  0  0
   41.9042    9.7923   18.5731 N   0  0  0  0  0  0  0  0  0  0  0  0
   42.4020   11.1565   18.2601 C   0  0  0  0  0  0  0  0  0  0  0  0
   43.7671   11.2199   17.4956 C   0  0  0  0  0  0  0  0  0  0  0  0
   44.9602   10.5934   18.2731 C   0  0  0  0  0  0  0  0  0  0  0  0
   44.8423    9.0958   18.4788 C   0  0  0  0  0  0  0  0  0  0  0  0
   45.9783    8.6709   19.2747 N   0  0  0  0  0  0  0  0  0  0  0  0
   45.8887    7.2234   19.3552 C   0  0  0  0  0  0  0  0  0  0  0  0
   45.3174    6.7736   20.6948 C   0  0  0  0  0  0  0  0  0  0  0  0
   45.1098    5.2531   20.6245 C   0  0  0  0  0  0  0  0  0  0  0  0
   46.3653    4.5325   20.3653 N   0  0  0  0  0  0  0  0  0  0  0  0
  1  2  1  0  0  0  0
  2  3  1  0  0  0  0
  3  4  1  0  0  0  0
  4  5  1  0  0  0  0
  5  6  1  0  0  0  0
  6  7  1  0  0  0  0
  7  8  1  0  0  0  0
  8  9  1  0  0  0  0
  9 10  1  0  0  0  0
 10 11  1  0  0  0  0
 11 12  1  0  0  0  0
 12 13  1  0  0  0  0
 13 14  1  0  0  0  0
M  END
>  <CHROM.1>
179.24903944,61.91763732,-175.58946495,162.75566556,-61.36247420,65.97256178
-176.89698999,-175.41203298,-101.26518208,173.57390741,59.74846230,43.59469798
8.31650488,19.48409666,0.93402633,-0.19757936,2.65080604

>  <Name>
ligand

>  <RI>
0

>  <Rbt.Current_Directory>
/home/itssahil/PROJECTS/Mol_Feturizer/New_Systems/rnas/1TN1

>  <Rbt.Executable>
rbdock ($Id: //depot/dev/client3/rdock/2013.1/src/exe/rbdock.cxx#4 $)

>  <Rbt.Library>
libRbt.so (2013.1, Build901 2013/11/27)

>  <Rbt.Parameter_File>
/export/apps/rDock/src/rDock_2013.1_src/data/scripts/dock_solv.prm

>  <Rbt.Receptor>
prm/pocket_docking_7.prm

>  <SCORE>
-11.0443

>  <SCORE.INTER>
-8.56477

>  <SCORE.INTER.CONST>
1

>  <SCORE.INTER.POLAR>
0

>  <SCORE.INTER.ROT>
11

>  <SCORE.INTER.SOLV>
17.4684

>  <SCORE.INTER.VDW>
-22.466

>  <SCORE.INTER.norm>
-0.611769

>  <SCORE.INTRA>
-2.47957

>  <SCORE.INTRA.DIHEDRAL>
-6.2367

>  <SCORE.INTRA.DIHEDRAL.0>
7.79482

>  <SCORE.INTRA.POLAR>
0

>  <SCORE.INTRA.POLAR.0>
0

>  <SCORE.INTRA.REPUL>
0

>  <SCORE.INTRA.REPUL.0>
0

>  <SCORE.INTRA.SOLV>
2.8495

>  <SCORE.INTRA.SOLV.lig_0>
-49.456

>  <SCORE.INTRA.VDW>
-0.785964

>  <SCORE.INTRA.VDW.0>
-0.478406

>  <SCORE.INTRA.norm>
-0.177112

>  <SCORE.RESTR>
0

>  <SCORE.RESTR.CAVITY>
0

>  <SCORE.RESTR.norm>
0

>  <SCORE.SYSTEM>
0

>  <SCORE.SYSTEM.CONST>
0

>  <SCORE.SYSTEM.DIHEDRAL>
0

>  <SCORE.SYSTEM.SOLV>
0

>  <SCORE.SYSTEM.norm>
0

>  <SCORE.heavy>
14

>  <SCORE.norm>
-0.788881

>  <RMSD>
5.643

$$$$
ligand
 OpenBabel11021811413D
libRbt.so/2013.1/901 2013/11/27
 14 13  0  0  0  0  0  0  0  0999 V2000
   47.8243    7.9049   17.8914 N   0  0  0  0  0  0  0  0  0  0  0  0
   47.0610    8.6783   18.8945 C   0  0  0  0  0  0  0  0  0  0  0  0
   46.5099    7.7594   20.0062 C   0  0  0  0  0  0  0  0  0  0  0  0
   45.5591    6.6567   19.5122 C   0  0  0  0  0  0  0  0  0  0  0  0
   44.7208    6.1352   20.6264 N   0  0  0  0  0  0  0  0  0  0  0  0
   43.5678    7.0401   20.8685 C   0  0  0  0  0  0  0  0  0  0  0  0
   42.1559    6.3643   20.8226 C   0  0  0  0  0  0  0  0  0  0  0  0
   40.9756    7.3398   21.0975 C   0  0  0  0  0  0  0  0  0  0  0  0
   40.6777    8.2845   19.9496 C   0  0  0  0  0  0  0  0  0  0  0  0
   41.8317    9.1469   19.7794 N   0  0  0  0  0  0  0  0  0  0  0  0
   41.4183   10.1870   18.8537 C   0  0  0  0  0  0  0  0  0  0  0  0
   42.6138   10.9719   18.3267 C   0  0  0  0  0  0  0  0  0  0  0  0
   42.0736   12.0890   17.4211 C   0  0  0  0  0  0  0  0  0  0  0  0
   43.1514   12.9079   16.8460 N   0  0  0  0  0  0  0  0  0  0  0  0
  1  2  1  0  0  0  0
  2  3  1  0  0  0  0
  3  4  1  0  0  0  0
  4  5  1  0  0  0  0
  5  6  1  0  0  0  0
  6  7  1  0  0  0  0
  7  8  1  0  0  0  0
  8  9  1  0  0  0  0
  9 10  1  0  0  0  0
 10 11  1  0  0  0  0
 11 12  1  0  0  0  0
 12 13  1  0  0  0  0
 13 14  1  0  0  0  0
M  END
>  <CHROM.1>
-59.97436206,-160.29648728,81.24547236,125.18287319,179.29606958,73.62123451
-64.53540435,-169.64586405,-166.53053540,-177.03192033,-179.55517338,43.58117836
8.67599345,19.34993004,-0.82372868,0.22072107,-0.56514584

>  <Name>
ligand

>  <RI>
0

>  <Rbt.Current_Directory>
/home/itssahil/PROJECTS/Mol_Feturizer/New_Systems/rnas/1TN1

>  <Rbt.Executable>
rbdock ($Id: //depot/dev/client3/rdock/2013.1/src/exe/rbdock.cxx#4 $)

>  <Rbt.Library>
libRbt.so (2013.1, Build901 2013/11/27)

>  <Rbt.Parameter_File>
/export/apps/rDock/src/rDock_2013.1_src/data/scripts/dock_solv.prm

>  <Rbt.Receptor>
prm/blind_docking_80.prm

>  <SCORE>
-12.4814

>  <SCORE.INTER>
-11.2637

>  <SCORE.INTER.CONST>
1

>  <SCORE.INTER.POLAR>
0

>  <SCORE.INTER.ROT>
11

>  <SCORE.INTER.SOLV>
14.9184

>  <SCORE.INTER.VDW>
-23.4153

>  <SCORE.INTER.norm>
-0.804551

>  <SCORE.INTRA>
-1.21771

>  <SCORE.INTRA.DIHEDRAL>
-3.85088

>  <SCORE.INTRA.DIHEDRAL.0>
7.79482

>  <SCORE.INTRA.POLAR>
0

>  <SCORE.INTRA.POLAR.0>
0

>  <SCORE.INTRA.REPUL>
0

>  <SCORE.INTRA.REPUL.0>
0

>  <SCORE.INTRA.SOLV>
1.77918

>  <SCORE.INTRA.SOLV.lig_0>
-49.456

>  <SCORE.INTRA.VDW>
-0.181865

>  <SCORE.INTRA.VDW.0>
-0.478406

>  <SCORE.INTRA.norm>
-0.0869796

>  <SCORE.RESTR>
0

>  <SCORE.RESTR.CAVITY>
0

>  <SCORE.RESTR.norm>
0

>  <SCORE.SYSTEM>
0

>  <SCORE.SYSTEM.CONST>
0

>  <SCORE.SYSTEM.DIHEDRAL>
0

>  <SCORE.SYSTEM.SOLV>
0

>  <SCORE.SYSTEM.norm>
0

>  <SCORE.heavy>
14

>  <SCORE.norm>
-0.89153

>  <RMSD>
5.661

$$$$
ligand
 OpenBabel11021811413D
libRbt.so/2013.1/901 2013/11/27
 14 13  0  0  0  0  0  0  0  0999 V2000
   45.6927    6.8034   19.8463 N   0  0  0  0  0  0  0  0  0  0  0  0
   45.5477    5.4643   20.4570 C   0  0  0  0  0  0  0  0  0  0  0  0
   44.3895    5.4390   21.4778 C   0  0  0  0  0  0  0  0  0  0  0  0
   42.9910    5.6134   20.8632 C   0  0  0  0  0  0  0  0  0  0  0  0
   42.8529    6.9487   20.2196 N   0  0  0  0  0  0  0  0  0  0  0  0
   41.5600    7.5720   20.6027 C   0  0  0  0  0  0  0  0  0  0  0  0
   41.0178    8.6641   19.6201 C   0  0  0  0  0  0  0  0  0  0  0  0
   42.0516    9.7726   19.2696 C   0  0  0  0  0  0  0  0  0  0  0  0
   41.4961   10.8769   18.3916 C   0  0  0  0  0  0  0  0  0  0  0  0
   42.6025   11.7347   18.0116 N   0  0  0  0  0  0  0  0  0  0  0  0
   42.0091   12.8698   17.3267 C   0  0  0  0  0  0  0  0  0  0  0  0
   41.8412   14.0607   18.2631 C   0  0  0  0  0  0  0  0  0  0  0  0
   41.2209   15.2072   17.4503 C   0  0  0  0  0  0  0  0  0  0  0  0
   42.1398   15.7204   16.4231 N   0  0  0  0  0  0  0  0  0  0  0  0
  1  2  1  0  0  0  0
  2  3  1  0  0  0  0
  3  4  1  0  0  0  0
  4  5  1  0  0  0  0
  5  6  1  0  0  0  0
  6  7  1  0  0  0  0
  7  8  1  0  0  0  0
  8  9  1  0  0  0  0
  9 10  1  0  0  0  0
 10 11  1  0  0  0  0
 11 12  1  0  0  0  0
 12 13  1  0  0  0  0
 13 14  1  0  0  0  0
M  END
>  <CHROM.1>
67.16647416,-63.37670349,-134.33978125,-157.10560870,-51.37616388,-176.18459201
-172.85011659,-172.60319584,97.49627087,179.56146284,-67.37251882,42.67208220
9.76743452,19.15897943,-1.32030781,0.15802333,-0.41941503

>  <Name>
ligand

>  <RI>
0

>  <Rbt.Current_Directory>
/home/itssahil/PROJECTS/Mol_Feturizer/New_Systems/rnas/1TN1

>  <Rbt.Executable>
rbdock ($Id: //depot/dev/client3/rdock/2013.1/src/exe/rbdock.cxx#4 $)

>  <Rbt.Library>
libRbt.so (2013.1, Build901 2013/11/27)

>  <Rbt.Parameter_File>
/export/apps/rDock/src/rDock_2013.1_src/data/scripts/dock_solv.prm

>  <Rbt.Receptor>
prm/pocket_docking_5.prm

>  <SCORE>
-10.5701

>  <SCORE.INTER>
-9.79074

>  <SCORE.INTER.CONST>
1

>  <SCORE.INTER.POLAR>
0

>  <SCORE.INTER.ROT>
11

>  <SCORE.INTER.SOLV>
13.8748

>  <SCORE.INTER.VDW>
-22.0854

>  <SCORE.INTER.norm>
-0.699339

>  <SCORE.INTRA>
-0.781981

>  <SCORE.INTRA.DIHEDRAL>
-4.53279

>  <SCORE.INTRA.DIHEDRAL.0>
7.79482

>  <SCORE.INTRA.POLAR>
0

>  <SCORE.INTRA.POLAR.0>
0

>  <SCORE.INTRA.REPUL>
0

>  <SCORE.INTRA.REPUL.0>
0

>  <SCORE.INTRA.SOLV>
3.94282

>  <SCORE.INTRA.SOLV.lig_0>
-49.456

>  <SCORE.INTRA.VDW>
-0.486998

>  <SCORE.INTRA.VDW.0>
-0.478406

>  <SCORE.INTRA.norm>
-0.0558558

>  <SCORE.RESTR>
0.00266991

>  <SCORE.RESTR.CAVITY>
0.00266991

>  <SCORE.RESTR.norm>
0.000190708

>  <SCORE.SYSTEM>
0

>  <SCORE.SYSTEM.CONST>
0

>  <SCORE.SYSTEM.DIHEDRAL>
0

>  <SCORE.SYSTEM.SOLV>
0

>  <SCORE.SYSTEM.norm>
0

>  <SCORE.heavy>
14

>  <SCORE.norm>
-0.755004

>  <RMSD>
5.679

$$$$
ligand
 OpenBabel11021811413D
libRbt.so/2013.1/901 2013/11/27
 14 13  0  0  0  0  0  0  0  0999 V2000
   46.1820    7.2742   19.0465 N   0  0  0  0  0  0  0  0  0  0  0  0
   46.1841    6.7168   20.4163 C   0  0  0  0  0  0  0  0  0  0  0  0
   45.1381    5.5905   20.5621 C   0  0  0  0  0  0  0  0  0  0  0  0
   45.4638    4.3093   19.7769 C   0  0  0  0  0  0  0  0  0  0  0  0
   44.3053    3.3742   19.7757 N   0  0  0  0  0  0  0  0  0  0  0  0
   44.7122    2.0534   19.2309 C   0  0  0  0  0  0  0  0  0  0  0  0
   44.7575    1.9506   17.6690 C   0  0  0  0  0  0  0  0  0  0  0  0
   44.8590    0.4943   17.1312 C   0  0  0  0  0  0  0  0  0  0  0  0
   44.9183    0.3993   15.6191 C   0  0  0  0  0  0  0  0  0  0  0  0
   44.9077   -1.0078   15.2665 N   0  0  0  0  0  0  0  0  0  0  0  0
   46.3011   -1.4129   15.2037 C   0  0  0  0  0  0  0  0  0  0  0  0
   46.8430   -1.3281   13.7816 C   0  0  0  0  0  0  0  0  0  0  0  0
   48.3095   -1.7847   13.8151 C   0  0  0  0  0  0  0  0  0  0  0  0
   48.9353   -1.7413   12.4850 N   0  0  0  0  0  0  0  0  0  0  0  0
  1  2  1  0  0  0  0
  2  3  1  0  0  0  0
  3  4  1  0  0  0  0
  4  5  1  0  0  0  0
  5  6  1  0  0  0  0
  6  7  1  0  0  0  0
  7  8  1  0  0  0  0
  8  9  1  0  0  0  0
  9 10  1  0  0  0  0
 10 11  1  0  0  0  0
 11 12  1  0  0  0  0
 12 13  1  0  0  0  0
 13 14  1  0  0  0  0
M  END
>  <CHROM.1>
68.62450507,-170.02979663,-169.83998225,-81.17728348,-166.50189657,-179.35651195
-175.74896594,-90.93942274,-94.48784427,-179.51761071,-179.97208214,45.84397362
1.77760527,17.12731076,-1.79655745,-0.61272985,-2.56514965

>  <Name>
ligand

>  <RI>
0

>  <Rbt.Current_Directory>
/home/itssahil/PROJECTS/Mol_Feturizer/New_Systems/rnas/1TN1

>  <Rbt.Executable>
rbdock ($Id: //depot/dev/client3/rdock/2013.1/src/exe/rbdock.cxx#4 $)

>  <Rbt.Library>
libRbt.so (2013.1, Build901 2013/11/27)

>  <Rbt.Parameter_File>
/export/apps/rDock/src/rDock_2013.1_src/data/scripts/dock_solv.prm

>  <Rbt.Receptor>
prm/blind_docking_60.prm

>  <SCORE>
-5.57919

>  <SCORE.INTER>
-3.9812

>  <SCORE.INTER.CONST>
1

>  <SCORE.INTER.POLAR>
0

>  <SCORE.INTER.ROT>
11

>  <SCORE.INTER.SOLV>
12.5177

>  <SCORE.INTER.VDW>
-17.76

>  <SCORE.INTER.norm>
-0.284372

>  <SCORE.INTRA>
-1.59799

>  <SCORE.INTRA.DIHEDRAL>
-4.63403

>  <SCORE.INTRA.DIHEDRAL.0>
7.79482

>  <SCORE.INTRA.POLAR>
0

>  <SCORE.INTRA.POLAR.0>
0

>  <SCORE.INTRA.REPUL>
0

>  <SCORE.INTRA.REPUL.0>
0

>  <SCORE.INTRA.SOLV>
0.61081

>  <SCORE.INTRA.SOLV.lig_0>
-49.456

>  <SCORE.INTRA.VDW>
0.41362

>  <SCORE.INTRA.VDW.0>
-0.478406

>  <SCORE.INTRA.norm>
-0.114142

>  <SCORE.RESTR>
0

>  <SCORE.RESTR.CAVITY>
0

>  <SCORE.RESTR.norm>
0

>  <SCORE.SYSTEM>
0

>  <SCORE.SYSTEM.CONST>
0

>  <SCORE.SYSTEM.DIHEDRAL>
0

>  <SCORE.SYSTEM.SOLV>
0

>  <SCORE.SYSTEM.norm>
0

>  <SCORE.heavy>
14

>  <SCORE.norm>
-0.398514

>  <RMSD>
5.683

$$$$
ligand
 OpenBabel11021811413D
libRbt.so/2013.1/901 2013/11/27
 14 13  0  0  0  0  0  0  0  0999 V2000
   44.5085   -3.6520   11.9924 N   0  0  0  0  0  0  0  0  0  0  0  0
   43.6376   -3.6589   13.1877 C   0  0  0  0  0  0  0  0  0  0  0  0
   44.2869   -2.8855   14.3556 C   0  0  0  0  0  0  0  0  0  0  0  0
   44.4869   -1.3833   14.0956 C   0  0  0  0  0  0  0  0  0  0  0  0
   45.1021   -0.7141   15.2746 N   0  0  0  0  0  0  0  0  0  0  0  0
   44.9067    0.7561   15.1903 C   0  0  0  0  0  0  0  0  0  0  0  0
   45.7977    1.6133   16.1512 C   0  0  0  0  0  0  0  0  0  0  0  0
   45.5877    1.2999   17.6606 C   0  0  0  0  0  0  0  0  0  0  0  0
   46.4711    2.1126   18.5868 C   0  0  0  0  0  0  0  0  0  0  0  0
   46.1183    3.5094   18.4170 N   0  0  0  0  0  0  0  0  0  0  0  0
   45.4183    3.8933   19.6304 C   0  0  0  0  0  0  0  0  0  0  0  0
   46.0631    5.1093   20.2852 C   0  0  0  0  0  0  0  0  0  0  0  0
   45.8349    6.3124   19.3577 C   0  0  0  0  0  0  0  0  0  0  0  0
   46.3839    7.5569   19.9167 N   0  0  0  0  0  0  0  0  0  0  0  0
  1  2  1  0  0  0  0
  2  3  1  0  0  0  0
  3  4  1  0  0  0  0
  4  5  1  0  0  0  0
  5  6  1  0  0  0  0
  6  7  1  0  0  0  0
  7  8  1  0  0  0  0
  8  9  1  0  0  0  0
  9 10  1  0  0  0  0
 10 11  1  0  0  0  0
 11 12  1  0  0  0  0
 12 13  1  0  0  0  0
 13 14  1  0  0  0  0
M  END
>  <CHROM.1>
64.25296996,179.35658694,-162.50755365,-165.11206187,-59.88155386,178.87893037
62.83738198,108.32524895,125.10351736,67.71061934,178.19815599,45.32875341
1.41913004,16.72169131,2.65627463,1.38030666,2.70586192

>  <Name>
ligand

>  <RI>
0

>  <Rbt.Current_Directory>
/home/itssahil/PROJECTS/Mol_Feturizer/New_Systems/rnas/1TN1

>  <Rbt.Executable>
rbdock ($Id: //depot/dev/client3/rdock/2013.1/src/exe/rbdock.cxx#4 $)

>  <Rbt.Library>
libRbt.so (2013.1, Build901 2013/11/27)

>  <Rbt.Parameter_File>
/export/apps/rDock/src/rDock_2013.1_src/data/scripts/dock_solv.prm

>  <Rbt.Receptor>
prm/pocket_docking_8.prm

>  <SCORE>
-8.03359

>  <SCORE.INTER>
-6.19267

>  <SCORE.INTER.CONST>
1

>  <SCORE.INTER.POLAR>
0

>  <SCORE.INTER.ROT>
11

>  <SCORE.INTER.SOLV>
13.269

>  <SCORE.INTER.VDW>
-19.4848

>  <SCORE.INTER.norm>
-0.442334

>  <SCORE.INTRA>
-1.84092

>  <SCORE.INTRA.DIHEDRAL>
-4.77735

>  <SCORE.INTRA.DIHEDRAL.0>
7.79482

>  <SCORE.INTRA.POLAR>
0

>  <SCORE.INTRA.POLAR.0>
0

>  <SCORE.INTRA.REPUL>
0

>  <SCORE.INTRA.REPUL.0>
0

>  <SCORE.INTRA.SOLV>
1.75542

>  <SCORE.INTRA.SOLV.lig_0>
-49.456

>  <SCORE.INTRA.VDW>
-0.329956

>  <SCORE.INTRA.VDW.0>
-0.478406

>  <SCORE.INTRA.norm>
-0.131494

>  <SCORE.RESTR>
0

>  <SCORE.RESTR.CAVITY>
0

>  <SCORE.RESTR.norm>
0

>  <SCORE.SYSTEM>
0

>  <SCORE.SYSTEM.CONST>
0

>  <SCORE.SYSTEM.DIHEDRAL>
0

>  <SCORE.SYSTEM.SOLV>
0

>  <SCORE.SYSTEM.norm>
0

>  <SCORE.heavy>
14

>  <SCORE.norm>
-0.573828

>  <RMSD>
5.728

$$$$
ligand
 OpenBabel11021811413D
libRbt.so/2013.1/901 2013/11/27
 14 13  0  0  0  0  0  0  0  0999 V2000
   44.3412   -3.9513   12.2174 N   0  0  0  0  0  0  0  0  0  0  0  0
   43.5789   -3.6804   13.4553 C   0  0  0  0  0  0  0  0  0  0  0  0
   44.3501   -2.7204   14.3868 C   0  0  0  0  0  0  0  0  0  0  0  0
   44.5318   -1.2983   13.8314 C   0  0  0  0  0  0  0  0  0  0  0  0
   45.2974   -0.4468   14.7828 N   0  0  0  0  0  0  0  0  0  0  0  0
   45.0823    0.9901   14.4732 C   0  0  0  0  0  0  0  0  0  0  0  0
   45.9178    1.9995   15.3305 C   0  0  0  0  0  0  0  0  0  0  0  0
   45.6155    1.9398   16.8555 C   0  0  0  0  0  0  0  0  0  0  0  0
   46.4938    2.8485   17.6932 C   0  0  0  0  0  0  0  0  0  0  0  0
   46.1139    2.6689   19.0816 N   0  0  0  0  0  0  0  0  0  0  0  0
   45.1896    3.7477   19.3841 C   0  0  0  0  0  0  0  0  0  0  0  0
   45.9108    4.9472   19.9878 C   0  0  0  0  0  0  0  0  0  0  0  0
   44.8562    6.0261   20.2773 C   0  0  0  0  0  0  0  0  0  0  0  0
   45.4637    7.3002   20.6900 N   0  0  0  0  0  0  0  0  0  0  0  0
  1  2  1  0  0  0  0
  2  3  1  0  0  0  0
  3  4  1  0  0  0  0
  4  5  1  0  0  0  0
  5  6  1  0  0  0  0
  6  7  1  0  0  0  0
  7  8  1  0  0  0  0
  8  9  1  0  0  0  0
  9 10  1  0  0  0  0
 10 11  1  0  0  0  0
 11 12  1  0  0  0  0
 12 13  1  0  0  0  0
 13 14  1  0  0  0  0
M  END
>  <CHROM.1>
66.04067782,-179.31238316,-161.13336056,-175.50627248,-61.75126431,175.95110690
-179.05289946,-96.79857218,-93.68483014,-179.75067750,-172.07644702,45.19588322
1.45507282,16.60330631,1.85852467,-1.14961106,-2.19811636

>  <Name>
ligand

>  <RI>
0

>  <Rbt.Current_Directory>
/home/itssahil/PROJECTS/Mol_Feturizer/New_Systems/rnas/1TN1

>  <Rbt.Executable>
rbdock ($Id: //depot/dev/client3/rdock/2013.1/src/exe/rbdock.cxx#4 $)

>  <Rbt.Library>
libRbt.so (2013.1, Build901 2013/11/27)

>  <Rbt.Parameter_File>
/export/apps/rDock/src/rDock_2013.1_src/data/scripts/dock_solv.prm

>  <Rbt.Receptor>
prm/blind_docking_80.prm

>  <SCORE>
-5.71891

>  <SCORE.INTER>
-3.40696

>  <SCORE.INTER.CONST>
1

>  <SCORE.INTER.POLAR>
0

>  <SCORE.INTER.ROT>
11

>  <SCORE.INTER.SOLV>
14.1803

>  <SCORE.INTER.VDW>
-17.9314

>  <SCORE.INTER.norm>
-0.243354

>  <SCORE.INTRA>
-2.31195

>  <SCORE.INTRA.DIHEDRAL>
-5.52786

>  <SCORE.INTRA.DIHEDRAL.0>
7.79482

>  <SCORE.INTRA.POLAR>
0

>  <SCORE.INTRA.POLAR.0>
0

>  <SCORE.INTRA.REPUL>
0

>  <SCORE.INTRA.REPUL.0>
0

>  <SCORE.INTRA.SOLV>
0.967372

>  <SCORE.INTRA.SOLV.lig_0>
-49.456

>  <SCORE.INTRA.VDW>
-0.0317046

>  <SCORE.INTRA.VDW.0>
-0.478406

>  <SCORE.INTRA.norm>
-0.165139

>  <SCORE.RESTR>
0

>  <SCORE.RESTR.CAVITY>
0

>  <SCORE.RESTR.norm>
0

>  <SCORE.SYSTEM>
0

>  <SCORE.SYSTEM.CONST>
0

>  <SCORE.SYSTEM.DIHEDRAL>
0

>  <SCORE.SYSTEM.SOLV>
0

>  <SCORE.SYSTEM.norm>
0

>  <SCORE.heavy>
14

>  <SCORE.norm>
-0.408494

>  <RMSD>
5.758

$$$$
ligand
 OpenBabel11021811413D
libRbt.so/2013.1/901 2013/11/27
 14 13  0  0  0  0  0  0  0  0999 V2000
   46.6010    4.2688   20.3036 N   0  0  0  0  0  0  0  0  0  0  0  0
   45.4065    4.8982   20.9069 C   0  0  0  0  0  0  0  0  0  0  0  0
   44.9870    6.1621   20.1256 C   0  0  0  0  0  0  0  0  0  0  0  0
   43.6850    6.8156   20.6172 C   0  0  0  0  0  0  0  0  0  0  0  0
   43.3297    7.9946   19.7804 N   0  0  0  0  0  0  0  0  0  0  0  0
   41.9298    8.4123   20.0499 C   0  0  0  0  0  0  0  0  0  0  0  0
   41.3402    9.4779   19.0656 C   0  0  0  0  0  0  0  0  0  0  0  0
   42.1969   10.7706   18.9415 C   0  0  0  0  0  0  0  0  0  0  0  0
   41.7116   11.7304   17.8728 C   0  0  0  0  0  0  0  0  0  0  0  0
   42.3499   13.0113   18.1100 N   0  0  0  0  0  0  0  0  0  0  0  0
   42.0523   13.8261   16.9450 C   0  0  0  0  0  0  0  0  0  0  0  0
   40.7955   14.6624   17.1555 C   0  0  0  0  0  0  0  0  0  0  0  0
   41.1450   15.7860   18.1431 C   0  0  0  0  0  0  0  0  0  0  0  0
   41.3993   15.2751   19.4985 N   0  0  0  0  0  0  0  0  0  0  0  0
  1  2  1  0  0  0  0
  2  3  1  0  0  0  0
  3  4  1  0  0  0  0
  4  5  1  0  0  0  0
  5  6  1  0  0  0  0
  6  7  1  0  0  0  0
  7  8  1  0  0  0  0
  8  9  1  0  0  0  0
  9 10  1  0  0  0  0
 10 11  1  0  0  0  0
 11 12  1  0  0  0  0
 12 13  1  0  0  0  0
 13 14  1  0  0  0  0
M  END
>  <CHROM.1>
175.27488823,-177.94676290,166.45010735,-169.75041454,-54.65959379,173.34563220
164.66665962,170.14592346,92.81651172,72.77569766,-68.73151266,42.78044015
10.22084590,19.10813415,-1.18734901,0.21789424,-0.35647192

>  <Name>
ligand

>  <RI>
0

>  <Rbt.Current_Directory>
/home/itssahil/PROJECTS/Mol_Feturizer/New_Systems/rnas/1TN1

>  <Rbt.Executable>
rbdock ($Id: //depot/dev/client3/rdock/2013.1/src/exe/rbdock.cxx#4 $)

>  <Rbt.Library>
libRbt.so (2013.1, Build901 2013/11/27)

>  <Rbt.Parameter_File>
/export/apps/rDock/src/rDock_2013.1_src/data/scripts/dock_solv.prm

>  <Rbt.Receptor>
prm/pocket_docking_8.prm

>  <SCORE>
-6.7342

>  <SCORE.INTER>
-5.80954

>  <SCORE.INTER.CONST>
1

>  <SCORE.INTER.POLAR>
0

>  <SCORE.INTER.ROT>
11

>  <SCORE.INTER.SOLV>
18.9239

>  <SCORE.INTER.VDW>
-21.1143

>  <SCORE.INTER.norm>
-0.414967

>  <SCORE.INTRA>
-0.92466

>  <SCORE.INTRA.DIHEDRAL>
-4.68736

>  <SCORE.INTRA.DIHEDRAL.0>
7.79482

>  <SCORE.INTRA.POLAR>
0

>  <SCORE.INTRA.POLAR.0>
0

>  <SCORE.INTRA.REPUL>
0

>  <SCORE.INTRA.REPUL.0>
0

>  <SCORE.INTRA.SOLV>
3.52668

>  <SCORE.INTRA.SOLV.lig_0>
-49.456

>  <SCORE.INTRA.VDW>
-0.344322

>  <SCORE.INTRA.VDW.0>
-0.478406

>  <SCORE.INTRA.norm>
-0.0660472

>  <SCORE.RESTR>
0

>  <SCORE.RESTR.CAVITY>
0

>  <SCORE.RESTR.norm>
0

>  <SCORE.SYSTEM>
0

>  <SCORE.SYSTEM.CONST>
0

>  <SCORE.SYSTEM.DIHEDRAL>
0

>  <SCORE.SYSTEM.SOLV>
0

>  <SCORE.SYSTEM.norm>
0

>  <SCORE.heavy>
14

>  <SCORE.norm>
-0.481015

>  <RMSD>
5.773

$$$$
ligand
 OpenBabel11021811413D
libRbt.so/2013.1/901 2013/11/27
 14 13  0  0  0  0  0  0  0  0999 V2000
   44.8524   -2.5855   11.8446 N   0  0  0  0  0  0  0  0  0  0  0  0
   43.7437   -2.7017   12.8164 C   0  0  0  0  0  0  0  0  0  0  0  0
   44.2759   -2.9732   14.2402 C   0  0  0  0  0  0  0  0  0  0  0  0
   45.1263   -1.8376   14.8328 C   0  0  0  0  0  0  0  0  0  0  0  0
   44.3066   -0.6140   15.0508 N   0  0  0  0  0  0  0  0  0  0  0  0
   45.0941    0.4066   15.7889 C   0  0  0  0  0  0  0  0  0  0  0  0
   45.3977    0.0729   17.2884 C   0  0  0  0  0  0  0  0  0  0  0  0
   46.1043    1.2215   18.0642 C   0  0  0  0  0  0  0  0  0  0  0  0
   45.2078    2.4083   18.3582 C   0  0  0  0  0  0  0  0  0  0  0  0
   46.0161    3.4174   19.0159 N   0  0  0  0  0  0  0  0  0  0  0  0
   45.1382    4.0700   19.9715 C   0  0  0  0  0  0  0  0  0  0  0  0
   45.7925    5.3071   20.5755 C   0  0  0  0  0  0  0  0  0  0  0  0
   45.8691    6.3763   19.4752 C   0  0  0  0  0  0  0  0  0  0  0  0
   46.5145    7.6115   19.9448 N   0  0  0  0  0  0  0  0  0  0  0  0
  1  2  1  0  0  0  0
  2  3  1  0  0  0  0
  3  4  1  0  0  0  0
  4  5  1  0  0  0  0
  5  6  1  0  0  0  0
  6  7  1  0  0  0  0
  7  8  1  0  0  0  0
  8  9  1  0  0  0  0
  9 10  1  0  0  0  0
 10 11  1  0  0  0  0
 11 12  1  0  0  0  0
 12 13  1  0  0  0  0
 13 14  1  0  0  0  0
M  END
>  <CHROM.1>
64.14180401,65.74520321,172.39951120,-69.88646173,-174.46140991,71.73098839
-177.04164459,-145.31084770,-170.66378121,70.27708326,-178.77810400,45.24559163
1.44119378,16.94786863,3.12352586,1.42783514,2.26161057

>  <Name>
ligand

>  <RI>
0

>  <Rbt.Current_Directory>
/home/itssahil/PROJECTS/Mol_Feturizer/New_Systems/rnas/1TN1

>  <Rbt.Executable>
rbdock ($Id: //depot/dev/client3/rdock/2013.1/src/exe/rbdock.cxx#4 $)

>  <Rbt.Library>
libRbt.so (2013.1, Build901 2013/11/27)

>  <Rbt.Parameter_File>
/export/apps/rDock/src/rDock_2013.1_src/data/scripts/dock_solv.prm

>  <Rbt.Receptor>
prm/blind_docking_80.prm

>  <SCORE>
-8.91646

>  <SCORE.INTER>
-7.10427

>  <SCORE.INTER.CONST>
1

>  <SCORE.INTER.POLAR>
0

>  <SCORE.INTER.ROT>
11

>  <SCORE.INTER.SOLV>
13.8009

>  <SCORE.INTER.VDW>
-20.2698

>  <SCORE.INTER.norm>
-0.507448

>  <SCORE.INTRA>
-1.81219

>  <SCORE.INTRA.DIHEDRAL>
-5.56132

>  <SCORE.INTRA.DIHEDRAL.0>
7.79482

>  <SCORE.INTRA.POLAR>
0

>  <SCORE.INTRA.POLAR.0>
0

>  <SCORE.INTRA.REPUL>
0

>  <SCORE.INTRA.REPUL.0>
0

>  <SCORE.INTRA.SOLV>
2.05653

>  <SCORE.INTRA.SOLV.lig_0>
-49.456

>  <SCORE.INTRA.VDW>
-0.0597963

>  <SCORE.INTRA.VDW.0>
-0.478406

>  <SCORE.INTRA.norm>
-0.129442

>  <SCORE.RESTR>
0

>  <SCORE.RESTR.CAVITY>
0

>  <SCORE.RESTR.norm>
0

>  <SCORE.SYSTEM>
0

>  <SCORE.SYSTEM.CONST>
0

>  <SCORE.SYSTEM.DIHEDRAL>
0

>  <SCORE.SYSTEM.SOLV>
0

>  <SCORE.SYSTEM.norm>
0

>  <SCORE.heavy>
14

>  <SCORE.norm>
-0.63689

>  <RMSD>
5.774

$$$$
ligand
 OpenBabel11021811413D
libRbt.so/2013.1/901 2013/11/27
 14 13  0  0  0  0  0  0  0  0999 V2000
   46.6809    7.9090   19.7551 N   0  0  0  0  0  0  0  0  0  0  0  0
   46.0227    6.6218   19.4435 C   0  0  0  0  0  0  0  0  0  0  0  0
   45.7762    5.7966   20.7250 C   0  0  0  0  0  0  0  0  0  0  0  0
   45.0517    4.4599   20.4959 C   0  0  0  0  0  0  0  0  0  0  0  0
   45.8559    3.5586   19.6257 N   0  0  0  0  0  0  0  0  0  0  0  0
   44.9665    2.6081   18.9099 C   0  0  0  0  0  0  0  0  0  0  0  0
   45.6923    1.4861   18.0935 C   0  0  0  0  0  0  0  0  0  0  0  0
   44.7485    0.6568   17.1760 C   0  0  0  0  0  0  0  0  0  0  0  0
   45.4698   -0.3457   16.2965 C   0  0  0  0  0  0  0  0  0  0  0  0
   44.5346   -0.7926   15.2815 N   0  0  0  0  0  0  0  0  0  0  0  0
   45.1482   -1.9520   14.6577 C   0  0  0  0  0  0  0  0  0  0  0  0
   44.1884   -2.6403   13.6943 C   0  0  0  0  0  0  0  0  0  0  0  0
   44.9731   -3.7399   12.9629 C   0  0  0  0  0  0  0  0  0  0  0  0
   44.1995   -4.3372   11.8640 N   0  0  0  0  0  0  0  0  0  0  0  0
  1  2  1  0  0  0  0
  2  3  1  0  0  0  0
  3  4  1  0  0  0  0
  4  5  1  0  0  0  0
  5  6  1  0  0  0  0
  6  7  1  0  0  0  0
  7  8  1  0  0  0  0
  8  9  1  0  0  0  0
  9 10  1  0  0  0  0
 10 11  1  0  0  0  0
 11 12  1  0  0  0  0
 12 13  1  0  0  0  0
 13 14  1  0  0  0  0
M  END
>  <CHROM.1>
178.08780902,62.09327828,-153.83595724,-172.78967912,-170.53310893,174.88000326
-165.96569932,-167.50613473,172.33805550,173.26037781,-171.44178778,45.23627957
1.37771185,17.07028666,-1.15110108,-1.27942483,-2.09958898

>  <Name>
ligand

>  <RI>
0

>  <Rbt.Current_Directory>
/home/itssahil/PROJECTS/Mol_Feturizer/New_Systems/rnas/1TN1

>  <Rbt.Executable>
rbdock ($Id: //depot/dev/client3/rdock/2013.1/src/exe/rbdock.cxx#4 $)

>  <Rbt.Library>
libRbt.so (2013.1, Build901 2013/11/27)

>  <Rbt.Parameter_File>
/export/apps/rDock/src/rDock_2013.1_src/data/scripts/dock_solv.prm

>  <Rbt.Receptor>
prm/blind_docking_100.prm

>  <SCORE>
-9.46617

>  <SCORE.INTER>
-6.07164

>  <SCORE.INTER.CONST>
1

>  <SCORE.INTER.POLAR>
0

>  <SCORE.INTER.ROT>
11

>  <SCORE.INTER.SOLV>
15.3885

>  <SCORE.INTER.VDW>
-20.1106

>  <SCORE.INTER.norm>
-0.433688

>  <SCORE.INTRA>
-3.39454

>  <SCORE.INTRA.DIHEDRAL>
-5.47407

>  <SCORE.INTRA.DIHEDRAL.0>
7.79482

>  <SCORE.INTRA.POLAR>
0

>  <SCORE.INTRA.POLAR.0>
0

>  <SCORE.INTRA.REPUL>
0

>  <SCORE.INTRA.REPUL.0>
0

>  <SCORE.INTRA.SOLV>
0.291144

>  <SCORE.INTRA.SOLV.lig_0>
-49.456

>  <SCORE.INTRA.VDW>
-0.803071

>  <SCORE.INTRA.VDW.0>
-0.478406

>  <SCORE.INTRA.norm>
-0.242467

>  <SCORE.RESTR>
0

>  <SCORE.RESTR.CAVITY>
0

>  <SCORE.RESTR.norm>
0

>  <SCORE.SYSTEM>
0

>  <SCORE.SYSTEM.CONST>
0

>  <SCORE.SYSTEM.DIHEDRAL>
0

>  <SCORE.SYSTEM.SOLV>
0

>  <SCORE.SYSTEM.norm>
0

>  <SCORE.heavy>
14

>  <SCORE.norm>
-0.676155

>  <RMSD>
5.803

$$$$
ligand
 OpenBabel11021811413D
libRbt.so/2013.1/901 2013/11/27
 14 13  0  0  0  0  0  0  0  0999 V2000
   44.2921   -3.4471   12.3978 N   0  0  0  0  0  0  0  0  0  0  0  0
   44.5307   -2.0181   12.1008 C   0  0  0  0  0  0  0  0  0  0  0  0
   45.5218   -1.3966   13.1085 C   0  0  0  0  0  0  0  0  0  0  0  0
   45.0285   -1.3813   14.5646 C   0  0  0  0  0  0  0  0  0  0  0  0
   46.0577   -0.8027   15.4715 N   0  0  0  0  0  0  0  0  0  0  0  0
   45.5571   -0.7833   16.8700 C   0  0  0  0  0  0  0  0  0  0  0  0
   44.5597    0.3733   17.2158 C   0  0  0  0  0  0  0  0  0  0  0  0
   45.2021    1.7902   17.2052 C   0  0  0  0  0  0  0  0  0  0  0  0
   46.2498    1.9991   18.2811 C   0  0  0  0  0  0  0  0  0  0  0  0
   46.6692    3.3866   18.2225 N   0  0  0  0  0  0  0  0  0  0  0  0
   46.1159    4.0200   19.4066 C   0  0  0  0  0  0  0  0  0  0  0  0
   46.1844    5.5396   19.3098 C   0  0  0  0  0  0  0  0  0  0  0  0
   45.6676    6.1137   20.6377 C   0  0  0  0  0  0  0  0  0  0  0  0
   44.2450    5.8123   20.8570 N   0  0  0  0  0  0  0  0  0  0  0  0
  1  2  1  0  0  0  0
  2  3  1  0  0  0  0
  3  4  1  0  0  0  0
  4  5  1  0  0  0  0
  5  6  1  0  0  0  0
  6  7  1  0  0  0  0
  7  8  1  0  0  0  0
  8  9  1  0  0  0  0
  9 10  1  0  0  0  0
 10 11  1  0  0  0  0
 11 12  1  0  0  0  0
 12 13  1  0  0  0  0
 13 14  1  0  0  0  0
M  END
>  <CHROM.1>
-63.16363066,178.38335105,179.39844831,-78.54418553,-67.87409706,-65.39335274
-175.09416695,108.59955746,-166.10313705,-176.25942515,-65.09914414,45.42016053
1.37189951,16.83210671,2.75141852,1.49155485,2.70161088

>  <Name>
ligand

>  <RI>
0

>  <Rbt.Current_Directory>
/home/itssahil/PROJECTS/Mol_Feturizer/New_Systems/rnas/1TN1

>  <Rbt.Executable>
rbdock ($Id: //depot/dev/client3/rdock/2013.1/src/exe/rbdock.cxx#4 $)

>  <Rbt.Library>
libRbt.so (2013.1, Build901 2013/11/27)

>  <Rbt.Parameter_File>
/export/apps/rDock/src/rDock_2013.1_src/data/scripts/dock_solv.prm

>  <Rbt.Receptor>
prm/blind_docking_60.prm

>  <SCORE>
-5.8402

>  <SCORE.INTER>
-4.03378

>  <SCORE.INTER.CONST>
1

>  <SCORE.INTER.POLAR>
0

>  <SCORE.INTER.ROT>
11

>  <SCORE.INTER.SOLV>
13.3089

>  <SCORE.INTER.VDW>
-18.0588

>  <SCORE.INTER.norm>
-0.288127

>  <SCORE.INTRA>
-1.80642

>  <SCORE.INTRA.DIHEDRAL>
-5.64378

>  <SCORE.INTRA.DIHEDRAL.0>
7.79482

>  <SCORE.INTRA.POLAR>
0

>  <SCORE.INTRA.POLAR.0>
0

>  <SCORE.INTRA.REPUL>
0

>  <SCORE.INTRA.REPUL.0>
0

>  <SCORE.INTRA.SOLV>
2.03377

>  <SCORE.INTRA.SOLV.lig_0>
-49.456

>  <SCORE.INTRA.VDW>
-0.00141258

>  <SCORE.INTRA.VDW.0>
-0.478406

>  <SCORE.INTRA.norm>
-0.12903

>  <SCORE.RESTR>
0

>  <SCORE.RESTR.CAVITY>
0

>  <SCORE.RESTR.norm>
0

>  <SCORE.SYSTEM>
0

>  <SCORE.SYSTEM.CONST>
0

>  <SCORE.SYSTEM.DIHEDRAL>
0

>  <SCORE.SYSTEM.SOLV>
0

>  <SCORE.SYSTEM.norm>
0

>  <SCORE.heavy>
14

>  <SCORE.norm>
-0.417157

>  <RMSD>
5.806

$$$$
ligand
 OpenBabel11021811413D
libRbt.so/2013.1/901 2013/11/27
 14 13  0  0  0  0  0  0  0  0999 V2000
   40.3121    2.4225   23.2791 N   0  0  0  0  0  0  0  0  0  0  0  0
   40.5346    2.6037   21.8283 C   0  0  0  0  0  0  0  0  0  0  0  0
   41.4406    3.8227   21.5506 C   0  0  0  0  0  0  0  0  0  0  0  0
   40.8047    5.1820   21.8850 C   0  0  0  0  0  0  0  0  0  0  0  0
   41.7558    6.2965   21.6210 N   0  0  0  0  0  0  0  0  0  0  0  0
   41.1034    7.3429   20.7928 C   0  0  0  0  0  0  0  0  0  0  0  0
   42.0693    8.3855   20.1354 C   0  0  0  0  0  0  0  0  0  0  0  0
   41.3492    9.4671   19.2798 C   0  0  0  0  0  0  0  0  0  0  0  0
   42.2903   10.4502   18.6113 C   0  0  0  0  0  0  0  0  0  0  0  0
   41.4857   11.3540   17.8113 N   0  0  0  0  0  0  0  0  0  0  0  0
   42.4193   12.0703   16.9599 C   0  0  0  0  0  0  0  0  0  0  0  0
   42.8756   13.3736   17.6053 C   0  0  0  0  0  0  0  0  0  0  0  0
   43.8457   14.0596   16.6316 C   0  0  0  0  0  0  0  0  0  0  0  0
   45.0837   13.2880   16.4450 N   0  0  0  0  0  0  0  0  0  0  0  0
  1  2  1  0  0  0  0
  2  3  1  0  0  0  0
  3  4  1  0  0  0  0
  4  5  1  0  0  0  0
  5  6  1  0  0  0  0
  6  7  1  0  0  0  0
  7  8  1  0  0  0  0
  8  9  1  0  0  0  0
  9 10  1  0  0  0  0
 10 11  1  0  0  0  0
 11 12  1  0  0  0  0
 12 13  1  0  0  0  0
 13 14  1  0  0  0  0
M  END
>  <CHROM.1>
-67.99419990,178.54897228,129.67381799,-165.04676052,-179.82822043,-178.27403670
177.63490212,-167.31238726,-92.10950865,-179.59427690,-65.59446267,41.95491604
8.58000482,19.60251660,-1.81086697,0.21330517,-0.45288511

>  <Name>
ligand

>  <RI>
0

>  <Rbt.Current_Directory>
/home/itssahil/PROJECTS/Mol_Feturizer/New_Systems/rnas/1TN1

>  <Rbt.Executable>
rbdock ($Id: //depot/dev/client3/rdock/2013.1/src/exe/rbdock.cxx#4 $)

>  <Rbt.Library>
libRbt.so (2013.1, Build901 2013/11/27)

>  <Rbt.Parameter_File>
/export/apps/rDock/src/rDock_2013.1_src/data/scripts/dock_solv.prm

>  <Rbt.Receptor>
prm/pocket_docking_8.prm

>  <SCORE>
-5.83487

>  <SCORE.INTER>
-3.72059

>  <SCORE.INTER.CONST>
1

>  <SCORE.INTER.POLAR>
0

>  <SCORE.INTER.ROT>
11

>  <SCORE.INTER.SOLV>
11.608

>  <SCORE.INTER.VDW>
-17.283

>  <SCORE.INTER.norm>
-0.265757

>  <SCORE.INTRA>
-2.11428

>  <SCORE.INTRA.DIHEDRAL>
-5.30356

>  <SCORE.INTRA.DIHEDRAL.0>
7.79482

>  <SCORE.INTRA.POLAR>
0

>  <SCORE.INTRA.POLAR.0>
0

>  <SCORE.INTRA.REPUL>
0

>  <SCORE.INTRA.REPUL.0>
0

>  <SCORE.INTRA.SOLV>
1.52951

>  <SCORE.INTRA.SOLV.lig_0>
-49.456

>  <SCORE.INTRA.VDW>
-0.227254

>  <SCORE.INTRA.VDW.0>
-0.478406

>  <SCORE.INTRA.norm>
-0.15102

>  <SCORE.RESTR>
0

>  <SCORE.RESTR.CAVITY>
0

>  <SCORE.RESTR.norm>
0

>  <SCORE.SYSTEM>
0

>  <SCORE.SYSTEM.CONST>
0

>  <SCORE.SYSTEM.DIHEDRAL>
0

>  <SCORE.SYSTEM.SOLV>
0

>  <SCORE.SYSTEM.norm>
0

>  <SCORE.heavy>
14

>  <SCORE.norm>
-0.416777

>  <RMSD>
5.867

$$$$
ligand
 OpenBabel11021811413D
libRbt.so/2013.1/901 2013/11/27
 14 13  0  0  0  0  0  0  0  0999 V2000
   41.2494    9.9527   18.6832 N   0  0  0  0  0  0  0  0  0  0  0  0
   41.4614    9.2286   19.9552 C   0  0  0  0  0  0  0  0  0  0  0  0
   41.3578    7.7016   19.7520 C   0  0  0  0  0  0  0  0  0  0  0  0
   41.6436    6.8676   21.0117 C   0  0  0  0  0  0  0  0  0  0  0  0
   43.0353    7.0865   21.4931 N   0  0  0  0  0  0  0  0  0  0  0  0
   43.9583    6.1127   20.8554 C   0  0  0  0  0  0  0  0  0  0  0  0
   44.9739    6.7162   19.8276 C   0  0  0  0  0  0  0  0  0  0  0  0
   45.9459    7.7669   20.4372 C   0  0  0  0  0  0  0  0  0  0  0  0
   46.8204    8.4636   19.4131 C   0  0  0  0  0  0  0  0  0  0  0  0
   47.6144    7.4472   18.7492 N   0  0  0  0  0  0  0  0  0  0  0  0
   47.8691    7.9520   17.4113 C   0  0  0  0  0  0  0  0  0  0  0  0
   49.2736    8.5319   17.2919 C   0  0  0  0  0  0  0  0  0  0  0  0
   50.2673    7.3630   17.3717 C   0  0  0  0  0  0  0  0  0  0  0  0
   51.6598    7.8053   17.2043 N   0  0  0  0  0  0  0  0  0  0  0  0
  1  2  1  0  0  0  0
  2  3  1  0  0  0  0
  3  4  1  0  0  0  0
  4  5  1  0  0  0  0
  5  6  1  0  0  0  0
  6  7  1  0  0  0  0
  7  8  1  0  0  0  0
  8  9  1  0  0  0  0
  9 10  1  0  0  0  0
 10 11  1  0  0  0  0
 11 12  1  0  0  0  0
 12 13  1  0  0  0  0
 13 14  1  0  0  0  0
M  END
>  <CHROM.1>
176.74647927,-61.87064102,-89.69526101,110.85948310,60.99868476,-173.41251843
-60.15198238,150.78742779,101.17473576,69.57638558,177.37367231,45.50914638
7.78528995,19.24701128,2.92916622,-0.25081297,2.38632141

>  <Name>
ligand

>  <RI>
0

>  <Rbt.Current_Directory>
/home/itssahil/PROJECTS/Mol_Feturizer/New_Systems/rnas/1TN1

>  <Rbt.Executable>
rbdock ($Id: //depot/dev/client3/rdock/2013.1/src/exe/rbdock.cxx#4 $)

>  <Rbt.Library>
libRbt.so (2013.1, Build901 2013/11/27)

>  <Rbt.Parameter_File>
/export/apps/rDock/src/rDock_2013.1_src/data/scripts/dock_solv.prm

>  <Rbt.Receptor>
prm/pocket_docking_7.prm

>  <SCORE>
-7.36869

>  <SCORE.INTER>
-5.67759

>  <SCORE.INTER.CONST>
1

>  <SCORE.INTER.POLAR>
0

>  <SCORE.INTER.ROT>
11

>  <SCORE.INTER.SOLV>
19.7863

>  <SCORE.INTER.VDW>
-21.3138

>  <SCORE.INTER.norm>
-0.405542

>  <SCORE.INTRA>
-1.69111

>  <SCORE.INTRA.DIHEDRAL>
-3.96209

>  <SCORE.INTRA.DIHEDRAL.0>
7.79482

>  <SCORE.INTRA.POLAR>
0

>  <SCORE.INTRA.POLAR.0>
0

>  <SCORE.INTRA.REPUL>
0

>  <SCORE.INTRA.REPUL.0>
0

>  <SCORE.INTRA.SOLV>
1.3876

>  <SCORE.INTRA.SOLV.lig_0>
-49.456

>  <SCORE.INTRA.VDW>
-0.403861

>  <SCORE.INTRA.VDW.0>
-0.478406

>  <SCORE.INTRA.norm>
-0.120793

>  <SCORE.RESTR>
0

>  <SCORE.RESTR.CAVITY>
0

>  <SCORE.RESTR.norm>
0

>  <SCORE.SYSTEM>
0

>  <SCORE.SYSTEM.CONST>
0

>  <SCORE.SYSTEM.DIHEDRAL>
0

>  <SCORE.SYSTEM.SOLV>
0

>  <SCORE.SYSTEM.norm>
0

>  <SCORE.heavy>
14

>  <SCORE.norm>
-0.526335

>  <RMSD>
5.879

$$$$
ligand
 OpenBabel11021811413D
libRbt.so/2013.1/901 2013/11/27
 14 13  0  0  0  0  0  0  0  0999 V2000
   44.4541   12.4863   16.8421 N   0  0  0  0  0  0  0  0  0  0  0  0
   43.4515   11.4339   17.1149 C   0  0  0  0  0  0  0  0  0  0  0  0
   42.4079   11.9116   18.1476 C   0  0  0  0  0  0  0  0  0  0  0  0
   41.3196   10.8783   18.4824 C   0  0  0  0  0  0  0  0  0  0  0  0
   41.8767    9.7575   19.2885 N   0  0  0  0  0  0  0  0  0  0  0  0
   40.8157    8.7605   19.5836 C   0  0  0  0  0  0  0  0  0  0  0  0
   41.0629    7.8615   20.8417 C   0  0  0  0  0  0  0  0  0  0  0  0
   42.2405    6.8572   20.6833 C   0  0  0  0  0  0  0  0  0  0  0  0
   43.5828    7.5169   20.4343 C   0  0  0  0  0  0  0  0  0  0  0  0
   44.6112    6.5185   20.6575 N   0  0  0  0  0  0  0  0  0  0  0  0
   45.6198    6.7512   19.6385 C   0  0  0  0  0  0  0  0  0  0  0  0
   46.7524    7.6252   20.1642 C   0  0  0  0  0  0  0  0  0  0  0  0
   46.3436    9.0912   19.9552 C   0  0  0  0  0  0  0  0  0  0  0  0
   46.2315    9.4390   18.5308 N   0  0  0  0  0  0  0  0  0  0  0  0
  1  2  1  0  0  0  0
  2  3  1  0  0  0  0
  3  4  1  0  0  0  0
  4  5  1  0  0  0  0
  5  6  1  0  0  0  0
  6  7  1  0  0  0  0
  7  8  1  0  0  0  0
  8  9  1  0  0  0  0
  9 10  1  0  0  0  0
 10 11  1  0  0  0  0
 11 12  1  0  0  0  0
 12 13  1  0  0  0  0
 13 14  1  0  0  0  0
M  END
>  <CHROM.1>
179.59707948,71.23349694,-179.12852001,-156.65444743,-68.33292324,60.74640592
165.25272812,141.43237490,95.44837734,-86.95025049,-65.25770478,43.62617258
9.06328386,19.31194593,-1.98508294,-0.10899933,2.56861411

>  <Name>
ligand

>  <RI>
0

>  <Rbt.Current_Directory>
/home/itssahil/PROJECTS/Mol_Feturizer/New_Systems/rnas/1TN1

>  <Rbt.Executable>
rbdock ($Id: //depot/dev/client3/rdock/2013.1/src/exe/rbdock.cxx#4 $)

>  <Rbt.Library>
libRbt.so (2013.1, Build901 2013/11/27)

>  <Rbt.Parameter_File>
/export/apps/rDock/src/rDock_2013.1_src/data/scripts/dock_solv.prm

>  <Rbt.Receptor>
prm/pocket_docking_6.prm

>  <SCORE>
-9.46065

>  <SCORE.INTER>
-10.6214

>  <SCORE.INTER.CONST>
1

>  <SCORE.INTER.POLAR>
0

>  <SCORE.INTER.ROT>
11

>  <SCORE.INTER.SOLV>
12.1238

>  <SCORE.INTER.VDW>
-22.0555

>  <SCORE.INTER.norm>
-0.75867

>  <SCORE.INTRA>
1.16074

>  <SCORE.INTRA.DIHEDRAL>
-1.83683

>  <SCORE.INTRA.DIHEDRAL.0>
7.79482

>  <SCORE.INTRA.POLAR>
0

>  <SCORE.INTRA.POLAR.0>
0

>  <SCORE.INTRA.REPUL>
0

>  <SCORE.INTRA.REPUL.0>
0

>  <SCORE.INTRA.SOLV>
4.76304

>  <SCORE.INTRA.SOLV.lig_0>
-49.456

>  <SCORE.INTRA.VDW>
-0.302365

>  <SCORE.INTRA.VDW.0>
-0.478406

>  <SCORE.INTRA.norm>
0.0829097

>  <SCORE.RESTR>
0

>  <SCORE.RESTR.CAVITY>
0

>  <SCORE.RESTR.norm>
0

>  <SCORE.SYSTEM>
0

>  <SCORE.SYSTEM.CONST>
0

>  <SCORE.SYSTEM.DIHEDRAL>
0

>  <SCORE.SYSTEM.SOLV>
0

>  <SCORE.SYSTEM.norm>
0

>  <SCORE.heavy>
14

>  <SCORE.norm>
-0.67576

>  <RMSD>
5.897

$$$$
ligand
 OpenBabel11021811413D
libRbt.so/2013.1/901 2013/11/27
 14 13  0  0  0  0  0  0  0  0999 V2000
   47.6684    8.3623   18.5253 N   0  0  0  0  0  0  0  0  0  0  0  0
   46.4323    7.6231   18.8614 C   0  0  0  0  0  0  0  0  0  0  0  0
   46.1024    7.7422   20.3650 C   0  0  0  0  0  0  0  0  0  0  0  0
   44.7948    7.0537   20.7896 C   0  0  0  0  0  0  0  0  0  0  0  0
   43.6214    7.6716   20.1130 N   0  0  0  0  0  0  0  0  0  0  0  0
   42.3685    7.3062   20.8226 C   0  0  0  0  0  0  0  0  0  0  0  0
   41.0394    7.7191   20.1049 C   0  0  0  0  0  0  0  0  0  0  0  0
   40.8745    9.2534   19.9071 C   0  0  0  0  0  0  0  0  0  0  0  0
   41.8799    9.8621   18.9492 C   0  0  0  0  0  0  0  0  0  0  0  0
   41.5209   11.2551   18.7620 N   0  0  0  0  0  0  0  0  0  0  0  0
   42.1992   11.6816   17.5505 C   0  0  0  0  0  0  0  0  0  0  0  0
   41.7484   13.0722   17.1191 C   0  0  0  0  0  0  0  0  0  0  0  0
   42.2209   14.0670   18.1901 C   0  0  0  0  0  0  0  0  0  0  0  0
   43.6850   14.2031   18.2146 N   0  0  0  0  0  0  0  0  0  0  0  0
  1  2  1  0  0  0  0
  2  3  1  0  0  0  0
  3  4  1  0  0  0  0
  4  5  1  0  0  0  0
  5  6  1  0  0  0  0
  6  7  1  0  0  0  0
  7  8  1  0  0  0  0
  8  9  1  0  0  0  0
  9 10  1  0  0  0  0
 10 11  1  0  0  0  0
 11 12  1  0  0  0  0
 12 13  1  0  0  0  0
 13 14  1  0  0  0  0
M  END
>  <CHROM.1>
177.37089110,-62.52242606,-162.49041197,-171.69039982,-61.69734941,66.46118834
174.31572301,-161.96332341,171.66031646,66.17155110,68.11224152,43.29652715
9.77638636,19.16255628,-1.09148931,0.14317284,-0.41777542

>  <Name>
ligand

>  <RI>
0

>  <Rbt.Current_Directory>
/home/itssahil/PROJECTS/Mol_Feturizer/New_Systems/rnas/1TN1

>  <Rbt.Executable>
rbdock ($Id: //depot/dev/client3/rdock/2013.1/src/exe/rbdock.cxx#4 $)

>  <Rbt.Library>
libRbt.so (2013.1, Build901 2013/11/27)

>  <Rbt.Parameter_File>
/export/apps/rDock/src/rDock_2013.1_src/data/scripts/dock_solv.prm

>  <Rbt.Receptor>
prm/pocket_docking_6.prm

>  <SCORE>
-13.1057

>  <SCORE.INTER>
-10.9305

>  <SCORE.INTER.CONST>
1

>  <SCORE.INTER.POLAR>
0

>  <SCORE.INTER.ROT>
11

>  <SCORE.INTER.SOLV>
15.5647

>  <SCORE.INTER.VDW>
-23.4086

>  <SCORE.INTER.norm>
-0.780749

>  <SCORE.INTRA>
-2.17519

>  <SCORE.INTRA.DIHEDRAL>
-6.45544

>  <SCORE.INTRA.DIHEDRAL.0>
7.79482

>  <SCORE.INTRA.POLAR>
0

>  <SCORE.INTRA.POLAR.0>
0

>  <SCORE.INTRA.REPUL>
0

>  <SCORE.INTRA.REPUL.0>
0

>  <SCORE.INTRA.SOLV>
2.93881

>  <SCORE.INTRA.SOLV.lig_0>
-49.456

>  <SCORE.INTRA.VDW>
-0.416872

>  <SCORE.INTRA.VDW.0>
-0.478406

>  <SCORE.INTRA.norm>
-0.155371

>  <SCORE.RESTR>
0

>  <SCORE.RESTR.CAVITY>
0

>  <SCORE.RESTR.norm>
0

>  <SCORE.SYSTEM>
0

>  <SCORE.SYSTEM.CONST>
0

>  <SCORE.SYSTEM.DIHEDRAL>
0

>  <SCORE.SYSTEM.SOLV>
0

>  <SCORE.SYSTEM.norm>
0

>  <SCORE.heavy>
14

>  <SCORE.norm>
-0.93612

>  <RMSD>
5.898

$$$$
ligand
 OpenBabel11021811413D
libRbt.so/2013.1/901 2013/11/27
 14 13  0  0  0  0  0  0  0  0999 V2000
   41.9462    4.0695   22.3003 N   0  0  0  0  0  0  0  0  0  0  0  0
   42.8832    5.1561   21.9421 C   0  0  0  0  0  0  0  0  0  0  0  0
   44.2142    4.5899   21.4021 C   0  0  0  0  0  0  0  0  0  0  0  0
   45.2429    5.6558   20.9904 C   0  0  0  0  0  0  0  0  0  0  0  0
   44.6985    6.5399   19.9235 N   0  0  0  0  0  0  0  0  0  0  0  0
   45.2596    7.9091   20.0553 C   0  0  0  0  0  0  0  0  0  0  0  0
   46.7686    8.0624   19.6662 C   0  0  0  0  0  0  0  0  0  0  0  0
   47.0922    7.6481   18.2020 C   0  0  0  0  0  0  0  0  0  0  0  0
   48.5529    7.8045   17.8265 C   0  0  0  0  0  0  0  0  0  0  0  0
   48.7018    7.3698   16.4506 N   0  0  0  0  0  0  0  0  0  0  0  0
   50.1321    7.2823   16.2135 C   0  0  0  0  0  0  0  0  0  0  0  0
   50.4399    7.0528   14.7384 C   0  0  0  0  0  0  0  0  0  0  0  0
   49.9835    5.6293   14.3844 C   0  0  0  0  0  0  0  0  0  0  0  0
   48.5184    5.5102   14.3411 N   0  0  0  0  0  0  0  0  0  0  0  0
  1  2  1  0  0  0  0
  2  3  1  0  0  0  0
  3  4  1  0  0  0  0
  4  5  1  0  0  0  0
  5  6  1  0  0  0  0
  6  7  1  0  0  0  0
  7  8  1  0  0  0  0
  8  9  1  0  0  0  0
  9 10  1  0  0  0  0
 10 11  1  0  0  0  0
 11 12  1  0  0  0  0
 12 13  1  0  0  0  0
 13 14  1  0  0  0  0
M  END
>  <CHROM.1>
179.36906502,-59.41496901,148.13547390,71.71233650,58.77179642,179.70418257
179.38477683,-169.05076072,-170.79918125,-69.56146866,71.86459007,46.74561271
6.44878044,18.45982630,2.87125281,0.77207426,0.60533185

>  <Name>
ligand

>  <RI>
0

>  <Rbt.Current_Directory>
/home/itssahil/PROJECTS/Mol_Feturizer/New_Systems/rnas/1TN1

>  <Rbt.Executable>
rbdock ($Id: //depot/dev/client3/rdock/2013.1/src/exe/rbdock.cxx#4 $)

>  <Rbt.Library>
libRbt.so (2013.1, Build901 2013/11/27)

>  <Rbt.Parameter_File>
/export/apps/rDock/src/rDock_2013.1_src/data/scripts/dock_solv.prm

>  <Rbt.Receptor>
prm/pocket_docking_8.prm

>  <SCORE>
-3.95972

>  <SCORE.INTER>
-2.4097

>  <SCORE.INTER.CONST>
1

>  <SCORE.INTER.POLAR>
0

>  <SCORE.INTER.ROT>
11

>  <SCORE.INTER.SOLV>
10.0622

>  <SCORE.INTER.VDW>
-15.8939

>  <SCORE.INTER.norm>
-0.172121

>  <SCORE.INTRA>
-1.55003

>  <SCORE.INTRA.DIHEDRAL>
-5.99809

>  <SCORE.INTRA.DIHEDRAL.0>
7.79482

>  <SCORE.INTRA.POLAR>
0

>  <SCORE.INTRA.POLAR.0>
0

>  <SCORE.INTRA.REPUL>
0

>  <SCORE.INTRA.REPUL.0>
0

>  <SCORE.INTRA.SOLV>
3.6019

>  <SCORE.INTRA.SOLV.lig_0>
-49.456

>  <SCORE.INTRA.VDW>
-0.351927

>  <SCORE.INTRA.VDW.0>
-0.478406

>  <SCORE.INTRA.norm>
-0.110716

>  <SCORE.RESTR>
0

>  <SCORE.RESTR.CAVITY>
0

>  <SCORE.RESTR.norm>
0

>  <SCORE.SYSTEM>
0

>  <SCORE.SYSTEM.CONST>
0

>  <SCORE.SYSTEM.DIHEDRAL>
0

>  <SCORE.SYSTEM.SOLV>
0

>  <SCORE.SYSTEM.norm>
0

>  <SCORE.heavy>
14

>  <SCORE.norm>
-0.282837

>  <RMSD>
5.935

$$$$
ligand
 OpenBabel11021811413D
libRbt.so/2013.1/901 2013/11/27
 14 13  0  0  0  0  0  0  0  0999 V2000
   43.6776   16.1668   16.6144 N   0  0  0  0  0  0  0  0  0  0  0  0
   42.5579   15.2069   16.7235 C   0  0  0  0  0  0  0  0  0  0  0  0
   43.0476   13.8337   17.2318 C   0  0  0  0  0  0  0  0  0  0  0  0
   41.9496   12.7629   17.3405 C   0  0  0  0  0  0  0  0  0  0  0  0
   42.5038   11.4791   17.8516 N   0  0  0  0  0  0  0  0  0  0  0  0
   41.4674   10.7420   18.6192 C   0  0  0  0  0  0  0  0  0  0  0  0
   41.8900    9.3271   19.1405 C   0  0  0  0  0  0  0  0  0  0  0  0
   40.7642    8.5677   19.8997 C   0  0  0  0  0  0  0  0  0  0  0  0
   41.1497    7.1662   20.3309 C   0  0  0  0  0  0  0  0  0  0  0  0
   42.2460    7.2825   21.2738 N   0  0  0  0  0  0  0  0  0  0  0  0
   43.3696    6.5922   20.6649 C   0  0  0  0  0  0  0  0  0  0  0  0
   44.5314    7.5428   20.4007 C   0  0  0  0  0  0  0  0  0  0  0  0
   45.6328    6.7438   19.6877 C   0  0  0  0  0  0  0  0  0  0  0  0
   46.7843    7.5846   19.3273 N   0  0  0  0  0  0  0  0  0  0  0  0
  1  2  1  0  0  0  0
  2  3  1  0  0  0  0
  3  4  1  0  0  0  0
  4  5  1  0  0  0  0
  5  6  1  0  0  0  0
  6  7  1  0  0  0  0
  7  8  1  0  0  0  0
  8  9  1  0  0  0  0
  9 10  1  0  0  0  0
 10 11  1  0  0  0  0
 11 12  1  0  0  0  0
 12 13  1  0  0  0  0
 13 14  1  0  0  0  0
M  END
>  <CHROM.1>
-178.51141423,-179.33393059,149.70840767,176.32893975,-178.13446900,176.54810619
63.26919180,-118.24907460,117.48521780,-176.82726298,177.35952092,42.96906908
10.07106323,18.93625122,-1.67278065,-0.12318692,2.70582718

>  <Name>
ligand

>  <RI>
0

>  <Rbt.Current_Directory>
/home/itssahil/PROJECTS/Mol_Feturizer/New_Systems/rnas/1TN1

>  <Rbt.Executable>
rbdock ($Id: //depot/dev/client3/rdock/2013.1/src/exe/rbdock.cxx#4 $)

>  <Rbt.Library>
libRbt.so (2013.1, Build901 2013/11/27)

>  <Rbt.Parameter_File>
/export/apps/rDock/src/rDock_2013.1_src/data/scripts/dock_solv.prm

>  <Rbt.Receptor>
prm/pocket_docking_7.prm

>  <SCORE>
-11.6608

>  <SCORE.INTER>
-8.82348

>  <SCORE.INTER.CONST>
1

>  <SCORE.INTER.POLAR>
0

>  <SCORE.INTER.ROT>
11

>  <SCORE.INTER.SOLV>
13.7903

>  <SCORE.INTER.VDW>
-21.4124

>  <SCORE.INTER.norm>
-0.630248

>  <SCORE.INTRA>
-2.83736

>  <SCORE.INTRA.DIHEDRAL>
-4.60459

>  <SCORE.INTRA.DIHEDRAL.0>
7.79482

>  <SCORE.INTRA.POLAR>
0

>  <SCORE.INTRA.POLAR.0>
0

>  <SCORE.INTRA.REPUL>
0

>  <SCORE.INTRA.REPUL.0>
0

>  <SCORE.INTRA.SOLV>
0.328533

>  <SCORE.INTRA.SOLV.lig_0>
-49.456

>  <SCORE.INTRA.VDW>
-0.699333

>  <SCORE.INTRA.VDW.0>
-0.478406

>  <SCORE.INTRA.norm>
-0.202669

>  <SCORE.RESTR>
0

>  <SCORE.RESTR.CAVITY>
0

>  <SCORE.RESTR.norm>
0

>  <SCORE.SYSTEM>
0

>  <SCORE.SYSTEM.CONST>
0

>  <SCORE.SYSTEM.DIHEDRAL>
0

>  <SCORE.SYSTEM.SOLV>
0

>  <SCORE.SYSTEM.norm>
0

>  <SCORE.heavy>
14

>  <SCORE.norm>
-0.832917

>  <RMSD>
5.956

$$$$
ligand
 OpenBabel11021811413D
libRbt.so/2013.1/901 2013/11/27
 14 13  0  0  0  0  0  0  0  0999 V2000
   49.9741   -0.2591   12.5722 N   0  0  0  0  0  0  0  0  0  0  0  0
   49.0607   -0.6934   13.6512 C   0  0  0  0  0  0  0  0  0  0  0  0
   47.6946   -1.1340   13.0821 C   0  0  0  0  0  0  0  0  0  0  0  0
   46.6678   -1.5631   14.1431 C   0  0  0  0  0  0  0  0  0  0  0  0
   46.3328   -0.4316   15.0508 N   0  0  0  0  0  0  0  0  0  0  0  0
   45.6414   -0.9352   16.2654 C   0  0  0  0  0  0  0  0  0  0  0  0
   44.9640    0.1568   17.1602 C   0  0  0  0  0  0  0  0  0  0  0  0
   45.9662    1.1409   17.8292 C   0  0  0  0  0  0  0  0  0  0  0  0
   45.3035    2.2403   18.6361 C   0  0  0  0  0  0  0  0  0  0  0  0
   46.3458    3.1413   19.0902 N   0  0  0  0  0  0  0  0  0  0  0  0
   45.6970    4.4222   19.3093 C   0  0  0  0  0  0  0  0  0  0  0  0
   45.8597    4.8905   20.7506 C   0  0  0  0  0  0  0  0  0  0  0  0
   45.1607    6.2525   20.8785 C   0  0  0  0  0  0  0  0  0  0  0  0
   43.7037    6.1472   20.7089 N   0  0  0  0  0  0  0  0  0  0  0  0
  1  2  1  0  0  0  0
  2  3  1  0  0  0  0
  3  4  1  0  0  0  0
  4  5  1  0  0  0  0
  5  6  1  0  0  0  0
  6  7  1  0  0  0  0
  7  8  1  0  0  0  0
  8  9  1  0  0  0  0
  9 10  1  0  0  0  0
 10 11  1  0  0  0  0
 11 12  1  0  0  0  0
 12 13  1  0  0  0  0
 13 14  1  0  0  0  0
M  END
>  <CHROM.1>
-178.28728040,62.50258807,-164.88116688,-167.57811104,-65.67655202,176.97226084
-174.79453049,155.18811137,121.17301349,179.28526573,66.56142554,46.31217669
1.66945418,17.08065668,-1.19663555,0.58998536,0.61313524

>  <Name>
ligand

>  <RI>
0

>  <Rbt.Current_Directory>
/home/itssahil/PROJECTS/Mol_Feturizer/New_Systems/rnas/1TN1

>  <Rbt.Executable>
rbdock ($Id: //depot/dev/client3/rdock/2013.1/src/exe/rbdock.cxx#4 $)

>  <Rbt.Library>
libRbt.so (2013.1, Build901 2013/11/27)

>  <Rbt.Parameter_File>
/export/apps/rDock/src/rDock_2013.1_src/data/scripts/dock_solv.prm

>  <Rbt.Receptor>
prm/blind_docking_100.prm

>  <SCORE>
-7.61897

>  <SCORE.INTER>
-4.91617

>  <SCORE.INTER.CONST>
1

>  <SCORE.INTER.POLAR>
0

>  <SCORE.INTER.ROT>
11

>  <SCORE.INTER.SOLV>
12.5087

>  <SCORE.INTER.VDW>
-18.3804

>  <SCORE.INTER.norm>
-0.351155

>  <SCORE.INTRA>
-2.7028

>  <SCORE.INTRA.DIHEDRAL>
-5.39682

>  <SCORE.INTRA.DIHEDRAL.0>
7.79482

>  <SCORE.INTRA.POLAR>
0

>  <SCORE.INTRA.POLAR.0>
0

>  <SCORE.INTRA.REPUL>
0

>  <SCORE.INTRA.REPUL.0>
0

>  <SCORE.INTRA.SOLV>
1.37777

>  <SCORE.INTRA.SOLV.lig_0>
-49.456

>  <SCORE.INTRA.VDW>
-0.693278

>  <SCORE.INTRA.VDW.0>
-0.478406

>  <SCORE.INTRA.norm>
-0.193057

>  <SCORE.RESTR>
0

>  <SCORE.RESTR.CAVITY>
0

>  <SCORE.RESTR.norm>
0

>  <SCORE.SYSTEM>
0

>  <SCORE.SYSTEM.CONST>
0

>  <SCORE.SYSTEM.DIHEDRAL>
0

>  <SCORE.SYSTEM.SOLV>
0

>  <SCORE.SYSTEM.norm>
0

>  <SCORE.heavy>
14

>  <SCORE.norm>
-0.544212

>  <RMSD>
5.970

$$$$
ligand
 OpenBabel11021811413D
libRbt.so/2013.1/901 2013/11/27
 14 13  0  0  0  0  0  0  0  0999 V2000
   46.3024   10.3614   19.2021 N   0  0  0  0  0  0  0  0  0  0  0  0
   46.2524    9.1446   18.3630 C   0  0  0  0  0  0  0  0  0  0  0  0
   46.7869    7.9157   19.1299 C   0  0  0  0  0  0  0  0  0  0  0  0
   45.9178    7.4761   20.3196 C   0  0  0  0  0  0  0  0  0  0  0  0
   44.5633    7.0566   19.8658 N   0  0  0  0  0  0  0  0  0  0  0  0
   43.8172    6.4305   20.9874 C   0  0  0  0  0  0  0  0  0  0  0  0
   42.2622    6.3664   20.8133 C   0  0  0  0  0  0  0  0  0  0  0  0
   41.5630    7.7560   20.8341 C   0  0  0  0  0  0  0  0  0  0  0  0
   41.7827    8.5744   19.5768 C   0  0  0  0  0  0  0  0  0  0  0  0
   41.2840    9.9127   19.8309 N   0  0  0  0  0  0  0  0  0  0  0  0
   41.3136   10.5983   18.5507 C   0  0  0  0  0  0  0  0  0  0  0  0
   42.6879   11.1943   18.2690 C   0  0  0  0  0  0  0  0  0  0  0  0
   42.5766   12.0333   16.9869 C   0  0  0  0  0  0  0  0  0  0  0  0
   41.9472   13.3398   17.2309 N   0  0  0  0  0  0  0  0  0  0  0  0
  1  2  1  0  0  0  0
  2  3  1  0  0  0  0
  3  4  1  0  0  0  0
  4  5  1  0  0  0  0
  5  6  1  0  0  0  0
  6  7  1  0  0  0  0
  7  8  1  0  0  0  0
  8  9  1  0  0  0  0
  9 10  1  0  0  0  0
 10 11  1  0  0  0  0
 11 12  1  0  0  0  0
 12 13  1  0  0  0  0
 13 14  1  0  0  0  0
M  END
>  <CHROM.1>
66.72193523,62.53265108,170.80762251,160.85480811,-67.34862174,73.31114489
-170.07295032,-171.13219960,-84.75134381,-173.39096594,77.99853216,43.50407853
9.15387395,19.28298054,-1.10415716,0.13387492,-0.53892283

>  <Name>
ligand

>  <RI>
0

>  <Rbt.Current_Directory>
/home/itssahil/PROJECTS/Mol_Feturizer/New_Systems/rnas/1TN1

>  <Rbt.Executable>
rbdock ($Id: //depot/dev/client3/rdock/2013.1/src/exe/rbdock.cxx#4 $)

>  <Rbt.Library>
libRbt.so (2013.1, Build901 2013/11/27)

>  <Rbt.Parameter_File>
/export/apps/rDock/src/rDock_2013.1_src/data/scripts/dock_solv.prm

>  <Rbt.Receptor>
prm/pocket_docking_6.prm

>  <SCORE>
-10.1077

>  <SCORE.INTER>
-9.26034

>  <SCORE.INTER.CONST>
1

>  <SCORE.INTER.POLAR>
0

>  <SCORE.INTER.ROT>
11

>  <SCORE.INTER.SOLV>
17.8048

>  <SCORE.INTER.VDW>
-23.0418

>  <SCORE.INTER.norm>
-0.661453

>  <SCORE.INTRA>
-0.847399

>  <SCORE.INTRA.DIHEDRAL>
-4.17439

>  <SCORE.INTRA.DIHEDRAL.0>
7.79482

>  <SCORE.INTRA.POLAR>
0

>  <SCORE.INTRA.POLAR.0>
0

>  <SCORE.INTRA.REPUL>
0

>  <SCORE.INTRA.REPUL.0>
0

>  <SCORE.INTRA.SOLV>
3.80806

>  <SCORE.INTRA.SOLV.lig_0>
-49.456

>  <SCORE.INTRA.VDW>
-0.664237

>  <SCORE.INTRA.VDW.0>
-0.478406

>  <SCORE.INTRA.norm>
-0.0605285

>  <SCORE.RESTR>
0

>  <SCORE.RESTR.CAVITY>
0

>  <SCORE.RESTR.norm>
0

>  <SCORE.SYSTEM>
0

>  <SCORE.SYSTEM.CONST>
0

>  <SCORE.SYSTEM.DIHEDRAL>
0

>  <SCORE.SYSTEM.SOLV>
0

>  <SCORE.SYSTEM.norm>
0

>  <SCORE.heavy>
14

>  <SCORE.norm>
-0.721981

>  <RMSD>
5.974

$$$$
ligand
 OpenBabel11021811413D
libRbt.so/2013.1/901 2013/11/27
 14 13  0  0  0  0  0  0  0  0999 V2000
   43.7590    4.7621   20.6448 N   0  0  0  0  0  0  0  0  0  0  0  0
   43.3986    5.5125   21.8672 C   0  0  0  0  0  0  0  0  0  0  0  0
   41.8755    5.4735   22.1172 C   0  0  0  0  0  0  0  0  0  0  0  0
   41.0353    6.2177   21.0663 C   0  0  0  0  0  0  0  0  0  0  0  0
   41.3153    7.6796   21.0958 N   0  0  0  0  0  0  0  0  0  0  0  0
   40.4760    8.3834   20.0923 C   0  0  0  0  0  0  0  0  0  0  0  0
   41.0423    9.7484   19.5743 C   0  0  0  0  0  0  0  0  0  0  0  0
   42.4128    9.6324   18.8472 C   0  0  0  0  0  0  0  0  0  0  0  0
   43.5232    9.0698   19.7128 C   0  0  0  0  0  0  0  0  0  0  0  0
   44.6972    8.9138   18.8750 N   0  0  0  0  0  0  0  0  0  0  0  0
   45.7487    8.4260   19.7502 C   0  0  0  0  0  0  0  0  0  0  0  0
   46.8686    7.7601   18.9591 C   0  0  0  0  0  0  0  0  0  0  0  0
   47.5100    8.8342   18.0676 C   0  0  0  0  0  0  0  0  0  0  0  0
   48.5698    8.2836   17.2095 N   0  0  0  0  0  0  0  0  0  0  0  0
  1  2  1  0  0  0  0
  2  3  1  0  0  0  0
  3  4  1  0  0  0  0
  4  5  1  0  0  0  0
  5  6  1  0  0  0  0
  6  7  1  0  0  0  0
  7  8  1  0  0  0  0
  8  9  1  0  0  0  0
  9 10  1  0  0  0  0
 10 11  1  0  0  0  0
 11 12  1  0  0  0  0
 12 13  1  0  0  0  0
 13 14  1  0  0  0  0
M  END
>  <CHROM.1>
-66.60931244,-65.16046121,-178.92566164,-155.17570254,61.43107141,-60.30978828
175.16805589,177.75539346,159.99370987,63.70702572,-177.37032669,43.73052131
7.76422848,19.84869755,-2.72770784,0.27969292,-0.52400247

>  <Name>
ligand

>  <RI>
0

>  <Rbt.Current_Directory>
/home/itssahil/PROJECTS/Mol_Feturizer/New_Systems/rnas/1TN1

>  <Rbt.Executable>
rbdock ($Id: //depot/dev/client3/rdock/2013.1/src/exe/rbdock.cxx#4 $)

>  <Rbt.Library>
libRbt.so (2013.1, Build901 2013/11/27)

>  <Rbt.Parameter_File>
/export/apps/rDock/src/rDock_2013.1_src/data/scripts/dock_solv.prm

>  <Rbt.Receptor>
prm/pocket_docking_8.prm

>  <SCORE>
-11.8063

>  <SCORE.INTER>
-9.55441

>  <SCORE.INTER.CONST>
1

>  <SCORE.INTER.POLAR>
0

>  <SCORE.INTER.ROT>
11

>  <SCORE.INTER.SOLV>
14.0611

>  <SCORE.INTER.VDW>
-21.99

>  <SCORE.INTER.norm>
-0.682458

>  <SCORE.INTRA>
-2.2519

>  <SCORE.INTRA.DIHEDRAL>
-6.61245

>  <SCORE.INTRA.DIHEDRAL.0>
7.79482

>  <SCORE.INTRA.POLAR>
0

>  <SCORE.INTRA.POLAR.0>
0

>  <SCORE.INTRA.REPUL>
0

>  <SCORE.INTRA.REPUL.0>
0

>  <SCORE.INTRA.SOLV>
3.67041

>  <SCORE.INTRA.SOLV.lig_0>
-49.456

>  <SCORE.INTRA.VDW>
-0.78088

>  <SCORE.INTRA.VDW.0>
-0.478406

>  <SCORE.INTRA.norm>
-0.16085

>  <SCORE.RESTR>
0

>  <SCORE.RESTR.CAVITY>
0

>  <SCORE.RESTR.norm>
0

>  <SCORE.SYSTEM>
0

>  <SCORE.SYSTEM.CONST>
0

>  <SCORE.SYSTEM.DIHEDRAL>
0

>  <SCORE.SYSTEM.SOLV>
0

>  <SCORE.SYSTEM.norm>
0

>  <SCORE.heavy>
14

>  <SCORE.norm>
-0.843308

>  <RMSD>
5.980

$$$$
ligand
 OpenBabel11021811413D
libRbt.so/2013.1/901 2013/11/27
 14 13  0  0  0  0  0  0  0  0999 V2000
   48.0892    7.2273   14.4695 N   0  0  0  0  0  0  0  0  0  0  0  0
   47.3899    7.1622   13.1680 C   0  0  0  0  0  0  0  0  0  0  0  0
   46.2620    6.1080   13.1928 C   0  0  0  0  0  0  0  0  0  0  0  0
   46.7478    4.6538   13.3091 C   0  0  0  0  0  0  0  0  0  0  0  0
   47.4959    4.4403   14.5784 N   0  0  0  0  0  0  0  0  0  0  0  0
   46.5600    4.0643   15.6690 C   0  0  0  0  0  0  0  0  0  0  0  0
   46.9894    2.8319   16.5344 C   0  0  0  0  0  0  0  0  0  0  0  0
   46.0841    2.5801   17.7743 C   0  0  0  0  0  0  0  0  0  0  0  0
   46.0562    3.7318   18.7601 C   0  0  0  0  0  0  0  0  0  0  0  0
   45.0947    3.4013   19.7948 N   0  0  0  0  0  0  0  0  0  0  0  0
   44.6593    4.6695   20.3532 C   0  0  0  0  0  0  0  0  0  0  0  0
   43.8192    4.4670   21.6088 C   0  0  0  0  0  0  0  0  0  0  0  0
   43.2362    5.8325   22.0032 C   0  0  0  0  0  0  0  0  0  0  0  0
   42.2028    6.2882   21.0614 N   0  0  0  0  0  0  0  0  0  0  0  0
  1  2  1  0  0  0  0
  2  3  1  0  0  0  0
  3  4  1  0  0  0  0
  4  5  1  0  0  0  0
  5  6  1  0  0  0  0
  6  7  1  0  0  0  0
  7  8  1  0  0  0  0
  8  9  1  0  0  0  0
  9 10  1  0  0  0  0
 10 11  1  0  0  0  0
 11 12  1  0  0  0  0
 12 13  1  0  0  0  0
 13 14  1  0  0  0  0
M  END
>  <CHROM.1>
-67.47564803,61.50566210,88.15802065,132.57180905,172.54722904,-60.62345801
175.33769416,-155.74877967,-170.55009164,-171.73933997,70.42409780,45.76334933
4.81823422,17.30543559,0.64026165,1.00595640,-0.62047763

>  <Name>
ligand

>  <RI>
0

>  <Rbt.Current_Directory>
/home/itssahil/PROJECTS/Mol_Feturizer/New_Systems/rnas/1TN1

>  <Rbt.Executable>
rbdock ($Id: //depot/dev/client3/rdock/2013.1/src/exe/rbdock.cxx#4 $)

>  <Rbt.Library>
libRbt.so (2013.1, Build901 2013/11/27)

>  <Rbt.Parameter_File>
/export/apps/rDock/src/rDock_2013.1_src/data/scripts/dock_solv.prm

>  <Rbt.Receptor>
prm/blind_docking_60.prm

>  <SCORE>
-4.15919

>  <SCORE.INTER>
-3.83821

>  <SCORE.INTER.CONST>
1

>  <SCORE.INTER.POLAR>
0

>  <SCORE.INTER.ROT>
11

>  <SCORE.INTER.SOLV>
12.7883

>  <SCORE.INTER.VDW>
-17.7549

>  <SCORE.INTER.norm>
-0.274158

>  <SCORE.INTRA>
-0.322639

>  <SCORE.INTRA.DIHEDRAL>
-4.52045

>  <SCORE.INTRA.DIHEDRAL.0>
7.79482

>  <SCORE.INTRA.POLAR>
0

>  <SCORE.INTRA.POLAR.0>
0

>  <SCORE.INTRA.REPUL>
0

>  <SCORE.INTRA.REPUL.0>
0

>  <SCORE.INTRA.SOLV>
4.21263

>  <SCORE.INTRA.SOLV.lig_0>
-49.456

>  <SCORE.INTRA.VDW>
-0.168733

>  <SCORE.INTRA.VDW.0>
-0.478406

>  <SCORE.INTRA.norm>
-0.0230457

>  <SCORE.RESTR>
0.00166185

>  <SCORE.RESTR.CAVITY>
0.00166185

>  <SCORE.RESTR.norm>
0.000118704

>  <SCORE.SYSTEM>
0

>  <SCORE.SYSTEM.CONST>
0

>  <SCORE.SYSTEM.DIHEDRAL>
0

>  <SCORE.SYSTEM.SOLV>
0

>  <SCORE.SYSTEM.norm>
0

>  <SCORE.heavy>
14

>  <SCORE.norm>
-0.297085

>  <RMSD>
6.004

$$$$
ligand
 OpenBabel11021811413D
libRbt.so/2013.1/901 2013/11/27
 14 13  0  0  0  0  0  0  0  0999 V2000
   44.3974    5.2409   21.1617 N   0  0  0  0  0  0  0  0  0  0  0  0
   44.5538    6.6748   20.8352 C   0  0  0  0  0  0  0  0  0  0  0  0
   43.3014    7.2236   20.1180 C   0  0  0  0  0  0  0  0  0  0  0  0
   42.0150    7.1875   20.9593 C   0  0  0  0  0  0  0  0  0  0  0  0
   40.8513    7.6891   20.1779 N   0  0  0  0  0  0  0  0  0  0  0  0
   40.9031    9.1700   20.0731 C   0  0  0  0  0  0  0  0  0  0  0  0
   41.6038    9.7336   18.7911 C   0  0  0  0  0  0  0  0  0  0  0  0
   41.6766   11.2867   18.7378 C   0  0  0  0  0  0  0  0  0  0  0  0
   42.1450   11.8356   17.4043 C   0  0  0  0  0  0  0  0  0  0  0  0
   43.5239   11.4246   17.2199 N   0  0  0  0  0  0  0  0  0  0  0  0
   43.8000   11.5820   15.8026 C   0  0  0  0  0  0  0  0  0  0  0  0
   45.2870   11.4308   15.5040 C   0  0  0  0  0  0  0  0  0  0  0  0
   45.6869    9.9892   15.8530 C   0  0  0  0  0  0  0  0  0  0  0  0
   47.1267    9.7522   15.6698 N   0  0  0  0  0  0  0  0  0  0  0  0
  1  2  1  0  0  0  0
  2  3  1  0  0  0  0
  3  4  1  0  0  0  0
  4  5  1  0  0  0  0
  5  6  1  0  0  0  0
  6  7  1  0  0  0  0
  7  8  1  0  0  0  0
  8  9  1  0  0  0  0
  9 10  1  0  0  0  0
 10 11  1  0  0  0  0
 11 12  1  0  0  0  0
 12 13  1  0  0  0  0
 13 14  1  0  0  0  0
M  END
>  <CHROM.1>
63.18572197,-178.03301218,-75.77287834,93.50961056,-178.25294721,-170.49955324
-65.79962683,162.29409522,169.51840010,64.30903799,-176.92679435,43.34774016
9.30178763,18.45050824,-1.93073479,0.44636728,-0.68945480

>  <Name>
ligand

>  <RI>
0

>  <Rbt.Current_Directory>
/home/itssahil/PROJECTS/Mol_Feturizer/New_Systems/rnas/1TN1

>  <Rbt.Executable>
rbdock ($Id: //depot/dev/client3/rdock/2013.1/src/exe/rbdock.cxx#4 $)

>  <Rbt.Library>
libRbt.so (2013.1, Build901 2013/11/27)

>  <Rbt.Parameter_File>
/export/apps/rDock/src/rDock_2013.1_src/data/scripts/dock_solv.prm

>  <Rbt.Receptor>
prm/pocket_docking_8.prm

>  <SCORE>
-11.4918

>  <SCORE.INTER>
-9.36926

>  <SCORE.INTER.CONST>
1

>  <SCORE.INTER.POLAR>
0

>  <SCORE.INTER.ROT>
11

>  <SCORE.INTER.SOLV>
14.2169

>  <SCORE.INTER.VDW>
-21.9185

>  <SCORE.INTER.norm>
-0.669233

>  <SCORE.INTRA>
-2.12252

>  <SCORE.INTRA.DIHEDRAL>
-5.89671

>  <SCORE.INTRA.DIHEDRAL.0>
7.79482

>  <SCORE.INTRA.POLAR>
0

>  <SCORE.INTRA.POLAR.0>
0

>  <SCORE.INTRA.REPUL>
0

>  <SCORE.INTRA.REPUL.0>
0

>  <SCORE.INTRA.SOLV>
1.45227

>  <SCORE.INTRA.SOLV.lig_0>
-49.456

>  <SCORE.INTRA.VDW>
0.0997005

>  <SCORE.INTRA.VDW.0>
-0.478406

>  <SCORE.INTRA.norm>
-0.151609

>  <SCORE.RESTR>
0

>  <SCORE.RESTR.CAVITY>
0

>  <SCORE.RESTR.norm>
0

>  <SCORE.SYSTEM>
0

>  <SCORE.SYSTEM.CONST>
0

>  <SCORE.SYSTEM.DIHEDRAL>
0

>  <SCORE.SYSTEM.SOLV>
0

>  <SCORE.SYSTEM.norm>
0

>  <SCORE.heavy>
14

>  <SCORE.norm>
-0.820842

>  <RMSD>
6.065

$$$$
ligand
 OpenBabel11021811413D
libRbt.so/2013.1/901 2013/11/27
 14 13  0  0  0  0  0  0  0  0999 V2000
   46.3921   -3.3469   11.0072 N   0  0  0  0  0  0  0  0  0  0  0  0
   47.1413   -2.9416   12.2162 C   0  0  0  0  0  0  0  0  0  0  0  0
   46.3713   -1.8688   13.0163 C   0  0  0  0  0  0  0  0  0  0  0  0
   47.0718   -1.4056   14.3042 C   0  0  0  0  0  0  0  0  0  0  0  0
   46.2637   -0.3739   15.0107 N   0  0  0  0  0  0  0  0  0  0  0  0
   45.6314   -0.9576   16.2215 C   0  0  0  0  0  0  0  0  0  0  0  0
   44.9520    0.0674   17.1911 C   0  0  0  0  0  0  0  0  0  0  0  0
   45.9427    1.0672   17.8539 C   0  0  0  0  0  0  0  0  0  0  0  0
   45.2679    2.1551   18.6663 C   0  0  0  0  0  0  0  0  0  0  0  0
   46.3076    3.0165   19.1966 N   0  0  0  0  0  0  0  0  0  0  0  0
   45.6958    4.3233   19.3624 C   0  0  0  0  0  0  0  0  0  0  0  0
   45.9870    4.9046   20.7410 C   0  0  0  0  0  0  0  0  0  0  0  0
   45.3198    6.2865   20.8131 C   0  0  0  0  0  0  0  0  0  0  0  0
   43.8546    6.2015   20.7204 N   0  0  0  0  0  0  0  0  0  0  0  0
  1  2  1  0  0  0  0
  2  3  1  0  0  0  0
  3  4  1  0  0  0  0
  4  5  1  0  0  0  0
  5  6  1  0  0  0  0
  6  7  1  0  0  0  0
  7  8  1  0  0  0  0
  8  9  1  0  0  0  0
  9 10  1  0  0  0  0
 10 11  1  0  0  0  0
 11 12  1  0  0  0  0
 12 13  1  0  0  0  0
 13 14  1  0  0  0  0
M  END
>  <CHROM.1>
179.09878223,179.97062819,106.33965469,170.05539475,-64.63424243,173.40992666
-178.95286095,152.26163309,131.56094100,179.20920517,64.22865239,45.87141241
1.22336354,16.88021957,-1.16732228,1.24400768,0.40424620

>  <Name>
ligand

>  <RI>
0

>  <Rbt.Current_Directory>
/home/itssahil/PROJECTS/Mol_Feturizer/New_Systems/rnas/1TN1

>  <Rbt.Executable>
rbdock ($Id: //depot/dev/client3/rdock/2013.1/src/exe/rbdock.cxx#4 $)

>  <Rbt.Library>
libRbt.so (2013.1, Build901 2013/11/27)

>  <Rbt.Parameter_File>
/export/apps/rDock/src/rDock_2013.1_src/data/scripts/dock_solv.prm

>  <Rbt.Receptor>
prm/blind_docking_100.prm

>  <SCORE>
-6.89652

>  <SCORE.INTER>
-4.51057

>  <SCORE.INTER.CONST>
1

>  <SCORE.INTER.POLAR>
0

>  <SCORE.INTER.ROT>
11

>  <SCORE.INTER.SOLV>
12.198

>  <SCORE.INTER.VDW>
-18.0064

>  <SCORE.INTER.norm>
-0.322183

>  <SCORE.INTRA>
-2.38595

>  <SCORE.INTRA.DIHEDRAL>
-4.70166

>  <SCORE.INTRA.DIHEDRAL.0>
7.79482

>  <SCORE.INTRA.POLAR>
0

>  <SCORE.INTRA.POLAR.0>
0

>  <SCORE.INTRA.REPUL>
0

>  <SCORE.INTRA.REPUL.0>
0

>  <SCORE.INTRA.SOLV>
1.11511

>  <SCORE.INTRA.SOLV.lig_0>
-49.456

>  <SCORE.INTRA.VDW>
-0.592676

>  <SCORE.INTRA.VDW.0>
-0.478406

>  <SCORE.INTRA.norm>
-0.170425

>  <SCORE.RESTR>
0

>  <SCORE.RESTR.CAVITY>
0

>  <SCORE.RESTR.norm>
0

>  <SCORE.SYSTEM>
0

>  <SCORE.SYSTEM.CONST>
0

>  <SCORE.SYSTEM.DIHEDRAL>
0

>  <SCORE.SYSTEM.SOLV>
0

>  <SCORE.SYSTEM.norm>
0

>  <SCORE.heavy>
14

>  <SCORE.norm>
-0.492608

>  <RMSD>
6.086

$$$$
ligand
 OpenBabel11021811413D
libRbt.so/2013.1/901 2013/11/27
 14 13  0  0  0  0  0  0  0  0999 V2000
   42.7539    9.1624   19.0767 N   0  0  0  0  0  0  0  0  0  0  0  0
   41.4167    9.5725   19.5573 C   0  0  0  0  0  0  0  0  0  0  0  0
   40.5308    8.3441   19.8577 C   0  0  0  0  0  0  0  0  0  0  0  0
   41.0428    7.4495   20.9985 C   0  0  0  0  0  0  0  0  0  0  0  0
   42.3043    6.7598   20.6118 N   0  0  0  0  0  0  0  0  0  0  0  0
   42.6431    5.7122   21.6089 C   0  0  0  0  0  0  0  0  0  0  0  0
   43.8025    4.7410   21.2028 C   0  0  0  0  0  0  0  0  0  0  0  0
   45.2051    5.4122   21.1532 C   0  0  0  0  0  0  0  0  0  0  0  0
   45.3372    6.4844   20.0894 C   0  0  0  0  0  0  0  0  0  0  0  0
   46.6415    7.0999   20.2454 N   0  0  0  0  0  0  0  0  0  0  0  0
   46.8515    7.8963   19.0490 C   0  0  0  0  0  0  0  0  0  0  0  0
   46.4963    9.3598   19.2838 C   0  0  0  0  0  0  0  0  0  0  0  0
   46.7461   10.1153   17.9697 C   0  0  0  0  0  0  0  0  0  0  0  0
   46.4382   11.5486   18.0857 N   0  0  0  0  0  0  0  0  0  0  0  0
  1  2  1  0  0  0  0
  2  3  1  0  0  0  0
  3  4  1  0  0  0  0
  4  5  1  0  0  0  0
  5  6  1  0  0  0  0
  6  7  1  0  0  0  0
  7  8  1  0  0  0  0
  8  9  1  0  0  0  0
  9 10  1  0  0  0  0
 10 11  1  0  0  0  0
 11 12  1  0  0  0  0
 12 13  1  0  0  0  0
 13 14  1  0  0  0  0
M  END
>  <CHROM.1>
63.99840426,-68.02996438,-169.19702792,169.70998882,68.89697649,-64.60575397
174.73993320,167.63474786,97.32841096,-179.85354343,-179.77462307,44.15770198
7.83239792,19.91372734,2.47394292,-0.13118749,2.67358440

>  <Name>
ligand

>  <RI>
0

>  <Rbt.Current_Directory>
/home/itssahil/PROJECTS/Mol_Feturizer/New_Systems/rnas/1TN1

>  <Rbt.Executable>
rbdock ($Id: //depot/dev/client3/rdock/2013.1/src/exe/rbdock.cxx#4 $)

>  <Rbt.Library>
libRbt.so (2013.1, Build901 2013/11/27)

>  <Rbt.Parameter_File>
/export/apps/rDock/src/rDock_2013.1_src/data/scripts/dock_solv.prm

>  <Rbt.Receptor>
prm/blind_docking_60.prm

>  <SCORE>
-11.0052

>  <SCORE.INTER>
-9.92737

>  <SCORE.INTER.CONST>
1

>  <SCORE.INTER.POLAR>
0

>  <SCORE.INTER.ROT>
11

>  <SCORE.INTER.SOLV>
16.2491

>  <SCORE.INTER.VDW>
-22.9679

>  <SCORE.INTER.norm>
-0.709098

>  <SCORE.INTRA>
-1.07782

>  <SCORE.INTRA.DIHEDRAL>
-5.88274

>  <SCORE.INTRA.DIHEDRAL.0>
7.79482

>  <SCORE.INTRA.POLAR>
0

>  <SCORE.INTRA.POLAR.0>
0

>  <SCORE.INTRA.REPUL>
0

>  <SCORE.INTRA.REPUL.0>
0

>  <SCORE.INTRA.SOLV>
5.45631

>  <SCORE.INTRA.SOLV.lig_0>
-49.456

>  <SCORE.INTRA.VDW>
-0.864605

>  <SCORE.INTRA.VDW.0>
-0.478406

>  <SCORE.INTRA.norm>
-0.0769871

>  <SCORE.RESTR>
0

>  <SCORE.RESTR.CAVITY>
0

>  <SCORE.RESTR.norm>
0

>  <SCORE.SYSTEM>
0

>  <SCORE.SYSTEM.CONST>
0

>  <SCORE.SYSTEM.DIHEDRAL>
0

>  <SCORE.SYSTEM.SOLV>
0

>  <SCORE.SYSTEM.norm>
0

>  <SCORE.heavy>
14

>  <SCORE.norm>
-0.786085

>  <RMSD>
6.127

$$$$
ligand
 OpenBabel11021811413D
libRbt.so/2013.1/901 2013/11/27
 14 13  0  0  0  0  0  0  0  0999 V2000
   46.5313    9.7330   18.3723 N   0  0  0  0  0  0  0  0  0  0  0  0
   45.5507    9.2651   19.3756 C   0  0  0  0  0  0  0  0  0  0  0  0
   45.8183    7.7980   19.7755 C   0  0  0  0  0  0  0  0  0  0  0  0
   44.7510    7.1802   20.6938 C   0  0  0  0  0  0  0  0  0  0  0  0
   43.4288    7.1212   20.0122 N   0  0  0  0  0  0  0  0  0  0  0  0
   42.3570    6.8207   20.9959 C   0  0  0  0  0  0  0  0  0  0  0  0
   40.9055    7.2091   20.5549 C   0  0  0  0  0  0  0  0  0  0  0  0
   40.6901    8.7367   20.3542 C   0  0  0  0  0  0  0  0  0  0  0  0
   41.5010    9.3287   19.2181 C   0  0  0  0  0  0  0  0  0  0  0  0
   41.2269   10.7526   19.1779 N   0  0  0  0  0  0  0  0  0  0  0  0
   42.0695   11.2906   18.1242 C   0  0  0  0  0  0  0  0  0  0  0  0
   42.2329   12.8002   18.2568 C   0  0  0  0  0  0  0  0  0  0  0  0
   43.1476   13.2707   17.1158 C   0  0  0  0  0  0  0  0  0  0  0  0
   43.3669   14.7246   17.1432 N   0  0  0  0  0  0  0  0  0  0  0  0
  1  2  1  0  0  0  0
  2  3  1  0  0  0  0
  3  4  1  0  0  0  0
  4  5  1  0  0  0  0
  5  6  1  0  0  0  0
  6  7  1  0  0  0  0
  7  8  1  0  0  0  0
  8  9  1  0  0  0  0
  9 10  1  0  0  0  0
 10 11  1  0  0  0  0
 11 12  1  0  0  0  0
 12 13  1  0  0  0  0
 13 14  1  0  0  0  0
M  END
>  <CHROM.1>
-173.37920120,63.07922871,-167.04753377,159.56409887,-64.02672998,64.91947289
-178.41790414,177.25386234,-161.59822402,179.31876235,179.61837736,43.11247643
9.71618145,19.22669161,-1.62877394,-0.12777014,2.68952107

>  <Name>
ligand

>  <RI>
0

>  <Rbt.Current_Directory>
/home/itssahil/PROJECTS/Mol_Feturizer/New_Systems/rnas/1TN1

>  <Rbt.Executable>
rbdock ($Id: //depot/dev/client3/rdock/2013.1/src/exe/rbdock.cxx#4 $)

>  <Rbt.Library>
libRbt.so (2013.1, Build901 2013/11/27)

>  <Rbt.Parameter_File>
/export/apps/rDock/src/rDock_2013.1_src/data/scripts/dock_solv.prm

>  <Rbt.Receptor>
prm/pocket_docking_7.prm

>  <SCORE>
-14.1683

>  <SCORE.INTER>
-10.3665

>  <SCORE.INTER.CONST>
1

>  <SCORE.INTER.POLAR>
0

>  <SCORE.INTER.ROT>
11

>  <SCORE.INTER.SOLV>
12.9368

>  <SCORE.INTER.VDW>
-22.1566

>  <SCORE.INTER.norm>
-0.740461

>  <SCORE.INTRA>
-3.80182

>  <SCORE.INTRA.DIHEDRAL>
-6.71247

>  <SCORE.INTRA.DIHEDRAL.0>
7.79482

>  <SCORE.INTRA.POLAR>
0

>  <SCORE.INTRA.POLAR.0>
0

>  <SCORE.INTRA.REPUL>
0

>  <SCORE.INTRA.REPUL.0>
0

>  <SCORE.INTRA.SOLV>
1.36748

>  <SCORE.INTRA.SOLV.lig_0>
-49.456

>  <SCORE.INTRA.VDW>
-1.12932

>  <SCORE.INTRA.VDW.0>
-0.478406

>  <SCORE.INTRA.norm>
-0.271558

>  <SCORE.RESTR>
0

>  <SCORE.RESTR.CAVITY>
0

>  <SCORE.RESTR.norm>
0

>  <SCORE.SYSTEM>
0

>  <SCORE.SYSTEM.CONST>
0

>  <SCORE.SYSTEM.DIHEDRAL>
0

>  <SCORE.SYSTEM.SOLV>
0

>  <SCORE.SYSTEM.norm>
0

>  <SCORE.heavy>
14

>  <SCORE.norm>
-1.01202

>  <RMSD>
6.194

$$$$
ligand
 OpenBabel11021811413D
libRbt.so/2013.1/901 2013/11/27
 14 13  0  0  0  0  0  0  0  0999 V2000
   43.8340   -4.0101   11.8067 N   0  0  0  0  0  0  0  0  0  0  0  0
   44.5524   -3.8233   13.0858 C   0  0  0  0  0  0  0  0  0  0  0  0
   44.2311   -2.4484   13.7106 C   0  0  0  0  0  0  0  0  0  0  0  0
   45.0973   -2.0798   14.9262 C   0  0  0  0  0  0  0  0  0  0  0  0
   44.7502   -0.7258   15.4389 N   0  0  0  0  0  0  0  0  0  0  0  0
   45.6291   -0.3689   16.5821 C   0  0  0  0  0  0  0  0  0  0  0  0
   45.1022    0.7786   17.5082 C   0  0  0  0  0  0  0  0  0  0  0  0
   44.7391    2.0889   16.7521 C   0  0  0  0  0  0  0  0  0  0  0  0
   45.9222    2.7622   16.0844 C   0  0  0  0  0  0  0  0  0  0  0  0
   45.4289    3.9456   15.4058 N   0  0  0  0  0  0  0  0  0  0  0  0
   46.5547    4.4715   14.6537 C   0  0  0  0  0  0  0  0  0  0  0  0
   46.1006    5.4691   13.5945 C   0  0  0  0  0  0  0  0  0  0  0  0
   47.3596    6.0940   12.9745 C   0  0  0  0  0  0  0  0  0  0  0  0
   48.0930    6.9337   13.9335 N   0  0  0  0  0  0  0  0  0  0  0  0
  1  2  1  0  0  0  0
  2  3  1  0  0  0  0
  3  4  1  0  0  0  0
  4  5  1  0  0  0  0
  5  6  1  0  0  0  0
  6  7  1  0  0  0  0
  7  8  1  0  0  0  0
  8  9  1  0  0  0  0
  9 10  1  0  0  0  0
 10 11  1  0  0  0  0
 11 12  1  0  0  0  0
 12 13  1  0  0  0  0
 13 14  1  0  0  0  0
M  END
>  <CHROM.1>
-171.00367928,178.27395910,-178.02681772,-160.80172412,-53.80606660,-64.18303814
178.98273679,-173.48768527,163.93187707,173.20020953,-67.17976232,45.52816952
1.36331369,14.74717553,-2.75581018,1.26811942,1.22105360

>  <Name>
ligand

>  <RI>
0

>  <Rbt.Current_Directory>
/home/itssahil/PROJECTS/Mol_Feturizer/New_Systems/rnas/1TN1

>  <Rbt.Executable>
rbdock ($Id: //depot/dev/client3/rdock/2013.1/src/exe/rbdock.cxx#4 $)

>  <Rbt.Library>
libRbt.so (2013.1, Build901 2013/11/27)

>  <Rbt.Parameter_File>
/export/apps/rDock/src/rDock_2013.1_src/data/scripts/dock_solv.prm

>  <Rbt.Receptor>
prm/blind_docking_60.prm

>  <SCORE>
-5.05218

>  <SCORE.INTER>
-2.20009

>  <SCORE.INTER.CONST>
1

>  <SCORE.INTER.POLAR>
0

>  <SCORE.INTER.ROT>
11

>  <SCORE.INTER.SOLV>
11.9181

>  <SCORE.INTER.VDW>
-16.3727

>  <SCORE.INTER.norm>
-0.157149

>  <SCORE.INTRA>
-2.85209

>  <SCORE.INTRA.DIHEDRAL>
-6.37993

>  <SCORE.INTRA.DIHEDRAL.0>
7.79482

>  <SCORE.INTRA.POLAR>
0

>  <SCORE.INTRA.POLAR.0>
0

>  <SCORE.INTRA.REPUL>
0

>  <SCORE.INTRA.REPUL.0>
0

>  <SCORE.INTRA.SOLV>
1.53583

>  <SCORE.INTRA.SOLV.lig_0>
-49.456

>  <SCORE.INTRA.VDW>
-0.430042

>  <SCORE.INTRA.VDW.0>
-0.478406

>  <SCORE.INTRA.norm>
-0.203721

>  <SCORE.RESTR>
0

>  <SCORE.RESTR.CAVITY>
0

>  <SCORE.RESTR.norm>
0

>  <SCORE.SYSTEM>
0

>  <SCORE.SYSTEM.CONST>
0

>  <SCORE.SYSTEM.DIHEDRAL>
0

>  <SCORE.SYSTEM.SOLV>
0

>  <SCORE.SYSTEM.norm>
0

>  <SCORE.heavy>
14

>  <SCORE.norm>
-0.36087

>  <RMSD>
6.233

$$$$
ligand
 OpenBabel11021811413D
libRbt.so/2013.1/901 2013/11/27
 14 13  0  0  0  0  0  0  0  0999 V2000
   46.0864   13.1073   15.9241 N   0  0  0  0  0  0  0  0  0  0  0  0
   44.6144   13.1617   15.7925 C   0  0  0  0  0  0  0  0  0  0  0  0
   43.9204   12.6569   17.0761 C   0  0  0  0  0  0  0  0  0  0  0  0
   42.3839   12.6790   17.0238 C   0  0  0  0  0  0  0  0  0  0  0  0
   41.7986   12.1739   18.2961 N   0  0  0  0  0  0  0  0  0  0  0  0
   41.8771   10.6913   18.3443 C   0  0  0  0  0  0  0  0  0  0  0  0
   41.1201   10.0120   19.5350 C   0  0  0  0  0  0  0  0  0  0  0  0
   41.3112    8.4699   19.6120 C   0  0  0  0  0  0  0  0  0  0  0  0
   40.6339    7.8245   20.8051 C   0  0  0  0  0  0  0  0  0  0  0  0
   40.8784    6.3966   20.7299 N   0  0  0  0  0  0  0  0  0  0  0  0
   42.0171    6.1417   21.5947 C   0  0  0  0  0  0  0  0  0  0  0  0
   42.0267    4.7017   22.0943 C   0  0  0  0  0  0  0  0  0  0  0  0
   40.7704    4.5001   22.9551 C   0  0  0  0  0  0  0  0  0  0  0  0
   40.6522    3.1207   23.4510 N   0  0  0  0  0  0  0  0  0  0  0  0
  1  2  1  0  0  0  0
  2  3  1  0  0  0  0
  3  4  1  0  0  0  0
  4  5  1  0  0  0  0
  5  6  1  0  0  0  0
  6  7  1  0  0  0  0
  7  8  1  0  0  0  0
  8  9  1  0  0  0  0
  9 10  1  0  0  0  0
 10 11  1  0  0  0  0
 11 12  1  0  0  0  0
 12 13  1  0  0  0  0
 13 14  1  0  0  0  0
M  END
>  <CHROM.1>
-179.95224368,179.82121187,-77.31753207,-171.83883934,-175.74122162,177.11710191
179.03239384,96.89156491,155.38951457,-63.54289645,177.85710420,42.14925538
8.97419968,19.51667857,-1.27495098,-0.27645112,2.60579862

>  <Name>
ligand

>  <RI>
0

>  <Rbt.Current_Directory>
/home/itssahil/PROJECTS/Mol_Feturizer/New_Systems/rnas/1TN1

>  <Rbt.Executable>
rbdock ($Id: //depot/dev/client3/rdock/2013.1/src/exe/rbdock.cxx#4 $)

>  <Rbt.Library>
libRbt.so (2013.1, Build901 2013/11/27)

>  <Rbt.Parameter_File>
/export/apps/rDock/src/rDock_2013.1_src/data/scripts/dock_solv.prm

>  <Rbt.Receptor>
prm/pocket_docking_8.prm

>  <SCORE>
-8.04367

>  <SCORE.INTER>
-5.54367

>  <SCORE.INTER.CONST>
1

>  <SCORE.INTER.POLAR>
0

>  <SCORE.INTER.ROT>
11

>  <SCORE.INTER.SOLV>
10.9381

>  <SCORE.INTER.VDW>
-18.2751

>  <SCORE.INTER.norm>
-0.395976

>  <SCORE.INTRA>
-2.5

>  <SCORE.INTRA.DIHEDRAL>
-6.09439

>  <SCORE.INTRA.DIHEDRAL.0>
7.79482

>  <SCORE.INTRA.POLAR>
0

>  <SCORE.INTRA.POLAR.0>
0

>  <SCORE.INTRA.REPUL>
0

>  <SCORE.INTRA.REPUL.0>
0

>  <SCORE.INTRA.SOLV>
0.424787

>  <SCORE.INTRA.SOLV.lig_0>
-49.456

>  <SCORE.INTRA.VDW>
0.3348

>  <SCORE.INTRA.VDW.0>
-0.478406

>  <SCORE.INTRA.norm>
-0.178571

>  <SCORE.RESTR>
0

>  <SCORE.RESTR.CAVITY>
0

>  <SCORE.RESTR.norm>
0

>  <SCORE.SYSTEM>
0

>  <SCORE.SYSTEM.CONST>
0

>  <SCORE.SYSTEM.DIHEDRAL>
0

>  <SCORE.SYSTEM.SOLV>
0

>  <SCORE.SYSTEM.norm>
0

>  <SCORE.heavy>
14

>  <SCORE.norm>
-0.574548

>  <RMSD>
6.242

$$$$
ligand
 OpenBabel11021811413D
libRbt.so/2013.1/901 2013/11/27
 14 13  0  0  0  0  0  0  0  0999 V2000
   47.0304    9.6330   15.4899 N   0  0  0  0  0  0  0  0  0  0  0  0
   46.1809   10.6919   16.0766 C   0  0  0  0  0  0  0  0  0  0  0  0
   44.8558   10.8397   15.2980 C   0  0  0  0  0  0  0  0  0  0  0  0
   43.9518   11.9840   15.7849 C   0  0  0  0  0  0  0  0  0  0  0  0
   43.5811   11.8007   17.2151 N   0  0  0  0  0  0  0  0  0  0  0  0
   42.1032   11.7817   17.3641 C   0  0  0  0  0  0  0  0  0  0  0  0
   41.5649   11.1498   18.6919 C   0  0  0  0  0  0  0  0  0  0  0  0
   41.9836    9.6666   18.9047 C   0  0  0  0  0  0  0  0  0  0  0  0
   41.2877    8.9919   20.0706 C   0  0  0  0  0  0  0  0  0  0  0  0
   41.7935    7.6351   20.1587 N   0  0  0  0  0  0  0  0  0  0  0  0
   41.0425    6.9990   21.2269 C   0  0  0  0  0  0  0  0  0  0  0  0
   41.4169    5.5286   21.3727 C   0  0  0  0  0  0  0  0  0  0  0  0
   40.5378    4.9332   22.4830 C   0  0  0  0  0  0  0  0  0  0  0  0
   40.8118    3.5051   22.7025 N   0  0  0  0  0  0  0  0  0  0  0  0
  1  2  1  0  0  0  0
  2  3  1  0  0  0  0
  3  4  1  0  0  0  0
  4  5  1  0  0  0  0
  5  6  1  0  0  0  0
  6  7  1  0  0  0  0
  7  8  1  0  0  0  0
  8  9  1  0  0  0  0
  9 10  1  0  0  0  0
 10 11  1  0  0  0  0
 11 12  1  0  0  0  0
 12 13  1  0  0  0  0
 13 14  1  0  0  0  0
M  END
>  <CHROM.1>
-176.13459375,-59.40744076,-123.48431392,161.07693138,-59.46454360,-170.85038239
-178.95170356,-176.38822676,176.51939287,-177.87263553,179.61269550,42.72419123
8.93892283,18.77422221,-1.04349534,-0.56815973,2.65786305

>  <Name>
ligand

>  <RI>
0

>  <Rbt.Current_Directory>
/home/itssahil/PROJECTS/Mol_Feturizer/New_Systems/rnas/1TN1

>  <Rbt.Executable>
rbdock ($Id: //depot/dev/client3/rdock/2013.1/src/exe/rbdock.cxx#4 $)

>  <Rbt.Library>
libRbt.so (2013.1, Build901 2013/11/27)

>  <Rbt.Parameter_File>
/export/apps/rDock/src/rDock_2013.1_src/data/scripts/dock_solv.prm

>  <Rbt.Receptor>
prm/pocket_docking_8.prm

>  <SCORE>
-9.15647

>  <SCORE.INTER>
-5.64545

>  <SCORE.INTER.CONST>
1

>  <SCORE.INTER.POLAR>
0

>  <SCORE.INTER.ROT>
11

>  <SCORE.INTER.SOLV>
11.7977

>  <SCORE.INTER.VDW>
-18.6295

>  <SCORE.INTER.norm>
-0.403246

>  <SCORE.INTRA>
-3.51103

>  <SCORE.INTRA.DIHEDRAL>
-5.88789

>  <SCORE.INTRA.DIHEDRAL.0>
7.79482

>  <SCORE.INTRA.POLAR>
0

>  <SCORE.INTRA.POLAR.0>
0

>  <SCORE.INTRA.REPUL>
0

>  <SCORE.INTRA.REPUL.0>
0

>  <SCORE.INTRA.SOLV>
0.604619

>  <SCORE.INTRA.SOLV.lig_0>
-49.456

>  <SCORE.INTRA.VDW>
-0.869392

>  <SCORE.INTRA.VDW.0>
-0.478406

>  <SCORE.INTRA.norm>
-0.250788

>  <SCORE.RESTR>
0

>  <SCORE.RESTR.CAVITY>
0

>  <SCORE.RESTR.norm>
0

>  <SCORE.SYSTEM>
0

>  <SCORE.SYSTEM.CONST>
0

>  <SCORE.SYSTEM.DIHEDRAL>
0

>  <SCORE.SYSTEM.SOLV>
0

>  <SCORE.SYSTEM.norm>
0

>  <SCORE.heavy>
14

>  <SCORE.norm>
-0.654034

>  <RMSD>
6.275

$$$$
ligand
 OpenBabel11021811413D
libRbt.so/2013.1/901 2013/11/27
 14 13  0  0  0  0  0  0  0  0999 V2000
   48.0953   10.3461   16.8019 N   0  0  0  0  0  0  0  0  0  0  0  0
   47.9955    8.8824   16.9883 C   0  0  0  0  0  0  0  0  0  0  0  0
   47.2097    8.5356   18.2714 C   0  0  0  0  0  0  0  0  0  0  0  0
   47.0092    7.0302   18.5117 C   0  0  0  0  0  0  0  0  0  0  0  0
   46.2537    6.7861   19.7711 N   0  0  0  0  0  0  0  0  0  0  0  0
   46.1270    5.3269   20.0191 C   0  0  0  0  0  0  0  0  0  0  0  0
   45.3678    4.9266   21.3289 C   0  0  0  0  0  0  0  0  0  0  0  0
   43.8602    5.3109   21.3319 C   0  0  0  0  0  0  0  0  0  0  0  0
   43.6025    6.7930   21.1424 C   0  0  0  0  0  0  0  0  0  0  0  0
   42.1668    6.9973   21.1773 N   0  0  0  0  0  0  0  0  0  0  0  0
   41.8919    8.0551   20.2206 C   0  0  0  0  0  0  0  0  0  0  0  0
   40.4821    8.6087   20.3911 C   0  0  0  0  0  0  0  0  0  0  0  0
   39.4959    7.4730   20.0786 C   0  0  0  0  0  0  0  0  0  0  0  0
   39.5294    6.4124   21.0968 N   0  0  0  0  0  0  0  0  0  0  0  0
  1  2  1  0  0  0  0
  2  3  1  0  0  0  0
  3  4  1  0  0  0  0
  4  5  1  0  0  0  0
  5  6  1  0  0  0  0
  6  7  1  0  0  0  0
  7  8  1  0  0  0  0
  8  9  1  0  0  0  0
  9 10  1  0  0  0  0
 10 11  1  0  0  0  0
 11 12  1  0  0  0  0
 12 13  1  0  0  0  0
 13 14  1  0  0  0  0
M  END
>  <CHROM.1>
177.62549442,179.57143037,-177.29271478,179.15808358,65.90410011,-58.35324247
-179.57460434,-144.19274614,-166.16389247,-63.65622046,68.75028775,44.22058766
7.24871093,19.79512425,0.37071623,0.23018280,-0.62035406

>  <Name>
ligand

>  <RI>
0

>  <Rbt.Current_Directory>
/home/itssahil/PROJECTS/Mol_Feturizer/New_Systems/rnas/1TN1

>  <Rbt.Executable>
rbdock ($Id: //depot/dev/client3/rdock/2013.1/src/exe/rbdock.cxx#4 $)

>  <Rbt.Library>
libRbt.so (2013.1, Build901 2013/11/27)

>  <Rbt.Parameter_File>
/export/apps/rDock/src/rDock_2013.1_src/data/scripts/dock_solv.prm

>  <Rbt.Receptor>
prm/blind_docking_60.prm

>  <SCORE>
-11.4472

>  <SCORE.INTER>
-10.2834

>  <SCORE.INTER.CONST>
1

>  <SCORE.INTER.POLAR>
0

>  <SCORE.INTER.ROT>
11

>  <SCORE.INTER.SOLV>
10.0877

>  <SCORE.INTER.VDW>
-21.1515

>  <SCORE.INTER.norm>
-0.734531

>  <SCORE.INTRA>
-1.16382

>  <SCORE.INTRA.DIHEDRAL>
-6.35793

>  <SCORE.INTRA.DIHEDRAL.0>
7.79482

>  <SCORE.INTRA.POLAR>
0

>  <SCORE.INTRA.POLAR.0>
0

>  <SCORE.INTRA.REPUL>
0

>  <SCORE.INTRA.REPUL.0>
0

>  <SCORE.INTRA.SOLV>
4.32039

>  <SCORE.INTRA.SOLV.lig_0>
-49.456

>  <SCORE.INTRA.VDW>
-0.145044

>  <SCORE.INTRA.VDW.0>
-0.478406

>  <SCORE.INTRA.norm>
-0.0831298

>  <SCORE.RESTR>
0

>  <SCORE.RESTR.CAVITY>
0

>  <SCORE.RESTR.norm>
0

>  <SCORE.SYSTEM>
0

>  <SCORE.SYSTEM.CONST>
0

>  <SCORE.SYSTEM.DIHEDRAL>
0

>  <SCORE.SYSTEM.SOLV>
0

>  <SCORE.SYSTEM.norm>
0

>  <SCORE.heavy>
14

>  <SCORE.norm>
-0.817661

>  <RMSD>
6.311

$$$$
ligand
 OpenBabel11021811413D
libRbt.so/2013.1/901 2013/11/27
 14 13  0  0  0  0  0  0  0  0999 V2000
   39.5801    6.4348   21.0084 N   0  0  0  0  0  0  0  0  0  0  0  0
   39.5933    7.9121   21.0747 C   0  0  0  0  0  0  0  0  0  0  0  0
   40.5538    8.5093   20.0236 C   0  0  0  0  0  0  0  0  0  0  0  0
   42.0367    8.1688   20.2453 C   0  0  0  0  0  0  0  0  0  0  0  0
   42.2794    6.7086   20.0857 N   0  0  0  0  0  0  0  0  0  0  0  0
   43.2462    6.2340   21.1088 C   0  0  0  0  0  0  0  0  0  0  0  0
   44.6795    6.8593   21.0268 C   0  0  0  0  0  0  0  0  0  0  0  0
   45.4112    6.5962   19.6793 C   0  0  0  0  0  0  0  0  0  0  0  0
   46.7209    7.3460   19.5333 C   0  0  0  0  0  0  0  0  0  0  0  0
   47.2439    7.0633   18.2101 N   0  0  0  0  0  0  0  0  0  0  0  0
   48.3261    8.0089   17.9995 C   0  0  0  0  0  0  0  0  0  0  0  0
   49.1045    7.6916   16.7280 C   0  0  0  0  0  0  0  0  0  0  0  0
   50.2952    8.6597   16.6582 C   0  0  0  0  0  0  0  0  0  0  0  0
   51.0787    8.4885   15.4255 N   0  0  0  0  0  0  0  0  0  0  0  0
  1  2  1  0  0  0  0
  2  3  1  0  0  0  0
  3  4  1  0  0  0  0
  4  5  1  0  0  0  0
  5  6  1  0  0  0  0
  6  7  1  0  0  0  0
  7  8  1  0  0  0  0
  8  9  1  0  0  0  0
  9 10  1  0  0  0  0
 10 11  1  0  0  0  0
 11 12  1  0  0  0  0
 12 13  1  0  0  0  0
 13 14  1  0  0  0  0
M  END
>  <CHROM.1>
-65.13090015,65.32111846,-140.28219078,-62.84930409,-59.90052406,172.66530312
-176.83524285,168.00081373,171.55923835,-175.00949613,-176.92307000,45.01066240
7.47735106,19.20072066,2.77933195,-0.23278221,2.30934676

>  <Name>
ligand

>  <RI>
0

>  <Rbt.Current_Directory>
/home/itssahil/PROJECTS/Mol_Feturizer/New_Systems/rnas/1TN1

>  <Rbt.Executable>
rbdock ($Id: //depot/dev/client3/rdock/2013.1/src/exe/rbdock.cxx#4 $)

>  <Rbt.Library>
libRbt.so (2013.1, Build901 2013/11/27)

>  <Rbt.Parameter_File>
/export/apps/rDock/src/rDock_2013.1_src/data/scripts/dock_solv.prm

>  <Rbt.Receptor>
prm/pocket_docking_8.prm

>  <SCORE>
-8.9074

>  <SCORE.INTER>
-7.33421

>  <SCORE.INTER.CONST>
1

>  <SCORE.INTER.POLAR>
0

>  <SCORE.INTER.ROT>
11

>  <SCORE.INTER.SOLV>
9.47152

>  <SCORE.INTER.VDW>
-18.98

>  <SCORE.INTER.norm>
-0.523872

>  <SCORE.INTRA>
-1.57319

>  <SCORE.INTRA.DIHEDRAL>
-6.12803

>  <SCORE.INTRA.DIHEDRAL.0>
7.79482

>  <SCORE.INTRA.POLAR>
0

>  <SCORE.INTRA.POLAR.0>
0

>  <SCORE.INTRA.REPUL>
0

>  <SCORE.INTRA.REPUL.0>
0

>  <SCORE.INTRA.SOLV>
3.59511

>  <SCORE.INTRA.SOLV.lig_0>
-49.456

>  <SCORE.INTRA.VDW>
-0.306729

>  <SCORE.INTRA.VDW.0>
-0.478406

>  <SCORE.INTRA.norm>
-0.112371

>  <SCORE.RESTR>
0

>  <SCORE.RESTR.CAVITY>
0

>  <SCORE.RESTR.norm>
0

>  <SCORE.SYSTEM>
0

>  <SCORE.SYSTEM.CONST>
0

>  <SCORE.SYSTEM.DIHEDRAL>
0

>  <SCORE.SYSTEM.SOLV>
0

>  <SCORE.SYSTEM.norm>
0

>  <SCORE.heavy>
14

>  <SCORE.norm>
-0.636243

>  <RMSD>
6.329

$$$$
ligand
 OpenBabel11021811413D
libRbt.so/2013.1/901 2013/11/27
 14 13  0  0  0  0  0  0  0  0999 V2000
   44.2816    6.0789   20.9600 N   0  0  0  0  0  0  0  0  0  0  0  0
   45.6210    5.9839   20.3402 C   0  0  0  0  0  0  0  0  0  0  0  0
   46.0375    4.5115   20.1343 C   0  0  0  0  0  0  0  0  0  0  0  0
   45.0810    3.6934   19.2512 C   0  0  0  0  0  0  0  0  0  0  0  0
   45.5559    2.2898   19.1067 N   0  0  0  0  0  0  0  0  0  0  0  0
   46.4357    2.1654   17.9163 C   0  0  0  0  0  0  0  0  0  0  0  0
   45.8996    1.2403   16.7723 C   0  0  0  0  0  0  0  0  0  0  0  0
   45.5461   -0.2023   17.2352 C   0  0  0  0  0  0  0  0  0  0  0  0
   45.7725   -1.2620   16.1747 C   0  0  0  0  0  0  0  0  0  0  0  0
   44.8568   -0.9930   15.0823 N   0  0  0  0  0  0  0  0  0  0  0  0
   44.7096   -2.2491   14.3679 C   0  0  0  0  0  0  0  0  0  0  0  0
   44.1072   -2.0363   12.9840 C   0  0  0  0  0  0  0  0  0  0  0  0
   43.8930   -3.4203   12.3526 C   0  0  0  0  0  0  0  0  0  0  0  0
   43.3813   -3.3301   10.9768 N   0  0  0  0  0  0  0  0  0  0  0  0
  1  2  1  0  0  0  0
  2  3  1  0  0  0  0
  3  4  1  0  0  0  0
  4  5  1  0  0  0  0
  5  6  1  0  0  0  0
  6  7  1  0  0  0  0
  7  8  1  0  0  0  0
  8  9  1  0  0  0  0
  9 10  1  0  0  0  0
 10 11  1  0  0  0  0
 11 12  1  0  0  0  0
 12 13  1  0  0  0  0
 13 14  1  0  0  0  0
M  END
>  <CHROM.1>
58.82116640,-179.95302816,-90.80629283,-115.87890997,-55.03001176,-147.94219710
-64.45802447,-158.07741125,-163.64949387,-175.79573615,-176.82003451,45.08442637
0.89066118,16.68968110,1.40956890,-0.74183460,0.65721402

>  <Name>
ligand

>  <RI>
0

>  <Rbt.Current_Directory>
/home/itssahil/PROJECTS/Mol_Feturizer/New_Systems/rnas/1TN1

>  <Rbt.Executable>
rbdock ($Id: //depot/dev/client3/rdock/2013.1/src/exe/rbdock.cxx#4 $)

>  <Rbt.Library>
libRbt.so (2013.1, Build901 2013/11/27)

>  <Rbt.Parameter_File>
/export/apps/rDock/src/rDock_2013.1_src/data/scripts/dock_solv.prm

>  <Rbt.Receptor>
prm/blind_docking_60.prm

>  <SCORE>
-6.05969

>  <SCORE.INTER>
-5.48448

>  <SCORE.INTER.CONST>
1

>  <SCORE.INTER.POLAR>
0

>  <SCORE.INTER.ROT>
11

>  <SCORE.INTER.SOLV>
13.5317

>  <SCORE.INTER.VDW>
-19.1002

>  <SCORE.INTER.norm>
-0.391749

>  <SCORE.INTRA>
-0.575205

>  <SCORE.INTRA.DIHEDRAL>
-1.75602

>  <SCORE.INTRA.DIHEDRAL.0>
7.79482

>  <SCORE.INTRA.POLAR>
0

>  <SCORE.INTRA.POLAR.0>
0

>  <SCORE.INTRA.REPUL>
0

>  <SCORE.INTRA.REPUL.0>
0

>  <SCORE.INTRA.SOLV>
1.39317

>  <SCORE.INTRA.SOLV.lig_0>
-49.456

>  <SCORE.INTRA.VDW>
-0.393781

>  <SCORE.INTRA.VDW.0>
-0.478406

>  <SCORE.INTRA.norm>
-0.041086

>  <SCORE.RESTR>
0

>  <SCORE.RESTR.CAVITY>
0

>  <SCORE.RESTR.norm>
0

>  <SCORE.SYSTEM>
0

>  <SCORE.SYSTEM.CONST>
0

>  <SCORE.SYSTEM.DIHEDRAL>
0

>  <SCORE.SYSTEM.SOLV>
0

>  <SCORE.SYSTEM.norm>
0

>  <SCORE.heavy>
14

>  <SCORE.norm>
-0.432835

>  <RMSD>
6.353

$$$$
ligand
 OpenBabel11021811413D
libRbt.so/2013.1/901 2013/11/27
 14 13  0  0  0  0  0  0  0  0999 V2000
   39.4040    2.8012   21.6198 N   0  0  0  0  0  0  0  0  0  0  0  0
   39.7530    3.4525   22.9009 C   0  0  0  0  0  0  0  0  0  0  0  0
   40.5051    4.7802   22.6652 C   0  0  0  0  0  0  0  0  0  0  0  0
   39.7086    5.8363   21.8816 C   0  0  0  0  0  0  0  0  0  0  0  0
   40.4995    7.0864   21.7140 N   0  0  0  0  0  0  0  0  0  0  0  0
   39.9131    7.9244   20.6367 C   0  0  0  0  0  0  0  0  0  0  0  0
   40.8315    9.0718   20.0961 C   0  0  0  0  0  0  0  0  0  0  0  0
   42.2024    8.5824   19.5468 C   0  0  0  0  0  0  0  0  0  0  0  0
   43.1065    9.6998   19.0644 C   0  0  0  0  0  0  0  0  0  0  0  0
   44.3300    9.0942   18.5738 N   0  0  0  0  0  0  0  0  0  0  0  0
   45.2646   10.1885   18.3769 C   0  0  0  0  0  0  0  0  0  0  0  0
   46.4246    9.7764   17.4781 C   0  0  0  0  0  0  0  0  0  0  0  0
   47.2168    8.6844   18.2131 C   0  0  0  0  0  0  0  0  0  0  0  0
   48.3712    8.2149   17.4323 N   0  0  0  0  0  0  0  0  0  0  0  0
  1  2  1  0  0  0  0
  2  3  1  0  0  0  0
  3  4  1  0  0  0  0
  4  5  1  0  0  0  0
  5  6  1  0  0  0  0
  6  7  1  0  0  0  0
  7  8  1  0  0  0  0
  8  9  1  0  0  0  0
  9 10  1  0  0  0  0
 10 11  1  0  0  0  0
 11 12  1  0  0  0  0
 12 13  1  0  0  0  0
 13 14  1  0  0  0  0
M  END
>  <CHROM.1>
60.95209961,179.33475058,163.00320827,-164.72628545,57.22488005,-178.17861696
-179.45279546,-168.79890730,-162.56428015,-64.68973342,-179.73476759,42.68058771
7.51410917,20.01432513,-2.47369299,0.36007142,-0.32321507

>  <Name>
ligand

>  <RI>
0

>  <Rbt.Current_Directory>
/home/itssahil/PROJECTS/Mol_Feturizer/New_Systems/rnas/1TN1

>  <Rbt.Executable>
rbdock ($Id: //depot/dev/client3/rdock/2013.1/src/exe/rbdock.cxx#4 $)

>  <Rbt.Library>
libRbt.so (2013.1, Build901 2013/11/27)

>  <Rbt.Parameter_File>
/export/apps/rDock/src/rDock_2013.1_src/data/scripts/dock_solv.prm

>  <Rbt.Receptor>
prm/blind_docking_60.prm

>  <SCORE>
-6.50763

>  <SCORE.INTER>
-3.16817

>  <SCORE.INTER.CONST>
1

>  <SCORE.INTER.POLAR>
0

>  <SCORE.INTER.ROT>
11

>  <SCORE.INTER.SOLV>
9.46904

>  <SCORE.INTER.VDW>
-16.2018

>  <SCORE.INTER.norm>
-0.226298

>  <SCORE.INTRA>
-3.33946

>  <SCORE.INTRA.DIHEDRAL>
-6.92494

>  <SCORE.INTRA.DIHEDRAL.0>
7.79482

>  <SCORE.INTRA.POLAR>
0

>  <SCORE.INTRA.POLAR.0>
0

>  <SCORE.INTRA.REPUL>
0

>  <SCORE.INTRA.REPUL.0>
0

>  <SCORE.INTRA.SOLV>
1.46064

>  <SCORE.INTRA.SOLV.lig_0>
-49.456

>  <SCORE.INTRA.VDW>
-0.607309

>  <SCORE.INTRA.VDW.0>
-0.478406

>  <SCORE.INTRA.norm>
-0.238533

>  <SCORE.RESTR>
0

>  <SCORE.RESTR.CAVITY>
0

>  <SCORE.RESTR.norm>
0

>  <SCORE.SYSTEM>
0

>  <SCORE.SYSTEM.CONST>
0

>  <SCORE.SYSTEM.DIHEDRAL>
0

>  <SCORE.SYSTEM.SOLV>
0

>  <SCORE.SYSTEM.norm>
0

>  <SCORE.heavy>
14

>  <SCORE.norm>
-0.464831

>  <RMSD>
6.404

$$$$
ligand
 OpenBabel11021811413D
libRbt.so/2013.1/901 2013/11/27
 14 13  0  0  0  0  0  0  0  0999 V2000
   46.3297    9.9852   18.1113 N   0  0  0  0  0  0  0  0  0  0  0  0
   47.1940    9.0683   17.3370 C   0  0  0  0  0  0  0  0  0  0  0  0
   47.8605    8.0211   18.2553 C   0  0  0  0  0  0  0  0  0  0  0  0
   46.8838    7.0314   18.9114 C   0  0  0  0  0  0  0  0  0  0  0  0
   46.0006    7.7220   19.8909 N   0  0  0  0  0  0  0  0  0  0  0  0
   44.7543    6.9407   20.0984 C   0  0  0  0  0  0  0  0  0  0  0  0
   43.4542    7.7859   20.3166 C   0  0  0  0  0  0  0  0  0  0  0  0
   43.2010    8.8570   19.2170 C   0  0  0  0  0  0  0  0  0  0  0  0
   41.9198    9.6447   19.4085 C   0  0  0  0  0  0  0  0  0  0  0  0
   40.8121    8.7135   19.3072 N   0  0  0  0  0  0  0  0  0  0  0  0
   40.2776    8.5831   20.6514 C   0  0  0  0  0  0  0  0  0  0  0  0
   39.1295    7.5816   20.7003 C   0  0  0  0  0  0  0  0  0  0  0  0
   39.7046    6.1984   20.3598 C   0  0  0  0  0  0  0  0  0  0  0  0
   38.6788    5.1454   20.3988 N   0  0  0  0  0  0  0  0  0  0  0  0
  1  2  1  0  0  0  0
  2  3  1  0  0  0  0
  3  4  1  0  0  0  0
  4  5  1  0  0  0  0
  5  6  1  0  0  0  0
  6  7  1  0  0  0  0
  7  8  1  0  0  0  0
  8  9  1  0  0  0  0
  9 10  1  0  0  0  0
 10 11  1  0  0  0  0
 11 12  1  0  0  0  0
 12 13  1  0  0  0  0
 13 14  1  0  0  0  0
M  END
>  <CHROM.1>
65.91988456,-67.20444315,157.14120888,-144.07031672,52.54132808,178.23839732
-63.30306216,108.98920555,-177.80081959,65.15383719,179.10820397,43.30018631
7.94846579,19.49745414,0.23906162,0.19546456,-0.29649729

>  <Name>
ligand

>  <RI>
0

>  <Rbt.Current_Directory>
/home/itssahil/PROJECTS/Mol_Feturizer/New_Systems/rnas/1TN1

>  <Rbt.Executable>
rbdock ($Id: //depot/dev/client3/rdock/2013.1/src/exe/rbdock.cxx#4 $)

>  <Rbt.Library>
libRbt.so (2013.1, Build901 2013/11/27)

>  <Rbt.Parameter_File>
/export/apps/rDock/src/rDock_2013.1_src/data/scripts/dock_solv.prm

>  <Rbt.Receptor>
prm/blind_docking_60.prm

>  <SCORE>
-9.34818

>  <SCORE.INTER>
-8.68407

>  <SCORE.INTER.CONST>
1

>  <SCORE.INTER.POLAR>
0

>  <SCORE.INTER.ROT>
11

>  <SCORE.INTER.SOLV>
10.2924

>  <SCORE.INTER.VDW>
-20.1535

>  <SCORE.INTER.norm>
-0.620291

>  <SCORE.INTRA>
-0.664104

>  <SCORE.INTRA.DIHEDRAL>
-4.8332

>  <SCORE.INTRA.DIHEDRAL.0>
7.79482

>  <SCORE.INTRA.POLAR>
0

>  <SCORE.INTRA.POLAR.0>
0

>  <SCORE.INTRA.REPUL>
0

>  <SCORE.INTRA.REPUL.0>
0

>  <SCORE.INTRA.SOLV>
5.35296

>  <SCORE.INTRA.SOLV.lig_0>
-49.456

>  <SCORE.INTRA.VDW>
-0.923981

>  <SCORE.INTRA.VDW.0>
-0.478406

>  <SCORE.INTRA.norm>
-0.047436

>  <SCORE.RESTR>
0

>  <SCORE.RESTR.CAVITY>
0

>  <SCORE.RESTR.norm>
0

>  <SCORE.SYSTEM>
0

>  <SCORE.SYSTEM.CONST>
0

>  <SCORE.SYSTEM.DIHEDRAL>
0

>  <SCORE.SYSTEM.SOLV>
0

>  <SCORE.SYSTEM.norm>
0

>  <SCORE.heavy>
14

>  <SCORE.norm>
-0.667727

>  <RMSD>
6.453

$$$$
ligand
 OpenBabel11021811413D
libRbt.so/2013.1/901 2013/11/27
 14 13  0  0  0  0  0  0  0  0999 V2000
   42.3528    9.8472   18.6483 N   0  0  0  0  0  0  0  0  0  0  0  0
   41.1231    9.9489   19.4635 C   0  0  0  0  0  0  0  0  0  0  0  0
   40.6031    8.5518   19.8656 C   0  0  0  0  0  0  0  0  0  0  0  0
   41.5810    7.7258   20.7174 C   0  0  0  0  0  0  0  0  0  0  0  0
   42.8283    7.4279   19.9611 N   0  0  0  0  0  0  0  0  0  0  0  0
   43.7949    6.7069   20.8287 C   0  0  0  0  0  0  0  0  0  0  0  0
   45.1678    6.3533   20.1638 C   0  0  0  0  0  0  0  0  0  0  0  0
   45.9803    7.5914   19.6872 C   0  0  0  0  0  0  0  0  0  0  0  0
   47.1988    7.2446   18.8542 C   0  0  0  0  0  0  0  0  0  0  0  0
   47.8284    8.4897   18.4570 N   0  0  0  0  0  0  0  0  0  0  0  0
   48.8521    8.1279   17.4922 C   0  0  0  0  0  0  0  0  0  0  0  0
   49.8459    9.2642   17.2811 C   0  0  0  0  0  0  0  0  0  0  0  0
   49.0901   10.4252   16.6172 C   0  0  0  0  0  0  0  0  0  0  0  0
   49.9816   11.5421   16.2700 N   0  0  0  0  0  0  0  0  0  0  0  0
  1  2  1  0  0  0  0
  2  3  1  0  0  0  0
  3  4  1  0  0  0  0
  4  5  1  0  0  0  0
  5  6  1  0  0  0  0
  6  7  1  0  0  0  0
  7  8  1  0  0  0  0
  8  9  1  0  0  0  0
  9 10  1  0  0  0  0
 10 11  1  0  0  0  0
 11 12  1  0  0  0  0
 12 13  1  0  0  0  0
 13 14  1  0  0  0  0
M  END
>  <CHROM.1>
61.01443360,-63.19416306,176.32178642,-178.90806305,60.79258830,-170.91375603
178.51443065,-171.02287105,-164.02785559,-66.15616775,-175.51566852,45.44475311
8.51731658,18.87932262,2.80441284,-0.23566453,2.61118991

>  <Name>
ligand

>  <RI>
0

>  <Rbt.Current_Directory>
/home/itssahil/PROJECTS/Mol_Feturizer/New_Systems/rnas/1TN1

>  <Rbt.Executable>
rbdock ($Id: //depot/dev/client3/rdock/2013.1/src/exe/rbdock.cxx#4 $)

>  <Rbt.Library>
libRbt.so (2013.1, Build901 2013/11/27)

>  <Rbt.Parameter_File>
/export/apps/rDock/src/rDock_2013.1_src/data/scripts/dock_solv.prm

>  <Rbt.Receptor>
prm/pocket_docking_7.prm

>  <SCORE>
-10.4178

>  <SCORE.INTER>
-8.18414

>  <SCORE.INTER.CONST>
1

>  <SCORE.INTER.POLAR>
0

>  <SCORE.INTER.ROT>
11

>  <SCORE.INTER.SOLV>
15.0973

>  <SCORE.INTER.VDW>
-21.4219

>  <SCORE.INTER.norm>
-0.584582

>  <SCORE.INTRA>
-2.23369

>  <SCORE.INTRA.DIHEDRAL>
-6.90898

>  <SCORE.INTRA.DIHEDRAL.0>
7.79482

>  <SCORE.INTRA.POLAR>
0

>  <SCORE.INTRA.POLAR.0>
0

>  <SCORE.INTRA.REPUL>
0

>  <SCORE.INTRA.REPUL.0>
0

>  <SCORE.INTRA.SOLV>
3.99305

>  <SCORE.INTRA.SOLV.lig_0>
-49.456

>  <SCORE.INTRA.VDW>
-0.775721

>  <SCORE.INTRA.VDW.0>
-0.478406

>  <SCORE.INTRA.norm>
-0.159549

>  <SCORE.RESTR>
0

>  <SCORE.RESTR.CAVITY>
0

>  <SCORE.RESTR.norm>
0

>  <SCORE.SYSTEM>
0

>  <SCORE.SYSTEM.CONST>
0

>  <SCORE.SYSTEM.DIHEDRAL>
0

>  <SCORE.SYSTEM.SOLV>
0

>  <SCORE.SYSTEM.norm>
0

>  <SCORE.heavy>
14

>  <SCORE.norm>
-0.744131

>  <RMSD>
6.473

$$$$
ligand
 OpenBabel11021811413D
libRbt.so/2013.1/901 2013/11/27
 14 13  0  0  0  0  0  0  0  0999 V2000
   38.2551    5.8367   20.4074 N   0  0  0  0  0  0  0  0  0  0  0  0
   38.3911    7.3051   20.5183 C   0  0  0  0  0  0  0  0  0  0  0  0
   39.7281    7.6929   21.1861 C   0  0  0  0  0  0  0  0  0  0  0  0
   40.9810    7.2880   20.3922 C   0  0  0  0  0  0  0  0  0  0  0  0
   42.2195    7.5649   21.1706 N   0  0  0  0  0  0  0  0  0  0  0  0
   43.4160    7.4090   20.3041 C   0  0  0  0  0  0  0  0  0  0  0  0
   44.5529    6.4976   20.8778 C   0  0  0  0  0  0  0  0  0  0  0  0
   45.8143    6.4093   19.9714 C   0  0  0  0  0  0  0  0  0  0  0  0
   46.5616    7.7207   19.8272 C   0  0  0  0  0  0  0  0  0  0  0  0
   47.5831    7.5351   18.8141 N   0  0  0  0  0  0  0  0  0  0  0  0
   47.7948    8.8427   18.2182 C   0  0  0  0  0  0  0  0  0  0  0  0
   48.4592    8.7315   16.8509 C   0  0  0  0  0  0  0  0  0  0  0  0
   49.9577    8.4833   17.0811 C   0  0  0  0  0  0  0  0  0  0  0  0
   50.2284    7.1167   17.5521 N   0  0  0  0  0  0  0  0  0  0  0  0
  1  2  1  0  0  0  0
  2  3  1  0  0  0  0
  3  4  1  0  0  0  0
  4  5  1  0  0  0  0
  5  6  1  0  0  0  0
  6  7  1  0  0  0  0
  7  8  1  0  0  0  0
  8  9  1  0  0  0  0
  9 10  1  0  0  0  0
 10 11  1  0  0  0  0
 11 12  1  0  0  0  0
 12 13  1  0  0  0  0
 13 14  1  0  0  0  0
M  END
>  <CHROM.1>
63.69941794,-173.87151055,-169.47796680,-129.46714447,-177.43055607,65.48972590
-171.82942892,151.63040655,-160.27029931,-78.59320657,73.30589063,44.56733018
7.45971638,19.51227574,2.83235880,-0.09873512,2.20444530

>  <Name>
ligand

>  <RI>
0

>  <Rbt.Current_Directory>
/home/itssahil/PROJECTS/Mol_Feturizer/New_Systems/rnas/1TN1

>  <Rbt.Executable>
rbdock ($Id: //depot/dev/client3/rdock/2013.1/src/exe/rbdock.cxx#4 $)

>  <Rbt.Library>
libRbt.so (2013.1, Build901 2013/11/27)

>  <Rbt.Parameter_File>
/export/apps/rDock/src/rDock_2013.1_src/data/scripts/dock_solv.prm

>  <Rbt.Receptor>
prm/pocket_docking_8.prm

>  <SCORE>
-5.52262

>  <SCORE.INTER>
-5.06246

>  <SCORE.INTER.CONST>
1

>  <SCORE.INTER.POLAR>
0

>  <SCORE.INTER.ROT>
11

>  <SCORE.INTER.SOLV>
14.6073

>  <SCORE.INTER.VDW>
-19.1774

>  <SCORE.INTER.norm>
-0.361604

>  <SCORE.INTRA>
-0.460162

>  <SCORE.INTRA.DIHEDRAL>
-3.29401

>  <SCORE.INTRA.DIHEDRAL.0>
7.79482

>  <SCORE.INTRA.POLAR>
0

>  <SCORE.INTRA.POLAR.0>
0

>  <SCORE.INTRA.REPUL>
0

>  <SCORE.INTRA.REPUL.0>
0

>  <SCORE.INTRA.SOLV>
3.39105

>  <SCORE.INTRA.SOLV.lig_0>
-49.456

>  <SCORE.INTRA.VDW>
-0.508682

>  <SCORE.INTRA.VDW.0>
-0.478406

>  <SCORE.INTRA.norm>
-0.0328687

>  <SCORE.RESTR>
0

>  <SCORE.RESTR.CAVITY>
0

>  <SCORE.RESTR.norm>
0

>  <SCORE.SYSTEM>
0

>  <SCORE.SYSTEM.CONST>
0

>  <SCORE.SYSTEM.DIHEDRAL>
0

>  <SCORE.SYSTEM.SOLV>
0

>  <SCORE.SYSTEM.norm>
0

>  <SCORE.heavy>
14

>  <SCORE.norm>
-0.394473

>  <RMSD>
6.548

$$$$
ligand
 OpenBabel11021811413D
libRbt.so/2013.1/901 2013/11/27
 14 13  0  0  0  0  0  0  0  0999 V2000
   49.4295   -0.0458   11.4102 N   0  0  0  0  0  0  0  0  0  0  0  0
   48.2752    0.2191   12.2958 C   0  0  0  0  0  0  0  0  0  0  0  0
   46.9397   -0.0112   11.5559 C   0  0  0  0  0  0  0  0  0  0  0  0
   45.6846    0.2650   12.4000 C   0  0  0  0  0  0  0  0  0  0  0  0
   45.6491   -0.6072   13.6060 N   0  0  0  0  0  0  0  0  0  0  0  0
   45.4140    0.2101   14.8239 C   0  0  0  0  0  0  0  0  0  0  0  0
   45.3414   -0.5867   16.1700 C   0  0  0  0  0  0  0  0  0  0  0  0
   44.9847    0.2871   17.4068 C   0  0  0  0  0  0  0  0  0  0  0  0
   46.0760    1.2599   17.8086 C   0  0  0  0  0  0  0  0  0  0  0  0
   45.5733    2.0515   18.9154 N   0  0  0  0  0  0  0  0  0  0  0  0
   46.0730    3.3983   18.7008 C   0  0  0  0  0  0  0  0  0  0  0  0
   45.6374    4.3394   19.8179 C   0  0  0  0  0  0  0  0  0  0  0  0
   46.1097    5.7529   19.4454 C   0  0  0  0  0  0  0  0  0  0  0  0
   45.7607    6.7443   20.4740 N   0  0  0  0  0  0  0  0  0  0  0  0
  1  2  1  0  0  0  0
  2  3  1  0  0  0  0
  3  4  1  0  0  0  0
  4  5  1  0  0  0  0
  5  6  1  0  0  0  0
  6  7  1  0  0  0  0
  7  8  1  0  0  0  0
  8  9  1  0  0  0  0
  9 10  1  0  0  0  0
 10 11  1  0  0  0  0
 11 12  1  0  0  0  0
 12 13  1  0  0  0  0
 13 14  1  0  0  0  0
M  END
>  <CHROM.1>
-179.04857443,-59.58836225,129.24228863,179.50869654,-175.48636794,-69.08984627
176.71510470,-141.81509391,-178.88387316,-175.34906872,-178.96562296,46.21043891
1.66248227,16.05931456,-1.31182864,0.90312323,0.77748363

>  <Name>
ligand

>  <RI>
0

>  <Rbt.Current_Directory>
/home/itssahil/PROJECTS/Mol_Feturizer/New_Systems/rnas/1TN1

>  <Rbt.Executable>
rbdock ($Id: //depot/dev/client3/rdock/2013.1/src/exe/rbdock.cxx#4 $)

>  <Rbt.Library>
libRbt.so (2013.1, Build901 2013/11/27)

>  <Rbt.Parameter_File>
/export/apps/rDock/src/rDock_2013.1_src/data/scripts/dock_solv.prm

>  <Rbt.Receptor>
prm/blind_docking_100.prm

>  <SCORE>
-5.00149

>  <SCORE.INTER>
-1.97049

>  <SCORE.INTER.CONST>
1

>  <SCORE.INTER.POLAR>
0

>  <SCORE.INTER.ROT>
11

>  <SCORE.INTER.SOLV>
11.4941

>  <SCORE.INTER.VDW>
-16.0784

>  <SCORE.INTER.norm>
-0.14075

>  <SCORE.INTRA>
-3.03099

>  <SCORE.INTRA.DIHEDRAL>
-5.26608

>  <SCORE.INTRA.DIHEDRAL.0>
7.79482

>  <SCORE.INTRA.POLAR>
0

>  <SCORE.INTRA.POLAR.0>
0

>  <SCORE.INTRA.REPUL>
0

>  <SCORE.INTRA.REPUL.0>
0

>  <SCORE.INTRA.SOLV>
0.407122

>  <SCORE.INTRA.SOLV.lig_0>
-49.456

>  <SCORE.INTRA.VDW>
-0.601514

>  <SCORE.INTRA.VDW.0>
-0.478406

>  <SCORE.INTRA.norm>
-0.216499

>  <SCORE.RESTR>
0

>  <SCORE.RESTR.CAVITY>
0

>  <SCORE.RESTR.norm>
0

>  <SCORE.SYSTEM>
0

>  <SCORE.SYSTEM.CONST>
0

>  <SCORE.SYSTEM.DIHEDRAL>
0

>  <SCORE.SYSTEM.SOLV>
0

>  <SCORE.SYSTEM.norm>
0

>  <SCORE.heavy>
14

>  <SCORE.norm>
-0.357249

>  <RMSD>
6.552

$$$$
ligand
 OpenBabel11021811413D
libRbt.so/2013.1/901 2013/11/27
 14 13  0  0  0  0  0  0  0  0999 V2000
   43.5959   -3.2421   10.9908 N   0  0  0  0  0  0  0  0  0  0  0  0
   44.2516   -4.1747   11.9329 C   0  0  0  0  0  0  0  0  0  0  0  0
   45.0481   -3.4097   13.0119 C   0  0  0  0  0  0  0  0  0  0  0  0
   44.1937   -2.5110   13.9210 C   0  0  0  0  0  0  0  0  0  0  0  0
   45.0474   -1.7468   14.8717 N   0  0  0  0  0  0  0  0  0  0  0  0
   44.7334   -0.2971   14.7922 C   0  0  0  0  0  0  0  0  0  0  0  0
   45.5404    0.6246   15.7676 C   0  0  0  0  0  0  0  0  0  0  0  0
   45.2651    0.3504   17.2741 C   0  0  0  0  0  0  0  0  0  0  0  0
   46.0836    1.2115   18.2161 C   0  0  0  0  0  0  0  0  0  0  0  0
   45.7854    2.5987   17.9143 N   0  0  0  0  0  0  0  0  0  0  0  0
   46.0906    3.3436   19.1233 C   0  0  0  0  0  0  0  0  0  0  0  0
   45.8043    4.8306   18.9494 C   0  0  0  0  0  0  0  0  0  0  0  0
   45.9755    5.5003   20.3213 C   0  0  0  0  0  0  0  0  0  0  0  0
   45.6637    6.9369   20.2810 N   0  0  0  0  0  0  0  0  0  0  0  0
  1  2  1  0  0  0  0
  2  3  1  0  0  0  0
  3  4  1  0  0  0  0
  4  5  1  0  0  0  0
  5  6  1  0  0  0  0
  6  7  1  0  0  0  0
  7  8  1  0  0  0  0
  8  9  1  0  0  0  0
  9 10  1  0  0  0  0
 10 11  1  0  0  0  0
 11 12  1  0  0  0  0
 12 13  1  0  0  0  0
 13 14  1  0  0  0  0
M  END
>  <CHROM.1>
62.71694425,-176.36756897,127.41935356,178.68229931,-63.85406888,177.99620032
58.38331942,156.23618557,-179.33706250,172.59127414,-177.49735713,45.21999679
0.71520075,16.24063829,1.90733699,1.12304539,-2.73576434

>  <Name>
ligand

>  <RI>
0

>  <Rbt.Current_Directory>
/home/itssahil/PROJECTS/Mol_Feturizer/New_Systems/rnas/1TN1

>  <Rbt.Executable>
rbdock ($Id: //depot/dev/client3/rdock/2013.1/src/exe/rbdock.cxx#4 $)

>  <Rbt.Library>
libRbt.so (2013.1, Build901 2013/11/27)

>  <Rbt.Parameter_File>
/export/apps/rDock/src/rDock_2013.1_src/data/scripts/dock_solv.prm

>  <Rbt.Receptor>
prm/blind_docking_100.prm

>  <SCORE>
-6.98925

>  <SCORE.INTER>
-4.15089

>  <SCORE.INTER.CONST>
1

>  <SCORE.INTER.POLAR>
0

>  <SCORE.INTER.ROT>
11

>  <SCORE.INTER.SOLV>
12.2047

>  <SCORE.INTER.VDW>
-17.7688

>  <SCORE.INTER.norm>
-0.296492

>  <SCORE.INTRA>
-2.83835

>  <SCORE.INTRA.DIHEDRAL>
-5.84109

>  <SCORE.INTRA.DIHEDRAL.0>
7.79482

>  <SCORE.INTRA.POLAR>
0

>  <SCORE.INTRA.POLAR.0>
0

>  <SCORE.INTRA.REPUL>
0

>  <SCORE.INTRA.REPUL.0>
0

>  <SCORE.INTRA.SOLV>
1.40265

>  <SCORE.INTRA.SOLV.lig_0>
-49.456

>  <SCORE.INTRA.VDW>
-0.619136

>  <SCORE.INTRA.VDW.0>
-0.478406

>  <SCORE.INTRA.norm>
-0.20274

>  <SCORE.RESTR>
0

>  <SCORE.RESTR.CAVITY>
0

>  <SCORE.RESTR.norm>
0

>  <SCORE.SYSTEM>
0

>  <SCORE.SYSTEM.CONST>
0

>  <SCORE.SYSTEM.DIHEDRAL>
0

>  <SCORE.SYSTEM.SOLV>
0

>  <SCORE.SYSTEM.norm>
0

>  <SCORE.heavy>
14

>  <SCORE.norm>
-0.499232

>  <RMSD>
6.559

$$$$
ligand
 OpenBabel11021811413D
libRbt.so/2013.1/901 2013/11/27
 14 13  0  0  0  0  0  0  0  0999 V2000
   41.5722    5.9028   21.6567 N   0  0  0  0  0  0  0  0  0  0  0  0
   42.4551    6.3953   20.5773 C   0  0  0  0  0  0  0  0  0  0  0  0
   42.3409    7.9269   20.4182 C   0  0  0  0  0  0  0  0  0  0  0  0
   40.9418    8.4265   20.0221 C   0  0  0  0  0  0  0  0  0  0  0  0
   40.9065    9.9129   19.9472 N   0  0  0  0  0  0  0  0  0  0  0  0
   41.3862   10.3715   18.6182 C   0  0  0  0  0  0  0  0  0  0  0  0
   41.9588   11.8282   18.5711 C   0  0  0  0  0  0  0  0  0  0  0  0
   42.4523   12.2715   17.1639 C   0  0  0  0  0  0  0  0  0  0  0  0
   43.5884   11.4296   16.6167 C   0  0  0  0  0  0  0  0  0  0  0  0
   44.6717   11.4737   17.5804 N   0  0  0  0  0  0  0  0  0  0  0  0
   44.8090   10.1193   18.0870 C   0  0  0  0  0  0  0  0  0  0  0  0
   46.2731    9.7082   18.1900 C   0  0  0  0  0  0  0  0  0  0  0  0
   46.8230    9.5857   16.7608 C   0  0  0  0  0  0  0  0  0  0  0  0
   48.2325    9.1665   16.7419 N   0  0  0  0  0  0  0  0  0  0  0  0
  1  2  1  0  0  0  0
  2  3  1  0  0  0  0
  3  4  1  0  0  0  0
  4  5  1  0  0  0  0
  5  6  1  0  0  0  0
  6  7  1  0  0  0  0
  7  8  1  0  0  0  0
  8  9  1  0  0  0  0
  9 10  1  0  0  0  0
 10 11  1  0  0  0  0
 11 12  1  0  0  0  0
 12 13  1  0  0  0  0
 13 14  1  0  0  0  0
M  END
>  <CHROM.1>
-62.04594961,177.59192214,84.29280169,-155.87614974,179.92711335,-61.54866942
-56.68614661,114.47442964,136.92019479,-68.37059541,-178.94629523,43.45779965
9.60867220,18.63924579,-2.43973546,0.34428641,-0.53825260

>  <Name>
ligand

>  <RI>
0

>  <Rbt.Current_Directory>
/home/itssahil/PROJECTS/Mol_Feturizer/New_Systems/rnas/1TN1

>  <Rbt.Executable>
rbdock ($Id: //depot/dev/client3/rdock/2013.1/src/exe/rbdock.cxx#4 $)

>  <Rbt.Library>
libRbt.so (2013.1, Build901 2013/11/27)

>  <Rbt.Parameter_File>
/export/apps/rDock/src/rDock_2013.1_src/data/scripts/dock_solv.prm

>  <Rbt.Receptor>
prm/pocket_docking_7.prm

>  <SCORE>
-7.11894

>  <SCORE.INTER>
-5.85131

>  <SCORE.INTER.CONST>
1

>  <SCORE.INTER.POLAR>
0

>  <SCORE.INTER.ROT>
11

>  <SCORE.INTER.SOLV>
12.9195

>  <SCORE.INTER.VDW>
-19.1407

>  <SCORE.INTER.norm>
-0.417951

>  <SCORE.INTRA>
-1.26763

>  <SCORE.INTRA.DIHEDRAL>
-4.44424

>  <SCORE.INTRA.DIHEDRAL.0>
7.79482

>  <SCORE.INTRA.POLAR>
0

>  <SCORE.INTRA.POLAR.0>
0

>  <SCORE.INTRA.REPUL>
0

>  <SCORE.INTRA.REPUL.0>
0

>  <SCORE.INTRA.SOLV>
1.94384

>  <SCORE.INTRA.SOLV.lig_0>
-49.456

>  <SCORE.INTRA.VDW>
-0.0174218

>  <SCORE.INTRA.VDW.0>
-0.478406

>  <SCORE.INTRA.norm>
-0.0905447

>  <SCORE.RESTR>
0

>  <SCORE.RESTR.CAVITY>
0

>  <SCORE.RESTR.norm>
0

>  <SCORE.SYSTEM>
0

>  <SCORE.SYSTEM.CONST>
0

>  <SCORE.SYSTEM.DIHEDRAL>
0

>  <SCORE.SYSTEM.SOLV>
0

>  <SCORE.SYSTEM.norm>
0

>  <SCORE.heavy>
14

>  <SCORE.norm>
-0.508496

>  <RMSD>
6.596

$$$$
ligand
 OpenBabel11021811413D
libRbt.so/2013.1/901 2013/11/27
 14 13  0  0  0  0  0  0  0  0999 V2000
   44.0741   -4.0179   11.9006 N   0  0  0  0  0  0  0  0  0  0  0  0
   43.4947   -2.6877   12.1869 C   0  0  0  0  0  0  0  0  0  0  0  0
   44.4849   -1.8064   12.9785 C   0  0  0  0  0  0  0  0  0  0  0  0
   44.7848   -2.3017   14.4029 C   0  0  0  0  0  0  0  0  0  0  0  0
   45.8859   -1.5139   15.0219 N   0  0  0  0  0  0  0  0  0  0  0  0
   45.6037   -1.2808   16.4617 C   0  0  0  0  0  0  0  0  0  0  0  0
   45.5485    0.2198   16.9061 C   0  0  0  0  0  0  0  0  0  0  0  0
   44.4407    1.0515   16.1981 C   0  0  0  0  0  0  0  0  0  0  0  0
   44.7340    2.5377   16.1327 C   0  0  0  0  0  0  0  0  0  0  0  0
   45.8960    2.7193   15.2836 N   0  0  0  0  0  0  0  0  0  0  0  0
   46.0265    4.1527   15.0888 C   0  0  0  0  0  0  0  0  0  0  0  0
   46.1802    4.5034   13.6134 C   0  0  0  0  0  0  0  0  0  0  0  0
   46.3258    6.0292   13.5111 C   0  0  0  0  0  0  0  0  0  0  0  0
   47.6104    6.5020   14.0486 N   0  0  0  0  0  0  0  0  0  0  0  0
  1  2  1  0  0  0  0
  2  3  1  0  0  0  0
  3  4  1  0  0  0  0
  4  5  1  0  0  0  0
  5  6  1  0  0  0  0
  6  7  1  0  0  0  0
  7  8  1  0  0  0  0
  8  9  1  0  0  0  0
  9 10  1  0  0  0  0
 10 11  1  0  0  0  0
 11 12  1  0  0  0  0
 12 13  1  0  0  0  0
 13 14  1  0  0  0  0
M  END
>  <CHROM.1>
-66.55630381,171.90198001,141.57575101,-122.10329640,61.05982770,-154.73048176
65.58150512,171.93523799,-130.04366408,-179.39188282,69.70623721,45.36339557
1.00768891,14.55269241,2.92882572,1.31375538,1.90592205

>  <Name>
ligand

>  <RI>
0

>  <Rbt.Current_Directory>
/home/itssahil/PROJECTS/Mol_Feturizer/New_Systems/rnas/1TN1

>  <Rbt.Executable>
rbdock ($Id: //depot/dev/client3/rdock/2013.1/src/exe/rbdock.cxx#4 $)

>  <Rbt.Library>
libRbt.so (2013.1, Build901 2013/11/27)

>  <Rbt.Parameter_File>
/export/apps/rDock/src/rDock_2013.1_src/data/scripts/dock_solv.prm

>  <Rbt.Receptor>
prm/blind_docking_100.prm

>  <SCORE>
-3.41857

>  <SCORE.INTER>
-3.03044

>  <SCORE.INTER.CONST>
1

>  <SCORE.INTER.POLAR>
0

>  <SCORE.INTER.ROT>
11

>  <SCORE.INTER.SOLV>
9.90336

>  <SCORE.INTER.VDW>
-16.2548

>  <SCORE.INTER.norm>
-0.21646

>  <SCORE.INTRA>
-0.388122

>  <SCORE.INTRA.DIHEDRAL>
-1.38391

>  <SCORE.INTRA.DIHEDRAL.0>
7.79482

>  <SCORE.INTRA.POLAR>
0

>  <SCORE.INTRA.POLAR.0>
0

>  <SCORE.INTRA.REPUL>
0

>  <SCORE.INTRA.REPUL.0>
0

>  <SCORE.INTRA.SOLV>
2.33974

>  <SCORE.INTRA.SOLV.lig_0>
-49.456

>  <SCORE.INTRA.VDW>
-0.866034

>  <SCORE.INTRA.VDW.0>
-0.478406

>  <SCORE.INTRA.norm>
-0.027723

>  <SCORE.RESTR>
0

>  <SCORE.RESTR.CAVITY>
0

>  <SCORE.RESTR.norm>
0

>  <SCORE.SYSTEM>
0

>  <SCORE.SYSTEM.CONST>
0

>  <SCORE.SYSTEM.DIHEDRAL>
0

>  <SCORE.SYSTEM.SOLV>
0

>  <SCORE.SYSTEM.norm>
0

>  <SCORE.heavy>
14

>  <SCORE.norm>
-0.244183

>  <RMSD>
6.610

$$$$
ligand
 OpenBabel11021811413D
libRbt.so/2013.1/901 2013/11/27
 14 13  0  0  0  0  0  0  0  0999 V2000
   44.7385   -5.0155   11.2681 N   0  0  0  0  0  0  0  0  0  0  0  0
   44.9609   -4.5130   12.6411 C   0  0  0  0  0  0  0  0  0  0  0  0
   43.9937   -3.3569   12.9757 C   0  0  0  0  0  0  0  0  0  0  0  0
   44.2025   -2.7295   14.3638 C   0  0  0  0  0  0  0  0  0  0  0  0
   45.5264   -2.0540   14.4513 N   0  0  0  0  0  0  0  0  0  0  0  0
   45.7458   -1.5303   15.8240 C   0  0  0  0  0  0  0  0  0  0  0  0
   45.1728   -0.0998   16.1021 C   0  0  0  0  0  0  0  0  0  0  0  0
   45.5371    0.4688   17.5037 C   0  0  0  0  0  0  0  0  0  0  0  0
   44.9729    1.8501   17.7732 C   0  0  0  0  0  0  0  0  0  0  0  0
   45.4847    2.2910   19.0569 N   0  0  0  0  0  0  0  0  0  0  0  0
   46.0200    3.6230   18.8358 C   0  0  0  0  0  0  0  0  0  0  0  0
   45.5867    4.5876   19.9335 C   0  0  0  0  0  0  0  0  0  0  0  0
   46.0766    5.9895   19.5404 C   0  0  0  0  0  0  0  0  0  0  0  0
   45.6478    7.0174   20.5007 N   0  0  0  0  0  0  0  0  0  0  0  0
  1  2  1  0  0  0  0
  2  3  1  0  0  0  0
  3  4  1  0  0  0  0
  4  5  1  0  0  0  0
  5  6  1  0  0  0  0
  6  7  1  0  0  0  0
  7  8  1  0  0  0  0
  8  9  1  0  0  0  0
  9 10  1  0  0  0  0
 10 11  1  0  0  0  0
 11 12  1  0  0  0  0
 12 13  1  0  0  0  0
 13 14  1  0  0  0  0
M  END
>  <CHROM.1>
-177.21592770,65.34988657,-176.38945020,-86.62447700,-174.53313750,-179.60832347
-175.25666883,129.92324724,134.65958922,-174.32098431,176.92388050,45.26186035
0.46626964,16.48365887,1.96561922,1.33263159,-2.87500262

>  <Name>
ligand

>  <RI>
0

>  <Rbt.Current_Directory>
/home/itssahil/PROJECTS/Mol_Feturizer/New_Systems/rnas/1TN1

>  <Rbt.Executable>
rbdock ($Id: //depot/dev/client3/rdock/2013.1/src/exe/rbdock.cxx#4 $)

>  <Rbt.Library>
libRbt.so (2013.1, Build901 2013/11/27)

>  <Rbt.Parameter_File>
/export/apps/rDock/src/rDock_2013.1_src/data/scripts/dock_solv.prm

>  <Rbt.Receptor>
prm/blind_docking_100.prm

>  <SCORE>
-9.25316

>  <SCORE.INTER>
-6.47977

>  <SCORE.INTER.CONST>
1

>  <SCORE.INTER.POLAR>
0

>  <SCORE.INTER.ROT>
11

>  <SCORE.INTER.SOLV>
14.5687

>  <SCORE.INTER.VDW>
-20.1094

>  <SCORE.INTER.norm>
-0.462841

>  <SCORE.INTRA>
-2.77339

>  <SCORE.INTRA.DIHEDRAL>
-4.64572

>  <SCORE.INTRA.DIHEDRAL.0>
7.79482

>  <SCORE.INTRA.POLAR>
0

>  <SCORE.INTRA.POLAR.0>
0

>  <SCORE.INTRA.REPUL>
0

>  <SCORE.INTRA.REPUL.0>
0

>  <SCORE.INTRA.SOLV>
0.267443

>  <SCORE.INTRA.SOLV.lig_0>
-49.456

>  <SCORE.INTRA.VDW>
-0.584247

>  <SCORE.INTRA.VDW.0>
-0.478406

>  <SCORE.INTRA.norm>
-0.198099

>  <SCORE.RESTR>
0

>  <SCORE.RESTR.CAVITY>
0

>  <SCORE.RESTR.norm>
0

>  <SCORE.SYSTEM>
0

>  <SCORE.SYSTEM.CONST>
0

>  <SCORE.SYSTEM.DIHEDRAL>
0

>  <SCORE.SYSTEM.SOLV>
0

>  <SCORE.SYSTEM.norm>
0

>  <SCORE.heavy>
14

>  <SCORE.norm>
-0.66094

>  <RMSD>
6.644

$$$$
ligand
 OpenBabel11021811413D
libRbt.so/2013.1/901 2013/11/27
 14 13  0  0  0  0  0  0  0  0999 V2000
   50.8693    9.0531   16.0002 N   0  0  0  0  0  0  0  0  0  0  0  0
   50.6649    8.1403   17.1457 C   0  0  0  0  0  0  0  0  0  0  0  0
   49.1646    7.8504   17.3675 C   0  0  0  0  0  0  0  0  0  0  0  0
   48.3164    9.0884   17.7020 C   0  0  0  0  0  0  0  0  0  0  0  0
   46.8854    8.7216   17.8871 N   0  0  0  0  0  0  0  0  0  0  0  0
   46.0394    9.9426   17.8951 C   0  0  0  0  0  0  0  0  0  0  0  0
   44.5175    9.7095   18.1808 C   0  0  0  0  0  0  0  0  0  0  0  0
   43.6508   10.9987   18.0970 C   0  0  0  0  0  0  0  0  0  0  0  0
   42.1705   10.7611   18.3235 C   0  0  0  0  0  0  0  0  0  0  0  0
   42.0215   10.1162   19.6144 N   0  0  0  0  0  0  0  0  0  0  0  0
   40.7299    9.4526   19.5811 C   0  0  0  0  0  0  0  0  0  0  0  0
   40.6853    8.2706   20.5424 C   0  0  0  0  0  0  0  0  0  0  0  0
   39.3025    7.6149   20.4088 C   0  0  0  0  0  0  0  0  0  0  0  0
   39.1591    6.4386   21.2797 N   0  0  0  0  0  0  0  0  0  0  0  0
  1  2  1  0  0  0  0
  2  3  1  0  0  0  0
  3  4  1  0  0  0  0
  4  5  1  0  0  0  0
  5  6  1  0  0  0  0
  6  7  1  0  0  0  0
  7  8  1  0  0  0  0
  8  9  1  0  0  0  0
  9 10  1  0  0  0  0
 10 11  1  0  0  0  0
 11 12  1  0  0  0  0
 12 13  1  0  0  0  0
 13 14  1  0  0  0  0
M  END
>  <CHROM.1>
-61.64569742,179.48060480,-166.92379564,-175.97652034,-176.52938185,177.85516183
56.39185888,-158.59325441,154.62367666,-178.50895530,178.87383438,44.58402420
9.01149505,18.57317821,-0.14477904,-0.29932360,2.77681482

>  <Name>
ligand

>  <RI>
0

>  <Rbt.Current_Directory>
/home/itssahil/PROJECTS/Mol_Feturizer/New_Systems/rnas/1TN1

>  <Rbt.Executable>
rbdock ($Id: //depot/dev/client3/rdock/2013.1/src/exe/rbdock.cxx#4 $)

>  <Rbt.Library>
libRbt.so (2013.1, Build901 2013/11/27)

>  <Rbt.Parameter_File>
/export/apps/rDock/src/rDock_2013.1_src/data/scripts/dock_solv.prm

>  <Rbt.Receptor>
prm/pocket_docking_8.prm

>  <SCORE>
-8.8652

>  <SCORE.INTER>
-5.48933

>  <SCORE.INTER.CONST>
1

>  <SCORE.INTER.POLAR>
0

>  <SCORE.INTER.ROT>
11

>  <SCORE.INTER.SOLV>
8.40497

>  <SCORE.INTER.VDW>
-17.3945

>  <SCORE.INTER.norm>
-0.392095

>  <SCORE.INTRA>
-3.37587

>  <SCORE.INTRA.DIHEDRAL>
-6.71283

>  <SCORE.INTRA.DIHEDRAL.0>
7.79482

>  <SCORE.INTRA.POLAR>
0

>  <SCORE.INTRA.POLAR.0>
0

>  <SCORE.INTRA.REPUL>
0

>  <SCORE.INTRA.REPUL.0>
0

>  <SCORE.INTRA.SOLV>
1.08504

>  <SCORE.INTRA.SOLV.lig_0>
-49.456

>  <SCORE.INTRA.VDW>
-0.561974

>  <SCORE.INTRA.VDW.0>
-0.478406

>  <SCORE.INTRA.norm>
-0.241134

>  <SCORE.RESTR>
0

>  <SCORE.RESTR.CAVITY>
0

>  <SCORE.RESTR.norm>
0

>  <SCORE.SYSTEM>
0

>  <SCORE.SYSTEM.CONST>
0

>  <SCORE.SYSTEM.DIHEDRAL>
0

>  <SCORE.SYSTEM.SOLV>
0

>  <SCORE.SYSTEM.norm>
0

>  <SCORE.heavy>
14

>  <SCORE.norm>
-0.633229

>  <RMSD>
6.806

$$$$
ligand
 OpenBabel11021811413D
libRbt.so/2013.1/901 2013/11/27
 14 13  0  0  0  0  0  0  0  0999 V2000
   45.3425    5.9554   20.4761 N   0  0  0  0  0  0  0  0  0  0  0  0
   44.9522    7.3526   20.1882 C   0  0  0  0  0  0  0  0  0  0  0  0
   46.1618    8.1815   19.7048 C   0  0  0  0  0  0  0  0  0  0  0  0
   45.8381    9.6444   19.3597 C   0  0  0  0  0  0  0  0  0  0  0  0
   44.8030    9.7253   18.2927 N   0  0  0  0  0  0  0  0  0  0  0  0
   44.4633   11.1442   18.0134 C   0  0  0  0  0  0  0  0  0  0  0  0
   43.0079   11.4025   17.4965 C   0  0  0  0  0  0  0  0  0  0  0  0
   41.8964   11.0536   18.5276 C   0  0  0  0  0  0  0  0  0  0  0  0
   41.8861    9.5981   18.9526 C   0  0  0  0  0  0  0  0  0  0  0  0
   40.7651    9.4116   19.8542 N   0  0  0  0  0  0  0  0  0  0  0  0
   41.0869    8.2417   20.6526 C   0  0  0  0  0  0  0  0  0  0  0  0
   39.8279    7.5609   21.1768 C   0  0  0  0  0  0  0  0  0  0  0  0
   39.1355    6.8829   19.9849 C   0  0  0  0  0  0  0  0  0  0  0  0
   37.9461    6.1205   20.3934 N   0  0  0  0  0  0  0  0  0  0  0  0
  1  2  1  0  0  0  0
  2  3  1  0  0  0  0
  3  4  1  0  0  0  0
  4  5  1  0  0  0  0
  5  6  1  0  0  0  0
  6  7  1  0  0  0  0
  7  8  1  0  0  0  0
  8  9  1  0  0  0  0
  9 10  1  0  0  0  0
 10 11  1  0  0  0  0
 11 12  1  0  0  0  0
 12 13  1  0  0  0  0
 13 14  1  0  0  0  0
M  END
>  <CHROM.1>
179.01910104,-58.73350662,177.65456623,-151.31251897,64.69160139,-60.54813487
-177.17693188,-156.84744864,-154.70122786,71.49867616,176.43495854,42.65109891
8.73432906,19.50514291,-0.42641614,-0.04323437,2.64954742

>  <Name>
ligand

>  <RI>
0

>  <Rbt.Current_Directory>
/home/itssahil/PROJECTS/Mol_Feturizer/New_Systems/rnas/1TN1

>  <Rbt.Executable>
rbdock ($Id: //depot/dev/client3/rdock/2013.1/src/exe/rbdock.cxx#4 $)

>  <Rbt.Library>
libRbt.so (2013.1, Build901 2013/11/27)

>  <Rbt.Parameter_File>
/export/apps/rDock/src/rDock_2013.1_src/data/scripts/dock_solv.prm

>  <Rbt.Receptor>
prm/blind_docking_60.prm

>  <SCORE>
-11.5064

>  <SCORE.INTER>
-8.59387

>  <SCORE.INTER.CONST>
1

>  <SCORE.INTER.POLAR>
0

>  <SCORE.INTER.ROT>
11

>  <SCORE.INTER.SOLV>
13.0645

>  <SCORE.INTER.VDW>
-21.0174

>  <SCORE.INTER.norm>
-0.613848

>  <SCORE.INTRA>
-2.91258

>  <SCORE.INTRA.DIHEDRAL>
-5.73108

>  <SCORE.INTRA.DIHEDRAL.0>
7.79482

>  <SCORE.INTRA.POLAR>
0

>  <SCORE.INTRA.POLAR.0>
0

>  <SCORE.INTRA.REPUL>
0

>  <SCORE.INTRA.REPUL.0>
0

>  <SCORE.INTRA.SOLV>
1.69292

>  <SCORE.INTRA.SOLV.lig_0>
-49.456

>  <SCORE.INTRA.VDW>
-0.893496

>  <SCORE.INTRA.VDW.0>
-0.478406

>  <SCORE.INTRA.norm>
-0.208041

>  <SCORE.RESTR>
0

>  <SCORE.RESTR.CAVITY>
0

>  <SCORE.RESTR.norm>
0

>  <SCORE.SYSTEM>
0

>  <SCORE.SYSTEM.CONST>
0

>  <SCORE.SYSTEM.DIHEDRAL>
0

>  <SCORE.SYSTEM.SOLV>
0

>  <SCORE.SYSTEM.norm>
0

>  <SCORE.heavy>
14

>  <SCORE.norm>
-0.821889

>  <RMSD>
6.942

$$$$
ligand
 OpenBabel11021811413D
libRbt.so/2013.1/901 2013/11/27
 14 13  0  0  0  0  0  0  0  0999 V2000
   49.2629   11.9768   14.7733 N   0  0  0  0  0  0  0  0  0  0  0  0
   47.8400   12.1287   14.3998 C   0  0  0  0  0  0  0  0  0  0  0  0
   46.9251   12.0425   15.6406 C   0  0  0  0  0  0  0  0  0  0  0  0
   45.4251   12.1995   15.3417 C   0  0  0  0  0  0  0  0  0  0  0  0
   44.6200   12.1199   16.5915 N   0  0  0  0  0  0  0  0  0  0  0  0
   43.1739   12.0253   16.2654 C   0  0  0  0  0  0  0  0  0  0  0  0
   42.2169   11.8167   17.4872 C   0  0  0  0  0  0  0  0  0  0  0  0
   42.5269   10.5441   18.3267 C   0  0  0  0  0  0  0  0  0  0  0  0
   41.4117   10.1439   19.2727 C   0  0  0  0  0  0  0  0  0  0  0  0
   41.8024    8.9018   19.9122 N   0  0  0  0  0  0  0  0  0  0  0  0
   40.5935    8.3661   20.5131 C   0  0  0  0  0  0  0  0  0  0  0  0
   40.8836    7.1078   21.3230 C   0  0  0  0  0  0  0  0  0  0  0  0
   39.5530    6.6190   21.9149 C   0  0  0  0  0  0  0  0  0  0  0  0
   38.6147    6.1688   20.8758 N   0  0  0  0  0  0  0  0  0  0  0  0
  1  2  1  0  0  0  0
  2  3  1  0  0  0  0
  3  4  1  0  0  0  0
  4  5  1  0  0  0  0
  5  6  1  0  0  0  0
  6  7  1  0  0  0  0
  7  8  1  0  0  0  0
  8  9  1  0  0  0  0
  9 10  1  0  0  0  0
 10 11  1  0  0  0  0
 11 12  1  0  0  0  0
 12 13  1  0  0  0  0
 13 14  1  0  0  0  0
M  END
>  <CHROM.1>
179.64890239,-179.32586393,-169.75187104,175.17895904,-57.95811493,-164.97978446
176.13024980,-164.86002821,-175.32165048,-179.99586330,66.03849320,43.20340678
10.15449147,18.04556539,-0.77885124,-0.29297438,2.54744723

>  <Name>
ligand

>  <RI>
0

>  <Rbt.Current_Directory>
/home/itssahil/PROJECTS/Mol_Feturizer/New_Systems/rnas/1TN1

>  <Rbt.Executable>
rbdock ($Id: //depot/dev/client3/rdock/2013.1/src/exe/rbdock.cxx#4 $)

>  <Rbt.Library>
libRbt.so (2013.1, Build901 2013/11/27)

>  <Rbt.Parameter_File>
/export/apps/rDock/src/rDock_2013.1_src/data/scripts/dock_solv.prm

>  <Rbt.Receptor>
prm/pocket_docking_8.prm

>  <SCORE>
-8.37686

>  <SCORE.INTER>
-5.04188

>  <SCORE.INTER.CONST>
1

>  <SCORE.INTER.POLAR>
0

>  <SCORE.INTER.ROT>
11

>  <SCORE.INTER.SOLV>
8.52429

>  <SCORE.INTER.VDW>
-17.136

>  <SCORE.INTER.norm>
-0.360134

>  <SCORE.INTRA>
-3.33498

>  <SCORE.INTRA.DIHEDRAL>
-6.38495

>  <SCORE.INTRA.DIHEDRAL.0>
7.79482

>  <SCORE.INTRA.POLAR>
0

>  <SCORE.INTRA.POLAR.0>
0

>  <SCORE.INTRA.REPUL>
0

>  <SCORE.INTRA.REPUL.0>
0

>  <SCORE.INTRA.SOLV>
1.08205

>  <SCORE.INTRA.SOLV.lig_0>
-49.456

>  <SCORE.INTRA.VDW>
-0.683529

>  <SCORE.INTRA.VDW.0>
-0.478406

>  <SCORE.INTRA.norm>
-0.238213

>  <SCORE.RESTR>
0

>  <SCORE.RESTR.CAVITY>
0

>  <SCORE.RESTR.norm>
0

>  <SCORE.SYSTEM>
0

>  <SCORE.SYSTEM.CONST>
0

>  <SCORE.SYSTEM.DIHEDRAL>
0

>  <SCORE.SYSTEM.SOLV>
0

>  <SCORE.SYSTEM.norm>
0

>  <SCORE.heavy>
14

>  <SCORE.norm>
-0.598347

>  <RMSD>
7.113

$$$$
ligand
 OpenBabel11021811413D
libRbt.so/2013.1/901 2013/11/27
 14 13  0  0  0  0  0  0  0  0999 V2000
   46.5622    7.8010   14.2746 N   0  0  0  0  0  0  0  0  0  0  0  0
   46.4989    7.0561   12.9985 C   0  0  0  0  0  0  0  0  0  0  0  0
   46.3226    5.5420   13.2444 C   0  0  0  0  0  0  0  0  0  0  0  0
   47.4174    4.9034   14.1148 C   0  0  0  0  0  0  0  0  0  0  0  0
   48.7713    5.1902   13.5662 N   0  0  0  0  0  0  0  0  0  0  0  0
   49.4041    3.9373   13.0798 C   0  0  0  0  0  0  0  0  0  0  0  0
   49.0675    3.5380   11.6036 C   0  0  0  0  0  0  0  0  0  0  0  0
   49.9660    2.4040   11.0317 C   0  0  0  0  0  0  0  0  0  0  0  0
   49.7840    1.0668   11.7229 C   0  0  0  0  0  0  0  0  0  0  0  0
   50.6919    0.1227   11.0994 N   0  0  0  0  0  0  0  0  0  0  0  0
   50.3325   -1.1824   11.6260 C   0  0  0  0  0  0  0  0  0  0  0  0
   49.5825   -2.0138   10.5919 C   0  0  0  0  0  0  0  0  0  0  0  0
   49.3540   -3.4085   11.1940 C   0  0  0  0  0  0  0  0  0  0  0  0
   48.5170   -3.3616   12.4023 N   0  0  0  0  0  0  0  0  0  0  0  0
  1  2  1  0  0  0  0
  2  3  1  0  0  0  0
  3  4  1  0  0  0  0
  4  5  1  0  0  0  0
  5  6  1  0  0  0  0
  6  7  1  0  0  0  0
  7  8  1  0  0  0  0
  8  9  1  0  0  0  0
  9 10  1  0  0  0  0
 10 11  1  0  0  0  0
 11 12  1  0  0  0  0
 12 13  1  0  0  0  0
 13 14  1  0  0  0  0
M  END
>  <CHROM.1>
-57.13118936,-53.83528335,-113.14572174,86.84311081,167.83163327,65.59038030
-179.22980750,-170.66155644,105.44856397,175.21912182,62.38221241,48.73375939
2.25671824,12.32479474,1.89409705,0.52757929,0.08852871

>  <Name>
ligand

>  <RI>
0

>  <Rbt.Current_Directory>
/home/itssahil/PROJECTS/Mol_Feturizer/New_Systems/rnas/1TN1

>  <Rbt.Executable>
rbdock ($Id: //depot/dev/client3/rdock/2013.1/src/exe/rbdock.cxx#4 $)

>  <Rbt.Library>
libRbt.so (2013.1, Build901 2013/11/27)

>  <Rbt.Parameter_File>
/export/apps/rDock/src/rDock_2013.1_src/data/scripts/dock_solv.prm

>  <Rbt.Receptor>
prm/blind_docking_80.prm

>  <SCORE>
-0.0562222

>  <SCORE.INTER>
0.486053

>  <SCORE.INTER.CONST>
1

>  <SCORE.INTER.POLAR>
0

>  <SCORE.INTER.ROT>
11

>  <SCORE.INTER.SOLV>
8.48203

>  <SCORE.INTER.VDW>
-13.4366

>  <SCORE.INTER.norm>
0.034718

>  <SCORE.INTRA>
-0.542275

>  <SCORE.INTRA.DIHEDRAL>
-4.07237

>  <SCORE.INTRA.DIHEDRAL.0>
7.79482

>  <SCORE.INTRA.POLAR>
0

>  <SCORE.INTRA.POLAR.0>
0

>  <SCORE.INTRA.REPUL>
0

>  <SCORE.INTRA.REPUL.0>
0

>  <SCORE.INTRA.SOLV>
2.95918

>  <SCORE.INTRA.SOLV.lig_0>
-49.456

>  <SCORE.INTRA.VDW>
0.0143203

>  <SCORE.INTRA.VDW.0>
-0.478406

>  <SCORE.INTRA.norm>
-0.0387339

>  <SCORE.RESTR>
0

>  <SCORE.RESTR.CAVITY>
0

>  <SCORE.RESTR.norm>
0

>  <SCORE.SYSTEM>
0

>  <SCORE.SYSTEM.CONST>
0

>  <SCORE.SYSTEM.DIHEDRAL>
0

>  <SCORE.SYSTEM.SOLV>
0

>  <SCORE.SYSTEM.norm>
0

>  <SCORE.heavy>
14

>  <SCORE.norm>
-0.00401587

>  <RMSD>
7.608

$$$$
ligand
 OpenBabel11021811413D
libRbt.so/2013.1/901 2013/11/27
 14 13  0  0  0  0  0  0  0  0999 V2000
   48.7589   -1.4113   11.8426 N   0  0  0  0  0  0  0  0  0  0  0  0
   48.5725   -0.2713   10.9192 C   0  0  0  0  0  0  0  0  0  0  0  0
   48.0155    0.9627   11.6614 C   0  0  0  0  0  0  0  0  0  0  0  0
   46.5916    0.7879   12.2144 C   0  0  0  0  0  0  0  0  0  0  0  0
   46.5514   -0.2681   13.2630 N   0  0  0  0  0  0  0  0  0  0  0  0
   45.1717   -0.4117   13.7946 C   0  0  0  0  0  0  0  0  0  0  0  0
   44.9363   -1.6340   14.7446 C   0  0  0  0  0  0  0  0  0  0  0  0
   45.8075   -1.6138   16.0333 C   0  0  0  0  0  0  0  0  0  0  0  0
   45.4642   -0.4895   16.9909 C   0  0  0  0  0  0  0  0  0  0  0  0
   45.9164    0.7516   16.3914 N   0  0  0  0  0  0  0  0  0  0  0  0
   45.7106    1.7781   17.3982 C   0  0  0  0  0  0  0  0  0  0  0  0
   46.5503    3.0173   17.1110 C   0  0  0  0  0  0  0  0  0  0  0  0
   46.0945    3.5842   15.7579 C   0  0  0  0  0  0  0  0  0  0  0  0
   46.9597    4.6794   15.2946 N   0  0  0  0  0  0  0  0  0  0  0  0
  1  2  1  0  0  0  0
  2  3  1  0  0  0  0
  3  4  1  0  0  0  0
  4  5  1  0  0  0  0
  5  6  1  0  0  0  0
  6  7  1  0  0  0  0
  7  8  1  0  0  0  0
  8  9  1  0  0  0  0
  9 10  1  0  0  0  0
 10 11  1  0  0  0  0
 11 12  1  0  0  0  0
 12 13  1  0  0  0  0
 13 14  1  0  0  0  0
M  END
>  <CHROM.1>
-65.91961074,64.30316800,179.39224538,170.96212712,60.81888741,66.89423644
-71.27606071,-173.63986487,160.74474011,61.85781142,-172.34753579,46.50700927
0.67571167,14.52992818,0.90026469,-1.06261804,-2.68090221

>  <Name>
ligand

>  <RI>
0

>  <Rbt.Current_Directory>
/home/itssahil/PROJECTS/Mol_Feturizer/New_Systems/rnas/1TN1

>  <Rbt.Executable>
rbdock ($Id: //depot/dev/client3/rdock/2013.1/src/exe/rbdock.cxx#4 $)

>  <Rbt.Library>
libRbt.so (2013.1, Build901 2013/11/27)

>  <Rbt.Parameter_File>
/export/apps/rDock/src/rDock_2013.1_src/data/scripts/dock_solv.prm

>  <Rbt.Receptor>
prm/pocket_docking_7.prm

>  <SCORE>
-1.73187

>  <SCORE.INTER>
-0.508774

>  <SCORE.INTER.CONST>
1

>  <SCORE.INTER.POLAR>
0

>  <SCORE.INTER.ROT>
11

>  <SCORE.INTER.SOLV>
7.11054

>  <SCORE.INTER.VDW>
-13.6427

>  <SCORE.INTER.norm>
-0.036341

>  <SCORE.INTRA>
-1.2231

>  <SCORE.INTRA.DIHEDRAL>
-6.31572

>  <SCORE.INTRA.DIHEDRAL.0>
7.79482

>  <SCORE.INTRA.POLAR>
0

>  <SCORE.INTRA.POLAR.0>
0

>  <SCORE.INTRA.REPUL>
0

>  <SCORE.INTRA.REPUL.0>
0

>  <SCORE.INTRA.SOLV>
5.51855

>  <SCORE.INTRA.SOLV.lig_0>
-49.456

>  <SCORE.INTRA.VDW>
-0.824515

>  <SCORE.INTRA.VDW.0>
-0.478406

>  <SCORE.INTRA.norm>
-0.0873643

>  <SCORE.RESTR>
0

>  <SCORE.RESTR.CAVITY>
0

>  <SCORE.RESTR.norm>
0

>  <SCORE.SYSTEM>
0

>  <SCORE.SYSTEM.CONST>
0

>  <SCORE.SYSTEM.DIHEDRAL>
0

>  <SCORE.SYSTEM.SOLV>
0

>  <SCORE.SYSTEM.norm>
0

>  <SCORE.heavy>
14

>  <SCORE.norm>
-0.123705

>  <RMSD>
7.728

$$$$
ligand
 OpenBabel11021811413D
libRbt.so/2013.1/901 2013/11/27
 14 13  0  0  0  0  0  0  0  0999 V2000
   38.7990    6.3471   20.9678 N   0  0  0  0  0  0  0  0  0  0  0  0
   39.7316    7.0420   20.0542 C   0  0  0  0  0  0  0  0  0  0  0  0
   40.7538    7.8912   20.8403 C   0  0  0  0  0  0  0  0  0  0  0  0
   41.7992    8.6044   19.9671 C   0  0  0  0  0  0  0  0  0  0  0  0
   41.1470    9.5350   19.0053 N   0  0  0  0  0  0  0  0  0  0  0  0
   42.0910   10.6130   18.6134 C   0  0  0  0  0  0  0  0  0  0  0  0
   41.6150   11.5363   17.4416 C   0  0  0  0  0  0  0  0  0  0  0  0
   42.6270   12.6560   17.0642 C   0  0  0  0  0  0  0  0  0  0  0  0
   42.8341   13.6909   18.1527 C   0  0  0  0  0  0  0  0  0  0  0  0
   41.5577   14.3366   18.3938 N   0  0  0  0  0  0  0  0  0  0  0  0
   41.6412   14.8967   19.7313 C   0  0  0  0  0  0  0  0  0  0  0  0
   40.2730   15.3389   20.2372 C   0  0  0  0  0  0  0  0  0  0  0  0
   40.4667   15.9356   21.6395 C   0  0  0  0  0  0  0  0  0  0  0  0
   39.2167   16.4834   22.1875 N   0  0  0  0  0  0  0  0  0  0  0  0
  1  2  1  0  0  0  0
  2  3  1  0  0  0  0
  3  4  1  0  0  0  0
  4  5  1  0  0  0  0
  5  6  1  0  0  0  0
  6  7  1  0  0  0  0
  7  8  1  0  0  0  0
  8  9  1  0  0  0  0
  9 10  1  0  0  0  0
 10 11  1  0  0  0  0
 11 12  1  0  0  0  0
 12 13  1  0  0  0  0
 13 14  1  0  0  0  0
M  END
>  <CHROM.1>
177.65583088,59.98457289,155.10310524,170.98914294,179.75523807,-65.79686328
-61.52354824,157.89593040,-167.50558909,-179.04173843,175.98916937,41.03984106
11.77911786,19.59234458,1.68758356,-0.93150517,-3.03723123

>  <Name>
ligand

>  <RI>
0

>  <Rbt.Current_Directory>
/home/itssahil/PROJECTS/Mol_Feturizer/New_Systems/rnas/1TN1

>  <Rbt.Executable>
rbdock ($Id: //depot/dev/client3/rdock/2013.1/src/exe/rbdock.cxx#4 $)

>  <Rbt.Library>
libRbt.so (2013.1, Build901 2013/11/27)

>  <Rbt.Parameter_File>
/export/apps/rDock/src/rDock_2013.1_src/data/scripts/dock_solv.prm

>  <Rbt.Receptor>
prm/pocket_docking_8.prm

>  <SCORE>
-7.84209

>  <SCORE.INTER>
-4.55654

>  <SCORE.INTER.CONST>
1

>  <SCORE.INTER.POLAR>
0

>  <SCORE.INTER.ROT>
11

>  <SCORE.INTER.SOLV>
10.9674

>  <SCORE.INTER.VDW>
-17.6268

>  <SCORE.INTER.norm>
-0.325467

>  <SCORE.INTRA>
-3.28826

>  <SCORE.INTRA.DIHEDRAL>
-6.5711

>  <SCORE.INTRA.DIHEDRAL.0>
7.79482

>  <SCORE.INTRA.POLAR>
0

>  <SCORE.INTRA.POLAR.0>
0

>  <SCORE.INTRA.REPUL>
0

>  <SCORE.INTRA.REPUL.0>
0

>  <SCORE.INTRA.SOLV>
0.973132

>  <SCORE.INTRA.SOLV.lig_0>
-49.456

>  <SCORE.INTRA.VDW>
-0.489279

>  <SCORE.INTRA.VDW.0>
-0.478406

>  <SCORE.INTRA.norm>
-0.234876

>  <SCORE.RESTR>
0.00270812

>  <SCORE.RESTR.CAVITY>
0.00270812

>  <SCORE.RESTR.norm>
0.000193437

>  <SCORE.SYSTEM>
0

>  <SCORE.SYSTEM.CONST>
0

>  <SCORE.SYSTEM.DIHEDRAL>
0

>  <SCORE.SYSTEM.SOLV>
0

>  <SCORE.SYSTEM.norm>
0

>  <SCORE.heavy>
14

>  <SCORE.norm>
-0.56015

>  <RMSD>
7.854

$$$$
ligand
 OpenBabel11021811413D
libRbt.so/2013.1/901 2013/11/27
 14 13  0  0  0  0  0  0  0  0999 V2000
   44.8797    3.3293   19.4780 N   0  0  0  0  0  0  0  0  0  0  0  0
   46.0104    3.3369   18.5247 C   0  0  0  0  0  0  0  0  0  0  0  0
   46.6222    1.9273   18.3734 C   0  0  0  0  0  0  0  0  0  0  0  0
   45.6835    0.8869   17.7406 C   0  0  0  0  0  0  0  0  0  0  0  0
   45.1890    1.3497   16.4148 N   0  0  0  0  0  0  0  0  0  0  0  0
   44.4467    0.2578   15.7340 C   0  0  0  0  0  0  0  0  0  0  0  0
   45.3016   -0.6590   14.7955 C   0  0  0  0  0  0  0  0  0  0  0  0
   44.5331   -1.8927   14.2408 C   0  0  0  0  0  0  0  0  0  0  0  0
   45.3252   -2.7131   13.2416 C   0  0  0  0  0  0  0  0  0  0  0  0
   44.5869   -3.9371   12.9945 N   0  0  0  0  0  0  0  0  0  0  0  0
   45.4639   -4.7769   12.1975 C   0  0  0  0  0  0  0  0  0  0  0  0
   45.1478   -6.2554   12.3914 C   0  0  0  0  0  0  0  0  0  0  0  0
   46.1566   -7.0595   11.5572 C   0  0  0  0  0  0  0  0  0  0  0  0
   47.5426   -6.8368   11.9956 N   0  0  0  0  0  0  0  0  0  0  0  0
  1  2  1  0  0  0  0
  2  3  1  0  0  0  0
  3  4  1  0  0  0  0
  4  5  1  0  0  0  0
  5  6  1  0  0  0  0
  6  7  1  0  0  0  0
  7  8  1  0  0  0  0
  8  9  1  0  0  0  0
  9 10  1  0  0  0  0
 10 11  1  0  0  0  0
 11 12  1  0  0  0  0
 12 13  1  0  0  0  0
 13 14  1  0  0  0  0
M  END
>  <CHROM.1>
65.22073376,55.76426325,171.85687936,-91.42736009,172.78310481,175.10877097
170.21867435,-171.68868722,153.64823041,-177.80179987,61.68421483,45.49204917
-1.64594941,14.97702799,1.60881662,-0.48396819,0.65086873

>  <Name>
ligand

>  <RI>
0

>  <Rbt.Current_Directory>
/home/itssahil/PROJECTS/Mol_Feturizer/New_Systems/rnas/1TN1

>  <Rbt.Executable>
rbdock ($Id: //depot/dev/client3/rdock/2013.1/src/exe/rbdock.cxx#4 $)

>  <Rbt.Library>
libRbt.so (2013.1, Build901 2013/11/27)

>  <Rbt.Parameter_File>
/export/apps/rDock/src/rDock_2013.1_src/data/scripts/dock_solv.prm

>  <Rbt.Receptor>
prm/blind_docking_60.prm

>  <SCORE>
-4.09439

>  <SCORE.INTER>
-2.12418

>  <SCORE.INTER.CONST>
1

>  <SCORE.INTER.POLAR>
0

>  <SCORE.INTER.ROT>
11

>  <SCORE.INTER.SOLV>
15.8262

>  <SCORE.INTER.VDW>
-17.6248

>  <SCORE.INTER.norm>
-0.151727

>  <SCORE.INTRA>
-1.97021

>  <SCORE.INTRA.DIHEDRAL>
-5.70658

>  <SCORE.INTRA.DIHEDRAL.0>
7.79482

>  <SCORE.INTRA.POLAR>
0

>  <SCORE.INTRA.POLAR.0>
0

>  <SCORE.INTRA.REPUL>
0

>  <SCORE.INTRA.REPUL.0>
0

>  <SCORE.INTRA.SOLV>
2.62813

>  <SCORE.INTRA.SOLV.lig_0>
-49.456

>  <SCORE.INTRA.VDW>
-0.430983

>  <SCORE.INTRA.VDW.0>
-0.478406

>  <SCORE.INTRA.norm>
-0.140729

>  <SCORE.RESTR>
0

>  <SCORE.RESTR.CAVITY>
0

>  <SCORE.RESTR.norm>
0

>  <SCORE.SYSTEM>
0

>  <SCORE.SYSTEM.CONST>
0

>  <SCORE.SYSTEM.DIHEDRAL>
0

>  <SCORE.SYSTEM.SOLV>
0

>  <SCORE.SYSTEM.norm>
0

>  <SCORE.heavy>
14

>  <SCORE.norm>
-0.292456

>  <RMSD>
8.835

$$$$
ligand
 OpenBabel11021811413D
libRbt.so/2013.1/901 2013/11/27
 14 13  0  0  0  0  0  0  0  0999 V2000
   47.3242    4.1528   15.6449 N   0  0  0  0  0  0  0  0  0  0  0  0
   47.0772    2.7413   16.0107 C   0  0  0  0  0  0  0  0  0  0  0  0
   46.2522    2.6383   17.3118 C   0  0  0  0  0  0  0  0  0  0  0  0
   45.9362    1.2009   17.7569 C   0  0  0  0  0  0  0  0  0  0  0  0
   45.2023    0.4613   16.6935 N   0  0  0  0  0  0  0  0  0  0  0  0
   45.5683   -0.9781   16.7233 C   0  0  0  0  0  0  0  0  0  0  0  0
   45.7026   -1.6713   15.3255 C   0  0  0  0  0  0  0  0  0  0  0  0
   44.4263   -1.5709   14.4416 C   0  0  0  0  0  0  0  0  0  0  0  0
   44.5121   -2.3533   13.1456 C   0  0  0  0  0  0  0  0  0  0  0  0
   44.6105   -3.7597   13.4871 N   0  0  0  0  0  0  0  0  0  0  0  0
   45.1365   -4.4204   12.3053 C   0  0  0  0  0  0  0  0  0  0  0  0
   45.1203   -5.9366   12.4603 C   0  0  0  0  0  0  0  0  0  0  0  0
   45.8228   -6.5368   11.2330 C   0  0  0  0  0  0  0  0  0  0  0  0
   47.2512   -6.1903   11.1859 N   0  0  0  0  0  0  0  0  0  0  0  0
  1  2  1  0  0  0  0
  2  3  1  0  0  0  0
  3  4  1  0  0  0  0
  4  5  1  0  0  0  0
  5  6  1  0  0  0  0
  6  7  1  0  0  0  0
  7  8  1  0  0  0  0
  8  9  1  0  0  0  0
  9 10  1  0  0  0  0
 10 11  1  0  0  0  0
 11 12  1  0  0  0  0
 12 13  1  0  0  0  0
 13 14  1  0  0  0  0
M  END
>  <CHROM.1>
179.36018226,-57.60067124,147.29265947,-141.88681463,-56.66582742,-174.50752652
64.50263299,-161.19346789,-172.50745839,-174.26539292,65.76675338,45.71002715
-1.58743475,14.55193257,-1.45025802,-0.81826305,-2.51106813

>  <Name>
ligand

>  <RI>
0

>  <Rbt.Current_Directory>
/home/itssahil/PROJECTS/Mol_Feturizer/New_Systems/rnas/1TN1

>  <Rbt.Executable>
rbdock ($Id: //depot/dev/client3/rdock/2013.1/src/exe/rbdock.cxx#4 $)

>  <Rbt.Library>
libRbt.so (2013.1, Build901 2013/11/27)

>  <Rbt.Parameter_File>
/export/apps/rDock/src/rDock_2013.1_src/data/scripts/dock_solv.prm

>  <Rbt.Receptor>
prm/blind_docking_100.prm

>  <SCORE>
-4.40738

>  <SCORE.INTER>
-1.96952

>  <SCORE.INTER.CONST>
1

>  <SCORE.INTER.POLAR>
0

>  <SCORE.INTER.ROT>
11

>  <SCORE.INTER.SOLV>
12.8981

>  <SCORE.INTER.VDW>
-16.5457

>  <SCORE.INTER.norm>
-0.14068

>  <SCORE.INTRA>
-2.43785

>  <SCORE.INTRA.DIHEDRAL>
-5.43343

>  <SCORE.INTRA.DIHEDRAL.0>
7.79482

>  <SCORE.INTRA.POLAR>
0

>  <SCORE.INTRA.POLAR.0>
0

>  <SCORE.INTRA.REPUL>
0

>  <SCORE.INTRA.REPUL.0>
0

>  <SCORE.INTRA.SOLV>
1.91686

>  <SCORE.INTRA.SOLV.lig_0>
-49.456

>  <SCORE.INTRA.VDW>
-0.67957

>  <SCORE.INTRA.VDW.0>
-0.478406

>  <SCORE.INTRA.norm>
-0.174132

>  <SCORE.RESTR>
0

>  <SCORE.RESTR.CAVITY>
0

>  <SCORE.RESTR.norm>
0

>  <SCORE.SYSTEM>
0

>  <SCORE.SYSTEM.CONST>
0

>  <SCORE.SYSTEM.DIHEDRAL>
0

>  <SCORE.SYSTEM.SOLV>
0

>  <SCORE.SYSTEM.norm>
0

>  <SCORE.heavy>
14

>  <SCORE.norm>
-0.314813

>  <RMSD>
8.882

$$$$
ligand
 OpenBabel11021811413D
libRbt.so/2013.1/901 2013/11/27
 14 13  0  0  0  0  0  0  0  0999 V2000
   40.2466   -3.9596    9.1996 N   0  0  0  0  0  0  0  0  0  0  0  0
   41.3687   -3.1236    9.6782 C   0  0  0  0  0  0  0  0  0  0  0  0
   41.7275   -3.4563   11.1426 C   0  0  0  0  0  0  0  0  0  0  0  0
   42.9519   -2.7034   11.6883 C   0  0  0  0  0  0  0  0  0  0  0  0
   43.2885   -3.1577   13.0656 N   0  0  0  0  0  0  0  0  0  0  0  0
   44.7617   -3.2581   13.2274 C   0  0  0  0  0  0  0  0  0  0  0  0
   45.4755   -1.9637   13.7444 C   0  0  0  0  0  0  0  0  0  0  0  0
   45.1207   -1.5855   15.2112 C   0  0  0  0  0  0  0  0  0  0  0  0
   45.7252   -0.2736   15.6720 C   0  0  0  0  0  0  0  0  0  0  0  0
   45.2613   -0.0270   17.0242 N   0  0  0  0  0  0  0  0  0  0  0  0
   45.8798    1.2211   17.4358 C   0  0  0  0  0  0  0  0  0  0  0  0
   45.1632    1.8296   18.6355 C   0  0  0  0  0  0  0  0  0  0  0  0
   45.8121    3.1922   18.9224 C   0  0  0  0  0  0  0  0  0  0  0  0
   45.1745    3.8841   20.0527 N   0  0  0  0  0  0  0  0  0  0  0  0
  1  2  1  0  0  0  0
  2  3  1  0  0  0  0
  3  4  1  0  0  0  0
  4  5  1  0  0  0  0
  5  6  1  0  0  0  0
  6  7  1  0  0  0  0
  7  8  1  0  0  0  0
  8  9  1  0  0  0  0
  9 10  1  0  0  0  0
 10 11  1  0  0  0  0
 11 12  1  0  0  0  0
 12 13  1  0  0  0  0
 13 14  1  0  0  0  0
M  END
>  <CHROM.1>
175.78897363,-175.70117555,140.04106630,90.46468672,67.40478718,-175.37273498
177.45549548,178.98259513,162.08296898,-175.45013976,178.83534740,44.14005947
-0.95587222,14.62132864,1.97938056,0.49017181,-2.39686982

>  <Name>
ligand

>  <RI>
0

>  <Rbt.Current_Directory>
/home/itssahil/PROJECTS/Mol_Feturizer/New_Systems/rnas/1TN1

>  <Rbt.Executable>
rbdock ($Id: //depot/dev/client3/rdock/2013.1/src/exe/rbdock.cxx#4 $)

>  <Rbt.Library>
libRbt.so (2013.1, Build901 2013/11/27)

>  <Rbt.Parameter_File>
/export/apps/rDock/src/rDock_2013.1_src/data/scripts/dock_solv.prm

>  <Rbt.Receptor>
prm/blind_docking_60.prm

>  <SCORE>
-6.03361

>  <SCORE.INTER>
-2.66225

>  <SCORE.INTER.CONST>
1

>  <SCORE.INTER.POLAR>
0

>  <SCORE.INTER.ROT>
11

>  <SCORE.INTER.SOLV>
15.1029

>  <SCORE.INTER.VDW>
-17.7425

>  <SCORE.INTER.norm>
-0.190161

>  <SCORE.INTRA>
-3.37136

>  <SCORE.INTRA.DIHEDRAL>
-5.49705

>  <SCORE.INTRA.DIHEDRAL.0>
7.79482

>  <SCORE.INTRA.POLAR>
0

>  <SCORE.INTRA.POLAR.0>
0

>  <SCORE.INTRA.REPUL>
0

>  <SCORE.INTRA.REPUL.0>
0

>  <SCORE.INTRA.SOLV>
0.262648

>  <SCORE.INTRA.SOLV.lig_0>
-49.456

>  <SCORE.INTRA.VDW>
-0.754157

>  <SCORE.INTRA.VDW.0>
-0.478406

>  <SCORE.INTRA.norm>
-0.240811

>  <SCORE.RESTR>
0

>  <SCORE.RESTR.CAVITY>
0

>  <SCORE.RESTR.norm>
0

>  <SCORE.SYSTEM>
0

>  <SCORE.SYSTEM.CONST>
0

>  <SCORE.SYSTEM.DIHEDRAL>
0

>  <SCORE.SYSTEM.SOLV>
0

>  <SCORE.SYSTEM.norm>
0

>  <SCORE.heavy>
14

>  <SCORE.norm>
-0.430972

>  <RMSD>
9.057

$$$$
ligand
 OpenBabel11021811413D
libRbt.so/2013.1/901 2013/11/27
 14 13  0  0  0  0  0  0  0  0999 V2000
   46.1281    3.6551   19.0781 N   0  0  0  0  0  0  0  0  0  0  0  0
   46.4212    2.5512   18.1386 C   0  0  0  0  0  0  0  0  0  0  0  0
   45.4180    1.3902   18.3114 C   0  0  0  0  0  0  0  0  0  0  0  0
   45.6719    0.1833   17.3933 C   0  0  0  0  0  0  0  0  0  0  0  0
   45.5270    0.5618   15.9607 N   0  0  0  0  0  0  0  0  0  0  0  0
   44.5209   -0.3082   15.2991 C   0  0  0  0  0  0  0  0  0  0  0  0
   45.0987   -1.5277   14.5047 C   0  0  0  0  0  0  0  0  0  0  0  0
   44.0578   -2.6468   14.2137 C   0  0  0  0  0  0  0  0  0  0  0  0
   44.5251   -3.6737   13.2008 C   0  0  0  0  0  0  0  0  0  0  0  0
   44.5708   -3.0234   11.9049 N   0  0  0  0  0  0  0  0  0  0  0  0
   43.2398   -3.1654   11.3410 C   0  0  0  0  0  0  0  0  0  0  0  0
   43.0329   -2.2284   10.1568 C   0  0  0  0  0  0  0  0  0  0  0  0
   43.9365   -2.7167    9.0144 C   0  0  0  0  0  0  0  0  0  0  0  0
   43.5031   -4.0166    8.4803 N   0  0  0  0  0  0  0  0  0  0  0  0
  1  2  1  0  0  0  0
  2  3  1  0  0  0  0
  3  4  1  0  0  0  0
  4  5  1  0  0  0  0
  5  6  1  0  0  0  0
  6  7  1  0  0  0  0
  7  8  1  0  0  0  0
  8  9  1  0  0  0  0
  9 10  1  0  0  0  0
 10 11  1  0  0  0  0
 11 12  1  0  0  0  0
 12 13  1  0  0  0  0
 13 14  1  0  0  0  0
M  END
>  <CHROM.1>
-178.60375403,-63.02215385,-124.00251291,-97.11902976,161.62187980,167.45379617
-69.89134944,-87.51059253,165.14173293,68.16838662,67.65608938,44.68931489
-1.06909891,14.07136160,0.02682123,-1.34213544,-0.55502026

>  <Name>
ligand

>  <RI>
0

>  <Rbt.Current_Directory>
/home/itssahil/PROJECTS/Mol_Feturizer/New_Systems/rnas/1TN1

>  <Rbt.Executable>
rbdock ($Id: //depot/dev/client3/rdock/2013.1/src/exe/rbdock.cxx#4 $)

>  <Rbt.Library>
libRbt.so (2013.1, Build901 2013/11/27)

>  <Rbt.Parameter_File>
/export/apps/rDock/src/rDock_2013.1_src/data/scripts/dock_solv.prm

>  <Rbt.Receptor>
prm/blind_docking_100.prm

>  <SCORE>
-2.08553

>  <SCORE.INTER>
-2.32347

>  <SCORE.INTER.CONST>
1

>  <SCORE.INTER.POLAR>
0

>  <SCORE.INTER.ROT>
11

>  <SCORE.INTER.SOLV>
11.0957

>  <SCORE.INTER.VDW>
-16.1809

>  <SCORE.INTER.norm>
-0.165962

>  <SCORE.INTRA>
0.237941

>  <SCORE.INTRA.DIHEDRAL>
-2.4045

>  <SCORE.INTRA.DIHEDRAL.0>
7.79482

>  <SCORE.INTRA.POLAR>
0

>  <SCORE.INTRA.POLAR.0>
0

>  <SCORE.INTRA.REPUL>
0

>  <SCORE.INTRA.REPUL.0>
0

>  <SCORE.INTRA.SOLV>
2.33463

>  <SCORE.INTRA.SOLV.lig_0>
-49.456

>  <SCORE.INTRA.VDW>
0.27288

>  <SCORE.INTRA.VDW.0>
-0.478406

>  <SCORE.INTRA.norm>
0.0169958

>  <SCORE.RESTR>
0

>  <SCORE.RESTR.CAVITY>
0

>  <SCORE.RESTR.norm>
0

>  <SCORE.SYSTEM>
0

>  <SCORE.SYSTEM.CONST>
0

>  <SCORE.SYSTEM.DIHEDRAL>
0

>  <SCORE.SYSTEM.SOLV>
0

>  <SCORE.SYSTEM.norm>
0

>  <SCORE.heavy>
14

>  <SCORE.norm>
-0.148966

>  <RMSD>
9.273

$$$$
ligand
 OpenBabel11021811413D
libRbt.so/2013.1/901 2013/11/27
 14 13  0  0  0  0  0  0  0  0999 V2000
   46.6247    2.6979   17.4107 N   0  0  0  0  0  0  0  0  0  0  0  0
   45.2193    2.5345   16.9800 C   0  0  0  0  0  0  0  0  0  0  0  0
   44.6044    1.2427   17.5604 C   0  0  0  0  0  0  0  0  0  0  0  0
   45.2878   -0.0549   17.0985 C   0  0  0  0  0  0  0  0  0  0  0  0
   45.1277   -0.2502   15.6313 N   0  0  0  0  0  0  0  0  0  0  0  0
   45.4825   -1.6433   15.2571 C   0  0  0  0  0  0  0  0  0  0  0  0
   45.6761   -1.9041   13.7252 C   0  0  0  0  0  0  0  0  0  0  0  0
   44.4151   -1.6027   12.8653 C   0  0  0  0  0  0  0  0  0  0  0  0
   44.5466   -2.0184   11.4131 C   0  0  0  0  0  0  0  0  0  0  0  0
   45.6514   -1.2725   10.8409 N   0  0  0  0  0  0  0  0  0  0  0  0
   46.5024   -2.2556   10.1936 C   0  0  0  0  0  0  0  0  0  0  0  0
   47.7034   -2.6117   11.0620 C   0  0  0  0  0  0  0  0  0  0  0  0
   48.4991   -3.7029   10.3298 C   0  0  0  0  0  0  0  0  0  0  0  0
   49.6749   -4.1419   11.0964 N   0  0  0  0  0  0  0  0  0  0  0  0
  1  2  1  0  0  0  0
  2  3  1  0  0  0  0
  3  4  1  0  0  0  0
  4  5  1  0  0  0  0
  5  6  1  0  0  0  0
  6  7  1  0  0  0  0
  7  8  1  0  0  0  0
  8  9  1  0  0  0  0
  9 10  1  0  0  0  0
 10 11  1  0  0  0  0
 11 12  1  0  0  0  0
 12 13  1  0  0  0  0
 13 14  1  0  0  0  0
M  END
>  <CHROM.1>
-62.45671101,-64.35913060,-165.83663155,-166.62021931,-59.93323325,-172.74087054
-60.97632692,129.27542313,-99.96586695,177.16093541,-178.94359358,46.07225028
-1.07035346,13.67598253,-1.85089854,0.21899606,-2.11415177

>  <Name>
ligand

>  <RI>
0

>  <Rbt.Current_Directory>
/home/itssahil/PROJECTS/Mol_Feturizer/New_Systems/rnas/1TN1

>  <Rbt.Executable>
rbdock ($Id: //depot/dev/client3/rdock/2013.1/src/exe/rbdock.cxx#4 $)

>  <Rbt.Library>
libRbt.so (2013.1, Build901 2013/11/27)

>  <Rbt.Parameter_File>
/export/apps/rDock/src/rDock_2013.1_src/data/scripts/dock_solv.prm

>  <Rbt.Receptor>
prm/blind_docking_60.prm

>  <SCORE>
-1.1403

>  <SCORE.INTER>
0.829651

>  <SCORE.INTER.CONST>
1

>  <SCORE.INTER.POLAR>
0

>  <SCORE.INTER.ROT>
11

>  <SCORE.INTER.SOLV>
9.56828

>  <SCORE.INTER.VDW>
-13.5697

>  <SCORE.INTER.norm>
0.0592608

>  <SCORE.INTRA>
-1.96996

>  <SCORE.INTRA.DIHEDRAL>
-5.1152

>  <SCORE.INTRA.DIHEDRAL.0>
7.79482

>  <SCORE.INTRA.POLAR>
0

>  <SCORE.INTRA.POLAR.0>
0

>  <SCORE.INTRA.REPUL>
0

>  <SCORE.INTRA.REPUL.0>
0

>  <SCORE.INTRA.SOLV>
2.33275

>  <SCORE.INTRA.SOLV.lig_0>
-49.456

>  <SCORE.INTRA.VDW>
-0.578729

>  <SCORE.INTRA.VDW.0>
-0.478406

>  <SCORE.INTRA.norm>
-0.140711

>  <SCORE.RESTR>
0

>  <SCORE.RESTR.CAVITY>
0

>  <SCORE.RESTR.norm>
0

>  <SCORE.SYSTEM>
0

>  <SCORE.SYSTEM.CONST>
0

>  <SCORE.SYSTEM.DIHEDRAL>
0

>  <SCORE.SYSTEM.SOLV>
0

>  <SCORE.SYSTEM.norm>
0

>  <SCORE.heavy>
14

>  <SCORE.norm>
-0.0814503

>  <RMSD>
9.328

$$$$
ligand
 OpenBabel11021811413D
libRbt.so/2013.1/901 2013/11/27
 14 13  0  0  0  0  0  0  0  0999 V2000
   46.9632    3.1941   16.4465 N   0  0  0  0  0  0  0  0  0  0  0  0
   46.6188    2.3011   17.5739 C   0  0  0  0  0  0  0  0  0  0  0  0
   45.4034    1.4128   17.2310 C   0  0  0  0  0  0  0  0  0  0  0  0
   45.6386    0.4242   16.0771 C   0  0  0  0  0  0  0  0  0  0  0  0
   44.3754   -0.2677   15.7004 N   0  0  0  0  0  0  0  0  0  0  0  0
   44.6159   -1.1919   14.5625 C   0  0  0  0  0  0  0  0  0  0  0  0
   44.3728   -0.5889   13.1379 C   0  0  0  0  0  0  0  0  0  0  0  0
   44.3080   -1.6497   12.0018 C   0  0  0  0  0  0  0  0  0  0  0  0
   43.0868   -2.5461   12.0656 C   0  0  0  0  0  0  0  0  0  0  0  0
   43.1071   -3.4004   10.8933 N   0  0  0  0  0  0  0  0  0  0  0  0
   42.0415   -2.9191   10.0316 C   0  0  0  0  0  0  0  0  0  0  0  0
   40.7495   -3.6961   10.2553 C   0  0  0  0  0  0  0  0  0  0  0  0
   39.7193   -3.1886    9.2349 C   0  0  0  0  0  0  0  0  0  0  0  0
   40.1028   -3.5092    7.8518 N   0  0  0  0  0  0  0  0  0  0  0  0
  1  2  1  0  0  0  0
  2  3  1  0  0  0  0
  3  4  1  0  0  0  0
  4  5  1  0  0  0  0
  5  6  1  0  0  0  0
  6  7  1  0  0  0  0
  7  8  1  0  0  0  0
  8  9  1  0  0  0  0
  9 10  1  0  0  0  0
 10 11  1  0  0  0  0
 11 12  1  0  0  0  0
 12 13  1  0  0  0  0
 13 14  1  0  0  0  0
M  END
>  <CHROM.1>
64.13256899,-172.88133598,178.56033293,-92.27773421,-166.48433905,68.43842817
175.38490096,-108.24856371,-94.45499365,-175.92374244,65.77160822,43.65021686
-1.11614949,13.07611818,0.04705303,-1.04647490,-0.55132933

>  <Name>
ligand

>  <RI>
0

>  <Rbt.Current_Directory>
/home/itssahil/PROJECTS/Mol_Feturizer/New_Systems/rnas/1TN1

>  <Rbt.Executable>
rbdock ($Id: //depot/dev/client3/rdock/2013.1/src/exe/rbdock.cxx#4 $)

>  <Rbt.Library>
libRbt.so (2013.1, Build901 2013/11/27)

>  <Rbt.Parameter_File>
/export/apps/rDock/src/rDock_2013.1_src/data/scripts/dock_solv.prm

>  <Rbt.Receptor>
prm/blind_docking_100.prm

>  <SCORE>
-2.10287

>  <SCORE.INTER>
-1.28577

>  <SCORE.INTER.CONST>
1

>  <SCORE.INTER.POLAR>
0

>  <SCORE.INTER.ROT>
11

>  <SCORE.INTER.SOLV>
10.9606

>  <SCORE.INTER.VDW>
-15.444

>  <SCORE.INTER.norm>
-0.0918409

>  <SCORE.INTRA>
-0.817097

>  <SCORE.INTRA.DIHEDRAL>
-3.81471

>  <SCORE.INTRA.DIHEDRAL.0>
7.79482

>  <SCORE.INTRA.POLAR>
0

>  <SCORE.INTRA.POLAR.0>
0

>  <SCORE.INTRA.REPUL>
0

>  <SCORE.INTRA.REPUL.0>
0

>  <SCORE.INTRA.SOLV>
1.63579

>  <SCORE.INTRA.SOLV.lig_0>
-49.456

>  <SCORE.INTRA.VDW>
0.272361

>  <SCORE.INTRA.VDW.0>
-0.478406

>  <SCORE.INTRA.norm>
-0.0583641

>  <SCORE.RESTR>
0

>  <SCORE.RESTR.CAVITY>
0

>  <SCORE.RESTR.norm>
0

>  <SCORE.SYSTEM>
0

>  <SCORE.SYSTEM.CONST>
0

>  <SCORE.SYSTEM.DIHEDRAL>
0

>  <SCORE.SYSTEM.SOLV>
0

>  <SCORE.SYSTEM.norm>
0

>  <SCORE.heavy>
14

>  <SCORE.norm>
-0.150205

>  <RMSD>
10.045

$$$$
ligand
 OpenBabel11021811413D
libRbt.so/2013.1/901 2013/11/27
 14 13  0  0  0  0  0  0  0  0999 V2000
   45.0760   -1.8079   13.1805 N   0  0  0  0  0  0  0  0  0  0  0  0
   45.7528   -0.9122   14.1433 C   0  0  0  0  0  0  0  0  0  0  0  0
   45.6695    0.5609   13.6885 C   0  0  0  0  0  0  0  0  0  0  0  0
   46.3533    0.8549   12.3432 C   0  0  0  0  0  0  0  0  0  0  0  0
   47.8095    0.5516   12.4063 N   0  0  0  0  0  0  0  0  0  0  0  0
   48.5641    1.4689   11.5143 C   0  0  0  0  0  0  0  0  0  0  0  0
   50.0218    1.0202   11.1592 C   0  0  0  0  0  0  0  0  0  0  0  0
   50.0960   -0.2708   10.2942 C   0  0  0  0  0  0  0  0  0  0  0  0
   49.6816   -1.5297   11.0306 C   0  0  0  0  0  0  0  0  0  0  0  0
   49.8616   -2.6482   10.1245 N   0  0  0  0  0  0  0  0  0  0  0  0
   49.3643   -3.8162   10.8302 C   0  0  0  0  0  0  0  0  0  0  0  0
   47.9587   -4.1878   10.3726 C   0  0  0  0  0  0  0  0  0  0  0  0
   47.5019   -5.3940   11.2071 C   0  0  0  0  0  0  0  0  0  0  0  0
   46.1297   -5.8088   10.8792 N   0  0  0  0  0  0  0  0  0  0  0  0
  1  2  1  0  0  0  0
  2  3  1  0  0  0  0
  3  4  1  0  0  0  0
  4  5  1  0  0  0  0
  5  6  1  0  0  0  0
  6  7  1  0  0  0  0
  7  8  1  0  0  0  0
  8  9  1  0  0  0  0
  9 10  1  0  0  0  0
 10 11  1  0  0  0  0
 11 12  1  0  0  0  0
 12 13  1  0  0  0  0
 13 14  1  0  0  0  0
M  END
>  <CHROM.1>
-61.79164052,-61.18560234,-148.32793124,-163.14622750,66.31281040,-69.48620749
-177.35983573,-175.96496616,100.35403559,-177.93336442,177.93753584,47.84602024
-1.56529138,11.65527926,1.63940774,0.54032813,0.25724640

>  <Name>
ligand

>  <RI>
0

>  <Rbt.Current_Directory>
/home/itssahil/PROJECTS/Mol_Feturizer/New_Systems/rnas/1TN1

>  <Rbt.Executable>
rbdock ($Id: //depot/dev/client3/rdock/2013.1/src/exe/rbdock.cxx#4 $)

>  <Rbt.Library>
libRbt.so (2013.1, Build901 2013/11/27)

>  <Rbt.Parameter_File>
/export/apps/rDock/src/rDock_2013.1_src/data/scripts/dock_solv.prm

>  <Rbt.Receptor>
prm/blind_docking_100.prm

>  <SCORE>
0.274804

>  <SCORE.INTER>
2.39523

>  <SCORE.INTER.CONST>
1

>  <SCORE.INTER.POLAR>
0

>  <SCORE.INTER.ROT>
11

>  <SCORE.INTER.SOLV>
5.55538

>  <SCORE.INTER.VDW>
-11.1883

>  <SCORE.INTER.norm>
0.171088

>  <SCORE.INTRA>
-2.12042

>  <SCORE.INTRA.DIHEDRAL>
-5.40541

>  <SCORE.INTRA.DIHEDRAL.0>
7.79482

>  <SCORE.INTRA.POLAR>
0

>  <SCORE.INTRA.POLAR.0>
0

>  <SCORE.INTRA.REPUL>
0

>  <SCORE.INTRA.REPUL.0>
0

>  <SCORE.INTRA.SOLV>
2.59487

>  <SCORE.INTRA.SOLV.lig_0>
-49.456

>  <SCORE.INTRA.VDW>
-0.715153

>  <SCORE.INTRA.VDW.0>
-0.478406

>  <SCORE.INTRA.norm>
-0.151459

>  <SCORE.RESTR>
0

>  <SCORE.RESTR.CAVITY>
0

>  <SCORE.RESTR.norm>
0

>  <SCORE.SYSTEM>
0

>  <SCORE.SYSTEM.CONST>
0

>  <SCORE.SYSTEM.DIHEDRAL>
0

>  <SCORE.SYSTEM.SOLV>
0

>  <SCORE.SYSTEM.norm>
0

>  <SCORE.heavy>
14

>  <SCORE.norm>
0.0196289

>  <RMSD>
10.600

$$$$
ligand
 OpenBabel11021811413D
libRbt.so/2013.1/901 2013/11/27
 14 13  0  0  0  0  0  0  0  0999 V2000
   46.5276    4.0519   14.7493 N   0  0  0  0  0  0  0  0  0  0  0  0
   47.1939    2.9425   15.4652 C   0  0  0  0  0  0  0  0  0  0  0  0
   46.3434    1.6548   15.4139 C   0  0  0  0  0  0  0  0  0  0  0  0
   46.0619    1.1298   13.9965 C   0  0  0  0  0  0  0  0  0  0  0  0
   45.3662   -0.1856   14.0422 N   0  0  0  0  0  0  0  0  0  0  0  0
   44.8454   -0.5379   12.6963 C   0  0  0  0  0  0  0  0  0  0  0  0
   43.9745   -1.8375   12.6266 C   0  0  0  0  0  0  0  0  0  0  0  0
   43.3185   -2.0887   11.2384 C   0  0  0  0  0  0  0  0  0  0  0  0
   42.3442   -3.2503   11.2192 C   0  0  0  0  0  0  0  0  0  0  0  0
   41.7322   -3.2887    9.9046 N   0  0  0  0  0  0  0  0  0  0  0  0
   40.3296   -3.5931   10.1273 C   0  0  0  0  0  0  0  0  0  0  0  0
   39.4496   -3.0001    9.0331 C   0  0  0  0  0  0  0  0  0  0  0  0
   39.7569   -3.7536    7.7301 C   0  0  0  0  0  0  0  0  0  0  0  0
   38.8968   -3.3173    6.6200 N   0  0  0  0  0  0  0  0  0  0  0  0
  1  2  1  0  0  0  0
  2  3  1  0  0  0  0
  3  4  1  0  0  0  0
  4  5  1  0  0  0  0
  5  6  1  0  0  0  0
  6  7  1  0  0  0  0
  7  8  1  0  0  0  0
  8  9  1  0  0  0  0
  9 10  1  0  0  0  0
 10 11  1  0  0  0  0
 11 12  1  0  0  0  0
 12 13  1  0  0  0  0
 13 14  1  0  0  0  0
M  END
>  <CHROM.1>
60.07124864,173.88470002,167.89253590,-174.56677378,173.59105563,-172.97191682
175.14233827,-139.42320192,151.09995976,68.08364073,176.35750581,43.29583365
-1.07685426,11.77608072,0.43131117,-0.83663426,-0.17231778

>  <Name>
ligand

>  <RI>
0

>  <Rbt.Current_Directory>
/home/itssahil/PROJECTS/Mol_Feturizer/New_Systems/rnas/1TN1

>  <Rbt.Executable>
rbdock ($Id: //depot/dev/client3/rdock/2013.1/src/exe/rbdock.cxx#4 $)

>  <Rbt.Library>
libRbt.so (2013.1, Build901 2013/11/27)

>  <Rbt.Parameter_File>
/export/apps/rDock/src/rDock_2013.1_src/data/scripts/dock_solv.prm

>  <Rbt.Receptor>
prm/blind_docking_80.prm

>  <SCORE>
-1.42273

>  <SCORE.INTER>
1.28924

>  <SCORE.INTER.CONST>
1

>  <SCORE.INTER.POLAR>
0

>  <SCORE.INTER.ROT>
11

>  <SCORE.INTER.SOLV>
7.93402

>  <SCORE.INTER.VDW>
-12.7185

>  <SCORE.INTER.norm>
0.0920886

>  <SCORE.INTRA>
-2.71198

>  <SCORE.INTRA.DIHEDRAL>
-5.2916

>  <SCORE.INTRA.DIHEDRAL.0>
7.79482

>  <SCORE.INTRA.POLAR>
0

>  <SCORE.INTRA.POLAR.0>
0

>  <SCORE.INTRA.REPUL>
0

>  <SCORE.INTRA.REPUL.0>
0

>  <SCORE.INTRA.SOLV>
1.03425

>  <SCORE.INTRA.SOLV.lig_0>
-49.456

>  <SCORE.INTRA.VDW>
-0.583301

>  <SCORE.INTRA.VDW.0>
-0.478406

>  <SCORE.INTRA.norm>
-0.193713

>  <SCORE.RESTR>
0

>  <SCORE.RESTR.CAVITY>
0

>  <SCORE.RESTR.norm>
0

>  <SCORE.SYSTEM>
0

>  <SCORE.SYSTEM.CONST>
0

>  <SCORE.SYSTEM.DIHEDRAL>
0

>  <SCORE.SYSTEM.SOLV>
0

>  <SCORE.SYSTEM.norm>
0

>  <SCORE.heavy>
14

>  <SCORE.norm>
-0.101624

>  <RMSD>
10.782

$$$$
ligand
 OpenBabel11021811413D
libRbt.so/2013.1/901 2013/11/27
 14 13  0  0  0  0  0  0  0  0999 V2000
   45.4688    1.7552   17.8844 N   0  0  0  0  0  0  0  0  0  0  0  0
   45.6810    1.1162   16.5676 C   0  0  0  0  0  0  0  0  0  0  0  0
   44.3872    0.4450   16.0581 C   0  0  0  0  0  0  0  0  0  0  0  0
   44.5201   -0.2450   14.6905 C   0  0  0  0  0  0  0  0  0  0  0  0
   45.4507   -1.4047   14.7653 N   0  0  0  0  0  0  0  0  0  0  0  0
   45.7254   -1.9311   13.4036 C   0  0  0  0  0  0  0  0  0  0  0  0
   45.0984   -3.3289   13.0793 C   0  0  0  0  0  0  0  0  0  0  0  0
   43.5427   -3.3424   13.0786 C   0  0  0  0  0  0  0  0  0  0  0  0
   42.9209   -2.5642   11.9355 C   0  0  0  0  0  0  0  0  0  0  0  0
   43.0650   -3.3610   10.7319 N   0  0  0  0  0  0  0  0  0  0  0  0
   42.2086   -2.7384    9.7375 C   0  0  0  0  0  0  0  0  0  0  0  0
   40.8958   -3.4965    9.5788 C   0  0  0  0  0  0  0  0  0  0  0  0
   40.0581   -2.7591    8.5232 C   0  0  0  0  0  0  0  0  0  0  0  0
   38.8184   -3.4793    8.1956 N   0  0  0  0  0  0  0  0  0  0  0  0
  1  2  1  0  0  0  0
  2  3  1  0  0  0  0
  3  4  1  0  0  0  0
  4  5  1  0  0  0  0
  5  6  1  0  0  0  0
  6  7  1  0  0  0  0
  7  8  1  0  0  0  0
  8  9  1  0  0  0  0
  9 10  1  0  0  0  0
 10 11  1  0  0  0  0
 11 12  1  0  0  0  0
 12 13  1  0  0  0  0
 13 14  1  0  0  0  0
M  END
>  <CHROM.1>
179.98249495,65.56509574,-171.52184784,-109.70186171,64.23642654,68.66609307
75.56408736,167.52723552,-101.19646957,179.45781812,174.51812518,43.41730965
-1.80968076,12.73063270,0.93788897,-0.53449101,0.73462565

>  <Name>
ligand

>  <RI>
0

>  <Rbt.Current_Directory>
/home/itssahil/PROJECTS/Mol_Feturizer/New_Systems/rnas/1TN1

>  <Rbt.Executable>
rbdock ($Id: //depot/dev/client3/rdock/2013.1/src/exe/rbdock.cxx#4 $)

>  <Rbt.Library>
libRbt.so (2013.1, Build901 2013/11/27)

>  <Rbt.Parameter_File>
/export/apps/rDock/src/rDock_2013.1_src/data/scripts/dock_solv.prm

>  <Rbt.Receptor>
prm/blind_docking_80.prm

>  <SCORE>
-2.48668

>  <SCORE.INTER>
-0.476259

>  <SCORE.INTER.CONST>
1

>  <SCORE.INTER.POLAR>
0

>  <SCORE.INTER.ROT>
11

>  <SCORE.INTER.SOLV>
11.2515

>  <SCORE.INTER.VDW>
-15.0013

>  <SCORE.INTER.norm>
-0.0340185

>  <SCORE.INTRA>
-2.01042

>  <SCORE.INTRA.DIHEDRAL>
-4.09187

>  <SCORE.INTRA.DIHEDRAL.0>
7.79482

>  <SCORE.INTRA.POLAR>
0

>  <SCORE.INTRA.POLAR.0>
0

>  <SCORE.INTRA.REPUL>
0

>  <SCORE.INTRA.REPUL.0>
0

>  <SCORE.INTRA.SOLV>
1.30281

>  <SCORE.INTRA.SOLV.lig_0>
-49.456

>  <SCORE.INTRA.VDW>
-0.615892

>  <SCORE.INTRA.VDW.0>
-0.478406

>  <SCORE.INTRA.norm>
-0.143602

>  <SCORE.RESTR>
0

>  <SCORE.RESTR.CAVITY>
0

>  <SCORE.RESTR.norm>
0

>  <SCORE.SYSTEM>
0

>  <SCORE.SYSTEM.CONST>
0

>  <SCORE.SYSTEM.DIHEDRAL>
0

>  <SCORE.SYSTEM.SOLV>
0

>  <SCORE.SYSTEM.norm>
0

>  <SCORE.heavy>
14

>  <SCORE.norm>
-0.17762

>  <RMSD>
10.793

$$$$
ligand
 OpenBabel11021811413D
libRbt.so/2013.1/901 2013/11/27
 14 13  0  0  0  0  0  0  0  0999 V2000
   40.2368   -3.7422    6.8411 N   0  0  0  0  0  0  0  0  0  0  0  0
   40.6787   -3.1570    8.1254 C   0  0  0  0  0  0  0  0  0  0  0  0
   40.3389   -4.0881    9.3092 C   0  0  0  0  0  0  0  0  0  0  0  0
   40.8470   -3.5981   10.6751 C   0  0  0  0  0  0  0  0  0  0  0  0
   42.3305   -3.4730   10.6799 N   0  0  0  0  0  0  0  0  0  0  0  0
   42.7924   -2.8898   11.9657 C   0  0  0  0  0  0  0  0  0  0  0  0
   43.8840   -3.7132   12.7289 C   0  0  0  0  0  0  0  0  0  0  0  0
   44.1727   -3.2028   14.1699 C   0  0  0  0  0  0  0  0  0  0  0  0
   44.7861   -1.8172   14.2208 C   0  0  0  0  0  0  0  0  0  0  0  0
   45.1903   -1.5657   15.5911 N   0  0  0  0  0  0  0  0  0  0  0  0
   45.1526   -0.1234   15.7588 C   0  0  0  0  0  0  0  0  0  0  0  0
   45.5197    0.2824   17.1814 C   0  0  0  0  0  0  0  0  0  0  0  0
   45.3915    1.8103   17.2766 C   0  0  0  0  0  0  0  0  0  0  0  0
   46.3589    2.5038   16.4129 N   0  0  0  0  0  0  0  0  0  0  0  0
  1  2  1  0  0  0  0
  2  3  1  0  0  0  0
  3  4  1  0  0  0  0
  4  5  1  0  0  0  0
  5  6  1  0  0  0  0
  6  7  1  0  0  0  0
  7  8  1  0  0  0  0
  8  9  1  0  0  0  0
  9 10  1  0  0  0  0
 10 11  1  0  0  0  0
 11 12  1  0  0  0  0
 12 13  1  0  0  0  0
 13 14  1  0  0  0  0
M  END
>  <CHROM.1>
176.16465825,-60.57958187,175.19682512,126.44343298,-170.43787442,-65.35540276
-171.14269476,-153.16588937,178.31825825,-177.52404846,-64.60597581,43.40567495
-1.91256720,12.92427642,2.71406496,1.01979693,3.11349918

>  <Name>
ligand

>  <RI>
0

>  <Rbt.Current_Directory>
/home/itssahil/PROJECTS/Mol_Feturizer/New_Systems/rnas/1TN1

>  <Rbt.Executable>
rbdock ($Id: //depot/dev/client3/rdock/2013.1/src/exe/rbdock.cxx#4 $)

>  <Rbt.Library>
libRbt.so (2013.1, Build901 2013/11/27)

>  <Rbt.Parameter_File>
/export/apps/rDock/src/rDock_2013.1_src/data/scripts/dock_solv.prm

>  <Rbt.Receptor>
prm/blind_docking_80.prm

>  <SCORE>
-6.46537

>  <SCORE.INTER>
-4.13492

>  <SCORE.INTER.CONST>
1

>  <SCORE.INTER.POLAR>
0

>  <SCORE.INTER.ROT>
11

>  <SCORE.INTER.SOLV>
9.13856

>  <SCORE.INTER.VDW>
-16.7361

>  <SCORE.INTER.norm>
-0.295352

>  <SCORE.INTRA>
-2.33045

>  <SCORE.INTRA.DIHEDRAL>
-5.19687

>  <SCORE.INTRA.DIHEDRAL.0>
7.79482

>  <SCORE.INTRA.POLAR>
0

>  <SCORE.INTRA.POLAR.0>
0

>  <SCORE.INTRA.REPUL>
0

>  <SCORE.INTRA.REPUL.0>
0

>  <SCORE.INTRA.SOLV>
1.21275

>  <SCORE.INTRA.SOLV.lig_0>
-49.456

>  <SCORE.INTRA.VDW>
-0.338389

>  <SCORE.INTRA.VDW.0>
-0.478406

>  <SCORE.INTRA.norm>
-0.166461

>  <SCORE.RESTR>
0

>  <SCORE.RESTR.CAVITY>
0

>  <SCORE.RESTR.norm>
0

>  <SCORE.SYSTEM>
0

>  <SCORE.SYSTEM.CONST>
0

>  <SCORE.SYSTEM.DIHEDRAL>
0

>  <SCORE.SYSTEM.SOLV>
0

>  <SCORE.SYSTEM.norm>
0

>  <SCORE.heavy>
14

>  <SCORE.norm>
-0.461812

>  <RMSD>
10.822

$$$$
ligand
 OpenBabel11021811413D
libRbt.so/2013.1/901 2013/11/27
 14 13  0  0  0  0  0  0  0  0999 V2000
   38.9263   -2.8722    6.9793 N   0  0  0  0  0  0  0  0  0  0  0  0
   38.9932   -2.9187    8.4559 C   0  0  0  0  0  0  0  0  0  0  0  0
   40.3888   -3.3710    8.9373 C   0  0  0  0  0  0  0  0  0  0  0  0
   40.5025   -3.5894   10.4549 C   0  0  0  0  0  0  0  0  0  0  0  0
   41.9160   -3.8295   10.8559 N   0  0  0  0  0  0  0  0  0  0  0  0
   42.6244   -2.5366   11.0389 C   0  0  0  0  0  0  0  0  0  0  0  0
   43.8529   -2.5696   12.0093 C   0  0  0  0  0  0  0  0  0  0  0  0
   43.5475   -3.1977   13.3995 C   0  0  0  0  0  0  0  0  0  0  0  0
   44.5764   -2.8683   14.4633 C   0  0  0  0  0  0  0  0  0  0  0  0
   44.5273   -1.4369   14.6938 N   0  0  0  0  0  0  0  0  0  0  0  0
   45.7712   -1.0986   15.3630 C   0  0  0  0  0  0  0  0  0  0  0  0
   45.7748    0.3511   15.8338 C   0  0  0  0  0  0  0  0  0  0  0  0
   44.8202    0.4526   17.0331 C   0  0  0  0  0  0  0  0  0  0  0  0
   44.7532    1.8178   17.5758 N   0  0  0  0  0  0  0  0  0  0  0  0
  1  2  1  0  0  0  0
  2  3  1  0  0  0  0
  3  4  1  0  0  0  0
  4  5  1  0  0  0  0
  5  6  1  0  0  0  0
  6  7  1  0  0  0  0
  7  8  1  0  0  0  0
  8  9  1  0  0  0  0
  9 10  1  0  0  0  0
 10 11  1  0  0  0  0
 11 12  1  0  0  0  0
 12 13  1  0  0  0  0
 13 14  1  0  0  0  0
M  END
>  <CHROM.1>
-173.88476798,-171.79969286,84.04666147,154.82270787,-51.60139464,-162.78675175
64.66078518,-162.07813083,-172.41309891,72.43407228,179.65005547,42.92693492
-1.97636471,12.64961626,2.35975700,0.71405190,-2.56012537

>  <Name>
ligand

>  <RI>
0

>  <Rbt.Current_Directory>
/home/itssahil/PROJECTS/Mol_Feturizer/New_Systems/rnas/1TN1

>  <Rbt.Executable>
rbdock ($Id: //depot/dev/client3/rdock/2013.1/src/exe/rbdock.cxx#4 $)

>  <Rbt.Library>
libRbt.so (2013.1, Build901 2013/11/27)

>  <Rbt.Parameter_File>
/export/apps/rDock/src/rDock_2013.1_src/data/scripts/dock_solv.prm

>  <Rbt.Receptor>
prm/blind_docking_60.prm

>  <SCORE>
-5.8859

>  <SCORE.INTER>
-3.97163

>  <SCORE.INTER.CONST>
1

>  <SCORE.INTER.POLAR>
0

>  <SCORE.INTER.ROT>
11

>  <SCORE.INTER.SOLV>
13.5287

>  <SCORE.INTER.VDW>
-18.0906

>  <SCORE.INTER.norm>
-0.283688

>  <SCORE.INTRA>
-1.91426

>  <SCORE.INTRA.DIHEDRAL>
-4.17552

>  <SCORE.INTRA.DIHEDRAL.0>
7.79482

>  <SCORE.INTRA.POLAR>
0

>  <SCORE.INTRA.POLAR.0>
0

>  <SCORE.INTRA.REPUL>
0

>  <SCORE.INTRA.REPUL.0>
0

>  <SCORE.INTRA.SOLV>
1.10147

>  <SCORE.INTRA.SOLV.lig_0>
-49.456

>  <SCORE.INTRA.VDW>
-0.377239

>  <SCORE.INTRA.VDW.0>
-0.478406

>  <SCORE.INTRA.norm>
-0.136733

>  <SCORE.RESTR>
0

>  <SCORE.RESTR.CAVITY>
0

>  <SCORE.RESTR.norm>
0

>  <SCORE.SYSTEM>
0

>  <SCORE.SYSTEM.CONST>
0

>  <SCORE.SYSTEM.DIHEDRAL>
0

>  <SCORE.SYSTEM.SOLV>
0

>  <SCORE.SYSTEM.norm>
0

>  <SCORE.heavy>
14

>  <SCORE.norm>
-0.420421

>  <RMSD>
11.200

$$$$
ligand
 OpenBabel11021811413D
libRbt.so/2013.1/901 2013/11/27
 14 13  0  0  0  0  0  0  0  0999 V2000
   39.7146   -3.5942    7.6704 N   0  0  0  0  0  0  0  0  0  0  0  0
   40.3715   -4.1817    8.8581 C   0  0  0  0  0  0  0  0  0  0  0  0
   41.0846   -3.0976    9.6948 C   0  0  0  0  0  0  0  0  0  0  0  0
   41.8403   -3.6313   10.9229 C   0  0  0  0  0  0  0  0  0  0  0  0
   42.4251   -2.5159   11.7168 N   0  0  0  0  0  0  0  0  0  0  0  0
   43.7151   -2.9370   12.3210 C   0  0  0  0  0  0  0  0  0  0  0  0
   44.2668   -2.0080   13.4545 C   0  0  0  0  0  0  0  0  0  0  0  0
   44.3175   -0.5008   13.0719 C   0  0  0  0  0  0  0  0  0  0  0  0
   45.2774   -0.1847   11.9416 C   0  0  0  0  0  0  0  0  0  0  0  0
   46.6257   -0.3347   12.4553 N   0  0  0  0  0  0  0  0  0  0  0  0
   47.4959   -0.3448   11.2923 C   0  0  0  0  0  0  0  0  0  0  0  0
   48.8421    0.3018   11.5975 C   0  0  0  0  0  0  0  0  0  0  0  0
   49.7759    0.0123   10.4126 C   0  0  0  0  0  0  0  0  0  0  0  0
   50.1327   -1.4115   10.3214 N   0  0  0  0  0  0  0  0  0  0  0  0
  1  2  1  0  0  0  0
  2  3  1  0  0  0  0
  3  4  1  0  0  0  0
  4  5  1  0  0  0  0
  5  6  1  0  0  0  0
  6  7  1  0  0  0  0
  7  8  1  0  0  0  0
  8  9  1  0  0  0  0
  9 10  1  0  0  0  0
 10 11  1  0  0  0  0
 11 12  1  0  0  0  0
 12 13  1  0  0  0  0
 13 14  1  0  0  0  0
M  END
>  <CHROM.1>
-177.80544556,-176.47261058,-145.99244879,-165.56530675,-50.57995544,-64.54551476
-71.25126493,166.62922188,146.64764365,169.55785683,-68.52397068,44.70609485
-1.74477615,11.12389125,-2.84417885,0.32240315,1.28850597

>  <Name>
ligand

>  <RI>
0

>  <Rbt.Current_Directory>
/home/itssahil/PROJECTS/Mol_Feturizer/New_Systems/rnas/1TN1

>  <Rbt.Executable>
rbdock ($Id: //depot/dev/client3/rdock/2013.1/src/exe/rbdock.cxx#4 $)

>  <Rbt.Library>
libRbt.so (2013.1, Build901 2013/11/27)

>  <Rbt.Parameter_File>
/export/apps/rDock/src/rDock_2013.1_src/data/scripts/dock_solv.prm

>  <Rbt.Receptor>
prm/blind_docking_100.prm

>  <SCORE>
-0.1663

>  <SCORE.INTER>
1.51261

>  <SCORE.INTER.CONST>
1

>  <SCORE.INTER.POLAR>
0

>  <SCORE.INTER.ROT>
11

>  <SCORE.INTER.SOLV>
10.9869

>  <SCORE.INTER.VDW>
-13.5872

>  <SCORE.INTER.norm>
0.108043

>  <SCORE.INTRA>
-1.67891

>  <SCORE.INTRA.DIHEDRAL>
-4.44223

>  <SCORE.INTRA.DIHEDRAL.0>
7.79482

>  <SCORE.INTRA.POLAR>
0

>  <SCORE.INTRA.POLAR.0>
0

>  <SCORE.INTRA.REPUL>
0

>  <SCORE.INTRA.REPUL.0>
0

>  <SCORE.INTRA.SOLV>
2.0365

>  <SCORE.INTRA.SOLV.lig_0>
-49.456

>  <SCORE.INTRA.VDW>
-0.476042

>  <SCORE.INTRA.VDW.0>
-0.478406

>  <SCORE.INTRA.norm>
-0.119922

>  <SCORE.RESTR>
0

>  <SCORE.RESTR.CAVITY>
0

>  <SCORE.RESTR.norm>
0

>  <SCORE.SYSTEM>
0

>  <SCORE.SYSTEM.CONST>
0

>  <SCORE.SYSTEM.DIHEDRAL>
0

>  <SCORE.SYSTEM.SOLV>
0

>  <SCORE.SYSTEM.norm>
0

>  <SCORE.heavy>
14

>  <SCORE.norm>
-0.0118786

>  <RMSD>
11.585

$$$$
ligand
 OpenBabel11021811413D
libRbt.so/2013.1/901 2013/11/27
 14 13  0  0  0  0  0  0  0  0999 V2000
   49.3606   -0.5099   11.9465 N   0  0  0  0  0  0  0  0  0  0  0  0
   49.3087   -1.8718   12.5206 C   0  0  0  0  0  0  0  0  0  0  0  0
   48.3868   -1.9210   13.7582 C   0  0  0  0  0  0  0  0  0  0  0  0
   46.9035   -1.6447   13.4624 C   0  0  0  0  0  0  0  0  0  0  0  0
   46.0820   -1.7576   14.6989 N   0  0  0  0  0  0  0  0  0  0  0  0
   44.6362   -1.7298   14.3590 C   0  0  0  0  0  0  0  0  0  0  0  0
   43.9407   -3.1283   14.2456 C   0  0  0  0  0  0  0  0  0  0  0  0
   44.3617   -3.9471   12.9916 C   0  0  0  0  0  0  0  0  0  0  0  0
   43.8175   -3.3986   11.6870 C   0  0  0  0  0  0  0  0  0  0  0  0
   42.3748   -3.5476   11.7155 N   0  0  0  0  0  0  0  0  0  0  0  0
   41.8950   -3.0180   10.4510 C   0  0  0  0  0  0  0  0  0  0  0  0
   40.5082   -3.5527   10.1128 C   0  0  0  0  0  0  0  0  0  0  0  0
   40.0603   -2.8871    8.8027 C   0  0  0  0  0  0  0  0  0  0  0  0
   38.8147   -3.4695    8.2813 N   0  0  0  0  0  0  0  0  0  0  0  0
  1  2  1  0  0  0  0
  2  3  1  0  0  0  0
  3  4  1  0  0  0  0
  4  5  1  0  0  0  0
  5  6  1  0  0  0  0
  6  7  1  0  0  0  0
  7  8  1  0  0  0  0
  8  9  1  0  0  0  0
  9 10  1  0  0  0  0
 10 11  1  0  0  0  0
 11 12  1  0  0  0  0
 12 13  1  0  0  0  0
 13 14  1  0  0  0  0
M  END
>  <CHROM.1>
65.12304934,178.05503651,-169.90659419,97.01058874,-71.20522288,-71.32858345
-66.02550426,-179.75513523,159.10901533,177.26329034,171.99716065,44.31797491
-2.59895981,12.07396683,-0.41090350,-0.28959332,-1.42286067

>  <Name>
ligand

>  <RI>
0

>  <Rbt.Current_Directory>
/home/itssahil/PROJECTS/Mol_Feturizer/New_Systems/rnas/1TN1

>  <Rbt.Executable>
rbdock ($Id: //depot/dev/client3/rdock/2013.1/src/exe/rbdock.cxx#4 $)

>  <Rbt.Library>
libRbt.so (2013.1, Build901 2013/11/27)

>  <Rbt.Parameter_File>
/export/apps/rDock/src/rDock_2013.1_src/data/scripts/dock_solv.prm

>  <Rbt.Receptor>
prm/blind_docking_100.prm

>  <SCORE>
-3.49571

>  <SCORE.INTER>
-1.0824

>  <SCORE.INTER.CONST>
1

>  <SCORE.INTER.POLAR>
0

>  <SCORE.INTER.ROT>
11

>  <SCORE.INTER.SOLV>
12.0227

>  <SCORE.INTER.VDW>
-15.6625

>  <SCORE.INTER.norm>
-0.077314

>  <SCORE.INTRA>
-2.41331

>  <SCORE.INTRA.DIHEDRAL>
-5.07245

>  <SCORE.INTRA.DIHEDRAL.0>
7.79482

>  <SCORE.INTRA.POLAR>
0

>  <SCORE.INTRA.POLAR.0>
0

>  <SCORE.INTRA.REPUL>
0

>  <SCORE.INTRA.REPUL.0>
0

>  <SCORE.INTRA.SOLV>
1.67356

>  <SCORE.INTRA.SOLV.lig_0>
-49.456

>  <SCORE.INTRA.VDW>
-0.713863

>  <SCORE.INTRA.VDW.0>
-0.478406

>  <SCORE.INTRA.norm>
-0.172379

>  <SCORE.RESTR>
0

>  <SCORE.RESTR.CAVITY>
0

>  <SCORE.RESTR.norm>
0

>  <SCORE.SYSTEM>
0

>  <SCORE.SYSTEM.CONST>
0

>  <SCORE.SYSTEM.DIHEDRAL>
0

>  <SCORE.SYSTEM.SOLV>
0

>  <SCORE.SYSTEM.norm>
0

>  <SCORE.heavy>
14

>  <SCORE.norm>
-0.249693

>  <RMSD>
11.916

$$$$
ligand
 OpenBabel11021811413D
libRbt.so/2013.1/901 2013/11/27
 14 13  0  0  0  0  0  0  0  0999 V2000
   50.5737    0.6206   11.3355 N   0  0  0  0  0  0  0  0  0  0  0  0
   49.8904   -0.5134   10.6766 C   0  0  0  0  0  0  0  0  0  0  0  0
   48.3770   -0.5070   10.9826 C   0  0  0  0  0  0  0  0  0  0  0  0
   47.6052   -1.7116   10.4195 C   0  0  0  0  0  0  0  0  0  0  0  0
   48.0654   -2.9814   11.0458 N   0  0  0  0  0  0  0  0  0  0  0  0
   47.7157   -4.1369   10.1803 C   0  0  0  0  0  0  0  0  0  0  0  0
   47.9603   -5.5507   10.8076 C   0  0  0  0  0  0  0  0  0  0  0  0
   47.0950   -5.8452   12.0666 C   0  0  0  0  0  0  0  0  0  0  0  0
   45.6235   -6.0542   11.7670 C   0  0  0  0  0  0  0  0  0  0  0  0
   45.0591   -4.7648   11.4158 N   0  0  0  0  0  0  0  0  0  0  0  0
   43.8684   -5.0509   10.6347 C   0  0  0  0  0  0  0  0  0  0  0  0
   42.9115   -3.8646   10.6218 C   0  0  0  0  0  0  0  0  0  0  0  0
   41.6319   -4.3075    9.8963 C   0  0  0  0  0  0  0  0  0  0  0  0
   40.6534   -3.2159    9.7795 N   0  0  0  0  0  0  0  0  0  0  0  0
  1  2  1  0  0  0  0
  2  3  1  0  0  0  0
  3  4  1  0  0  0  0
  4  5  1  0  0  0  0
  5  6  1  0  0  0  0
  6  7  1  0  0  0  0
  7  8  1  0  0  0  0
  8  9  1  0  0  0  0
  9 10  1  0  0  0  0
 10 11  1  0  0  0  0
 11 12  1  0  0  0  0
 12 13  1  0  0  0  0
 13 14  1  0  0  0  0
M  END
>  <CHROM.1>
-175.77031949,63.96236217,-158.87605461,-171.76121366,63.31248300,70.97205395
-71.89193258,157.37760555,159.40950183,-174.45586175,-177.76231946,46.21651546
-3.42058906,10.83066063,0.45199311,-0.16622747,-0.18302115

>  <Name>
ligand

>  <RI>
0

>  <Rbt.Current_Directory>
/home/itssahil/PROJECTS/Mol_Feturizer/New_Systems/rnas/1TN1

>  <Rbt.Executable>
rbdock ($Id: //depot/dev/client3/rdock/2013.1/src/exe/rbdock.cxx#4 $)

>  <Rbt.Library>
libRbt.so (2013.1, Build901 2013/11/27)

>  <Rbt.Parameter_File>
/export/apps/rDock/src/rDock_2013.1_src/data/scripts/dock_solv.prm

>  <Rbt.Receptor>
prm/blind_docking_60.prm

>  <SCORE>
2.27636

>  <SCORE.INTER>
4.74533

>  <SCORE.INTER.CONST>
1

>  <SCORE.INTER.POLAR>
0

>  <SCORE.INTER.ROT>
11

>  <SCORE.INTER.SOLV>
9.6762

>  <SCORE.INTER.VDW>
-10.9952

>  <SCORE.INTER.norm>
0.338952

>  <SCORE.INTRA>
-2.46897

>  <SCORE.INTRA.DIHEDRAL>
-5.40701

>  <SCORE.INTRA.DIHEDRAL.0>
7.79482

>  <SCORE.INTRA.POLAR>
0

>  <SCORE.INTRA.POLAR.0>
0

>  <SCORE.INTRA.REPUL>
0

>  <SCORE.INTRA.REPUL.0>
0

>  <SCORE.INTRA.SOLV>
2.36283

>  <SCORE.INTRA.SOLV.lig_0>
-49.456

>  <SCORE.INTRA.VDW>
-0.946877

>  <SCORE.INTRA.VDW.0>
-0.478406

>  <SCORE.INTRA.norm>
-0.176355

>  <SCORE.RESTR>
0

>  <SCORE.RESTR.CAVITY>
0

>  <SCORE.RESTR.norm>
0

>  <SCORE.SYSTEM>
0

>  <SCORE.SYSTEM.CONST>
0

>  <SCORE.SYSTEM.DIHEDRAL>
0

>  <SCORE.SYSTEM.SOLV>
0

>  <SCORE.SYSTEM.norm>
0

>  <SCORE.heavy>
14

>  <SCORE.norm>
0.162597

>  <RMSD>
12.779

$$$$
ligand
 OpenBabel11021811413D
libRbt.so/2013.1/901 2013/11/27
 14 13  0  0  0  0  0  0  0  0999 V2000
   46.7591    0.2981   14.5804 N   0  0  0  0  0  0  0  0  0  0  0  0
   46.7341   -1.1787   14.5052 C   0  0  0  0  0  0  0  0  0  0  0  0
   45.3037   -1.7237   14.7075 C   0  0  0  0  0  0  0  0  0  0  0  0
   44.2888   -1.2665   13.6468 C   0  0  0  0  0  0  0  0  0  0  0  0
   44.6923   -1.7243   12.2888 N   0  0  0  0  0  0  0  0  0  0  0  0
   43.8820   -2.9011   11.8820 C   0  0  0  0  0  0  0  0  0  0  0  0
   42.4907   -2.5759   11.2412 C   0  0  0  0  0  0  0  0  0  0  0  0
   41.6529   -3.8332   10.8701 C   0  0  0  0  0  0  0  0  0  0  0  0
   40.2510   -3.5178   10.3864 C   0  0  0  0  0  0  0  0  0  0  0  0
   40.3703   -2.7971    9.1331 N   0  0  0  0  0  0  0  0  0  0  0  0
   39.0231   -2.7023    8.5986 C   0  0  0  0  0  0  0  0  0  0  0  0
   38.7245   -3.8433    7.6332 C   0  0  0  0  0  0  0  0  0  0  0  0
   39.7110   -3.7304    6.4610 C   0  0  0  0  0  0  0  0  0  0  0  0
   39.5320   -4.8098    5.4783 N   0  0  0  0  0  0  0  0  0  0  0  0
  1  2  1  0  0  0  0
  2  3  1  0  0  0  0
  3  4  1  0  0  0  0
  4  5  1  0  0  0  0
  5  6  1  0  0  0  0
  6  7  1  0  0  0  0
  7  8  1  0  0  0  0
  8  9  1  0  0  0  0
  9 10  1  0  0  0  0
 10 11  1  0  0  0  0
 11 12  1  0  0  0  0
 12 13  1  0  0  0  0
 13 14  1  0  0  0  0
M  END
>  <CHROM.1>
61.76546935,61.00556022,102.48434406,84.52578897,-178.15229290,173.90623700
65.38966771,171.14532528,-93.77553506,-61.68421754,178.60776297,42.38664649
-2.59342673,10.81536030,-0.84009836,-0.17976507,-1.79701873

>  <Name>
ligand

>  <RI>
0

>  <Rbt.Current_Directory>
/home/itssahil/PROJECTS/Mol_Feturizer/New_Systems/rnas/1TN1

>  <Rbt.Executable>
rbdock ($Id: //depot/dev/client3/rdock/2013.1/src/exe/rbdock.cxx#4 $)

>  <Rbt.Library>
libRbt.so (2013.1, Build901 2013/11/27)

>  <Rbt.Parameter_File>
/export/apps/rDock/src/rDock_2013.1_src/data/scripts/dock_solv.prm

>  <Rbt.Receptor>
prm/blind_docking_60.prm

>  <SCORE>
-2.86566

>  <SCORE.INTER>
-1.62598

>  <SCORE.INTER.CONST>
1

>  <SCORE.INTER.POLAR>
0

>  <SCORE.INTER.ROT>
11

>  <SCORE.INTER.SOLV>
8.13384

>  <SCORE.INTER.VDW>
-14.7286

>  <SCORE.INTER.norm>
-0.116141

>  <SCORE.INTRA>
-1.23968

>  <SCORE.INTRA.DIHEDRAL>
-5.30822

>  <SCORE.INTRA.DIHEDRAL.0>
7.79482

>  <SCORE.INTRA.POLAR>
0

>  <SCORE.INTRA.POLAR.0>
0

>  <SCORE.INTRA.REPUL>
0

>  <SCORE.INTRA.REPUL.0>
0

>  <SCORE.INTRA.SOLV>
2.56625

>  <SCORE.INTRA.SOLV.lig_0>
-49.456

>  <SCORE.INTRA.VDW>
0.1313

>  <SCORE.INTRA.VDW.0>
-0.478406

>  <SCORE.INTRA.norm>
-0.0885488

>  <SCORE.RESTR>
0

>  <SCORE.RESTR.CAVITY>
0

>  <SCORE.RESTR.norm>
0

>  <SCORE.SYSTEM>
0

>  <SCORE.SYSTEM.CONST>
0

>  <SCORE.SYSTEM.DIHEDRAL>
0

>  <SCORE.SYSTEM.SOLV>
0

>  <SCORE.SYSTEM.norm>
0

>  <SCORE.heavy>
14

>  <SCORE.norm>
-0.20469

>  <RMSD>
12.835

$$$$
ligand
 OpenBabel11021811413D
libRbt.so/2013.1/901 2013/11/27
 14 13  0  0  0  0  0  0  0  0999 V2000
   39.7829   -1.9477    3.0403 N   0  0  0  0  0  0  0  0  0  0  0  0
   39.1131   -1.2005    4.1267 C   0  0  0  0  0  0  0  0  0  0  0  0
   38.9352   -2.0811    5.3824 C   0  0  0  0  0  0  0  0  0  0  0  0
   40.2491   -2.4900    6.0684 C   0  0  0  0  0  0  0  0  0  0  0  0
   40.0013   -3.4857    7.1472 N   0  0  0  0  0  0  0  0  0  0  0  0
   39.4029   -2.8199    8.3327 C   0  0  0  0  0  0  0  0  0  0  0  0
   39.8826   -3.3559    9.7237 C   0  0  0  0  0  0  0  0  0  0  0  0
   41.3750   -3.0521   10.0412 C   0  0  0  0  0  0  0  0  0  0  0  0
   41.7994   -3.4486   11.4417 C   0  0  0  0  0  0  0  0  0  0  0  0
   43.1454   -2.9496   11.6508 N   0  0  0  0  0  0  0  0  0  0  0  0
   43.5199   -3.3643   12.9915 C   0  0  0  0  0  0  0  0  0  0  0  0
   44.7996   -2.6756   13.4512 C   0  0  0  0  0  0  0  0  0  0  0  0
   44.4781   -1.1877   13.6582 C   0  0  0  0  0  0  0  0  0  0  0  0
   45.6542   -0.4208   14.0954 N   0  0  0  0  0  0  0  0  0  0  0  0
  1  2  1  0  0  0  0
  2  3  1  0  0  0  0
  3  4  1  0  0  0  0
  4  5  1  0  0  0  0
  5  6  1  0  0  0  0
  6  7  1  0  0  0  0
  7  8  1  0  0  0  0
  8  9  1  0  0  0  0
  9 10  1  0  0  0  0
 10 11  1  0  0  0  0
 11 12  1  0  0  0  0
 12 13  1  0  0  0  0
 13 14  1  0  0  0  0
M  END
>  <CHROM.1>
66.05908570,-172.04451105,-74.68659024,-142.59588008,67.69909917,174.22439155
-172.59025476,-179.25207238,-168.68029446,69.07614979,-179.54351118,41.58110255
-2.46292252,9.36811376,-2.29151489,0.69287213,2.06922330

>  <Name>
ligand

>  <RI>
0

>  <Rbt.Current_Directory>
/home/itssahil/PROJECTS/Mol_Feturizer/New_Systems/rnas/1TN1

>  <Rbt.Executable>
rbdock ($Id: //depot/dev/client3/rdock/2013.1/src/exe/rbdock.cxx#4 $)

>  <Rbt.Library>
libRbt.so (2013.1, Build901 2013/11/27)

>  <Rbt.Parameter_File>
/export/apps/rDock/src/rDock_2013.1_src/data/scripts/dock_solv.prm

>  <Rbt.Receptor>
prm/blind_docking_100.prm

>  <SCORE>
-5.32849

>  <SCORE.INTER>
-3.11096

>  <SCORE.INTER.CONST>
1

>  <SCORE.INTER.POLAR>
0

>  <SCORE.INTER.ROT>
11

>  <SCORE.INTER.SOLV>
9.12892

>  <SCORE.INTER.VDW>
-16.0503

>  <SCORE.INTER.norm>
-0.222211

>  <SCORE.INTRA>
-2.21754

>  <SCORE.INTRA.DIHEDRAL>
-5.45077

>  <SCORE.INTRA.DIHEDRAL.0>
7.79482

>  <SCORE.INTRA.POLAR>
0

>  <SCORE.INTRA.POLAR.0>
0

>  <SCORE.INTRA.REPUL>
0

>  <SCORE.INTRA.REPUL.0>
0

>  <SCORE.INTRA.SOLV>
1.31497

>  <SCORE.INTRA.SOLV.lig_0>
-49.456

>  <SCORE.INTRA.VDW>
-0.149639

>  <SCORE.INTRA.VDW.0>
-0.478406

>  <SCORE.INTRA.norm>
-0.158396

>  <SCORE.RESTR>
0

>  <SCORE.RESTR.CAVITY>
0

>  <SCORE.RESTR.norm>
0

>  <SCORE.SYSTEM>
0

>  <SCORE.SYSTEM.CONST>
0

>  <SCORE.SYSTEM.DIHEDRAL>
0

>  <SCORE.SYSTEM.SOLV>
0

>  <SCORE.SYSTEM.norm>
0

>  <SCORE.heavy>
14

>  <SCORE.norm>
-0.380607

>  <RMSD>
14.172

$$$$
ligand
 OpenBabel11021811413D
libRbt.so/2013.1/901 2013/11/27
 14 13  0  0  0  0  0  0  0  0999 V2000
   46.2496   -1.7442   14.2355 N   0  0  0  0  0  0  0  0  0  0  0  0
   44.7863   -1.5393   14.2965 C   0  0  0  0  0  0  0  0  0  0  0  0
   44.1501   -1.6377   12.8930 C   0  0  0  0  0  0  0  0  0  0  0  0
   44.1727   -3.0465   12.2776 C   0  0  0  0  0  0  0  0  0  0  0  0
   43.6400   -3.0311   10.8875 N   0  0  0  0  0  0  0  0  0  0  0  0
   42.1805   -3.3081   10.8940 C   0  0  0  0  0  0  0  0  0  0  0  0
   41.4182   -2.9511    9.5735 C   0  0  0  0  0  0  0  0  0  0  0  0
   39.8950   -3.2653    9.6148 C   0  0  0  0  0  0  0  0  0  0  0  0
   39.1309   -2.7678    8.4034 C   0  0  0  0  0  0  0  0  0  0  0  0
   39.5561   -3.5554    7.2618 N   0  0  0  0  0  0  0  0  0  0  0  0
   39.8766   -2.5997    6.2161 C   0  0  0  0  0  0  0  0  0  0  0  0
   38.6337   -2.1905    5.4345 C   0  0  0  0  0  0  0  0  0  0  0  0
   39.0622   -1.1438    4.3949 C   0  0  0  0  0  0  0  0  0  0  0  0
   39.8451   -1.7364    3.3000 N   0  0  0  0  0  0  0  0  0  0  0  0
  1  2  1  0  0  0  0
  2  3  1  0  0  0  0
  3  4  1  0  0  0  0
  4  5  1  0  0  0  0
  5  6  1  0  0  0  0
  6  7  1  0  0  0  0
  7  8  1  0  0  0  0
  8  9  1  0  0  0  0
  9 10  1  0  0  0  0
 10 11  1  0  0  0  0
 11 12  1  0  0  0  0
 12 13  1  0  0  0  0
 13 14  1  0  0  0  0
M  END
>  <CHROM.1>
68.66581625,-175.51876677,-92.00091587,164.27785574,179.55462830,173.04444951
68.35695412,-130.63451271,-84.77720928,177.82195928,71.85875880,41.61377813
-2.46547786,9.26322866,-0.87692428,-0.48815611,-1.20255029

>  <Name>
ligand

>  <RI>
0

>  <Rbt.Current_Directory>
/home/itssahil/PROJECTS/Mol_Feturizer/New_Systems/rnas/1TN1

>  <Rbt.Executable>
rbdock ($Id: //depot/dev/client3/rdock/2013.1/src/exe/rbdock.cxx#4 $)

>  <Rbt.Library>
libRbt.so (2013.1, Build901 2013/11/27)

>  <Rbt.Parameter_File>
/export/apps/rDock/src/rDock_2013.1_src/data/scripts/dock_solv.prm

>  <Rbt.Receptor>
prm/blind_docking_80.prm

>  <SCORE>
-4.02568

>  <SCORE.INTER>
-3.01327

>  <SCORE.INTER.CONST>
1

>  <SCORE.INTER.POLAR>
0

>  <SCORE.INTER.ROT>
11

>  <SCORE.INTER.SOLV>
9.41304

>  <SCORE.INTER.VDW>
-16.0799

>  <SCORE.INTER.norm>
-0.215234

>  <SCORE.INTRA>
-1.0124

>  <SCORE.INTRA.DIHEDRAL>
-4.04318

>  <SCORE.INTRA.DIHEDRAL.0>
7.79482

>  <SCORE.INTRA.POLAR>
0

>  <SCORE.INTRA.POLAR.0>
0

>  <SCORE.INTRA.REPUL>
0

>  <SCORE.INTRA.REPUL.0>
0

>  <SCORE.INTRA.SOLV>
1.64178

>  <SCORE.INTRA.SOLV.lig_0>
-49.456

>  <SCORE.INTRA.VDW>
0.188298

>  <SCORE.INTRA.VDW.0>
-0.478406

>  <SCORE.INTRA.norm>
-0.0723145

>  <SCORE.RESTR>
0

>  <SCORE.RESTR.CAVITY>
0

>  <SCORE.RESTR.norm>
0

>  <SCORE.SYSTEM>
0

>  <SCORE.SYSTEM.CONST>
0

>  <SCORE.SYSTEM.DIHEDRAL>
0

>  <SCORE.SYSTEM.SOLV>
0

>  <SCORE.SYSTEM.norm>
0

>  <SCORE.heavy>
14

>  <SCORE.norm>
-0.287548

>  <RMSD>
14.213

$$$$
ligand
 OpenBabel11021811413D
libRbt.so/2013.1/901 2013/11/27
 14 13  0  0  0  0  0  0  0  0999 V2000
   45.7678   -0.6425   13.7828 N   0  0  0  0  0  0  0  0  0  0  0  0
   44.4669   -1.3339   13.6538 C   0  0  0  0  0  0  0  0  0  0  0  0
   44.6341   -2.7187   12.9917 C   0  0  0  0  0  0  0  0  0  0  0  0
   43.3238   -3.5010   12.8048 C   0  0  0  0  0  0  0  0  0  0  0  0
   42.4263   -2.8163   11.8342 N   0  0  0  0  0  0  0  0  0  0  0  0
   42.5176   -3.4681   10.5025 C   0  0  0  0  0  0  0  0  0  0  0  0
   41.5518   -2.9052    9.4059 C   0  0  0  0  0  0  0  0  0  0  0  0
   40.0500   -3.2240    9.6581 C   0  0  0  0  0  0  0  0  0  0  0  0
   39.1307   -2.7855    8.5349 C   0  0  0  0  0  0  0  0  0  0  0  0
   39.4538   -3.5820    7.3663 N   0  0  0  0  0  0  0  0  0  0  0  0
   39.8055   -2.6341    6.3235 C   0  0  0  0  0  0  0  0  0  0  0  0
   38.5984   -2.2776    5.4637 C   0  0  0  0  0  0  0  0  0  0  0  0
   39.0614   -1.2569    4.4131 C   0  0  0  0  0  0  0  0  0  0  0  0
   39.9519   -1.8582    3.4091 N   0  0  0  0  0  0  0  0  0  0  0  0
  1  2  1  0  0  0  0
  2  3  1  0  0  0  0
  3  4  1  0  0  0  0
  4  5  1  0  0  0  0
  5  6  1  0  0  0  0
  6  7  1  0  0  0  0
  7  8  1  0  0  0  0
  8  9  1  0  0  0  0
  9 10  1  0  0  0  0
 10 11  1  0  0  0  0
 11 12  1  0  0  0  0
 12 13  1  0  0  0  0
 13 14  1  0  0  0  0
M  END
>  <CHROM.1>
-179.35839852,65.81808424,100.24547949,176.15947605,-69.29256954,-174.87235015
65.87539299,-122.37525638,-93.15877289,178.96481628,69.82411649,41.48125532
-2.50038077,9.29611425,-0.83320134,-0.62760253,-1.09674854

>  <Name>
ligand

>  <RI>
0

>  <Rbt.Current_Directory>
/home/itssahil/PROJECTS/Mol_Feturizer/New_Systems/rnas/1TN1

>  <Rbt.Executable>
rbdock ($Id: //depot/dev/client3/rdock/2013.1/src/exe/rbdock.cxx#4 $)

>  <Rbt.Library>
libRbt.so (2013.1, Build901 2013/11/27)

>  <Rbt.Parameter_File>
/export/apps/rDock/src/rDock_2013.1_src/data/scripts/dock_solv.prm

>  <Rbt.Receptor>
prm/blind_docking_60.prm

>  <SCORE>
-3.90649

>  <SCORE.INTER>
-2.60662

>  <SCORE.INTER.CONST>
1

>  <SCORE.INTER.POLAR>
0

>  <SCORE.INTER.ROT>
11

>  <SCORE.INTER.SOLV>
9.9418

>  <SCORE.INTER.VDW>
-15.985

>  <SCORE.INTER.norm>
-0.186187

>  <SCORE.INTRA>
-1.29986

>  <SCORE.INTRA.DIHEDRAL>
-3.93257

>  <SCORE.INTRA.DIHEDRAL.0>
7.79482

>  <SCORE.INTRA.POLAR>
0

>  <SCORE.INTRA.POLAR.0>
0

>  <SCORE.INTRA.REPUL>
0

>  <SCORE.INTRA.REPUL.0>
0

>  <SCORE.INTRA.SOLV>
1.67322

>  <SCORE.INTRA.SOLV.lig_0>
-49.456

>  <SCORE.INTRA.VDW>
-0.170191

>  <SCORE.INTRA.VDW.0>
-0.478406

>  <SCORE.INTRA.norm>
-0.0928474

>  <SCORE.RESTR>
0

>  <SCORE.RESTR.CAVITY>
0

>  <SCORE.RESTR.norm>
0

>  <SCORE.SYSTEM>
0

>  <SCORE.SYSTEM.CONST>
0

>  <SCORE.SYSTEM.DIHEDRAL>
0

>  <SCORE.SYSTEM.SOLV>
0

>  <SCORE.SYSTEM.norm>
0

>  <SCORE.heavy>
14

>  <SCORE.norm>
-0.279035

>  <RMSD>
14.226

$$$$
ligand
 OpenBabel11021811413D
libRbt.so/2013.1/901 2013/11/27
 14 13  0  0  0  0  0  0  0  0999 V2000
   45.2424   -1.5708   14.5072 N   0  0  0  0  0  0  0  0  0  0  0  0
   44.3217   -2.5862   13.9519 C   0  0  0  0  0  0  0  0  0  0  0  0
   43.8974   -2.2265   12.5116 C   0  0  0  0  0  0  0  0  0  0  0  0
   42.8859   -3.1978   11.8811 C   0  0  0  0  0  0  0  0  0  0  0  0
   42.5901   -2.8207   10.4716 N   0  0  0  0  0  0  0  0  0  0  0  0
   41.7693   -3.8735    9.8200 C   0  0  0  0  0  0  0  0  0  0  0  0
   40.2185   -3.6781    9.9149 C   0  0  0  0  0  0  0  0  0  0  0  0
   39.6285   -2.7398    8.8232 C   0  0  0  0  0  0  0  0  0  0  0  0
   39.7156   -3.3005    7.4172 C   0  0  0  0  0  0  0  0  0  0  0  0
   39.1171   -2.3307    6.5196 N   0  0  0  0  0  0  0  0  0  0  0  0
   39.8311   -2.4593    5.2613 C   0  0  0  0  0  0  0  0  0  0  0  0
   39.1696   -1.6411    4.1585 C   0  0  0  0  0  0  0  0  0  0  0  0
   39.9036   -1.9519    2.8452 C   0  0  0  0  0  0  0  0  0  0  0  0
   39.3454   -1.2065    1.7070 N   0  0  0  0  0  0  0  0  0  0  0  0
  1  2  1  0  0  0  0
  2  3  1  0  0  0  0
  3  4  1  0  0  0  0
  4  5  1  0  0  0  0
  5  6  1  0  0  0  0
  6  7  1  0  0  0  0
  7  8  1  0  0  0  0
  8  9  1  0  0  0  0
  9 10  1  0  0  0  0
 10 11  1  0  0  0  0
 11 12  1  0  0  0  0
 12 13  1  0  0  0  0
 13 14  1  0  0  0  0
M  END
>  <CHROM.1>
-177.27350472,-176.86242298,171.86491035,91.46609335,83.97013287,67.07393983
179.31492398,148.48495857,171.55978722,-174.31608386,-179.80688473,41.25959599
-2.54190355,8.55655324,-1.04252659,-0.52676832,-1.22304951

>  <Name>
ligand

>  <RI>
0

>  <Rbt.Current_Directory>
/home/itssahil/PROJECTS/Mol_Feturizer/New_Systems/rnas/1TN1

>  <Rbt.Executable>
rbdock ($Id: //depot/dev/client3/rdock/2013.1/src/exe/rbdock.cxx#4 $)

>  <Rbt.Library>
libRbt.so (2013.1, Build901 2013/11/27)

>  <Rbt.Parameter_File>
/export/apps/rDock/src/rDock_2013.1_src/data/scripts/dock_solv.prm

>  <Rbt.Receptor>
prm/blind_docking_80.prm

>  <SCORE>
-3.88114

>  <SCORE.INTER>
-1.52599

>  <SCORE.INTER.CONST>
1

>  <SCORE.INTER.POLAR>
0

>  <SCORE.INTER.ROT>
11

>  <SCORE.INTER.SOLV>
12.8014

>  <SCORE.INTER.VDW>
-16.2178

>  <SCORE.INTER.norm>
-0.109

>  <SCORE.INTRA>
-2.35514

>  <SCORE.INTRA.DIHEDRAL>
-4.091

>  <SCORE.INTRA.DIHEDRAL.0>
7.79482

>  <SCORE.INTRA.POLAR>
0

>  <SCORE.INTRA.POLAR.0>
0

>  <SCORE.INTRA.REPUL>
0

>  <SCORE.INTRA.REPUL.0>
0

>  <SCORE.INTRA.SOLV>
0.405509

>  <SCORE.INTRA.SOLV.lig_0>
-49.456

>  <SCORE.INTRA.VDW>
-0.512398

>  <SCORE.INTRA.VDW.0>
-0.478406

>  <SCORE.INTRA.norm>
-0.168224

>  <SCORE.RESTR>
0

>  <SCORE.RESTR.CAVITY>
0

>  <SCORE.RESTR.norm>
0

>  <SCORE.SYSTEM>
0

>  <SCORE.SYSTEM.CONST>
0

>  <SCORE.SYSTEM.DIHEDRAL>
0

>  <SCORE.SYSTEM.SOLV>
0

>  <SCORE.SYSTEM.norm>
0

>  <SCORE.heavy>
14

>  <SCORE.norm>
-0.277224

>  <RMSD>
14.793

$$$$
ligand
 OpenBabel11021811413D
libRbt.so/2013.1/901 2013/11/27
 14 13  0  0  0  0  0  0  0  0999 V2000
   43.2160   -3.3988   10.8719 N   0  0  0  0  0  0  0  0  0  0  0  0
   42.1865   -2.9157    9.9265 C   0  0  0  0  0  0  0  0  0  0  0  0
   40.8321   -3.6155   10.1709 C   0  0  0  0  0  0  0  0  0  0  0  0
   39.7205   -3.2202    9.1850 C   0  0  0  0  0  0  0  0  0  0  0  0
   40.0193   -3.7190    7.8145 N   0  0  0  0  0  0  0  0  0  0  0  0
   38.7657   -3.8368    7.0263 C   0  0  0  0  0  0  0  0  0  0  0  0
   38.8366   -3.2980    5.5577 C   0  0  0  0  0  0  0  0  0  0  0  0
   39.3077   -1.8195    5.4456 C   0  0  0  0  0  0  0  0  0  0  0  0
   39.0189   -1.1817    4.1008 C   0  0  0  0  0  0  0  0  0  0  0  0
   39.8425   -1.8503    3.1114 N   0  0  0  0  0  0  0  0  0  0  0  0
   39.6401   -1.1252    1.8693 C   0  0  0  0  0  0  0  0  0  0  0  0
   40.3960   -1.7737    0.7154 C   0  0  0  0  0  0  0  0  0  0  0  0
   41.8970   -1.6653    1.0239 C   0  0  0  0  0  0  0  0  0  0  0  0
   42.7222   -2.3437    0.0132 N   0  0  0  0  0  0  0  0  0  0  0  0
  1  2  1  0  0  0  0
  2  3  1  0  0  0  0
  3  4  1  0  0  0  0
  4  5  1  0  0  0  0
  5  6  1  0  0  0  0
  6  7  1  0  0  0  0
  7  8  1  0  0  0  0
  8  9  1  0  0  0  0
  9 10  1  0  0  0  0
 10 11  1  0  0  0  0
 11 12  1  0  0  0  0
 12 13  1  0  0  0  0
 13 14  1  0  0  0  0
M  END
>  <CHROM.1>
-177.19917687,67.89988576,156.95091162,135.91008196,-55.26599906,-164.07245919
-67.02568479,-174.35353977,-176.88553699,-64.39453779,176.13719571,40.45682013
-2.55441865,5.48804974,-1.53444060,0.02274162,-1.37462507

>  <Name>
ligand

>  <RI>
0

>  <Rbt.Current_Directory>
/home/itssahil/PROJECTS/Mol_Feturizer/New_Systems/rnas/1TN1

>  <Rbt.Executable>
rbdock ($Id: //depot/dev/client3/rdock/2013.1/src/exe/rbdock.cxx#4 $)

>  <Rbt.Library>
libRbt.so (2013.1, Build901 2013/11/27)

>  <Rbt.Parameter_File>
/export/apps/rDock/src/rDock_2013.1_src/data/scripts/dock_solv.prm

>  <Rbt.Receptor>
prm/blind_docking_100.prm

>  <SCORE>
-4.24036

>  <SCORE.INTER>
-1.88784

>  <SCORE.INTER.CONST>
1

>  <SCORE.INTER.POLAR>
0

>  <SCORE.INTER.ROT>
11

>  <SCORE.INTER.SOLV>
9.65891

>  <SCORE.INTER.VDW>
-15.4115

>  <SCORE.INTER.norm>
-0.134846

>  <SCORE.INTRA>
-2.35253

>  <SCORE.INTRA.DIHEDRAL>
-4.70659

>  <SCORE.INTRA.DIHEDRAL.0>
7.79482

>  <SCORE.INTRA.POLAR>
0

>  <SCORE.INTRA.POLAR.0>
0

>  <SCORE.INTRA.REPUL>
0

>  <SCORE.INTRA.REPUL.0>
0

>  <SCORE.INTRA.SOLV>
1.4028

>  <SCORE.INTRA.SOLV.lig_0>
-49.456

>  <SCORE.INTRA.VDW>
-0.70063

>  <SCORE.INTRA.VDW.0>
-0.478406

>  <SCORE.INTRA.norm>
-0.168038

>  <SCORE.RESTR>
0

>  <SCORE.RESTR.CAVITY>
0

>  <SCORE.RESTR.norm>
0

>  <SCORE.SYSTEM>
0

>  <SCORE.SYSTEM.CONST>
0

>  <SCORE.SYSTEM.DIHEDRAL>
0

>  <SCORE.SYSTEM.SOLV>
0

>  <SCORE.SYSTEM.norm>
0

>  <SCORE.heavy>
14

>  <SCORE.norm>
-0.302883

>  <RMSD>
16.944

$$$$
ligand
 OpenBabel11021811413D
libRbt.so/2013.1/901 2013/11/27
 14 13  0  0  0  0  0  0  0  0999 V2000
   40.3178   -3.9159    9.0826 N   0  0  0  0  0  0  0  0  0  0  0  0
   39.3679   -2.9516    8.4868 C   0  0  0  0  0  0  0  0  0  0  0  0
   39.4265   -2.9912    6.9444 C   0  0  0  0  0  0  0  0  0  0  0  0
   40.8038   -2.6584    6.3476 C   0  0  0  0  0  0  0  0  0  0  0  0
   40.7825   -2.7639    4.8628 N   0  0  0  0  0  0  0  0  0  0  0  0
   42.1634   -2.9262    4.3397 C   0  0  0  0  0  0  0  0  0  0  0  0
   42.2868   -3.0562    2.7841 C   0  0  0  0  0  0  0  0  0  0  0  0
   41.8533   -1.7819    2.0039 C   0  0  0  0  0  0  0  0  0  0  0  0
   41.9816   -1.9085    0.4984 C   0  0  0  0  0  0  0  0  0  0  0  0
   41.0349   -2.9164    0.0600 N   0  0  0  0  0  0  0  0  0  0  0  0
   41.6780   -3.6153   -1.0389 C   0  0  0  0  0  0  0  0  0  0  0  0
   40.7226   -4.5927   -1.7135 C   0  0  0  0  0  0  0  0  0  0  0  0
   40.3803   -5.6879   -0.6921 C   0  0  0  0  0  0  0  0  0  0  0  0
   41.5475   -6.5161   -0.3535 N   0  0  0  0  0  0  0  0  0  0  0  0
  1  2  1  0  0  0  0
  2  3  1  0  0  0  0
  3  4  1  0  0  0  0
  4  5  1  0  0  0  0
  5  6  1  0  0  0  0
  6  7  1  0  0  0  0
  7  8  1  0  0  0  0
  8  9  1  0  0  0  0
  9 10  1  0  0  0  0
 10 11  1  0  0  0  0
 11 12  1  0  0  0  0
 12 13  1  0  0  0  0
 13 14  1  0  0  0  0
M  END
>  <CHROM.1>
-59.65820130,178.10334200,-159.74602087,179.74554818,64.96779039,179.66872069
65.68930489,-144.46309612,-172.87339096,-65.39961853,-66.45277585,41.02481776
-3.44849262,2.97213482,1.89509944,1.14794655,1.12933248

>  <Name>
ligand

>  <RI>
0

>  <Rbt.Current_Directory>
/home/itssahil/PROJECTS/Mol_Feturizer/New_Systems/rnas/1TN1

>  <Rbt.Executable>
rbdock ($Id: //depot/dev/client3/rdock/2013.1/src/exe/rbdock.cxx#4 $)

>  <Rbt.Library>
libRbt.so (2013.1, Build901 2013/11/27)

>  <Rbt.Parameter_File>
/export/apps/rDock/src/rDock_2013.1_src/data/scripts/dock_solv.prm

>  <Rbt.Receptor>
prm/blind_docking_80.prm

>  <SCORE>
-0.162991

>  <SCORE.INTER>
1.93227

>  <SCORE.INTER.CONST>
1

>  <SCORE.INTER.POLAR>
0

>  <SCORE.INTER.ROT>
11

>  <SCORE.INTER.SOLV>
8.21785

>  <SCORE.INTER.VDW>
-12.3844

>  <SCORE.INTER.norm>
0.13802

>  <SCORE.INTRA>
-2.09526

>  <SCORE.INTRA.DIHEDRAL>
-6.1805

>  <SCORE.INTRA.DIHEDRAL.0>
7.79482

>  <SCORE.INTRA.POLAR>
0

>  <SCORE.INTRA.POLAR.0>
0

>  <SCORE.INTRA.REPUL>
0

>  <SCORE.INTRA.REPUL.0>
0

>  <SCORE.INTRA.SOLV>
3.11873

>  <SCORE.INTRA.SOLV.lig_0>
-49.456

>  <SCORE.INTRA.VDW>
-0.564377

>  <SCORE.INTRA.VDW.0>
-0.478406

>  <SCORE.INTRA.norm>
-0.149662

>  <SCORE.RESTR>
0

>  <SCORE.RESTR.CAVITY>
0

>  <SCORE.RESTR.norm>
0

>  <SCORE.SYSTEM>
0

>  <SCORE.SYSTEM.CONST>
0

>  <SCORE.SYSTEM.DIHEDRAL>
0

>  <SCORE.SYSTEM.SOLV>
0

>  <SCORE.SYSTEM.norm>
0

>  <SCORE.heavy>
14

>  <SCORE.norm>
-0.0116422

>  <RMSD>
18.933

$$$$
ligand
 OpenBabel11021811413D
libRbt.so/2013.1/901 2013/11/27
 14 13  0  0  0  0  0  0  0  0999 V2000
   36.4847   -6.5878    5.0072 N   0  0  0  0  0  0  0  0  0  0  0  0
   35.9389   -5.4635    5.7980 C   0  0  0  0  0  0  0  0  0  0  0  0
   36.4076   -5.5354    7.2674 C   0  0  0  0  0  0  0  0  0  0  0  0
   37.9318   -5.6230    7.4493 C   0  0  0  0  0  0  0  0  0  0  0  0
   38.5962   -4.3675    7.0035 N   0  0  0  0  0  0  0  0  0  0  0  0
   39.0187   -4.4862    5.5843 C   0  0  0  0  0  0  0  0  0  0  0  0
   39.8140   -3.2654    5.0106 C   0  0  0  0  0  0  0  0  0  0  0  0
   39.1166   -1.8924    5.2319 C   0  0  0  0  0  0  0  0  0  0  0  0
   37.9489   -1.6378    4.2989 C   0  0  0  0  0  0  0  0  0  0  0  0
   36.9953   -2.7151    4.4843 N   0  0  0  0  0  0  0  0  0  0  0  0
   35.9641   -2.5107    3.4820 C   0  0  0  0  0  0  0  0  0  0  0  0
   35.9344   -3.6516    2.4717 C   0  0  0  0  0  0  0  0  0  0  0  0
   37.3050   -3.6950    1.7793 C   0  0  0  0  0  0  0  0  0  0  0  0
   37.3829   -4.7594    0.7675 N   0  0  0  0  0  0  0  0  0  0  0  0
  1  2  1  0  0  0  0
  2  3  1  0  0  0  0
  3  4  1  0  0  0  0
  4  5  1  0  0  0  0
  5  6  1  0  0  0  0
  6  7  1  0  0  0  0
  7  8  1  0  0  0  0
  8  9  1  0  0  0  0
  9 10  1  0  0  0  0
 10 11  1  0  0  0  0
 11 12  1  0  0  0  0
 12 13  1  0  0  0  0
 13 14  1  0  0  0  0
M  END
>  <CHROM.1>
54.17007499,66.51983270,-93.23191947,-176.31246569,-51.69557559,-76.09100526
57.68987699,-174.31025143,115.38691320,-60.47872894,-179.44817420,37.48855071
-4.01340388,4.68842209,1.37241200,0.85067578,2.09381779

>  <Name>
ligand

>  <RI>
0

>  <Rbt.Current_Directory>
/home/itssahil/PROJECTS/Mol_Feturizer/New_Systems/rnas/1TN1

>  <Rbt.Executable>
rbdock ($Id: //depot/dev/client3/rdock/2013.1/src/exe/rbdock.cxx#4 $)

>  <Rbt.Library>
libRbt.so (2013.1, Build901 2013/11/27)

>  <Rbt.Parameter_File>
/export/apps/rDock/src/rDock_2013.1_src/data/scripts/dock_solv.prm

>  <Rbt.Receptor>
prm/blind_docking_40.prm

>  <SCORE>
6.99651

>  <SCORE.INTER>
5.88084

>  <SCORE.INTER.CONST>
1

>  <SCORE.INTER.POLAR>
0

>  <SCORE.INTER.ROT>
11

>  <SCORE.INTER.SOLV>
5.49357

>  <SCORE.INTER.VDW>
-8.84397

>  <SCORE.INTER.norm>
0.42006

>  <SCORE.INTRA>
0.692304

>  <SCORE.INTRA.DIHEDRAL>
-4.28441

>  <SCORE.INTRA.DIHEDRAL.0>
7.79482

>  <SCORE.INTRA.POLAR>
0

>  <SCORE.INTRA.POLAR.0>
0

>  <SCORE.INTRA.REPUL>
0

>  <SCORE.INTRA.REPUL.0>
0

>  <SCORE.INTRA.SOLV>
7.39449

>  <SCORE.INTRA.SOLV.lig_0>
-49.456

>  <SCORE.INTRA.VDW>
-0.862736

>  <SCORE.INTRA.VDW.0>
-0.478406

>  <SCORE.INTRA.norm>
0.0494503

>  <SCORE.RESTR>
0.423366

>  <SCORE.RESTR.CAVITY>
0.423366

>  <SCORE.RESTR.norm>
0.0302404

>  <SCORE.SYSTEM>
0

>  <SCORE.SYSTEM.CONST>
0

>  <SCORE.SYSTEM.DIHEDRAL>
0

>  <SCORE.SYSTEM.SOLV>
0

>  <SCORE.SYSTEM.norm>
0

>  <SCORE.heavy>
14

>  <SCORE.norm>
0.499751

>  <RMSD>
18.935

$$$$
ligand
 OpenBabel11021811413D
libRbt.so/2013.1/901 2013/11/27
 14 13  0  0  0  0  0  0  0  0999 V2000
   36.2180   -6.0065    1.7721 N   0  0  0  0  0  0  0  0  0  0  0  0
   36.4012   -6.1281    3.2346 C   0  0  0  0  0  0  0  0  0  0  0  0
   37.8986   -6.1889    3.6062 C   0  0  0  0  0  0  0  0  0  0  0  0
   38.1782   -6.4044    5.1027 C   0  0  0  0  0  0  0  0  0  0  0  0
   37.5420   -5.3381    5.9241 N   0  0  0  0  0  0  0  0  0  0  0  0
   38.3339   -5.0994    7.1581 C   0  0  0  0  0  0  0  0  0  0  0  0
   38.5987   -3.5972    7.5122 C   0  0  0  0  0  0  0  0  0  0  0  0
   39.4917   -2.8494    6.4809 C   0  0  0  0  0  0  0  0  0  0  0  0
   38.7122   -2.0233    5.4765 C   0  0  0  0  0  0  0  0  0  0  0  0
   37.9670   -2.9414    4.6363 N   0  0  0  0  0  0  0  0  0  0  0  0
   38.0562   -2.4089    3.2879 C   0  0  0  0  0  0  0  0  0  0  0  0
   36.9376   -2.9442    2.4017 C   0  0  0  0  0  0  0  0  0  0  0  0
   37.1827   -2.4225    0.9778 C   0  0  0  0  0  0  0  0  0  0  0  0
   38.4742   -2.8715    0.4363 N   0  0  0  0  0  0  0  0  0  0  0  0
  1  2  1  0  0  0  0
  2  3  1  0  0  0  0
  3  4  1  0  0  0  0
  4  5  1  0  0  0  0
  5  6  1  0  0  0  0
  6  7  1  0  0  0  0
  7  8  1  0  0  0  0
  8  9  1  0  0  0  0
  9 10  1  0  0  0  0
 10 11  1  0  0  0  0
 11 12  1  0  0  0  0
 12 13  1  0  0  0  0
 13 14  1  0  0  0  0
M  END
>  <CHROM.1>
-176.35692483,-57.24286277,-150.04501648,134.22624198,-65.31177870,98.28668726
-67.15562001,-139.80862886,-159.03895053,-175.34793358,60.28593170,37.85671517
-4.08733383,4.14377890,2.23225261,-1.18051883,-0.85187716

>  <Name>
ligand

>  <RI>
0

>  <Rbt.Current_Directory>
/home/itssahil/PROJECTS/Mol_Feturizer/New_Systems/rnas/1TN1

>  <Rbt.Executable>
rbdock ($Id: //depot/dev/client3/rdock/2013.1/src/exe/rbdock.cxx#4 $)

>  <Rbt.Library>
libRbt.so (2013.1, Build901 2013/11/27)

>  <Rbt.Parameter_File>
/export/apps/rDock/src/rDock_2013.1_src/data/scripts/dock_solv.prm

>  <Rbt.Receptor>
prm/blind_docking_40.prm

>  <SCORE>
9.05757

>  <SCORE.INTER>
6.78994

>  <SCORE.INTER.CONST>
1

>  <SCORE.INTER.POLAR>
0

>  <SCORE.INTER.ROT>
11

>  <SCORE.INTER.SOLV>
5.89437

>  <SCORE.INTER.VDW>
-8.3715

>  <SCORE.INTER.norm>
0.484996

>  <SCORE.INTRA>
1.59014

>  <SCORE.INTRA.DIHEDRAL>
-0.118913

>  <SCORE.INTRA.DIHEDRAL.0>
7.79482

>  <SCORE.INTRA.POLAR>
0

>  <SCORE.INTRA.POLAR.0>
0

>  <SCORE.INTRA.REPUL>
0

>  <SCORE.INTRA.REPUL.0>
0

>  <SCORE.INTRA.SOLV>
7.48326

>  <SCORE.INTRA.SOLV.lig_0>
-49.456

>  <SCORE.INTRA.VDW>
-2.09203

>  <SCORE.INTRA.VDW.0>
-0.478406

>  <SCORE.INTRA.norm>
0.113582

>  <SCORE.RESTR>
0.677487

>  <SCORE.RESTR.CAVITY>
0.677487

>  <SCORE.RESTR.norm>
0.048392

>  <SCORE.SYSTEM>
0

>  <SCORE.SYSTEM.CONST>
0

>  <SCORE.SYSTEM.DIHEDRAL>
0

>  <SCORE.SYSTEM.SOLV>
0

>  <SCORE.SYSTEM.norm>
0

>  <SCORE.heavy>
14

>  <SCORE.norm>
0.646969

>  <RMSD>
19.093

$$$$
ligand
 OpenBabel11021811413D
libRbt.so/2013.1/901 2013/11/27
 14 13  0  0  0  0  0  0  0  0999 V2000
   35.4775   -5.0149    1.4547 N   0  0  0  0  0  0  0  0  0  0  0  0
   36.8925   -5.1027    1.0336 C   0  0  0  0  0  0  0  0  0  0  0  0
   37.6577   -3.8057    1.3745 C   0  0  0  0  0  0  0  0  0  0  0  0
   37.6513   -3.4323    2.8660 C   0  0  0  0  0  0  0  0  0  0  0  0
   38.3409   -2.1328    3.0945 N   0  0  0  0  0  0  0  0  0  0  0  0
   38.0214   -1.6132    4.4490 C   0  0  0  0  0  0  0  0  0  0  0  0
   39.0517   -1.9729    5.5721 C   0  0  0  0  0  0  0  0  0  0  0  0
   39.0751   -3.4811    5.9531 C   0  0  0  0  0  0  0  0  0  0  0  0
   38.3503   -3.8008    7.2459 C   0  0  0  0  0  0  0  0  0  0  0  0
   38.2264   -5.2433    7.3351 N   0  0  0  0  0  0  0  0  0  0  0  0
   36.8067   -5.5285    7.2231 C   0  0  0  0  0  0  0  0  0  0  0  0
   36.3602   -5.5741    5.7665 C   0  0  0  0  0  0  0  0  0  0  0  0
   37.0686   -6.7633    5.1002 C   0  0  0  0  0  0  0  0  0  0  0  0
   38.5150   -6.5392    4.9574 N   0  0  0  0  0  0  0  0  0  0  0  0
  1  2  1  0  0  0  0
  2  3  1  0  0  0  0
  3  4  1  0  0  0  0
  4  5  1  0  0  0  0
  5  6  1  0  0  0  0
  6  7  1  0  0  0  0
  7  8  1  0  0  0  0
  8  9  1  0  0  0  0
  9 10  1  0  0  0  0
 10 11  1  0  0  0  0
 11 12  1  0  0  0  0
 12 13  1  0  0  0  0
 13 14  1  0  0  0  0
M  END
>  <CHROM.1>
58.34346978,-176.70318361,165.07211694,94.40351339,-68.97065828,-102.44209675
168.96555771,-113.12178077,83.30843459,64.92016337,-69.14974366,37.67826012
-4.28586729,4.53055803,1.99446573,-1.10696875,-1.05593797

>  <Name>
ligand

>  <RI>
0

>  <Rbt.Current_Directory>
/home/itssahil/PROJECTS/Mol_Feturizer/New_Systems/rnas/1TN1

>  <Rbt.Executable>
rbdock ($Id: //depot/dev/client3/rdock/2013.1/src/exe/rbdock.cxx#4 $)

>  <Rbt.Library>
libRbt.so (2013.1, Build901 2013/11/27)

>  <Rbt.Parameter_File>
/export/apps/rDock/src/rDock_2013.1_src/data/scripts/dock_solv.prm

>  <Rbt.Receptor>
prm/blind_docking_40.prm

>  <SCORE>
8.81993

>  <SCORE.INTER>
5.70225

>  <SCORE.INTER.CONST>
1

>  <SCORE.INTER.POLAR>
0

>  <SCORE.INTER.ROT>
11

>  <SCORE.INTER.SOLV>
4.97852

>  <SCORE.INTER.VDW>
-8.79134

>  <SCORE.INTER.norm>
0.407303

>  <SCORE.INTRA>
3.09803

>  <SCORE.INTRA.DIHEDRAL>
0.787521

>  <SCORE.INTRA.DIHEDRAL.0>
7.79482

>  <SCORE.INTRA.POLAR>
0

>  <SCORE.INTRA.POLAR.0>
0

>  <SCORE.INTRA.REPUL>
0

>  <SCORE.INTRA.REPUL.0>
0

>  <SCORE.INTRA.SOLV>
6.79439

>  <SCORE.INTRA.SOLV.lig_0>
-49.456

>  <SCORE.INTRA.VDW>
-0.692929

>  <SCORE.INTRA.VDW.0>
-0.478406

>  <SCORE.INTRA.norm>
0.221288

>  <SCORE.RESTR>
0.019658

>  <SCORE.RESTR.CAVITY>
0.019658

>  <SCORE.RESTR.norm>
0.00140414

>  <SCORE.SYSTEM>
0

>  <SCORE.SYSTEM.CONST>
0

>  <SCORE.SYSTEM.DIHEDRAL>
0

>  <SCORE.SYSTEM.SOLV>
0

>  <SCORE.SYSTEM.norm>
0

>  <SCORE.heavy>
14

>  <SCORE.norm>
0.629995

>  <RMSD>
19.107

$$$$
ligand
 OpenBabel11021811413D
libRbt.so/2013.1/901 2013/11/27
 14 13  0  0  0  0  0  0  0  0999 V2000
   37.7291   -6.6364    4.3884 N   0  0  0  0  0  0  0  0  0  0  0  0
   36.3669   -6.3586    3.8842 C   0  0  0  0  0  0  0  0  0  0  0  0
   36.4032   -5.3877    2.6842 C   0  0  0  0  0  0  0  0  0  0  0  0
   37.4956   -5.6937    1.6465 C   0  0  0  0  0  0  0  0  0  0  0  0
   37.9130   -4.4574    0.9296 N   0  0  0  0  0  0  0  0  0  0  0  0
   38.7940   -3.6338    1.7970 C   0  0  0  0  0  0  0  0  0  0  0  0
   38.0635   -2.5865    2.7034 C   0  0  0  0  0  0  0  0  0  0  0  0
   39.0034   -1.5035    3.3068 C   0  0  0  0  0  0  0  0  0  0  0  0
   39.7890   -1.9743    4.5152 C   0  0  0  0  0  0  0  0  0  0  0  0
   38.8642   -2.0755    5.6283 N   0  0  0  0  0  0  0  0  0  0  0  0
   38.7136   -3.4958    5.8927 C   0  0  0  0  0  0  0  0  0  0  0  0
   38.5545   -3.7717    7.3833 C   0  0  0  0  0  0  0  0  0  0  0  0
   38.0834   -5.2256    7.5390 C   0  0  0  0  0  0  0  0  0  0  0  0
   36.7519   -5.4438    6.9539 N   0  0  0  0  0  0  0  0  0  0  0  0
  1  2  1  0  0  0  0
  2  3  1  0  0  0  0
  3  4  1  0  0  0  0
  4  5  1  0  0  0  0
  5  6  1  0  0  0  0
  6  7  1  0  0  0  0
  7  8  1  0  0  0  0
  8  9  1  0  0  0  0
  9 10  1  0  0  0  0
 10 11  1  0  0  0  0
 11 12  1  0  0  0  0
 12 13  1  0  0  0  0
 13 14  1  0  0  0  0
M  END
>  <CHROM.1>
43.77186138,-152.61373708,76.32445731,-89.76255940,-164.75892820,-79.38241323
-72.69195411,109.90154355,144.56532262,167.18413543,-64.35114102,38.03761824
-4.16010932,4.23222643,1.75101389,-1.07456801,-1.46995913

>  <Name>
ligand

>  <RI>
0

>  <Rbt.Current_Directory>
/home/itssahil/PROJECTS/Mol_Feturizer/New_Systems/rnas/1TN1

>  <Rbt.Executable>
rbdock ($Id: //depot/dev/client3/rdock/2013.1/src/exe/rbdock.cxx#4 $)

>  <Rbt.Library>
libRbt.so (2013.1, Build901 2013/11/27)

>  <Rbt.Parameter_File>
/export/apps/rDock/src/rDock_2013.1_src/data/scripts/dock_solv.prm

>  <Rbt.Receptor>
prm/blind_docking_40.prm

>  <SCORE>
12.7968

>  <SCORE.INTER>
7.85038

>  <SCORE.INTER.CONST>
1

>  <SCORE.INTER.POLAR>
0

>  <SCORE.INTER.ROT>
11

>  <SCORE.INTER.SOLV>
8.11418

>  <SCORE.INTER.VDW>
-8.40447

>  <SCORE.INTER.norm>
0.560742

>  <SCORE.INTRA>
4.60769

>  <SCORE.INTRA.DIHEDRAL>
1.74706

>  <SCORE.INTRA.DIHEDRAL.0>
7.79482

>  <SCORE.INTRA.POLAR>
0

>  <SCORE.INTRA.POLAR.0>
0

>  <SCORE.INTRA.REPUL>
0

>  <SCORE.INTRA.REPUL.0>
0

>  <SCORE.INTRA.SOLV>
8.29253

>  <SCORE.INTRA.SOLV.lig_0>
-49.456

>  <SCORE.INTRA.VDW>
-0.412103

>  <SCORE.INTRA.VDW.0>
-0.478406

>  <SCORE.INTRA.norm>
0.329121

>  <SCORE.RESTR>
0.338703

>  <SCORE.RESTR.CAVITY>
0.338703

>  <SCORE.RESTR.norm>
0.0241931

>  <SCORE.SYSTEM>
0

>  <SCORE.SYSTEM.CONST>
0

>  <SCORE.SYSTEM.DIHEDRAL>
0

>  <SCORE.SYSTEM.SOLV>
0

>  <SCORE.SYSTEM.norm>
0

>  <SCORE.heavy>
14

>  <SCORE.norm>
0.914056

>  <RMSD>
19.175

$$$$
ligand
 OpenBabel11021811413D
libRbt.so/2013.1/901 2013/11/27
 14 13  0  0  0  0  0  0  0  0999 V2000
   35.9482   -6.0118    3.9610 N   0  0  0  0  0  0  0  0  0  0  0  0
   36.7501   -5.1564    3.0596 C   0  0  0  0  0  0  0  0  0  0  0  0
   38.0098   -5.8974    2.5616 C   0  0  0  0  0  0  0  0  0  0  0  0
   39.0858   -4.9877    1.9462 C   0  0  0  0  0  0  0  0  0  0  0  0
   38.6352   -4.4357    0.6390 N   0  0  0  0  0  0  0  0  0  0  0  0
   37.9130   -3.1539    0.8446 C   0  0  0  0  0  0  0  0  0  0  0  0
   38.6091   -2.1315    1.8049 C   0  0  0  0  0  0  0  0  0  0  0  0
   38.2322   -2.3101    3.3038 C   0  0  0  0  0  0  0  0  0  0  0  0
   39.0850   -1.4930    4.2545 C   0  0  0  0  0  0  0  0  0  0  0  0
   38.5936   -1.7289    5.5988 N   0  0  0  0  0  0  0  0  0  0  0  0
   39.0956   -3.0368    5.9822 C   0  0  0  0  0  0  0  0  0  0  0  0
   38.5767   -3.4533    7.3536 C   0  0  0  0  0  0  0  0  0  0  0  0
   38.5928   -4.9883    7.4101 C   0  0  0  0  0  0  0  0  0  0  0  0
   37.7360   -5.5913    6.3781 N   0  0  0  0  0  0  0  0  0  0  0  0
  1  2  1  0  0  0  0
  2  3  1  0  0  0  0
  3  4  1  0  0  0  0
  4  5  1  0  0  0  0
  5  6  1  0  0  0  0
  6  7  1  0  0  0  0
  7  8  1  0  0  0  0
  8  9  1  0  0  0  0
  9 10  1  0  0  0  0
 10 11  1  0  0  0  0
 11 12  1  0  0  0  0
 12 13  1  0  0  0  0
 13 14  1  0  0  0  0
M  END
>  <CHROM.1>
-164.05122973,-69.94258662,89.40029492,46.70749280,-88.30065483,169.66350414
178.26878490,76.85434877,-176.38814966,154.77973671,-60.44881754,38.20470580
-3.88378273,3.93548452,1.70318165,-1.19309402,-1.47335049

>  <Name>
ligand

>  <RI>
0

>  <Rbt.Current_Directory>
/home/itssahil/PROJECTS/Mol_Feturizer/New_Systems/rnas/1TN1

>  <Rbt.Executable>
rbdock ($Id: //depot/dev/client3/rdock/2013.1/src/exe/rbdock.cxx#4 $)

>  <Rbt.Library>
libRbt.so (2013.1, Build901 2013/11/27)

>  <Rbt.Parameter_File>
/export/apps/rDock/src/rDock_2013.1_src/data/scripts/dock_solv.prm

>  <Rbt.Receptor>
prm/blind_docking_40.prm

>  <SCORE>
12.2197

>  <SCORE.INTER>
7.1268

>  <SCORE.INTER.CONST>
1

>  <SCORE.INTER.POLAR>
0

>  <SCORE.INTER.ROT>
11

>  <SCORE.INTER.SOLV>
6.52252

>  <SCORE.INTER.VDW>
-8.3563

>  <SCORE.INTER.norm>
0.509057

>  <SCORE.INTRA>
5.07363

>  <SCORE.INTRA.DIHEDRAL>
-0.530587

>  <SCORE.INTRA.DIHEDRAL.0>
7.79482

>  <SCORE.INTRA.POLAR>
0

>  <SCORE.INTRA.POLAR.0>
0

>  <SCORE.INTRA.REPUL>
0

>  <SCORE.INTRA.REPUL.0>
0

>  <SCORE.INTRA.SOLV>
5.60595

>  <SCORE.INTRA.SOLV.lig_0>
-49.456

>  <SCORE.INTRA.VDW>
2.53594

>  <SCORE.INTRA.VDW.0>
-0.478406

>  <SCORE.INTRA.norm>
0.362402

>  <SCORE.RESTR>
0.0192403

>  <SCORE.RESTR.CAVITY>
0.0192403

>  <SCORE.RESTR.norm>
0.00137431

>  <SCORE.SYSTEM>
0

>  <SCORE.SYSTEM.CONST>
0

>  <SCORE.SYSTEM.DIHEDRAL>
0

>  <SCORE.SYSTEM.SOLV>
0

>  <SCORE.SYSTEM.norm>
0

>  <SCORE.heavy>
14

>  <SCORE.norm>
0.872833

>  <RMSD>
19.230

$$$$
ligand
 OpenBabel11021811413D
libRbt.so/2013.1/901 2013/11/27
 14 13  0  0  0  0  0  0  0  0999 V2000
   36.8882   -5.1556   -0.2734 N   0  0  0  0  0  0  0  0  0  0  0  0
   36.8974   -4.7574    1.1509 C   0  0  0  0  0  0  0  0  0  0  0  0
   36.3333   -3.3321    1.3355 C   0  0  0  0  0  0  0  0  0  0  0  0
   36.3498   -2.8202    2.7852 C   0  0  0  0  0  0  0  0  0  0  0  0
   37.7415   -2.7396    3.3077 N   0  0  0  0  0  0  0  0  0  0  0  0
   37.7840   -1.8912    4.5264 C   0  0  0  0  0  0  0  0  0  0  0  0
   39.0726   -2.0328    5.4049 C   0  0  0  0  0  0  0  0  0  0  0  0
   39.2955   -3.4611    5.9799 C   0  0  0  0  0  0  0  0  0  0  0  0
   38.4645   -3.7655    7.2111 C   0  0  0  0  0  0  0  0  0  0  0  0
   38.2033   -5.1924    7.2230 N   0  0  0  0  0  0  0  0  0  0  0  0
   36.7611   -5.3338    7.1241 C   0  0  0  0  0  0  0  0  0  0  0  0
   36.2908   -5.2525    5.6765 C   0  0  0  0  0  0  0  0  0  0  0  0
   36.7130   -6.5534    4.9769 C   0  0  0  0  0  0  0  0  0  0  0  0
   38.1749   -6.6963    4.9051 N   0  0  0  0  0  0  0  0  0  0  0  0
  1  2  1  0  0  0  0
  2  3  1  0  0  0  0
  3  4  1  0  0  0  0
  4  5  1  0  0  0  0
  5  6  1  0  0  0  0
  6  7  1  0  0  0  0
  7  8  1  0  0  0  0
  8  9  1  0  0  0  0
  9 10  1  0  0  0  0
 10 11  1  0  0  0  0
 11 12  1  0  0  0  0
 12 13  1  0  0  0  0
 13 14  1  0  0  0  0
M  END
>  <CHROM.1>
-178.08193432,61.95700230,163.53298808,163.62067772,-61.45486168,-80.12808407
150.40278909,-117.65355059,83.26304526,72.27098507,-64.50577909,37.49774642
-4.21282774,4.38122938,2.21771402,-1.18947425,-0.87804235

>  <Name>
ligand

>  <RI>
0

>  <Rbt.Current_Directory>
/home/itssahil/PROJECTS/Mol_Feturizer/New_Systems/rnas/1TN1

>  <Rbt.Executable>
rbdock ($Id: //depot/dev/client3/rdock/2013.1/src/exe/rbdock.cxx#4 $)

>  <Rbt.Library>
libRbt.so (2013.1, Build901 2013/11/27)

>  <Rbt.Parameter_File>
/export/apps/rDock/src/rDock_2013.1_src/data/scripts/dock_solv.prm

>  <Rbt.Receptor>
prm/blind_docking_40.prm

>  <SCORE>
6.89872

>  <SCORE.INTER>
5.27769

>  <SCORE.INTER.CONST>
1

>  <SCORE.INTER.POLAR>
0

>  <SCORE.INTER.ROT>
11

>  <SCORE.INTER.SOLV>
4.85009

>  <SCORE.INTER.VDW>
-9.03157

>  <SCORE.INTER.norm>
0.376978

>  <SCORE.INTRA>
1.41375

>  <SCORE.INTRA.DIHEDRAL>
-0.876826

>  <SCORE.INTRA.DIHEDRAL.0>
7.79482

>  <SCORE.INTRA.POLAR>
0

>  <SCORE.INTRA.POLAR.0>
0

>  <SCORE.INTRA.REPUL>
0

>  <SCORE.INTRA.REPUL.0>
0

>  <SCORE.INTRA.SOLV>
5.75484

>  <SCORE.INTRA.SOLV.lig_0>
-49.456

>  <SCORE.INTRA.VDW>
-1.02525

>  <SCORE.INTRA.VDW.0>
-0.478406

>  <SCORE.INTRA.norm>
0.100982

>  <SCORE.RESTR>
0.207279

>  <SCORE.RESTR.CAVITY>
0.207279

>  <SCORE.RESTR.norm>
0.0148056

>  <SCORE.SYSTEM>
0

>  <SCORE.SYSTEM.CONST>
0

>  <SCORE.SYSTEM.DIHEDRAL>
0

>  <SCORE.SYSTEM.SOLV>
0

>  <SCORE.SYSTEM.norm>
0

>  <SCORE.heavy>
14

>  <SCORE.norm>
0.492766

>  <RMSD>
19.272

$$$$
ligand
 OpenBabel11021811413D
libRbt.so/2013.1/901 2013/11/27
 14 13  0  0  0  0  0  0  0  0999 V2000
   35.9381   -3.1297    0.9389 N   0  0  0  0  0  0  0  0  0  0  0  0
   36.5925   -3.7063    2.1333 C   0  0  0  0  0  0  0  0  0  0  0  0
   38.0839   -4.0018    1.8645 C   0  0  0  0  0  0  0  0  0  0  0  0
   38.7647   -4.8775    2.9292 C   0  0  0  0  0  0  0  0  0  0  0  0
   38.2357   -6.2687    2.8949 N   0  0  0  0  0  0  0  0  0  0  0  0
   38.3037   -6.8774    4.2483 C   0  0  0  0  0  0  0  0  0  0  0  0
   36.9519   -6.9256    5.0373 C   0  0  0  0  0  0  0  0  0  0  0  0
   36.6363   -5.6286    5.8364 C   0  0  0  0  0  0  0  0  0  0  0  0
   37.5400   -5.4081    7.0337 C   0  0  0  0  0  0  0  0  0  0  0  0
   37.9838   -4.0274    7.0008 N   0  0  0  0  0  0  0  0  0  0  0  0
   39.0854   -3.9858    6.0550 C   0  0  0  0  0  0  0  0  0  0  0  0
   39.5105   -2.5528    5.7567 C   0  0  0  0  0  0  0  0  0  0  0  0
   38.4293   -1.9233    4.8653 C   0  0  0  0  0  0  0  0  0  0  0  0
   38.9690   -0.8606    4.0039 N   0  0  0  0  0  0  0  0  0  0  0  0
  1  2  1  0  0  0  0
  2  3  1  0  0  0  0
  3  4  1  0  0  0  0
  4  5  1  0  0  0  0
  5  6  1  0  0  0  0
  6  7  1  0  0  0  0
  7  8  1  0  0  0  0
  8  9  1  0  0  0  0
  9 10  1  0  0  0  0
 10 11  1  0  0  0  0
 11 12  1  0  0  0  0
 12 13  1  0  0  0  0
 13 14  1  0  0  0  0
M  END
>  <CHROM.1>
-167.21658182,68.59469928,-150.26030300,101.90359241,-85.86795170,-69.88821538
133.25514606,-81.15169576,171.12996785,-73.30076181,-152.40300287,37.93041371
-4.29841536,4.32868684,1.91984824,-1.21846391,-0.81869196

>  <Name>
ligand

>  <RI>
0

>  <Rbt.Current_Directory>
/home/itssahil/PROJECTS/Mol_Feturizer/New_Systems/rnas/1TN1

>  <Rbt.Executable>
rbdock ($Id: //depot/dev/client3/rdock/2013.1/src/exe/rbdock.cxx#4 $)

>  <Rbt.Library>
libRbt.so (2013.1, Build901 2013/11/27)

>  <Rbt.Parameter_File>
/export/apps/rDock/src/rDock_2013.1_src/data/scripts/dock_solv.prm

>  <Rbt.Receptor>
prm/blind_docking_40.prm

>  <SCORE>
12.0277

>  <SCORE.INTER>
8.08053

>  <SCORE.INTER.CONST>
1

>  <SCORE.INTER.POLAR>
0

>  <SCORE.INTER.ROT>
11

>  <SCORE.INTER.SOLV>
11.0289

>  <SCORE.INTER.VDW>
-9.2226

>  <SCORE.INTER.norm>
0.577181

>  <SCORE.INTRA>
3.35948

>  <SCORE.INTRA.DIHEDRAL>
5.51938

>  <SCORE.INTRA.DIHEDRAL.0>
7.79482

>  <SCORE.INTRA.POLAR>
0

>  <SCORE.INTRA.POLAR.0>
0

>  <SCORE.INTRA.REPUL>
0

>  <SCORE.INTRA.REPUL.0>
0

>  <SCORE.INTRA.SOLV>
3.24397

>  <SCORE.INTRA.SOLV.lig_0>
-49.456

>  <SCORE.INTRA.VDW>
-1.02219

>  <SCORE.INTRA.VDW.0>
-0.478406

>  <SCORE.INTRA.norm>
0.239963

>  <SCORE.RESTR>
0.58767

>  <SCORE.RESTR.CAVITY>
0.58767

>  <SCORE.RESTR.norm>
0.0419764

>  <SCORE.SYSTEM>
0

>  <SCORE.SYSTEM.CONST>
0

>  <SCORE.SYSTEM.DIHEDRAL>
0

>  <SCORE.SYSTEM.SOLV>
0

>  <SCORE.SYSTEM.norm>
0

>  <SCORE.heavy>
14

>  <SCORE.norm>
0.859121

>  <RMSD>
19.273

$$$$
ligand
 OpenBabel11021811413D
libRbt.so/2013.1/901 2013/11/27
 14 13  0  0  0  0  0  0  0  0999 V2000
   36.3905   -6.3996    3.7396 N   0  0  0  0  0  0  0  0  0  0  0  0
   36.9578   -6.5423    5.0979 C   0  0  0  0  0  0  0  0  0  0  0  0
   36.3408   -5.5146    6.0712 C   0  0  0  0  0  0  0  0  0  0  0  0
   36.9997   -5.4726    7.4597 C   0  0  0  0  0  0  0  0  0  0  0  0
   38.4423   -5.1194    7.3561 N   0  0  0  0  0  0  0  0  0  0  0  0
   38.6136   -3.6443    7.3926 C   0  0  0  0  0  0  0  0  0  0  0  0
   39.0090   -2.9751    6.0332 C   0  0  0  0  0  0  0  0  0  0  0  0
   37.8590   -2.9364    4.9861 C   0  0  0  0  0  0  0  0  0  0  0  0
   38.2036   -2.1745    3.7213 C   0  0  0  0  0  0  0  0  0  0  0  0
   39.1055   -3.0014    2.9421 N   0  0  0  0  0  0  0  0  0  0  0  0
   38.4687   -3.1749    1.6482 C   0  0  0  0  0  0  0  0  0  0  0  0
   39.0693   -4.3490    0.8841 C   0  0  0  0  0  0  0  0  0  0  0  0
   38.3523   -4.4367   -0.4717 C   0  0  0  0  0  0  0  0  0  0  0  0
   36.9628   -4.8990   -0.3364 N   0  0  0  0  0  0  0  0  0  0  0  0
  1  2  1  0  0  0  0
  2  3  1  0  0  0  0
  3  4  1  0  0  0  0
  4  5  1  0  0  0  0
  5  6  1  0  0  0  0
  6  7  1  0  0  0  0
  7  8  1  0  0  0  0
  8  9  1  0  0  0  0
  9 10  1  0  0  0  0
 10 11  1  0  0  0  0
 11 12  1  0  0  0  0
 12 13  1  0  0  0  0
 13 14  1  0  0  0  0
M  END
>  <CHROM.1>
-172.61709622,60.13951363,88.34387662,-107.68885755,72.07151776,174.58514450
74.33087035,123.09282719,-162.39549847,-179.05265285,-70.77935927,37.91256096
-4.33120286,4.03767761,1.44416673,-1.00553316,-1.58566884

>  <Name>
ligand

>  <RI>
0

>  <Rbt.Current_Directory>
/home/itssahil/PROJECTS/Mol_Feturizer/New_Systems/rnas/1TN1

>  <Rbt.Executable>
rbdock ($Id: //depot/dev/client3/rdock/2013.1/src/exe/rbdock.cxx#4 $)

>  <Rbt.Library>
libRbt.so (2013.1, Build901 2013/11/27)

>  <Rbt.Parameter_File>
/export/apps/rDock/src/rDock_2013.1_src/data/scripts/dock_solv.prm

>  <Rbt.Receptor>
prm/blind_docking_40.prm

>  <SCORE>
7.26883

>  <SCORE.INTER>
8.11334

>  <SCORE.INTER.CONST>
1

>  <SCORE.INTER.POLAR>
0

>  <SCORE.INTER.ROT>
11

>  <SCORE.INTER.SOLV>
4.64426

>  <SCORE.INTER.VDW>
-7.07253

>  <SCORE.INTER.norm>
0.579524

>  <SCORE.INTRA>
-0.919897

>  <SCORE.INTRA.DIHEDRAL>
-2.7059

>  <SCORE.INTRA.DIHEDRAL.0>
7.79482

>  <SCORE.INTRA.POLAR>
0

>  <SCORE.INTRA.POLAR.0>
0

>  <SCORE.INTRA.REPUL>
0

>  <SCORE.INTRA.REPUL.0>
0

>  <SCORE.INTRA.SOLV>
2.78134

>  <SCORE.INTRA.SOLV.lig_0>
-49.456

>  <SCORE.INTRA.VDW>
-0.957618

>  <SCORE.INTRA.VDW.0>
-0.478406

>  <SCORE.INTRA.norm>
-0.0657069

>  <SCORE.RESTR>
0.0753918

>  <SCORE.RESTR.CAVITY>
0.0753918

>  <SCORE.RESTR.norm>
0.00538513

>  <SCORE.SYSTEM>
0

>  <SCORE.SYSTEM.CONST>
0

>  <SCORE.SYSTEM.DIHEDRAL>
0

>  <SCORE.SYSTEM.SOLV>
0

>  <SCORE.SYSTEM.norm>
0

>  <SCORE.heavy>
14

>  <SCORE.norm>
0.519202

>  <RMSD>
19.483

$$$$
ligand
 OpenBabel11021811413D
libRbt.so/2013.1/901 2013/11/27
 14 13  0  0  0  0  0  0  0  0999 V2000
   36.4920   -7.0672    4.5257 N   0  0  0  0  0  0  0  0  0  0  0  0
   36.6464   -5.5967    4.4971 C   0  0  0  0  0  0  0  0  0  0  0  0
   36.1088   -4.9538    5.7939 C   0  0  0  0  0  0  0  0  0  0  0  0
   36.8165   -5.4160    7.0782 C   0  0  0  0  0  0  0  0  0  0  0  0
   38.2793   -5.1485    7.0082 N   0  0  0  0  0  0  0  0  0  0  0  0
   38.5573   -3.7264    7.3352 C   0  0  0  0  0  0  0  0  0  0  0  0
   39.2444   -2.8932    6.2012 C   0  0  0  0  0  0  0  0  0  0  0  0
   38.3785   -2.7306    4.9189 C   0  0  0  0  0  0  0  0  0  0  0  0
   39.1055   -2.0677    3.7653 C   0  0  0  0  0  0  0  0  0  0  0  0
   38.2611   -2.1803    2.5911 N   0  0  0  0  0  0  0  0  0  0  0  0
   38.7618   -3.3240    1.8489 C   0  0  0  0  0  0  0  0  0  0  0  0
   37.6916   -3.9065    0.9332 C   0  0  0  0  0  0  0  0  0  0  0  0
   38.2625   -5.1883    0.3078 C   0  0  0  0  0  0  0  0  0  0  0  0
   37.3006   -5.8442   -0.5906 N   0  0  0  0  0  0  0  0  0  0  0  0
  1  2  1  0  0  0  0
  2  3  1  0  0  0  0
  3  4  1  0  0  0  0
  4  5  1  0  0  0  0
  5  6  1  0  0  0  0
  6  7  1  0  0  0  0
  7  8  1  0  0  0  0
  8  9  1  0  0  0  0
  9 10  1  0  0  0  0
 10 11  1  0  0  0  0
 11 12  1  0  0  0  0
 12 13  1  0  0  0  0
 13 14  1  0  0  0  0
M  END
>  <CHROM.1>
60.50437155,57.48737016,80.67728656,-119.09079172,63.91608455,-173.12419603
170.91638183,-97.95537927,157.07642230,-174.16180548,179.44754447,37.85056489
-4.28850974,4.01554746,1.61335276,1.03537091,1.52736982

>  <Name>
ligand

>  <RI>
0

>  <Rbt.Current_Directory>
/home/itssahil/PROJECTS/Mol_Feturizer/New_Systems/rnas/1TN1

>  <Rbt.Executable>
rbdock ($Id: //depot/dev/client3/rdock/2013.1/src/exe/rbdock.cxx#4 $)

>  <Rbt.Library>
libRbt.so (2013.1, Build901 2013/11/27)

>  <Rbt.Parameter_File>
/export/apps/rDock/src/rDock_2013.1_src/data/scripts/dock_solv.prm

>  <Rbt.Receptor>
prm/blind_docking_40.prm

>  <SCORE>
5.59379

>  <SCORE.INTER>
6.97205

>  <SCORE.INTER.CONST>
1

>  <SCORE.INTER.POLAR>
0

>  <SCORE.INTER.ROT>
11

>  <SCORE.INTER.SOLV>
7.19489

>  <SCORE.INTER.VDW>
-8.68359

>  <SCORE.INTER.norm>
0.498004

>  <SCORE.INTRA>
-1.73314

>  <SCORE.INTRA.DIHEDRAL>
-4.33714

>  <SCORE.INTRA.DIHEDRAL.0>
7.79482

>  <SCORE.INTRA.POLAR>
0

>  <SCORE.INTRA.POLAR.0>
0

>  <SCORE.INTRA.REPUL>
0

>  <SCORE.INTRA.REPUL.0>
0

>  <SCORE.INTRA.SOLV>
2.3344

>  <SCORE.INTRA.SOLV.lig_0>
-49.456

>  <SCORE.INTRA.VDW>
-0.731764

>  <SCORE.INTRA.VDW.0>
-0.478406

>  <SCORE.INTRA.norm>
-0.123796

>  <SCORE.RESTR>
0.35487

>  <SCORE.RESTR.CAVITY>
0.35487

>  <SCORE.RESTR.norm>
0.0253478

>  <SCORE.SYSTEM>
0

>  <SCORE.SYSTEM.CONST>
0

>  <SCORE.SYSTEM.DIHEDRAL>
0

>  <SCORE.SYSTEM.SOLV>
0

>  <SCORE.SYSTEM.norm>
0

>  <SCORE.heavy>
14

>  <SCORE.norm>
0.399556

>  <RMSD>
19.518

$$$$
ligand
 OpenBabel11021811413D
libRbt.so/2013.1/901 2013/11/27
 14 13  0  0  0  0  0  0  0  0999 V2000
   35.0783   -3.0349    3.4665 N   0  0  0  0  0  0  0  0  0  0  0  0
   35.2193   -2.5563    2.0744 C   0  0  0  0  0  0  0  0  0  0  0  0
   35.5220   -3.7241    1.1107 C   0  0  0  0  0  0  0  0  0  0  0  0
   36.8434   -4.4586    1.3908 C   0  0  0  0  0  0  0  0  0  0  0  0
   38.0064   -3.5405    1.2455 N   0  0  0  0  0  0  0  0  0  0  0  0
   38.7554   -3.4543    2.5255 C   0  0  0  0  0  0  0  0  0  0  0  0
   38.6968   -2.0682    3.2518 C   0  0  0  0  0  0  0  0  0  0  0  0
   39.5296   -2.0032    4.5643 C   0  0  0  0  0  0  0  0  0  0  0  0
   38.8917   -2.7261    5.7345 C   0  0  0  0  0  0  0  0  0  0  0  0
   38.7682   -4.1253    5.3721 N   0  0  0  0  0  0  0  0  0  0  0  0
   37.6667   -4.6456    6.1630 C   0  0  0  0  0  0  0  0  0  0  0  0
   36.7150   -5.4795    5.3132 C   0  0  0  0  0  0  0  0  0  0  0  0
   37.3695   -6.8517    5.0931 C   0  0  0  0  0  0  0  0  0  0  0  0
   38.6109   -6.7560    4.3105 N   0  0  0  0  0  0  0  0  0  0  0  0
  1  2  1  0  0  0  0
  2  3  1  0  0  0  0
  3  4  1  0  0  0  0
  4  5  1  0  0  0  0
  5  6  1  0  0  0  0
  6  7  1  0  0  0  0
  7  8  1  0  0  0  0
  8  9  1  0  0  0  0
  9 10  1  0  0  0  0
 10 11  1  0  0  0  0
 11 12  1  0  0  0  0
 12 13  1  0  0  0  0
 13 14  1  0  0  0  0
M  END
>  <CHROM.1>
-62.27099347,-61.74439072,120.04261592,-112.36686743,-178.14697513,-75.13584827
61.20311928,-154.48365856,133.82879205,77.51184856,-64.47800096,37.54804874
-3.95871363,3.68688518,2.23074189,-0.76879239,-0.65733298

>  <Name>
ligand

>  <RI>
0

>  <Rbt.Current_Directory>
/home/itssahil/PROJECTS/Mol_Feturizer/New_Systems/rnas/1TN1

>  <Rbt.Executable>
rbdock ($Id: //depot/dev/client3/rdock/2013.1/src/exe/rbdock.cxx#4 $)

>  <Rbt.Library>
libRbt.so (2013.1, Build901 2013/11/27)

>  <Rbt.Parameter_File>
/export/apps/rDock/src/rDock_2013.1_src/data/scripts/dock_solv.prm

>  <Rbt.Receptor>
prm/blind_docking_40.prm

>  <SCORE>
9.98839

>  <SCORE.INTER>
8.00881

>  <SCORE.INTER.CONST>
1

>  <SCORE.INTER.POLAR>
0

>  <SCORE.INTER.ROT>
11

>  <SCORE.INTER.SOLV>
5.2257

>  <SCORE.INTER.VDW>
-7.33602

>  <SCORE.INTER.norm>
0.572058

>  <SCORE.INTRA>
1.96812

>  <SCORE.INTRA.DIHEDRAL>
-1.81436

>  <SCORE.INTRA.DIHEDRAL.0>
7.79482

>  <SCORE.INTRA.POLAR>
0

>  <SCORE.INTRA.POLAR.0>
0

>  <SCORE.INTRA.REPUL>
0

>  <SCORE.INTRA.REPUL.0>
0

>  <SCORE.INTRA.SOLV>
9.45064

>  <SCORE.INTRA.SOLV.lig_0>
-49.456

>  <SCORE.INTRA.VDW>
-1.85002

>  <SCORE.INTRA.VDW.0>
-0.478406

>  <SCORE.INTRA.norm>
0.14058

>  <SCORE.RESTR>
0.0114552

>  <SCORE.RESTR.CAVITY>
0.0114552

>  <SCORE.RESTR.norm>
0.000818229

>  <SCORE.SYSTEM>
0

>  <SCORE.SYSTEM.CONST>
0

>  <SCORE.SYSTEM.DIHEDRAL>
0

>  <SCORE.SYSTEM.SOLV>
0

>  <SCORE.SYSTEM.norm>
0

>  <SCORE.heavy>
14

>  <SCORE.norm>
0.713456

>  <RMSD>
19.519

$$$$
ligand
 OpenBabel11021811413D
libRbt.so/2013.1/901 2013/11/27
 14 13  0  0  0  0  0  0  0  0999 V2000
   35.8617   -4.6670    5.7362 N   0  0  0  0  0  0  0  0  0  0  0  0
   36.2169   -5.0847    7.1097 C   0  0  0  0  0  0  0  0  0  0  0  0
   37.5839   -4.5052    7.5332 C   0  0  0  0  0  0  0  0  0  0  0  0
   38.7788   -5.0208    6.7145 C   0  0  0  0  0  0  0  0  0  0  0  0
   38.6626   -4.6161    5.2865 N   0  0  0  0  0  0  0  0  0  0  0  0
   39.5423   -3.4515    5.0097 C   0  0  0  0  0  0  0  0  0  0  0  0
   38.8138   -2.1540    4.5219 C   0  0  0  0  0  0  0  0  0  0  0  0
   37.8598   -2.3774    3.3134 C   0  0  0  0  0  0  0  0  0  0  0  0
   38.5765   -2.5774    1.9923 C   0  0  0  0  0  0  0  0  0  0  0  0
   37.6398   -3.1964    1.0736 N   0  0  0  0  0  0  0  0  0  0  0  0
   38.2179   -4.4816    0.7217 C   0  0  0  0  0  0  0  0  0  0  0  0
   38.1104   -5.4753    1.8724 C   0  0  0  0  0  0  0  0  0  0  0  0
   36.6208   -5.6315    2.2140 C   0  0  0  0  0  0  0  0  0  0  0  0
   36.4116   -6.4116    3.4430 N   0  0  0  0  0  0  0  0  0  0  0  0
  1  2  1  0  0  0  0
  2  3  1  0  0  0  0
  3  4  1  0  0  0  0
  4  5  1  0  0  0  0
  5  6  1  0  0  0  0
  6  7  1  0  0  0  0
  7  8  1  0  0  0  0
  8  9  1  0  0  0  0
  9 10  1  0  0  0  0
 10 11  1  0  0  0  0
 11 12  1  0  0  0  0
 12 13  1  0  0  0  0
 13 14  1  0  0  0  0
M  END
>  <CHROM.1>
-64.60224015,63.42876682,101.36188506,-119.05582071,-51.95497208,-74.46218014
161.53847867,-118.18916969,73.47316815,58.72157747,-171.35677853,37.77859930
-4.26056885,4.03876777,1.71849148,0.92586142,1.59166560

>  <Name>
ligand

>  <RI>
0

>  <Rbt.Current_Directory>
/home/itssahil/PROJECTS/Mol_Feturizer/New_Systems/rnas/1TN1

>  <Rbt.Executable>
rbdock ($Id: //depot/dev/client3/rdock/2013.1/src/exe/rbdock.cxx#4 $)

>  <Rbt.Library>
libRbt.so (2013.1, Build901 2013/11/27)

>  <Rbt.Parameter_File>
/export/apps/rDock/src/rDock_2013.1_src/data/scripts/dock_solv.prm

>  <Rbt.Receptor>
prm/blind_docking_40.prm

>  <SCORE>
13.3873

>  <SCORE.INTER>
9.08939

>  <SCORE.INTER.CONST>
1

>  <SCORE.INTER.POLAR>
0

>  <SCORE.INTER.ROT>
11

>  <SCORE.INTER.SOLV>
6.65126

>  <SCORE.INTER.VDW>
-7.09083

>  <SCORE.INTER.norm>
0.649242

>  <SCORE.INTRA>
4.09503

>  <SCORE.INTRA.DIHEDRAL>
-1.64105

>  <SCORE.INTRA.DIHEDRAL.0>
7.79482

>  <SCORE.INTRA.POLAR>
0

>  <SCORE.INTRA.POLAR.0>
0

>  <SCORE.INTRA.REPUL>
0

>  <SCORE.INTRA.REPUL.0>
0

>  <SCORE.INTRA.SOLV>
10.7328

>  <SCORE.INTRA.SOLV.lig_0>
-49.456

>  <SCORE.INTRA.VDW>
-0.450852

>  <SCORE.INTRA.VDW.0>
-0.478406

>  <SCORE.INTRA.norm>
0.292502

>  <SCORE.RESTR>
0.202911

>  <SCORE.RESTR.CAVITY>
0.202911

>  <SCORE.RESTR.norm>
0.0144936

>  <SCORE.SYSTEM>
0

>  <SCORE.SYSTEM.CONST>
0

>  <SCORE.SYSTEM.DIHEDRAL>
0

>  <SCORE.SYSTEM.SOLV>
0

>  <SCORE.SYSTEM.norm>
0

>  <SCORE.heavy>
14

>  <SCORE.norm>
0.956238

>  <RMSD>
19.536

$$$$
ligand
 OpenBabel11021811413D
libRbt.so/2013.1/901 2013/11/27
 14 13  0  0  0  0  0  0  0  0999 V2000
   37.7091   -4.3853   -0.3142 N   0  0  0  0  0  0  0  0  0  0  0  0
   37.0466   -3.3434    0.4999 C   0  0  0  0  0  0  0  0  0  0  0  0
   35.5779   -3.7165    0.7958 C   0  0  0  0  0  0  0  0  0  0  0  0
   35.4000   -4.8722    1.7942 C   0  0  0  0  0  0  0  0  0  0  0  0
   35.5877   -4.4025    3.1944 N   0  0  0  0  0  0  0  0  0  0  0  0
   36.4542   -5.3498    3.9418 C   0  0  0  0  0  0  0  0  0  0  0  0
   36.7054   -4.9944    5.4460 C   0  0  0  0  0  0  0  0  0  0  0  0
   38.0244   -5.5815    6.0257 C   0  0  0  0  0  0  0  0  0  0  0  0
   38.5197   -4.8710    7.2701 C   0  0  0  0  0  0  0  0  0  0  0  0
   38.3431   -3.4463    7.0623 N   0  0  0  0  0  0  0  0  0  0  0  0
   39.3884   -3.0465    6.1365 C   0  0  0  0  0  0  0  0  0  0  0  0
   39.0685   -1.7098    5.4775 C   0  0  0  0  0  0  0  0  0  0  0  0
   38.0016   -1.9655    4.4021 C   0  0  0  0  0  0  0  0  0  0  0  0
   38.5629   -2.6086    3.2046 N   0  0  0  0  0  0  0  0  0  0  0  0
  1  2  1  0  0  0  0
  2  3  1  0  0  0  0
  3  4  1  0  0  0  0
  4  5  1  0  0  0  0
  5  6  1  0  0  0  0
  6  7  1  0  0  0  0
  7  8  1  0  0  0  0
  8  9  1  0  0  0  0
  9 10  1  0  0  0  0
 10 11  1  0  0  0  0
 11 12  1  0  0  0  0
 12 13  1  0  0  0  0
 13 14  1  0  0  0  0
M  END
>  <CHROM.1>
71.38300611,78.76603891,-134.55585086,-178.49375415,-155.01376896,159.50910065
-41.70838694,-74.68630213,161.44555878,-76.30063020,-75.17144275,37.45634455
-3.87816230,3.92430763,-2.14639883,0.86318931,1.96784855

>  <Name>
ligand

>  <RI>
0

>  <Rbt.Current_Directory>
/home/itssahil/PROJECTS/Mol_Feturizer/New_Systems/rnas/1TN1

>  <Rbt.Executable>
rbdock ($Id: //depot/dev/client3/rdock/2013.1/src/exe/rbdock.cxx#4 $)

>  <Rbt.Library>
libRbt.so (2013.1, Build901 2013/11/27)

>  <Rbt.Parameter_File>
/export/apps/rDock/src/rDock_2013.1_src/data/scripts/dock_solv.prm

>  <Rbt.Receptor>
prm/blind_docking_40.prm

>  <SCORE>
13.3878

>  <SCORE.INTER>
7.23705

>  <SCORE.INTER.CONST>
1

>  <SCORE.INTER.POLAR>
0

>  <SCORE.INTER.ROT>
11

>  <SCORE.INTER.SOLV>
3.07878

>  <SCORE.INTER.VDW>
-7.13489

>  <SCORE.INTER.norm>
0.516932

>  <SCORE.INTRA>
5.63638

>  <SCORE.INTRA.DIHEDRAL>
1.96193

>  <SCORE.INTRA.DIHEDRAL.0>
7.79482

>  <SCORE.INTRA.POLAR>
0

>  <SCORE.INTRA.POLAR.0>
0

>  <SCORE.INTRA.REPUL>
0

>  <SCORE.INTRA.REPUL.0>
0

>  <SCORE.INTRA.SOLV>
8.52379

>  <SCORE.INTRA.SOLV.lig_0>
-49.456

>  <SCORE.INTRA.VDW>
0.393522

>  <SCORE.INTRA.VDW.0>
-0.478406

>  <SCORE.INTRA.norm>
0.402598

>  <SCORE.RESTR>
0.514333

>  <SCORE.RESTR.CAVITY>
0.514333

>  <SCORE.RESTR.norm>
0.0367381

>  <SCORE.SYSTEM>
0

>  <SCORE.SYSTEM.CONST>
0

>  <SCORE.SYSTEM.DIHEDRAL>
0

>  <SCORE.SYSTEM.SOLV>
0

>  <SCORE.SYSTEM.norm>
0

>  <SCORE.heavy>
14

>  <SCORE.norm>
0.956269

>  <RMSD>
19.538

$$$$
ligand
 OpenBabel11021811413D
libRbt.so/2013.1/901 2013/11/27
 14 13  0  0  0  0  0  0  0  0999 V2000
   36.9283   -4.9947   -0.5195 N   0  0  0  0  0  0  0  0  0  0  0  0
   38.0208   -5.8424    0.0049 C   0  0  0  0  0  0  0  0  0  0  0  0
   38.3313   -5.5039    1.4790 C   0  0  0  0  0  0  0  0  0  0  0  0
   37.1819   -5.7943    2.4580 C   0  0  0  0  0  0  0  0  0  0  0  0
   37.5914   -5.5134    3.8615 N   0  0  0  0  0  0  0  0  0  0  0  0
   36.5810   -6.0509    4.8085 C   0  0  0  0  0  0  0  0  0  0  0  0
   36.2587   -5.1418    6.0421 C   0  0  0  0  0  0  0  0  0  0  0  0
   37.4723   -4.8956    6.9839 C   0  0  0  0  0  0  0  0  0  0  0  0
   38.6074   -4.1262    6.3370 C   0  0  0  0  0  0  0  0  0  0  0  0
   38.0282   -2.9978    5.6330 N   0  0  0  0  0  0  0  0  0  0  0  0
   39.1423   -2.1369    5.2763 C   0  0  0  0  0  0  0  0  0  0  0  0
   38.8717   -1.3833    3.9793 C   0  0  0  0  0  0  0  0  0  0  0  0
   38.6035   -2.4258    2.8833 C   0  0  0  0  0  0  0  0  0  0  0  0
   38.5977   -1.8296    1.5390 N   0  0  0  0  0  0  0  0  0  0  0  0
  1  2  1  0  0  0  0
  2  3  1  0  0  0  0
  3  4  1  0  0  0  0
  4  5  1  0  0  0  0
  5  6  1  0  0  0  0
  6  7  1  0  0  0  0
  7  8  1  0  0  0  0
  8  9  1  0  0  0  0
  9 10  1  0  0  0  0
 10 11  1  0  0  0  0
 11 12  1  0  0  0  0
 12 13  1  0  0  0  0
 13 14  1  0  0  0  0
M  END
>  <CHROM.1>
64.22647638,176.76819586,-168.64869650,-139.78787897,-62.64466864,64.33679209
45.99033174,168.08714244,149.11973829,-57.88437575,-168.46431735,37.87263767
-4.18847820,3.62658053,1.64242811,-1.14342815,-1.70743618

>  <Name>
ligand

>  <RI>
0

>  <Rbt.Current_Directory>
/home/itssahil/PROJECTS/Mol_Feturizer/New_Systems/rnas/1TN1

>  <Rbt.Executable>
rbdock ($Id: //depot/dev/client3/rdock/2013.1/src/exe/rbdock.cxx#4 $)

>  <Rbt.Library>
libRbt.so (2013.1, Build901 2013/11/27)

>  <Rbt.Parameter_File>
/export/apps/rDock/src/rDock_2013.1_src/data/scripts/dock_solv.prm

>  <Rbt.Receptor>
prm/blind_docking_40.prm

>  <SCORE>
6.53037

>  <SCORE.INTER>
6.593

>  <SCORE.INTER.CONST>
1

>  <SCORE.INTER.POLAR>
0

>  <SCORE.INTER.ROT>
11

>  <SCORE.INTER.SOLV>
7.58574

>  <SCORE.INTER.VDW>
-9.06658

>  <SCORE.INTER.norm>
0.470929

>  <SCORE.INTRA>
-0.108432

>  <SCORE.INTRA.DIHEDRAL>
-4.61873

>  <SCORE.INTRA.DIHEDRAL.0>
7.79482

>  <SCORE.INTRA.POLAR>
0

>  <SCORE.INTRA.POLAR.0>
0

>  <SCORE.INTRA.REPUL>
0

>  <SCORE.INTRA.REPUL.0>
0

>  <SCORE.INTRA.SOLV>
6.16684

>  <SCORE.INTRA.SOLV.lig_0>
-49.456

>  <SCORE.INTRA.VDW>
-0.882485

>  <SCORE.INTRA.VDW.0>
-0.478406

>  <SCORE.INTRA.norm>
-0.00774517

>  <SCORE.RESTR>
0.0458014

>  <SCORE.RESTR.CAVITY>
0.0458014

>  <SCORE.RESTR.norm>
0.00327153

>  <SCORE.SYSTEM>
0

>  <SCORE.SYSTEM.CONST>
0

>  <SCORE.SYSTEM.DIHEDRAL>
0

>  <SCORE.SYSTEM.SOLV>
0

>  <SCORE.SYSTEM.norm>
0

>  <SCORE.heavy>
14

>  <SCORE.norm>
0.466455

>  <RMSD>
19.570

$$$$
ligand
 OpenBabel11021811413D
libRbt.so/2013.1/901 2013/11/27
 14 13  0  0  0  0  0  0  0  0999 V2000
   38.0071   -5.5435   -1.0027 N   0  0  0  0  0  0  0  0  0  0  0  0
   37.9646   -4.5676    0.1077 C   0  0  0  0  0  0  0  0  0  0  0  0
   37.4680   -5.2278    1.4121 C   0  0  0  0  0  0  0  0  0  0  0  0
   37.3555   -4.2714    2.6107 C   0  0  0  0  0  0  0  0  0  0  0  0
   38.6568   -3.6020    2.8843 N   0  0  0  0  0  0  0  0  0  0  0  0
   38.4802   -2.1272    2.9096 C   0  0  0  0  0  0  0  0  0  0  0  0
   39.1003   -1.3926    4.1457 C   0  0  0  0  0  0  0  0  0  0  0  0
   38.6000   -1.9266    5.5186 C   0  0  0  0  0  0  0  0  0  0  0  0
   39.1601   -3.2852    5.8918 C   0  0  0  0  0  0  0  0  0  0  0  0
   38.3387   -3.8205    6.9610 N   0  0  0  0  0  0  0  0  0  0  0  0
   38.1425   -5.2250    6.6471 C   0  0  0  0  0  0  0  0  0  0  0  0
   36.9948   -5.4215    5.6634 C   0  0  0  0  0  0  0  0  0  0  0  0
   37.0984   -6.8500    5.1080 C   0  0  0  0  0  0  0  0  0  0  0  0
   38.3509   -7.0694    4.3692 N   0  0  0  0  0  0  0  0  0  0  0  0
  1  2  1  0  0  0  0
  2  3  1  0  0  0  0
  3  4  1  0  0  0  0
  4  5  1  0  0  0  0
  5  6  1  0  0  0  0
  6  7  1  0  0  0  0
  7  8  1  0  0  0  0
  8  9  1  0  0  0  0
  9 10  1  0  0  0  0
 10 11  1  0  0  0  0
 11 12  1  0  0  0  0
 12 13  1  0  0  0  0
 13 14  1  0  0  0  0
M  END
>  <CHROM.1>
-178.35040539,-56.57081953,126.05609395,130.78351290,-55.70512976,72.88420422
-163.76202638,137.92957245,-83.45345314,165.17991998,-62.16416480,38.12262112
-4.30901989,3.80211524,1.84204616,-1.29633736,-1.47476613

>  <Name>
ligand

>  <RI>
0

>  <Rbt.Current_Directory>
/home/itssahil/PROJECTS/Mol_Feturizer/New_Systems/rnas/1TN1

>  <Rbt.Executable>
rbdock ($Id: //depot/dev/client3/rdock/2013.1/src/exe/rbdock.cxx#4 $)

>  <Rbt.Library>
libRbt.so (2013.1, Build901 2013/11/27)

>  <Rbt.Parameter_File>
/export/apps/rDock/src/rDock_2013.1_src/data/scripts/dock_solv.prm

>  <Rbt.Receptor>
prm/blind_docking_40.prm

>  <SCORE>
8.39902

>  <SCORE.INTER>
7.1389

>  <SCORE.INTER.CONST>
1

>  <SCORE.INTER.POLAR>
0

>  <SCORE.INTER.ROT>
11

>  <SCORE.INTER.SOLV>
7.42313

>  <SCORE.INTER.VDW>
-8.64845

>  <SCORE.INTER.norm>
0.509921

>  <SCORE.INTRA>
1.19176

>  <SCORE.INTRA.DIHEDRAL>
-1.62392

>  <SCORE.INTRA.DIHEDRAL.0>
7.79482

>  <SCORE.INTRA.POLAR>
0

>  <SCORE.INTRA.POLAR.0>
0

>  <SCORE.INTRA.REPUL>
0

>  <SCORE.INTRA.REPUL.0>
0

>  <SCORE.INTRA.SOLV>
5.80881

>  <SCORE.INTRA.SOLV.lig_0>
-49.456

>  <SCORE.INTRA.VDW>
-0.900681

>  <SCORE.INTRA.VDW.0>
-0.478406

>  <SCORE.INTRA.norm>
0.085126

>  <SCORE.RESTR>
0.0683598

>  <SCORE.RESTR.CAVITY>
0.0683598

>  <SCORE.RESTR.norm>
0.00488284

>  <SCORE.SYSTEM>
0

>  <SCORE.SYSTEM.CONST>
0

>  <SCORE.SYSTEM.DIHEDRAL>
0

>  <SCORE.SYSTEM.SOLV>
0

>  <SCORE.SYSTEM.norm>
0

>  <SCORE.heavy>
14

>  <SCORE.norm>
0.59993

>  <RMSD>
19.574

$$$$
ligand
 OpenBabel11021811413D
libRbt.so/2013.1/901 2013/11/27
 14 13  0  0  0  0  0  0  0  0999 V2000
   36.9759   -5.3946   -0.5677 N   0  0  0  0  0  0  0  0  0  0  0  0
   37.3692   -5.7281    0.8184 C   0  0  0  0  0  0  0  0  0  0  0  0
   36.5085   -4.9582    1.8433 C   0  0  0  0  0  0  0  0  0  0  0  0
   36.6081   -3.4273    1.7410 C   0  0  0  0  0  0  0  0  0  0  0  0
   35.9307   -2.7696    2.8920 N   0  0  0  0  0  0  0  0  0  0  0  0
   36.7724   -2.8749    4.1115 C   0  0  0  0  0  0  0  0  0  0  0  0
   37.8031   -1.7154    4.3245 C   0  0  0  0  0  0  0  0  0  0  0  0
   39.1916   -2.1874    4.8438 C   0  0  0  0  0  0  0  0  0  0  0  0
   39.1587   -2.7765    6.2405 C   0  0  0  0  0  0  0  0  0  0  0  0
   38.5551   -4.0924    6.1482 N   0  0  0  0  0  0  0  0  0  0  0  0
   38.0222   -4.3793    7.4685 C   0  0  0  0  0  0  0  0  0  0  0  0
   37.2664   -5.7028    7.4893 C   0  0  0  0  0  0  0  0  0  0  0  0
   36.1146   -5.5962    6.4783 C   0  0  0  0  0  0  0  0  0  0  0  0
   36.5495   -5.9003    5.1068 N   0  0  0  0  0  0  0  0  0  0  0  0
  1  2  1  0  0  0  0
  2  3  1  0  0  0  0
  3  4  1  0  0  0  0
  4  5  1  0  0  0  0
  5  6  1  0  0  0  0
  6  7  1  0  0  0  0
  7  8  1  0  0  0  0
  8  9  1  0  0  0  0
  9 10  1  0  0  0  0
 10 11  1  0  0  0  0
 11 12  1  0  0  0  0
 12 13  1  0  0  0  0
 13 14  1  0  0  0  0
M  END
>  <CHROM.1>
-60.29895082,-170.79957924,75.95784097,88.87917396,-139.37309430,-65.76465354
73.97982651,-156.27931082,175.96312408,-59.69932930,83.88191538,37.34484684
-4.10717137,4.21022762,2.05453148,-1.15295884,-1.20580230

>  <Name>
ligand

>  <RI>
0

>  <Rbt.Current_Directory>
/home/itssahil/PROJECTS/Mol_Feturizer/New_Systems/rnas/1TN1

>  <Rbt.Executable>
rbdock ($Id: //depot/dev/client3/rdock/2013.1/src/exe/rbdock.cxx#4 $)

>  <Rbt.Library>
libRbt.so (2013.1, Build901 2013/11/27)

>  <Rbt.Parameter_File>
/export/apps/rDock/src/rDock_2013.1_src/data/scripts/dock_solv.prm

>  <Rbt.Receptor>
prm/blind_docking_40.prm

>  <SCORE>
9.27948

>  <SCORE.INTER>
5.2097

>  <SCORE.INTER.CONST>
1

>  <SCORE.INTER.POLAR>
0

>  <SCORE.INTER.ROT>
11

>  <SCORE.INTER.SOLV>
5.77125

>  <SCORE.INTER.VDW>
-9.38395

>  <SCORE.INTER.norm>
0.372122

>  <SCORE.INTRA>
3.62541

>  <SCORE.INTRA.DIHEDRAL>
0.655841

>  <SCORE.INTRA.DIHEDRAL.0>
7.79482

>  <SCORE.INTRA.POLAR>
0

>  <SCORE.INTRA.POLAR.0>
0

>  <SCORE.INTRA.REPUL>
0

>  <SCORE.INTRA.REPUL.0>
0

>  <SCORE.INTRA.SOLV>
7.45562

>  <SCORE.INTRA.SOLV.lig_0>
-49.456

>  <SCORE.INTRA.VDW>
-0.430316

>  <SCORE.INTRA.VDW.0>
-0.478406

>  <SCORE.INTRA.norm>
0.258958

>  <SCORE.RESTR>
0.444365

>  <SCORE.RESTR.CAVITY>
0.444365

>  <SCORE.RESTR.norm>
0.0317403

>  <SCORE.SYSTEM>
0

>  <SCORE.SYSTEM.CONST>
0

>  <SCORE.SYSTEM.DIHEDRAL>
0

>  <SCORE.SYSTEM.SOLV>
0

>  <SCORE.SYSTEM.norm>
0

>  <SCORE.heavy>
14

>  <SCORE.norm>
0.66282

>  <RMSD>
19.584

$$$$
ligand
 OpenBabel11021811413D
libRbt.so/2013.1/901 2013/11/27
 14 13  0  0  0  0  0  0  0  0999 V2000
   37.9228   -7.0977    4.7828 N   0  0  0  0  0  0  0  0  0  0  0  0
   36.6698   -6.4353    5.2052 C   0  0  0  0  0  0  0  0  0  0  0  0
   36.9446   -5.0167    5.7493 C   0  0  0  0  0  0  0  0  0  0  0  0
   37.9308   -4.9633    6.9277 C   0  0  0  0  0  0  0  0  0  0  0  0
   38.3252   -3.5601    7.2312 N   0  0  0  0  0  0  0  0  0  0  0  0
   39.1156   -2.9946    6.1078 C   0  0  0  0  0  0  0  0  0  0  0  0
   38.3532   -1.9853    5.1847 C   0  0  0  0  0  0  0  0  0  0  0  0
   39.0498   -1.7232    3.8185 C   0  0  0  0  0  0  0  0  0  0  0  0
   39.2222   -2.9659    2.9671 C   0  0  0  0  0  0  0  0  0  0  0  0
   37.8987   -3.4589    2.6362 N   0  0  0  0  0  0  0  0  0  0  0  0
   38.0574   -4.8782    2.3715 C   0  0  0  0  0  0  0  0  0  0  0  0
   36.7129   -5.5539    2.1283 C   0  0  0  0  0  0  0  0  0  0  0  0
   36.0851   -4.9058    0.8851 C   0  0  0  0  0  0  0  0  0  0  0  0
   36.9034   -5.1080   -0.3200 N   0  0  0  0  0  0  0  0  0  0  0  0
  1  2  1  0  0  0  0
  2  3  1  0  0  0  0
  3  4  1  0  0  0  0
  4  5  1  0  0  0  0
  5  6  1  0  0  0  0
  6  7  1  0  0  0  0
  7  8  1  0  0  0  0
  8  9  1  0  0  0  0
  9 10  1  0  0  0  0
 10 11  1  0  0  0  0
 11 12  1  0  0  0  0
 12 13  1  0  0  0  0
 13 14  1  0  0  0  0
M  END
>  <CHROM.1>
-57.19148816,169.89484105,-66.50941492,104.29403521,-163.68018462,59.90355662
63.51189795,-155.29729440,174.96320044,61.73260710,62.06427020,37.79942489
-4.33172455,3.97696777,0.98950033,1.11357197,1.87002089

>  <Name>
ligand

>  <RI>
0

>  <Rbt.Current_Directory>
/home/itssahil/PROJECTS/Mol_Feturizer/New_Systems/rnas/1TN1

>  <Rbt.Executable>
rbdock ($Id: //depot/dev/client3/rdock/2013.1/src/exe/rbdock.cxx#4 $)

>  <Rbt.Library>
libRbt.so (2013.1, Build901 2013/11/27)

>  <Rbt.Parameter_File>
/export/apps/rDock/src/rDock_2013.1_src/data/scripts/dock_solv.prm

>  <Rbt.Receptor>
prm/blind_docking_40.prm

>  <SCORE>
8.0157

>  <SCORE.INTER>
6.68072

>  <SCORE.INTER.CONST>
1

>  <SCORE.INTER.POLAR>
0

>  <SCORE.INTER.ROT>
11

>  <SCORE.INTER.SOLV>
5.51081

>  <SCORE.INTER.VDW>
-8.31645

>  <SCORE.INTER.norm>
0.477195

>  <SCORE.INTRA>
0.931444

>  <SCORE.INTRA.DIHEDRAL>
-4.86654

>  <SCORE.INTRA.DIHEDRAL.0>
7.79482

>  <SCORE.INTRA.POLAR>
0

>  <SCORE.INTRA.POLAR.0>
0

>  <SCORE.INTRA.REPUL>
0

>  <SCORE.INTRA.REPUL.0>
0

>  <SCORE.INTRA.SOLV>
6.50131

>  <SCORE.INTRA.SOLV.lig_0>
-49.456

>  <SCORE.INTRA.VDW>
0.114059

>  <SCORE.INTRA.VDW.0>
-0.478406

>  <SCORE.INTRA.norm>
0.0665317

>  <SCORE.RESTR>
0.40353

>  <SCORE.RESTR.CAVITY>
0.40353

>  <SCORE.RESTR.norm>
0.0288235

>  <SCORE.SYSTEM>
0

>  <SCORE.SYSTEM.CONST>
0

>  <SCORE.SYSTEM.DIHEDRAL>
0

>  <SCORE.SYSTEM.SOLV>
0

>  <SCORE.SYSTEM.norm>
0

>  <SCORE.heavy>
14

>  <SCORE.norm>
0.57255

>  <RMSD>
19.586

$$$$
ligand
 OpenBabel11021811413D
libRbt.so/2013.1/901 2013/11/27
 14 13  0  0  0  0  0  0  0  0999 V2000
   37.8906   -7.0901    4.6097 N   0  0  0  0  0  0  0  0  0  0  0  0
   36.6499   -6.4446    5.0905 C   0  0  0  0  0  0  0  0  0  0  0  0
   36.9378   -5.0407    5.6651 C   0  0  0  0  0  0  0  0  0  0  0  0
   37.9791   -5.0133    6.7959 C   0  0  0  0  0  0  0  0  0  0  0  0
   38.3836   -3.6168    7.1162 N   0  0  0  0  0  0  0  0  0  0  0  0
   39.1487   -3.0318    5.9852 C   0  0  0  0  0  0  0  0  0  0  0  0
   38.4772   -1.8083    5.2750 C   0  0  0  0  0  0  0  0  0  0  0  0
   38.9757   -1.5655    3.8214 C   0  0  0  0  0  0  0  0  0  0  0  0
   38.6491   -2.6934    2.8622 C   0  0  0  0  0  0  0  0  0  0  0  0
   37.2047   -2.8143    2.8017 N   0  0  0  0  0  0  0  0  0  0  0  0
   36.8549   -2.7066    1.3961 C   0  0  0  0  0  0  0  0  0  0  0  0
   36.2470   -4.0022    0.8718 C   0  0  0  0  0  0  0  0  0  0  0  0
   37.3512   -5.0702    0.8796 C   0  0  0  0  0  0  0  0  0  0  0  0
   36.9172   -6.3227    0.2426 N   0  0  0  0  0  0  0  0  0  0  0  0
  1  2  1  0  0  0  0
  2  3  1  0  0  0  0
  3  4  1  0  0  0  0
  4  5  1  0  0  0  0
  5  6  1  0  0  0  0
  6  7  1  0  0  0  0
  7  8  1  0  0  0  0
  8  9  1  0  0  0  0
  9 10  1  0  0  0  0
 10 11  1  0  0  0  0
 11 12  1  0  0  0  0
 12 13  1  0  0  0  0
 13 14  1  0  0  0  0
M  END
>  <CHROM.1>
-56.19495611,169.41174355,-67.99165097,115.88823975,-157.65579970,63.85090520
61.47046899,125.01506130,115.26805325,-67.44332370,-173.22757751,37.69050691
-4.08683309,3.81526018,0.76391326,1.22498031,2.20884831

>  <Name>
ligand

>  <RI>
0

>  <Rbt.Current_Directory>
/home/itssahil/PROJECTS/Mol_Feturizer/New_Systems/rnas/1TN1

>  <Rbt.Executable>
rbdock ($Id: //depot/dev/client3/rdock/2013.1/src/exe/rbdock.cxx#4 $)

>  <Rbt.Library>
libRbt.so (2013.1, Build901 2013/11/27)

>  <Rbt.Parameter_File>
/export/apps/rDock/src/rDock_2013.1_src/data/scripts/dock_solv.prm

>  <Rbt.Receptor>
prm/blind_docking_40.prm

>  <SCORE>
8.09365

>  <SCORE.INTER>
7.34982

>  <SCORE.INTER.CONST>
1

>  <SCORE.INTER.POLAR>
0

>  <SCORE.INTER.ROT>
11

>  <SCORE.INTER.SOLV>
9.6436

>  <SCORE.INTER.VDW>
-9.24799

>  <SCORE.INTER.norm>
0.524987

>  <SCORE.INTRA>
0.68786

>  <SCORE.INTRA.DIHEDRAL>
-1.59591

>  <SCORE.INTRA.DIHEDRAL.0>
7.79482

>  <SCORE.INTRA.POLAR>
0

>  <SCORE.INTRA.POLAR.0>
0

>  <SCORE.INTRA.REPUL>
0

>  <SCORE.INTRA.REPUL.0>
0

>  <SCORE.INTRA.SOLV>
2.88337

>  <SCORE.INTRA.SOLV.lig_0>
-49.456

>  <SCORE.INTRA.VDW>
0.0441305

>  <SCORE.INTRA.VDW.0>
-0.478406

>  <SCORE.INTRA.norm>
0.0491328

>  <SCORE.RESTR>
0.0559715

>  <SCORE.RESTR.CAVITY>
0.0559715

>  <SCORE.RESTR.norm>
0.00399796

>  <SCORE.SYSTEM>
0

>  <SCORE.SYSTEM.CONST>
0

>  <SCORE.SYSTEM.DIHEDRAL>
0

>  <SCORE.SYSTEM.SOLV>
0

>  <SCORE.SYSTEM.norm>
0

>  <SCORE.heavy>
14

>  <SCORE.norm>
0.578118

>  <RMSD>
19.607

$$$$
ligand
 OpenBabel11021811413D
libRbt.so/2013.1/901 2013/11/27
 14 13  0  0  0  0  0  0  0  0999 V2000
   39.0618   -1.5056    3.4466 N   0  0  0  0  0  0  0  0  0  0  0  0
   39.1019   -1.9474    4.8574 C   0  0  0  0  0  0  0  0  0  0  0  0
   39.4870   -3.4388    4.9643 C   0  0  0  0  0  0  0  0  0  0  0  0
   39.4006   -4.0218    6.3844 C   0  0  0  0  0  0  0  0  0  0  0  0
   38.0313   -3.8603    6.9459 N   0  0  0  0  0  0  0  0  0  0  0  0
   37.4628   -5.1858    7.3020 C   0  0  0  0  0  0  0  0  0  0  0  0
   36.1753   -5.6035    6.5146 C   0  0  0  0  0  0  0  0  0  0  0  0
   36.4456   -6.0620    5.0527 C   0  0  0  0  0  0  0  0  0  0  0  0
   36.8609   -4.9392    4.1223 C   0  0  0  0  0  0  0  0  0  0  0  0
   37.0695   -5.5133    2.8066 N   0  0  0  0  0  0  0  0  0  0  0  0
   37.6324   -4.4499    1.9929 C   0  0  0  0  0  0  0  0  0  0  0  0
   37.0864   -4.4877    0.5703 C   0  0  0  0  0  0  0  0  0  0  0  0
   37.6556   -5.7404   -0.1127 C   0  0  0  0  0  0  0  0  0  0  0  0
   39.1013   -5.6305   -0.3591 N   0  0  0  0  0  0  0  0  0  0  0  0
  1  2  1  0  0  0  0
  2  3  1  0  0  0  0
  3  4  1  0  0  0  0
  4  5  1  0  0  0  0
  5  6  1  0  0  0  0
  6  7  1  0  0  0  0
  7  8  1  0  0  0  0
  8  9  1  0  0  0  0
  9 10  1  0  0  0  0
 10 11  1  0  0  0  0
 11 12  1  0  0  0  0
 12 13  1  0  0  0  0
 13 14  1  0  0  0  0
M  END
>  <CHROM.1>
-173.53204272,57.38437265,121.46204379,-117.31342425,75.57051595,-70.39369428
-179.72582968,-172.68526696,-141.92667533,-69.19169021,-69.30613223,37.89786060
-4.45628267,3.89228982,-1.58200291,0.91362476,1.43752863

>  <Name>
ligand

>  <RI>
0

>  <Rbt.Current_Directory>
/home/itssahil/PROJECTS/Mol_Feturizer/New_Systems/rnas/1TN1

>  <Rbt.Executable>
rbdock ($Id: //depot/dev/client3/rdock/2013.1/src/exe/rbdock.cxx#4 $)

>  <Rbt.Library>
libRbt.so (2013.1, Build901 2013/11/27)

>  <Rbt.Parameter_File>
/export/apps/rDock/src/rDock_2013.1_src/data/scripts/dock_solv.prm

>  <Rbt.Receptor>
prm/blind_docking_40.prm

>  <SCORE>
8.50138

>  <SCORE.INTER>
7.98032

>  <SCORE.INTER.CONST>
1

>  <SCORE.INTER.POLAR>
0

>  <SCORE.INTER.ROT>
11

>  <SCORE.INTER.SOLV>
8.82902

>  <SCORE.INTER.VDW>
-8.55612

>  <SCORE.INTER.norm>
0.570023

>  <SCORE.INTRA>
-0.0165451

>  <SCORE.INTRA.DIHEDRAL>
-2.38564

>  <SCORE.INTRA.DIHEDRAL.0>
7.79482

>  <SCORE.INTRA.POLAR>
0

>  <SCORE.INTRA.POLAR.0>
0

>  <SCORE.INTRA.REPUL>
0

>  <SCORE.INTRA.REPUL.0>
0

>  <SCORE.INTRA.SOLV>
4.5977

>  <SCORE.INTRA.SOLV.lig_0>
-49.456

>  <SCORE.INTRA.VDW>
-1.12258

>  <SCORE.INTRA.VDW.0>
-0.478406

>  <SCORE.INTRA.norm>
-0.00118179

>  <SCORE.RESTR>
0.537601

>  <SCORE.RESTR.CAVITY>
0.537601

>  <SCORE.RESTR.norm>
0.0384001

>  <SCORE.SYSTEM>
0

>  <SCORE.SYSTEM.CONST>
0

>  <SCORE.SYSTEM.DIHEDRAL>
0

>  <SCORE.SYSTEM.SOLV>
0

>  <SCORE.SYSTEM.norm>
0

>  <SCORE.heavy>
14

>  <SCORE.norm>
0.607241

>  <RMSD>
19.649

$$$$
ligand
 OpenBabel11021811413D
libRbt.so/2013.1/901 2013/11/27
 14 13  0  0  0  0  0  0  0  0999 V2000
   37.4349   -6.4037   -0.4123 N   0  0  0  0  0  0  0  0  0  0  0  0
   37.3295   -5.6228    0.8392 C   0  0  0  0  0  0  0  0  0  0  0  0
   36.0052   -4.8308    0.8929 C   0  0  0  0  0  0  0  0  0  0  0  0
   35.8660   -3.8986    2.1077 C   0  0  0  0  0  0  0  0  0  0  0  0
   36.9677   -2.8979    2.1423 N   0  0  0  0  0  0  0  0  0  0  0  0
   37.3613   -2.6160    3.5467 C   0  0  0  0  0  0  0  0  0  0  0  0
   38.7214   -1.8621    3.7300 C   0  0  0  0  0  0  0  0  0  0  0  0
   39.0933   -1.5743    5.2130 C   0  0  0  0  0  0  0  0  0  0  0  0
   39.3528   -2.8212    6.0356 C   0  0  0  0  0  0  0  0  0  0  0  0
   38.1087   -3.5632    6.1134 N   0  0  0  0  0  0  0  0  0  0  0  0
   38.2958   -4.5446    7.1676 C   0  0  0  0  0  0  0  0  0  0  0  0
   37.0764   -5.4478    7.3116 C   0  0  0  0  0  0  0  0  0  0  0  0
   36.9288   -6.2411    6.0043 C   0  0  0  0  0  0  0  0  0  0  0  0
   36.4562   -5.4000    4.8944 N   0  0  0  0  0  0  0  0  0  0  0  0
  1  2  1  0  0  0  0
  2  3  1  0  0  0  0
  3  4  1  0  0  0  0
  4  5  1  0  0  0  0
  5  6  1  0  0  0  0
  6  7  1  0  0  0  0
  7  8  1  0  0  0  0
  8  9  1  0  0  0  0
  9 10  1  0  0  0  0
 10 11  1  0  0  0  0
 11 12  1  0  0  0  0
 12 13  1  0  0  0  0
 13 14  1  0  0  0  0
M  END
>  <CHROM.1>
-175.12599245,58.89165710,-144.59735866,165.63986090,179.49856887,65.23273122
-64.75518249,-165.80162633,-177.18343833,63.79152428,-72.36322290,37.49995894
-4.12297206,3.97078083,2.17135182,-1.14021905,-1.22937720

>  <Name>
ligand

>  <RI>
0

>  <Rbt.Current_Directory>
/home/itssahil/PROJECTS/Mol_Feturizer/New_Systems/rnas/1TN1

>  <Rbt.Executable>
rbdock ($Id: //depot/dev/client3/rdock/2013.1/src/exe/rbdock.cxx#4 $)

>  <Rbt.Library>
libRbt.so (2013.1, Build901 2013/11/27)

>  <Rbt.Parameter_File>
/export/apps/rDock/src/rDock_2013.1_src/data/scripts/dock_solv.prm

>  <Rbt.Receptor>
prm/blind_docking_40.prm

>  <SCORE>
7.36244

>  <SCORE.INTER>
6.29086

>  <SCORE.INTER.CONST>
1

>  <SCORE.INTER.POLAR>
0

>  <SCORE.INTER.ROT>
11

>  <SCORE.INTER.SOLV>
8.83635

>  <SCORE.INTER.VDW>
-9.68488

>  <SCORE.INTER.norm>
0.449347

>  <SCORE.INTRA>
0.494028

>  <SCORE.INTRA.DIHEDRAL>
-5.79395

>  <SCORE.INTRA.DIHEDRAL.0>
7.79482

>  <SCORE.INTRA.POLAR>
0

>  <SCORE.INTRA.POLAR.0>
0

>  <SCORE.INTRA.REPUL>
0

>  <SCORE.INTRA.REPUL.0>
0

>  <SCORE.INTRA.SOLV>
7.91048

>  <SCORE.INTRA.SOLV.lig_0>
-49.456

>  <SCORE.INTRA.VDW>
-0.564239

>  <SCORE.INTRA.VDW.0>
-0.478406

>  <SCORE.INTRA.norm>
0.0352877

>  <SCORE.RESTR>
0.577556

>  <SCORE.RESTR.CAVITY>
0.577556

>  <SCORE.RESTR.norm>
0.041254

>  <SCORE.SYSTEM>
0

>  <SCORE.SYSTEM.CONST>
0

>  <SCORE.SYSTEM.DIHEDRAL>
0

>  <SCORE.SYSTEM.SOLV>
0

>  <SCORE.SYSTEM.norm>
0

>  <SCORE.heavy>
14

>  <SCORE.norm>
0.525889

>  <RMSD>
19.702

$$$$
ligand
 OpenBabel11021811413D
libRbt.so/2013.1/901 2013/11/27
 14 13  0  0  0  0  0  0  0  0999 V2000
   39.0664   -4.9547   -0.1551 N   0  0  0  0  0  0  0  0  0  0  0  0
   37.6971   -5.5129   -0.1311 C   0  0  0  0  0  0  0  0  0  0  0  0
   37.2252   -5.7715    1.3161 C   0  0  0  0  0  0  0  0  0  0  0  0
   37.1028   -4.5086    2.1845 C   0  0  0  0  0  0  0  0  0  0  0  0
   38.4398   -3.9081    2.4458 N   0  0  0  0  0  0  0  0  0  0  0  0
   38.3451   -2.4256    2.4488 C   0  0  0  0  0  0  0  0  0  0  0  0
   39.1018   -1.7015    3.6130 C   0  0  0  0  0  0  0  0  0  0  0  0
   38.5730   -2.0572    5.0322 C   0  0  0  0  0  0  0  0  0  0  0  0
   38.8121   -3.4994    5.4345 C   0  0  0  0  0  0  0  0  0  0  0  0
   38.3134   -3.6669    6.7864 N   0  0  0  0  0  0  0  0  0  0  0  0
   38.2773   -5.0996    7.0227 C   0  0  0  0  0  0  0  0  0  0  0  0
   36.8641   -5.5779    7.3348 C   0  0  0  0  0  0  0  0  0  0  0  0
   36.0437   -5.4800    6.0397 C   0  0  0  0  0  0  0  0  0  0  0  0
   36.5231   -6.4105    5.0067 N   0  0  0  0  0  0  0  0  0  0  0  0
  1  2  1  0  0  0  0
  2  3  1  0  0  0  0
  3  4  1  0  0  0  0
  4  5  1  0  0  0  0
  5  6  1  0  0  0  0
  6  7  1  0  0  0  0
  7  8  1  0  0  0  0
  8  9  1  0  0  0  0
  9 10  1  0  0  0  0
 10 11  1  0  0  0  0
 11 12  1  0  0  0  0
 12 13  1  0  0  0  0
 13 14  1  0  0  0  0
M  END
>  <CHROM.1>
63.55440716,-67.34293611,143.26189733,135.30814062,-62.42772588,66.54385850
177.99867603,167.39519703,-119.85243470,70.40983157,65.79719602,37.88453890
-4.32656901,3.88435625,1.37724354,-1.05720225,-1.74393737

>  <Name>
ligand

>  <RI>
0

>  <Rbt.Current_Directory>
/home/itssahil/PROJECTS/Mol_Feturizer/New_Systems/rnas/1TN1

>  <Rbt.Executable>
rbdock ($Id: //depot/dev/client3/rdock/2013.1/src/exe/rbdock.cxx#4 $)

>  <Rbt.Library>
libRbt.so (2013.1, Build901 2013/11/27)

>  <Rbt.Parameter_File>
/export/apps/rDock/src/rDock_2013.1_src/data/scripts/dock_solv.prm

>  <Rbt.Receptor>
prm/blind_docking_40.prm

>  <SCORE>
6.772

>  <SCORE.INTER>
5.65055

>  <SCORE.INTER.CONST>
1

>  <SCORE.INTER.POLAR>
0

>  <SCORE.INTER.ROT>
11

>  <SCORE.INTER.SOLV>
5.0642

>  <SCORE.INTER.VDW>
-8.85437

>  <SCORE.INTER.norm>
0.403611

>  <SCORE.INTRA>
1.11968

>  <SCORE.INTRA.DIHEDRAL>
-3.65362

>  <SCORE.INTRA.DIHEDRAL.0>
7.79482

>  <SCORE.INTRA.POLAR>
0

>  <SCORE.INTRA.POLAR.0>
0

>  <SCORE.INTRA.REPUL>
0

>  <SCORE.INTRA.REPUL.0>
0

>  <SCORE.INTRA.SOLV>
8.37906

>  <SCORE.INTRA.SOLV.lig_0>
-49.456

>  <SCORE.INTRA.VDW>
-1.24304

>  <SCORE.INTRA.VDW.0>
-0.478406

>  <SCORE.INTRA.norm>
0.0799774

>  <SCORE.RESTR>
0.00177177

>  <SCORE.RESTR.CAVITY>
0.00177177

>  <SCORE.RESTR.norm>
0.000126555

>  <SCORE.SYSTEM>
0

>  <SCORE.SYSTEM.CONST>
0

>  <SCORE.SYSTEM.DIHEDRAL>
0

>  <SCORE.SYSTEM.SOLV>
0

>  <SCORE.SYSTEM.norm>
0

>  <SCORE.heavy>
14

>  <SCORE.norm>
0.483715

>  <RMSD>
19.717

$$$$
ligand
 OpenBabel11021811413D
libRbt.so/2013.1/901 2013/11/27
 14 13  0  0  0  0  0  0  0  0999 V2000
   36.1446   -5.5033    5.8929 N   0  0  0  0  0  0  0  0  0  0  0  0
   36.4694   -5.5679    7.3343 C   0  0  0  0  0  0  0  0  0  0  0  0
   37.9885   -5.4259    7.5709 C   0  0  0  0  0  0  0  0  0  0  0  0
   38.5525   -4.0246    7.2843 C   0  0  0  0  0  0  0  0  0  0  0  0
   38.1983   -3.5769    5.9093 N   0  0  0  0  0  0  0  0  0  0  0  0
   38.9364   -2.3338    5.5680 C   0  0  0  0  0  0  0  0  0  0  0  0
   38.7519   -1.8183    4.1009 C   0  0  0  0  0  0  0  0  0  0  0  0
   38.9839   -2.9050    3.0121 C   0  0  0  0  0  0  0  0  0  0  0  0
   38.4463   -2.5309    1.6446 C   0  0  0  0  0  0  0  0  0  0  0  0
   37.0036   -2.4254    1.7535 N   0  0  0  0  0  0  0  0  0  0  0  0
   36.4667   -3.0740    0.5700 C   0  0  0  0  0  0  0  0  0  0  0  0
   35.8074   -4.4046    0.9139 C   0  0  0  0  0  0  0  0  0  0  0  0
   36.9220   -5.4517    1.0593 C   0  0  0  0  0  0  0  0  0  0  0  0
   37.5900   -5.7334   -0.2202 N   0  0  0  0  0  0  0  0  0  0  0  0
  1  2  1  0  0  0  0
  2  3  1  0  0  0  0
  3  4  1  0  0  0  0
  4  5  1  0  0  0  0
  5  6  1  0  0  0  0
  6  7  1  0  0  0  0
  7  8  1  0  0  0  0
  8  9  1  0  0  0  0
  9 10  1  0  0  0  0
 10 11  1  0  0  0  0
 11 12  1  0  0  0  0
 12 13  1  0  0  0  0
 13 14  1  0  0  0  0
M  END
>  <CHROM.1>
69.90048268,-54.11996931,-170.47463236,174.94450404,-50.28347923,164.07484045
-64.52658488,-137.22187694,108.45726719,-80.15593882,-67.35297493,37.59025565
-3.91238631,3.74259679,1.36901329,0.99028774,1.82321095

>  <Name>
ligand

>  <RI>
0

>  <Rbt.Current_Directory>
/home/itssahil/PROJECTS/Mol_Feturizer/New_Systems/rnas/1TN1

>  <Rbt.Executable>
rbdock ($Id: //depot/dev/client3/rdock/2013.1/src/exe/rbdock.cxx#4 $)

>  <Rbt.Library>
libRbt.so (2013.1, Build901 2013/11/27)

>  <Rbt.Parameter_File>
/export/apps/rDock/src/rDock_2013.1_src/data/scripts/dock_solv.prm

>  <Rbt.Receptor>
prm/blind_docking_40.prm

>  <SCORE>
8.04479

>  <SCORE.INTER>
6.7893

>  <SCORE.INTER.CONST>
1

>  <SCORE.INTER.POLAR>
0

>  <SCORE.INTER.ROT>
11

>  <SCORE.INTER.SOLV>
6.89231

>  <SCORE.INTER.VDW>
-8.70457

>  <SCORE.INTER.norm>
0.48495

>  <SCORE.INTRA>
1.25548

>  <SCORE.INTRA.DIHEDRAL>
-2.1107

>  <SCORE.INTRA.DIHEDRAL.0>
7.79482

>  <SCORE.INTRA.POLAR>
0

>  <SCORE.INTRA.POLAR.0>
0

>  <SCORE.INTRA.REPUL>
0

>  <SCORE.INTRA.REPUL.0>
0

>  <SCORE.INTRA.SOLV>
5.98739

>  <SCORE.INTRA.SOLV.lig_0>
-49.456

>  <SCORE.INTRA.VDW>
-0.68286

>  <SCORE.INTRA.VDW.0>
-0.478406

>  <SCORE.INTRA.norm>
0.0896774

>  <SCORE.RESTR>
0

>  <SCORE.RESTR.CAVITY>
0

>  <SCORE.RESTR.norm>
0

>  <SCORE.SYSTEM>
0

>  <SCORE.SYSTEM.CONST>
0

>  <SCORE.SYSTEM.DIHEDRAL>
0

>  <SCORE.SYSTEM.SOLV>
0

>  <SCORE.SYSTEM.norm>
0

>  <SCORE.heavy>
14

>  <SCORE.norm>
0.574628

>  <RMSD>
19.756

$$$$
ligand
 OpenBabel11021811413D
libRbt.so/2013.1/901 2013/11/27
 14 13  0  0  0  0  0  0  0  0999 V2000
   39.1031   -5.3068    2.0834 N   0  0  0  0  0  0  0  0  0  0  0  0
   37.7490   -5.8926    1.9804 C   0  0  0  0  0  0  0  0  0  0  0  0
   37.0747   -5.5079    0.6457 C   0  0  0  0  0  0  0  0  0  0  0  0
   36.5051   -4.0804    0.6047 C   0  0  0  0  0  0  0  0  0  0  0  0
   35.3908   -3.9214    1.5791 N   0  0  0  0  0  0  0  0  0  0  0  0
   35.5063   -2.6183    2.2829 C   0  0  0  0  0  0  0  0  0  0  0  0
   36.5980   -2.5488    3.4034 C   0  0  0  0  0  0  0  0  0  0  0  0
   38.0565   -2.4833    2.8658 C   0  0  0  0  0  0  0  0  0  0  0  0
   39.0997   -2.2569    3.9425 C   0  0  0  0  0  0  0  0  0  0  0  0
   39.1518   -3.4526    4.7623 N   0  0  0  0  0  0  0  0  0  0  0  0
   38.9550   -3.0061    6.1303 C   0  0  0  0  0  0  0  0  0  0  0  0
   38.5755   -4.1642    7.0458 C   0  0  0  0  0  0  0  0  0  0  0  0
   37.2392   -4.7334    6.5456 C   0  0  0  0  0  0  0  0  0  0  0  0
   36.6360   -5.6648    7.5106 N   0  0  0  0  0  0  0  0  0  0  0  0
  1  2  1  0  0  0  0
  2  3  1  0  0  0  0
  3  4  1  0  0  0  0
  4  5  1  0  0  0  0
  5  6  1  0  0  0  0
  6  7  1  0  0  0  0
  7  8  1  0  0  0  0
  8  9  1  0  0  0  0
  9 10  1  0  0  0  0
 10 11  1  0  0  0  0
 11 12  1  0  0  0  0
 12 13  1  0  0  0  0
 13 14  1  0  0  0  0
M  END
>  <CHROM.1>
-77.94309197,-64.77731156,137.81368833,-76.45973492,73.75076681,173.38312242
68.49583562,-125.98676057,163.11504691,-62.21726904,-167.99074886,37.54575347
-3.97385903,3.67005761,2.19123696,-1.12838663,-1.01940193

>  <Name>
ligand

>  <RI>
0

>  <Rbt.Current_Directory>
/home/itssahil/PROJECTS/Mol_Feturizer/New_Systems/rnas/1TN1

>  <Rbt.Executable>
rbdock ($Id: //depot/dev/client3/rdock/2013.1/src/exe/rbdock.cxx#4 $)

>  <Rbt.Library>
libRbt.so (2013.1, Build901 2013/11/27)

>  <Rbt.Parameter_File>
/export/apps/rDock/src/rDock_2013.1_src/data/scripts/dock_solv.prm

>  <Rbt.Receptor>
prm/blind_docking_40.prm

>  <SCORE>
9.73467

>  <SCORE.INTER>
9.00425

>  <SCORE.INTER.CONST>
1

>  <SCORE.INTER.POLAR>
0

>  <SCORE.INTER.ROT>
11

>  <SCORE.INTER.SOLV>
8.19505

>  <SCORE.INTER.VDW>
-7.66218

>  <SCORE.INTER.norm>
0.643161

>  <SCORE.INTRA>
0.632173

>  <SCORE.INTRA.DIHEDRAL>
-2.33883

>  <SCORE.INTRA.DIHEDRAL.0>
7.79482

>  <SCORE.INTRA.POLAR>
0

>  <SCORE.INTRA.POLAR.0>
0

>  <SCORE.INTRA.REPUL>
0

>  <SCORE.INTRA.REPUL.0>
0

>  <SCORE.INTRA.SOLV>
6.15274

>  <SCORE.INTRA.SOLV.lig_0>
-49.456

>  <SCORE.INTRA.VDW>
-1.27479

>  <SCORE.INTRA.VDW.0>
-0.478406

>  <SCORE.INTRA.norm>
0.0451552

>  <SCORE.RESTR>
0.0982401

>  <SCORE.RESTR.CAVITY>
0.0982401

>  <SCORE.RESTR.norm>
0.00701715

>  <SCORE.SYSTEM>
0

>  <SCORE.SYSTEM.CONST>
0

>  <SCORE.SYSTEM.DIHEDRAL>
0

>  <SCORE.SYSTEM.SOLV>
0

>  <SCORE.SYSTEM.norm>
0

>  <SCORE.heavy>
14

>  <SCORE.norm>
0.695333

>  <RMSD>
19.770

$$$$
ligand
 OpenBabel11021811413D
libRbt.so/2013.1/901 2013/11/27
 14 13  0  0  0  0  0  0  0  0999 V2000
   36.4266   -6.9901    4.2686 N   0  0  0  0  0  0  0  0  0  0  0  0
   37.6036   -6.6835    5.1100 C   0  0  0  0  0  0  0  0  0  0  0  0
   37.4842   -5.2822    5.7472 C   0  0  0  0  0  0  0  0  0  0  0  0
   38.5605   -4.9633    6.7979 C   0  0  0  0  0  0  0  0  0  0  0  0
   38.5435   -3.5191    7.1589 N   0  0  0  0  0  0  0  0  0  0  0  0
   39.3420   -2.7360    6.1812 C   0  0  0  0  0  0  0  0  0  0  0  0
   38.5476   -1.6617    5.3647 C   0  0  0  0  0  0  0  0  0  0  0  0
   37.7711   -2.2369    4.1454 C   0  0  0  0  0  0  0  0  0  0  0  0
   38.6556   -2.6033    2.9696 C   0  0  0  0  0  0  0  0  0  0  0  0
   38.0372   -3.7242    2.2873 N   0  0  0  0  0  0  0  0  0  0  0  0
   37.6879   -3.2404    0.9630 C   0  0  0  0  0  0  0  0  0  0  0  0
   36.4862   -3.9869    0.3956 C   0  0  0  0  0  0  0  0  0  0  0  0
   36.9337   -5.4246    0.0909 C   0  0  0  0  0  0  0  0  0  0  0  0
   38.0178   -5.4703   -0.9018 N   0  0  0  0  0  0  0  0  0  0  0  0
  1  2  1  0  0  0  0
  2  3  1  0  0  0  0
  3  4  1  0  0  0  0
  4  5  1  0  0  0  0
  5  6  1  0  0  0  0
  6  7  1  0  0  0  0
  7  8  1  0  0  0  0
  8  9  1  0  0  0  0
  9 10  1  0  0  0  0
 10 11  1  0  0  0  0
 11 12  1  0  0  0  0
 12 13  1  0  0  0  0
 13 14  1  0  0  0  0
M  END
>  <CHROM.1>
171.47079552,168.62647352,-84.22134278,117.86570620,-81.34997115,-74.48958049
148.69048713,116.09910858,-151.87363880,-69.43355278,-60.92267080,37.86415259
-4.17987005,3.61291470,0.98518230,1.24531270,1.99253499

>  <Name>
ligand

>  <RI>
0

>  <Rbt.Current_Directory>
/home/itssahil/PROJECTS/Mol_Feturizer/New_Systems/rnas/1TN1

>  <Rbt.Executable>
rbdock ($Id: //depot/dev/client3/rdock/2013.1/src/exe/rbdock.cxx#4 $)

>  <Rbt.Library>
libRbt.so (2013.1, Build901 2013/11/27)

>  <Rbt.Parameter_File>
/export/apps/rDock/src/rDock_2013.1_src/data/scripts/dock_solv.prm

>  <Rbt.Receptor>
prm/blind_docking_40.prm

>  <SCORE>
9.5599

>  <SCORE.INTER>
7.28762

>  <SCORE.INTER.CONST>
1

>  <SCORE.INTER.POLAR>
0

>  <SCORE.INTER.ROT>
11

>  <SCORE.INTER.SOLV>
6.39596

>  <SCORE.INTER.VDW>
-8.20691

>  <SCORE.INTER.norm>
0.520544

>  <SCORE.INTRA>
1.72435

>  <SCORE.INTRA.DIHEDRAL>
1.97088

>  <SCORE.INTRA.DIHEDRAL.0>
7.79482

>  <SCORE.INTRA.POLAR>
0

>  <SCORE.INTRA.POLAR.0>
0

>  <SCORE.INTRA.REPUL>
0

>  <SCORE.INTRA.REPUL.0>
0

>  <SCORE.INTRA.SOLV>
3.19934

>  <SCORE.INTRA.SOLV.lig_0>
-49.456

>  <SCORE.INTRA.VDW>
-0.860764

>  <SCORE.INTRA.VDW.0>
-0.478406

>  <SCORE.INTRA.norm>
0.123168

>  <SCORE.RESTR>
0.547943

>  <SCORE.RESTR.CAVITY>
0.547943

>  <SCORE.RESTR.norm>
0.0391388

>  <SCORE.SYSTEM>
0

>  <SCORE.SYSTEM.CONST>
0

>  <SCORE.SYSTEM.DIHEDRAL>
0

>  <SCORE.SYSTEM.SOLV>
0

>  <SCORE.SYSTEM.norm>
0

>  <SCORE.heavy>
14

>  <SCORE.norm>
0.68285

>  <RMSD>
19.774

$$$$
ligand
 OpenBabel11021811413D
libRbt.so/2013.1/901 2013/11/27
 14 13  0  0  0  0  0  0  0  0999 V2000
   39.0659   -5.8489   -0.5355 N   0  0  0  0  0  0  0  0  0  0  0  0
   38.9930   -4.6541    0.3329 C   0  0  0  0  0  0  0  0  0  0  0  0
   38.9687   -5.0495    1.8252 C   0  0  0  0  0  0  0  0  0  0  0  0
   37.6486   -5.6795    2.2989 C   0  0  0  0  0  0  0  0  0  0  0  0
   36.4899   -4.8063    1.9655 N   0  0  0  0  0  0  0  0  0  0  0  0
   36.0147   -4.0973    3.1814 C   0  0  0  0  0  0  0  0  0  0  0  0
   36.4164   -2.5873    3.2847 C   0  0  0  0  0  0  0  0  0  0  0  0
   37.9407   -2.3477    3.4830 C   0  0  0  0  0  0  0  0  0  0  0  0
   38.3840   -2.3708    4.9328 C   0  0  0  0  0  0  0  0  0  0  0  0
   39.3914   -3.4058    5.0678 N   0  0  0  0  0  0  0  0  0  0  0  0
   38.6822   -4.5976    5.4994 C   0  0  0  0  0  0  0  0  0  0  0  0
   38.4790   -4.6094    7.0099 C   0  0  0  0  0  0  0  0  0  0  0  0
   37.4632   -5.7155    7.3336 C   0  0  0  0  0  0  0  0  0  0  0  0
   36.1760   -5.5036    6.6547 N   0  0  0  0  0  0  0  0  0  0  0  0
  1  2  1  0  0  0  0
  2  3  1  0  0  0  0
  3  4  1  0  0  0  0
  4  5  1  0  0  0  0
  5  6  1  0  0  0  0
  6  7  1  0  0  0  0
  7  8  1  0  0  0  0
  8  9  1  0  0  0  0
  9 10  1  0  0  0  0
 10 11  1  0  0  0  0
 11 12  1  0  0  0  0
 12 13  1  0  0  0  0
 13 14  1  0  0  0  0
M  END
>  <CHROM.1>
-72.26873618,-53.58547727,-103.68239746,103.80307785,-67.73040410,-87.09038098
121.83831888,-94.43319588,-83.90228757,167.36539757,-58.87176123,37.86531111
-4.37646607,3.73835448,0.64215740,-1.42867395,-2.56491934

>  <Name>
ligand

>  <RI>
0

>  <Rbt.Current_Directory>
/home/itssahil/PROJECTS/Mol_Feturizer/New_Systems/rnas/1TN1

>  <Rbt.Executable>
rbdock ($Id: //depot/dev/client3/rdock/2013.1/src/exe/rbdock.cxx#4 $)

>  <Rbt.Library>
libRbt.so (2013.1, Build901 2013/11/27)

>  <Rbt.Parameter_File>
/export/apps/rDock/src/rDock_2013.1_src/data/scripts/dock_solv.prm

>  <Rbt.Receptor>
prm/blind_docking_40.prm

>  <SCORE>
12.9734

>  <SCORE.INTER>
8.39258

>  <SCORE.INTER.CONST>
1

>  <SCORE.INTER.POLAR>
0

>  <SCORE.INTER.ROT>
11

>  <SCORE.INTER.SOLV>
7.2612

>  <SCORE.INTER.VDW>
-7.75868

>  <SCORE.INTER.norm>
0.59947

>  <SCORE.INTRA>
4.56051

>  <SCORE.INTRA.DIHEDRAL>
4.96304

>  <SCORE.INTRA.DIHEDRAL.0>
7.79482

>  <SCORE.INTRA.POLAR>
0

>  <SCORE.INTRA.POLAR.0>
0

>  <SCORE.INTRA.REPUL>
0

>  <SCORE.INTRA.REPUL.0>
0

>  <SCORE.INTRA.SOLV>
5.46859

>  <SCORE.INTRA.SOLV.lig_0>
-49.456

>  <SCORE.INTRA.VDW>
-0.655306

>  <SCORE.INTRA.VDW.0>
-0.478406

>  <SCORE.INTRA.norm>
0.325751

>  <SCORE.RESTR>
0.0202699

>  <SCORE.RESTR.CAVITY>
0.0202699

>  <SCORE.RESTR.norm>
0.00144785

>  <SCORE.SYSTEM>
0

>  <SCORE.SYSTEM.CONST>
0

>  <SCORE.SYSTEM.DIHEDRAL>
0

>  <SCORE.SYSTEM.SOLV>
0

>  <SCORE.SYSTEM.norm>
0

>  <SCORE.heavy>
14

>  <SCORE.norm>
0.926669

>  <RMSD>
19.803

$$$$
ligand
 OpenBabel11021811413D
libRbt.so/2013.1/901 2013/11/27
 14 13  0  0  0  0  0  0  0  0999 V2000
   38.1830   -2.0927    3.3261 N   0  0  0  0  0  0  0  0  0  0  0  0
   38.9301   -1.1852    4.2236 C   0  0  0  0  0  0  0  0  0  0  0  0
   39.8324   -1.9781    5.1937 C   0  0  0  0  0  0  0  0  0  0  0  0
   39.0722   -2.7947    6.2517 C   0  0  0  0  0  0  0  0  0  0  0  0
   38.1836   -3.8031    5.6115 N   0  0  0  0  0  0  0  0  0  0  0  0
   37.8021   -4.8492    6.5948 C   0  0  0  0  0  0  0  0  0  0  0  0
   36.4611   -5.6010    6.2971 C   0  0  0  0  0  0  0  0  0  0  0  0
   36.3982   -6.2529    4.8859 C   0  0  0  0  0  0  0  0  0  0  0  0
   36.4192   -5.2544    3.7451 C   0  0  0  0  0  0  0  0  0  0  0  0
   36.3805   -6.0044    2.5040 N   0  0  0  0  0  0  0  0  0  0  0  0
   35.8677   -5.0877    1.5008 C   0  0  0  0  0  0  0  0  0  0  0  0
   36.9955   -4.4610    0.6894 C   0  0  0  0  0  0  0  0  0  0  0  0
   37.7698   -5.6017    0.0116 C   0  0  0  0  0  0  0  0  0  0  0  0
   39.0555   -5.1491   -0.5406 N   0  0  0  0  0  0  0  0  0  0  0  0
  1  2  1  0  0  0  0
  2  3  1  0  0  0  0
  3  4  1  0  0  0  0
  4  5  1  0  0  0  0
  5  6  1  0  0  0  0
  6  7  1  0  0  0  0
  7  8  1  0  0  0  0
  8  9  1  0  0  0  0
  9 10  1  0  0  0  0
 10 11  1  0  0  0  0
 11 12  1  0  0  0  0
 12 13  1  0  0  0  0
 13 14  1  0  0  0  0
M  END
>  <CHROM.1>
-68.66117005,60.29181490,161.87657270,155.29223068,55.07049634,-65.14293629
178.97081412,157.60094613,97.89076486,59.32735508,-166.75661494,37.66780825
-4.29397362,3.59281326,-1.24133905,-0.93441382,-1.67485543

>  <Name>
ligand

>  <RI>
0

>  <Rbt.Current_Directory>
/home/itssahil/PROJECTS/Mol_Feturizer/New_Systems/rnas/1TN1

>  <Rbt.Executable>
rbdock ($Id: //depot/dev/client3/rdock/2013.1/src/exe/rbdock.cxx#4 $)

>  <Rbt.Library>
libRbt.so (2013.1, Build901 2013/11/27)

>  <Rbt.Parameter_File>
/export/apps/rDock/src/rDock_2013.1_src/data/scripts/dock_solv.prm

>  <Rbt.Receptor>
prm/blind_docking_40.prm

>  <SCORE>
6.82384

>  <SCORE.INTER>
5.53606

>  <SCORE.INTER.CONST>
1

>  <SCORE.INTER.POLAR>
0

>  <SCORE.INTER.ROT>
11

>  <SCORE.INTER.SOLV>
6.11158

>  <SCORE.INTER.VDW>
-9.27982

>  <SCORE.INTER.norm>
0.395433

>  <SCORE.INTRA>
0.312318

>  <SCORE.INTRA.DIHEDRAL>
-4.77601

>  <SCORE.INTRA.DIHEDRAL.0>
7.79482

>  <SCORE.INTRA.POLAR>
0

>  <SCORE.INTRA.POLAR.0>
0

>  <SCORE.INTRA.REPUL>
0

>  <SCORE.INTRA.REPUL.0>
0

>  <SCORE.INTRA.SOLV>
6.19331

>  <SCORE.INTRA.SOLV.lig_0>
-49.456

>  <SCORE.INTRA.VDW>
-0.39633

>  <SCORE.INTRA.VDW.0>
-0.478406

>  <SCORE.INTRA.norm>
0.0223084

>  <SCORE.RESTR>
0.975455

>  <SCORE.RESTR.CAVITY>
0.975455

>  <SCORE.RESTR.norm>
0.0696753

>  <SCORE.SYSTEM>
0

>  <SCORE.SYSTEM.CONST>
0

>  <SCORE.SYSTEM.DIHEDRAL>
0

>  <SCORE.SYSTEM.SOLV>
0

>  <SCORE.SYSTEM.norm>
0

>  <SCORE.heavy>
14

>  <SCORE.norm>
0.487417

>  <RMSD>
19.816

$$$$
ligand
 OpenBabel11021811413D
libRbt.so/2013.1/901 2013/11/27
 14 13  0  0  0  0  0  0  0  0999 V2000
   37.5714   -6.3376   -0.5729 N   0  0  0  0  0  0  0  0  0  0  0  0
   38.7549   -5.4658   -0.4101 C   0  0  0  0  0  0  0  0  0  0  0  0
   38.5097   -4.3875    0.6674 C   0  0  0  0  0  0  0  0  0  0  0  0
   37.3035   -3.4737    0.3954 C   0  0  0  0  0  0  0  0  0  0  0  0
   37.1242   -2.4844    1.4933 N   0  0  0  0  0  0  0  0  0  0  0  0
   36.5130   -3.1383    2.6789 C   0  0  0  0  0  0  0  0  0  0  0  0
   36.9115   -2.5321    4.0666 C   0  0  0  0  0  0  0  0  0  0  0  0
   38.4286   -2.2191    4.2108 C   0  0  0  0  0  0  0  0  0  0  0  0
   38.9742   -2.4474    5.6069 C   0  0  0  0  0  0  0  0  0  0  0  0
   38.9280   -3.8734    5.8689 N   0  0  0  0  0  0  0  0  0  0  0  0
   38.4994   -4.0106    7.2499 C   0  0  0  0  0  0  0  0  0  0  0  0
   37.8224   -5.3545    7.4928 C   0  0  0  0  0  0  0  0  0  0  0  0
   36.4578   -5.3215    6.7882 C   0  0  0  0  0  0  0  0  0  0  0  0
   36.5810   -5.4775    5.3311 N   0  0  0  0  0  0  0  0  0  0  0  0
  1  2  1  0  0  0  0
  2  3  1  0  0  0  0
  3  4  1  0  0  0  0
  4  5  1  0  0  0  0
  5  6  1  0  0  0  0
  6  7  1  0  0  0  0
  7  8  1  0  0  0  0
  8  9  1  0  0  0  0
  9 10  1  0  0  0  0
 10 11  1  0  0  0  0
 11 12  1  0  0  0  0
 12 13  1  0  0  0  0
 13 14  1  0  0  0  0
M  END
>  <CHROM.1>
-58.15155001,178.86539991,-76.52414297,149.72280458,-43.99519002,-145.02136153
67.37260068,-139.84160053,154.72970970,-71.14557050,75.83981441,37.74148703
-4.03717281,3.63360612,1.60930093,-1.44045317,-1.58230361

>  <Name>
ligand

>  <RI>
0

>  <Rbt.Current_Directory>
/home/itssahil/PROJECTS/Mol_Feturizer/New_Systems/rnas/1TN1

>  <Rbt.Executable>
rbdock ($Id: //depot/dev/client3/rdock/2013.1/src/exe/rbdock.cxx#4 $)

>  <Rbt.Library>
libRbt.so (2013.1, Build901 2013/11/27)

>  <Rbt.Parameter_File>
/export/apps/rDock/src/rDock_2013.1_src/data/scripts/dock_solv.prm

>  <Rbt.Receptor>
prm/blind_docking_40.prm

>  <SCORE>
9.15505

>  <SCORE.INTER>
6.22449

>  <SCORE.INTER.CONST>
1

>  <SCORE.INTER.POLAR>
0

>  <SCORE.INTER.ROT>
11

>  <SCORE.INTER.SOLV>
8.75921

>  <SCORE.INTER.VDW>
-9.70341

>  <SCORE.INTER.norm>
0.444607

>  <SCORE.INTRA>
2.92396

>  <SCORE.INTRA.DIHEDRAL>
0.718164

>  <SCORE.INTRA.DIHEDRAL.0>
7.79482

>  <SCORE.INTRA.POLAR>
0

>  <SCORE.INTRA.POLAR.0>
0

>  <SCORE.INTRA.REPUL>
0

>  <SCORE.INTRA.REPUL.0>
0

>  <SCORE.INTRA.SOLV>
6.84382

>  <SCORE.INTRA.SOLV.lig_0>
-49.456

>  <SCORE.INTRA.VDW>
-0.857037

>  <SCORE.INTRA.VDW.0>
-0.478406

>  <SCORE.INTRA.norm>
0.208854

>  <SCORE.RESTR>
0.00659481

>  <SCORE.RESTR.CAVITY>
0.00659481

>  <SCORE.RESTR.norm>
0.000471058

>  <SCORE.SYSTEM>
0

>  <SCORE.SYSTEM.CONST>
0

>  <SCORE.SYSTEM.DIHEDRAL>
0

>  <SCORE.SYSTEM.SOLV>
0

>  <SCORE.SYSTEM.norm>
0

>  <SCORE.heavy>
14

>  <SCORE.norm>
0.653932

>  <RMSD>
19.831

$$$$
ligand
 OpenBabel11021811413D
libRbt.so/2013.1/901 2013/11/27
 14 13  0  0  0  0  0  0  0  0999 V2000
   36.4015   -5.5578    3.1224 N   0  0  0  0  0  0  0  0  0  0  0  0
   37.7743   -6.0801    3.2947 C   0  0  0  0  0  0  0  0  0  0  0  0
   38.0214   -6.5301    4.7509 C   0  0  0  0  0  0  0  0  0  0  0  0
   38.0165   -5.3901    5.7825 C   0  0  0  0  0  0  0  0  0  0  0  0
   39.0985   -4.4077    5.4984 N   0  0  0  0  0  0  0  0  0  0  0  0
   38.8999   -3.1772    6.3067 C   0  0  0  0  0  0  0  0  0  0  0  0
   39.0338   -1.8261    5.5265 C   0  0  0  0  0  0  0  0  0  0  0  0
   38.0965   -1.7111    4.2901 C   0  0  0  0  0  0  0  0  0  0  0  0
   38.4962   -2.6015    3.1298 C   0  0  0  0  0  0  0  0  0  0  0  0
   37.5276   -2.4017    2.0686 N   0  0  0  0  0  0  0  0  0  0  0  0
   38.3016   -2.1614    0.8632 C   0  0  0  0  0  0  0  0  0  0  0  0
   37.8460   -3.0600   -0.2805 C   0  0  0  0  0  0  0  0  0  0  0  0
   38.1739   -4.5095    0.1083 C   0  0  0  0  0  0  0  0  0  0  0  0
   37.9346   -5.4490   -0.9975 N   0  0  0  0  0  0  0  0  0  0  0  0
  1  2  1  0  0  0  0
  2  3  1  0  0  0  0
  3  4  1  0  0  0  0
  4  5  1  0  0  0  0
  5  6  1  0  0  0  0
  6  7  1  0  0  0  0
  7  8  1  0  0  0  0
  8  9  1  0  0  0  0
  9 10  1  0  0  0  0
 10 11  1  0  0  0  0
 11 12  1  0  0  0  0
 12 13  1  0  0  0  0
 13 14  1  0  0  0  0
M  END
>  <CHROM.1>
-66.57560193,-61.47057781,167.66224230,-133.00592275,55.43287737,-71.22016175
179.17975576,130.51180553,129.31539575,-65.83887193,-172.62687294,38.11601171
-3.91858816,3.10484435,2.16091119,-1.36143557,-1.00444176

>  <Name>
ligand

>  <RI>
0

>  <Rbt.Current_Directory>
/home/itssahil/PROJECTS/Mol_Feturizer/New_Systems/rnas/1TN1

>  <Rbt.Executable>
rbdock ($Id: //depot/dev/client3/rdock/2013.1/src/exe/rbdock.cxx#4 $)

>  <Rbt.Library>
libRbt.so (2013.1, Build901 2013/11/27)

>  <Rbt.Parameter_File>
/export/apps/rDock/src/rDock_2013.1_src/data/scripts/dock_solv.prm

>  <Rbt.Receptor>
prm/blind_docking_40.prm

>  <SCORE>
8.34912

>  <SCORE.INTER>
7.55988

>  <SCORE.INTER.CONST>
1

>  <SCORE.INTER.POLAR>
0

>  <SCORE.INTER.ROT>
11

>  <SCORE.INTER.SOLV>
5.54486

>  <SCORE.INTER.VDW>
-7.7417

>  <SCORE.INTER.norm>
0.539991

>  <SCORE.INTRA>
-0.0168236

>  <SCORE.INTRA.DIHEDRAL>
-3.27092

>  <SCORE.INTRA.DIHEDRAL.0>
7.79482

>  <SCORE.INTRA.POLAR>
0

>  <SCORE.INTRA.POLAR.0>
0

>  <SCORE.INTRA.REPUL>
0

>  <SCORE.INTRA.REPUL.0>
0

>  <SCORE.INTRA.SOLV>
6.45546

>  <SCORE.INTRA.SOLV.lig_0>
-49.456

>  <SCORE.INTRA.VDW>
-1.6091

>  <SCORE.INTRA.VDW.0>
-0.478406

>  <SCORE.INTRA.norm>
-0.00120169

>  <SCORE.RESTR>
0.806064

>  <SCORE.RESTR.CAVITY>
0.806064

>  <SCORE.RESTR.norm>
0.057576

>  <SCORE.SYSTEM>
0

>  <SCORE.SYSTEM.CONST>
0

>  <SCORE.SYSTEM.DIHEDRAL>
0

>  <SCORE.SYSTEM.SOLV>
0

>  <SCORE.SYSTEM.norm>
0

>  <SCORE.heavy>
14

>  <SCORE.norm>
0.596366

>  <RMSD>
19.831

$$$$
ligand
 OpenBabel11021811413D
libRbt.so/2013.1/901 2013/11/27
 14 13  0  0  0  0  0  0  0  0999 V2000
   38.3537   -5.5895    7.3346 N   0  0  0  0  0  0  0  0  0  0  0  0
   37.8036   -5.3024    5.9922 C   0  0  0  0  0  0  0  0  0  0  0  0
   38.3651   -6.2808    4.9380 C   0  0  0  0  0  0  0  0  0  0  0  0
   37.8712   -6.0289    3.5039 C   0  0  0  0  0  0  0  0  0  0  0  0
   36.3901   -6.1538    3.4191 N   0  0  0  0  0  0  0  0  0  0  0  0
   35.9459   -6.0460    2.0057 C   0  0  0  0  0  0  0  0  0  0  0  0
   35.9798   -4.6051    1.3937 C   0  0  0  0  0  0  0  0  0  0  0  0
   37.0157   -4.4264    0.2468 C   0  0  0  0  0  0  0  0  0  0  0  0
   37.8663   -3.1777    0.3747 C   0  0  0  0  0  0  0  0  0  0  0  0
   38.8050   -3.3947    1.4591 N   0  0  0  0  0  0  0  0  0  0  0  0
   38.5903   -2.3052    2.3954 C   0  0  0  0  0  0  0  0  0  0  0  0
   38.9994   -2.6971    3.8104 C   0  0  0  0  0  0  0  0  0  0  0  0
   38.6128   -1.5395    4.7434 C   0  0  0  0  0  0  0  0  0  0  0  0
   38.8162   -1.8764    6.1604 N   0  0  0  0  0  0  0  0  0  0  0  0
  1  2  1  0  0  0  0
  2  3  1  0  0  0  0
  3  4  1  0  0  0  0
  4  5  1  0  0  0  0
  5  6  1  0  0  0  0
  6  7  1  0  0  0  0
  7  8  1  0  0  0  0
  8  9  1  0  0  0  0
  9 10  1  0  0  0  0
 10 11  1  0  0  0  0
 11 12  1  0  0  0  0
 12 13  1  0  0  0  0
 13 14  1  0  0  0  0
M  END
>  <CHROM.1>
-178.49269640,-60.40211341,-174.19758768,-74.51985118,113.95054964,-133.21771643
72.60732610,-123.51825147,154.21660772,-174.67319538,173.16165312,37.81525694
-4.24451951,3.41217828,1.00998793,1.09848911,2.08684812

>  <Name>
ligand

>  <RI>
0

>  <Rbt.Current_Directory>
/home/itssahil/PROJECTS/Mol_Feturizer/New_Systems/rnas/1TN1

>  <Rbt.Executable>
rbdock ($Id: //depot/dev/client3/rdock/2013.1/src/exe/rbdock.cxx#4 $)

>  <Rbt.Library>
libRbt.so (2013.1, Build901 2013/11/27)

>  <Rbt.Parameter_File>
/export/apps/rDock/src/rDock_2013.1_src/data/scripts/dock_solv.prm

>  <Rbt.Receptor>
prm/blind_docking_40.prm

>  <SCORE>
12.8059

>  <SCORE.INTER>
9.64464

>  <SCORE.INTER.CONST>
1

>  <SCORE.INTER.POLAR>
0

>  <SCORE.INTER.ROT>
11

>  <SCORE.INTER.SOLV>
8.72164

>  <SCORE.INTER.VDW>
-7.41079

>  <SCORE.INTER.norm>
0.688903

>  <SCORE.INTRA>
2.61389

>  <SCORE.INTRA.DIHEDRAL>
5.7257

>  <SCORE.INTRA.DIHEDRAL.0>
7.79482

>  <SCORE.INTRA.POLAR>
0

>  <SCORE.INTRA.POLAR.0>
0

>  <SCORE.INTRA.REPUL>
0

>  <SCORE.INTRA.REPUL.0>
0

>  <SCORE.INTRA.SOLV>
3.52693

>  <SCORE.INTRA.SOLV.lig_0>
-49.456

>  <SCORE.INTRA.VDW>
-2.01243

>  <SCORE.INTRA.VDW.0>
-0.478406

>  <SCORE.INTRA.norm>
0.186706

>  <SCORE.RESTR>
0.54734

>  <SCORE.RESTR.CAVITY>
0.54734

>  <SCORE.RESTR.norm>
0.0390957

>  <SCORE.SYSTEM>
0

>  <SCORE.SYSTEM.CONST>
0

>  <SCORE.SYSTEM.DIHEDRAL>
0

>  <SCORE.SYSTEM.SOLV>
0

>  <SCORE.SYSTEM.norm>
0

>  <SCORE.heavy>
14

>  <SCORE.norm>
0.914705

>  <RMSD>
19.838

$$$$
ligand
 OpenBabel11021811413D
libRbt.so/2013.1/901 2013/11/27
 14 13  0  0  0  0  0  0  0  0999 V2000
   36.1814   -5.2023    5.0981 N   0  0  0  0  0  0  0  0  0  0  0  0
   36.9978   -6.0341    6.0084 C   0  0  0  0  0  0  0  0  0  0  0  0
   37.5085   -5.2099    7.2101 C   0  0  0  0  0  0  0  0  0  0  0  0
   38.5792   -4.1636    6.8596 C   0  0  0  0  0  0  0  0  0  0  0  0
   38.1329   -3.2991    5.7328 N   0  0  0  0  0  0  0  0  0  0  0  0
   39.0881   -2.1785    5.5359 C   0  0  0  0  0  0  0  0  0  0  0  0
   38.8085   -1.2605    4.2985 C   0  0  0  0  0  0  0  0  0  0  0  0
   38.6465   -2.0334    2.9580 C   0  0  0  0  0  0  0  0  0  0  0  0
   37.4176   -2.9198    2.9032 C   0  0  0  0  0  0  0  0  0  0  0  0
   37.3768   -3.5337    1.5896 N   0  0  0  0  0  0  0  0  0  0  0  0
   36.7313   -4.8220    1.7721 C   0  0  0  0  0  0  0  0  0  0  0  0
   36.5210   -5.5340    0.4410 C   0  0  0  0  0  0  0  0  0  0  0  0
   37.9055   -5.9075   -0.1101 C   0  0  0  0  0  0  0  0  0  0  0  0
   38.6899   -4.7232   -0.4907 N   0  0  0  0  0  0  0  0  0  0  0  0
  1  2  1  0  0  0  0
  2  3  1  0  0  0  0
  3  4  1  0  0  0  0
  4  5  1  0  0  0  0
  5  6  1  0  0  0  0
  6  7  1  0  0  0  0
  7  8  1  0  0  0  0
  8  9  1  0  0  0  0
  9 10  1  0  0  0  0
 10 11  1  0  0  0  0
 11 12  1  0  0  0  0
 12 13  1  0  0  0  0
 13 14  1  0  0  0  0
M  END
>  <CHROM.1>
-70.07005977,51.56156052,171.96357737,174.78154624,-52.25592736,66.31074302
178.07955845,149.68138068,175.45308628,67.41413436,-67.48178477,37.75613483
-4.05863825,3.55784366,1.41374155,1.12047982,1.55439239

>  <Name>
ligand

>  <RI>
0

>  <Rbt.Current_Directory>
/home/itssahil/PROJECTS/Mol_Feturizer/New_Systems/rnas/1TN1

>  <Rbt.Executable>
rbdock ($Id: //depot/dev/client3/rdock/2013.1/src/exe/rbdock.cxx#4 $)

>  <Rbt.Library>
libRbt.so (2013.1, Build901 2013/11/27)

>  <Rbt.Parameter_File>
/export/apps/rDock/src/rDock_2013.1_src/data/scripts/dock_solv.prm

>  <Rbt.Receptor>
prm/blind_docking_40.prm

>  <SCORE>
6.33569

>  <SCORE.INTER>
5.07495

>  <SCORE.INTER.CONST>
1

>  <SCORE.INTER.POLAR>
0

>  <SCORE.INTER.ROT>
11

>  <SCORE.INTER.SOLV>
4.92909

>  <SCORE.INTER.VDW>
-9.19306

>  <SCORE.INTER.norm>
0.362497

>  <SCORE.INTRA>
1.1872

>  <SCORE.INTRA.DIHEDRAL>
-5.63566

>  <SCORE.INTRA.DIHEDRAL.0>
7.79482

>  <SCORE.INTRA.POLAR>
0

>  <SCORE.INTRA.POLAR.0>
0

>  <SCORE.INTRA.REPUL>
0

>  <SCORE.INTRA.REPUL.0>
0

>  <SCORE.INTRA.SOLV>
9.58235

>  <SCORE.INTRA.SOLV.lig_0>
-49.456

>  <SCORE.INTRA.VDW>
-0.786144

>  <SCORE.INTRA.VDW.0>
-0.478406

>  <SCORE.INTRA.norm>
0.0848001

>  <SCORE.RESTR>
0.0735377

>  <SCORE.RESTR.CAVITY>
0.0735377

>  <SCORE.RESTR.norm>
0.00525269

>  <SCORE.SYSTEM>
0

>  <SCORE.SYSTEM.CONST>
0

>  <SCORE.SYSTEM.DIHEDRAL>
0

>  <SCORE.SYSTEM.SOLV>
0

>  <SCORE.SYSTEM.norm>
0

>  <SCORE.heavy>
14

>  <SCORE.norm>
0.452549

>  <RMSD>
19.838

$$$$
ligand
 OpenBabel11021811413D
libRbt.so/2013.1/901 2013/11/27
 14 13  0  0  0  0  0  0  0  0999 V2000
   35.8875   -4.9929    6.9606 N   0  0  0  0  0  0  0  0  0  0  0  0
   37.1876   -5.5161    7.4332 C   0  0  0  0  0  0  0  0  0  0  0  0
   38.3135   -5.2088    6.4224 C   0  0  0  0  0  0  0  0  0  0  0  0
   38.5921   -3.7116    6.2106 C   0  0  0  0  0  0  0  0  0  0  0  0
   39.5092   -3.4966    5.0577 N   0  0  0  0  0  0  0  0  0  0  0  0
   39.1684   -2.2301    4.3600 C   0  0  0  0  0  0  0  0  0  0  0  0
   38.3193   -2.3846    3.0534 C   0  0  0  0  0  0  0  0  0  0  0  0
   36.8045   -2.6338    3.3061 C   0  0  0  0  0  0  0  0  0  0  0  0
   36.4935   -4.0009    3.8833 C   0  0  0  0  0  0  0  0  0  0  0  0
   37.1122   -4.9920    3.0233 N   0  0  0  0  0  0  0  0  0  0  0  0
   36.1944   -5.1850    1.9142 C   0  0  0  0  0  0  0  0  0  0  0  0
   36.8634   -5.9193    0.7581 C   0  0  0  0  0  0  0  0  0  0  0  0
   38.1074   -5.1137    0.3537 C   0  0  0  0  0  0  0  0  0  0  0  0
   38.9562   -5.8439   -0.5998 N   0  0  0  0  0  0  0  0  0  0  0  0
  1  2  1  0  0  0  0
  2  3  1  0  0  0  0
  3  4  1  0  0  0  0
  4  5  1  0  0  0  0
  5  6  1  0  0  0  0
  6  7  1  0  0  0  0
  7  8  1  0  0  0  0
  8  9  1  0  0  0  0
  9 10  1  0  0  0  0
 10 11  1  0  0  0  0
 11 12  1  0  0  0  0
 12 13  1  0  0  0  0
 13 14  1  0  0  0  0
M  END
>  <CHROM.1>
63.39868643,-169.90033729,146.36603590,-100.10913760,78.37033255,-70.16149853
-52.92561697,-82.21092540,165.27551856,-56.39103531,170.33510192,37.67915982
-4.37333637,3.72408850,1.59480571,0.87199120,1.41183757

>  <Name>
ligand

>  <RI>
0

>  <Rbt.Current_Directory>
/home/itssahil/PROJECTS/Mol_Feturizer/New_Systems/rnas/1TN1

>  <Rbt.Executable>
rbdock ($Id: //depot/dev/client3/rdock/2013.1/src/exe/rbdock.cxx#4 $)

>  <Rbt.Library>
libRbt.so (2013.1, Build901 2013/11/27)

>  <Rbt.Parameter_File>
/export/apps/rDock/src/rDock_2013.1_src/data/scripts/dock_solv.prm

>  <Rbt.Receptor>
prm/blind_docking_40.prm

>  <SCORE>
10.055

>  <SCORE.INTER>
8.3843

>  <SCORE.INTER.CONST>
1

>  <SCORE.INTER.POLAR>
0

>  <SCORE.INTER.ROT>
11

>  <SCORE.INTER.SOLV>
8.96606

>  <SCORE.INTER.VDW>
-8.33249

>  <SCORE.INTER.norm>
0.598878

>  <SCORE.INTRA>
1.545

>  <SCORE.INTRA.DIHEDRAL>
-3.03955

>  <SCORE.INTRA.DIHEDRAL.0>
7.79482

>  <SCORE.INTRA.POLAR>
0

>  <SCORE.INTRA.POLAR.0>
0

>  <SCORE.INTRA.REPUL>
0

>  <SCORE.INTRA.REPUL.0>
0

>  <SCORE.INTRA.SOLV>
5.41768

>  <SCORE.INTRA.SOLV.lig_0>
-49.456

>  <SCORE.INTRA.VDW>
0.355933

>  <SCORE.INTRA.VDW.0>
-0.478406

>  <SCORE.INTRA.norm>
0.110357

>  <SCORE.RESTR>
0.125676

>  <SCORE.RESTR.CAVITY>
0.125676

>  <SCORE.RESTR.norm>
0.00897684

>  <SCORE.SYSTEM>
0

>  <SCORE.SYSTEM.CONST>
0

>  <SCORE.SYSTEM.DIHEDRAL>
0

>  <SCORE.SYSTEM.SOLV>
0

>  <SCORE.SYSTEM.norm>
0

>  <SCORE.heavy>
14

>  <SCORE.norm>
0.718212

>  <RMSD>
19.840

$$$$
ligand
 OpenBabel11021811413D
libRbt.so/2013.1/901 2013/11/27
 14 13  0  0  0  0  0  0  0  0999 V2000
   37.5126   -5.9068    5.3299 N   0  0  0  0  0  0  0  0  0  0  0  0
   37.0423   -5.5944    6.6967 C   0  0  0  0  0  0  0  0  0  0  0  0
   38.1952   -5.0634    7.5758 C   0  0  0  0  0  0  0  0  0  0  0  0
   38.5956   -3.6059    7.2942 C   0  0  0  0  0  0  0  0  0  0  0  0
   39.1110   -3.4520    5.9060 N   0  0  0  0  0  0  0  0  0  0  0  0
   38.7651   -2.1080    5.3760 C   0  0  0  0  0  0  0  0  0  0  0  0
   38.0225   -2.0949    3.9974 C   0  0  0  0  0  0  0  0  0  0  0  0
   36.6851   -2.8895    3.9888 C   0  0  0  0  0  0  0  0  0  0  0  0
   36.0215   -2.9630    2.6275 C   0  0  0  0  0  0  0  0  0  0  0  0
   36.9113   -3.6920    1.7437 N   0  0  0  0  0  0  0  0  0  0  0  0
   36.0787   -4.6591    1.0499 C   0  0  0  0  0  0  0  0  0  0  0  0
   36.8552   -5.9285    0.7200 C   0  0  0  0  0  0  0  0  0  0  0  0
   37.8666   -5.5813   -0.3829 C   0  0  0  0  0  0  0  0  0  0  0  0
   38.9139   -4.6647    0.0923 N   0  0  0  0  0  0  0  0  0  0  0  0
  1  2  1  0  0  0  0
  2  3  1  0  0  0  0
  3  4  1  0  0  0  0
  4  5  1  0  0  0  0
  5  6  1  0  0  0  0
  6  7  1  0  0  0  0
  7  8  1  0  0  0  0
  8  9  1  0  0  0  0
  9 10  1  0  0  0  0
 10 11  1  0  0  0  0
 11 12  1  0  0  0  0
 12 13  1  0  0  0  0
 13 14  1  0  0  0  0
M  END
>  <CHROM.1>
76.19693288,-62.93053595,147.45336923,-126.91498569,57.98982822,-175.62249229
63.38347467,133.33535200,-148.43818996,-70.53213748,67.30146769,37.61241249
-4.15728179,3.71554120,0.68179725,1.38021241,2.32428848

>  <Name>
ligand

>  <RI>
0

>  <Rbt.Current_Directory>
/home/itssahil/PROJECTS/Mol_Feturizer/New_Systems/rnas/1TN1

>  <Rbt.Executable>
rbdock ($Id: //depot/dev/client3/rdock/2013.1/src/exe/rbdock.cxx#4 $)

>  <Rbt.Library>
libRbt.so (2013.1, Build901 2013/11/27)

>  <Rbt.Parameter_File>
/export/apps/rDock/src/rDock_2013.1_src/data/scripts/dock_solv.prm

>  <Rbt.Receptor>
prm/blind_docking_40.prm

>  <SCORE>
6.38782

>  <SCORE.INTER>
4.86244

>  <SCORE.INTER.CONST>
1

>  <SCORE.INTER.POLAR>
0

>  <SCORE.INTER.ROT>
11

>  <SCORE.INTER.SOLV>
4.68177

>  <SCORE.INTER.VDW>
-9.25229

>  <SCORE.INTER.norm>
0.347317

>  <SCORE.INTRA>
1.51437

>  <SCORE.INTRA.DIHEDRAL>
-2.53159

>  <SCORE.INTRA.DIHEDRAL.0>
7.79482

>  <SCORE.INTRA.POLAR>
0

>  <SCORE.INTRA.POLAR.0>
0

>  <SCORE.INTRA.REPUL>
0

>  <SCORE.INTRA.REPUL.0>
0

>  <SCORE.INTRA.SOLV>
8.25032

>  <SCORE.INTRA.SOLV.lig_0>
-49.456

>  <SCORE.INTRA.VDW>
-1.34499

>  <SCORE.INTRA.VDW.0>
-0.478406

>  <SCORE.INTRA.norm>
0.10817

>  <SCORE.RESTR>
0.0109997

>  <SCORE.RESTR.CAVITY>
0.0109997

>  <SCORE.RESTR.norm>
0.000785692

>  <SCORE.SYSTEM>
0

>  <SCORE.SYSTEM.CONST>
0

>  <SCORE.SYSTEM.DIHEDRAL>
0

>  <SCORE.SYSTEM.SOLV>
0

>  <SCORE.SYSTEM.norm>
0

>  <SCORE.heavy>
14

>  <SCORE.norm>
0.456273

>  <RMSD>
19.871

$$$$
ligand
 OpenBabel11021811413D
libRbt.so/2013.1/901 2013/11/27
 14 13  0  0  0  0  0  0  0  0999 V2000
   36.5476   -7.0430    4.5681 N   0  0  0  0  0  0  0  0  0  0  0  0
   37.4840   -5.8991    4.6113 C   0  0  0  0  0  0  0  0  0  0  0  0
   37.8229   -5.5101    6.0666 C   0  0  0  0  0  0  0  0  0  0  0  0
   38.6498   -4.2217    6.2085 C   0  0  0  0  0  0  0  0  0  0  0  0
   38.0016   -3.0890    5.4921 N   0  0  0  0  0  0  0  0  0  0  0  0
   38.8501   -1.8728    5.5803 C   0  0  0  0  0  0  0  0  0  0  0  0
   38.9848   -1.0444    4.2583 C   0  0  0  0  0  0  0  0  0  0  0  0
   39.5552   -1.8527    3.0575 C   0  0  0  0  0  0  0  0  0  0  0  0
   38.6270   -1.9138    1.8602 C   0  0  0  0  0  0  0  0  0  0  0  0
   37.4676   -2.6973    2.2425 N   0  0  0  0  0  0  0  0  0  0  0  0
   37.5630   -3.9396    1.4961 C   0  0  0  0  0  0  0  0  0  0  0  0
   36.2626   -4.7319    1.5633 C   0  0  0  0  0  0  0  0  0  0  0  0
   36.5287   -6.1148    0.9496 C   0  0  0  0  0  0  0  0  0  0  0  0
   36.9236   -6.0284   -0.4644 N   0  0  0  0  0  0  0  0  0  0  0  0
  1  2  1  0  0  0  0
  2  3  1  0  0  0  0
  3  4  1  0  0  0  0
  4  5  1  0  0  0  0
  5  6  1  0  0  0  0
  6  7  1  0  0  0  0
  7  8  1  0  0  0  0
  8  9  1  0  0  0  0
  9 10  1  0  0  0  0
 10 11  1  0  0  0  0
 11 12  1  0  0  0  0
 12 13  1  0  0  0  0
 13 14  1  0  0  0  0
M  END
>  <CHROM.1>
-172.71390190,53.33215306,-177.01878438,137.30556335,-57.84858594,120.78694288
-67.10723312,-110.23757354,-167.54941595,-170.94079412,-61.85206354,37.80511437
-3.99673277,3.39233679,2.65708635,-1.14503966,-1.19166065

>  <Name>
ligand

>  <RI>
0

>  <Rbt.Current_Directory>
/home/itssahil/PROJECTS/Mol_Feturizer/New_Systems/rnas/1TN1

>  <Rbt.Executable>
rbdock ($Id: //depot/dev/client3/rdock/2013.1/src/exe/rbdock.cxx#4 $)

>  <Rbt.Library>
libRbt.so (2013.1, Build901 2013/11/27)

>  <Rbt.Parameter_File>
/export/apps/rDock/src/rDock_2013.1_src/data/scripts/dock_solv.prm

>  <Rbt.Receptor>
prm/blind_docking_40.prm

>  <SCORE>
10.3637

>  <SCORE.INTER>
8.04555

>  <SCORE.INTER.CONST>
1

>  <SCORE.INTER.POLAR>
0

>  <SCORE.INTER.ROT>
11

>  <SCORE.INTER.SOLV>
8.05508

>  <SCORE.INTER.VDW>
-8.25466

>  <SCORE.INTER.norm>
0.574682

>  <SCORE.INTRA>
1.65835

>  <SCORE.INTRA.DIHEDRAL>
1.43534

>  <SCORE.INTRA.DIHEDRAL.0>
7.79482

>  <SCORE.INTRA.POLAR>
0

>  <SCORE.INTRA.POLAR.0>
0

>  <SCORE.INTRA.REPUL>
0

>  <SCORE.INTRA.REPUL.0>
0

>  <SCORE.INTRA.SOLV>
5.22636

>  <SCORE.INTRA.SOLV.lig_0>
-49.456

>  <SCORE.INTRA.VDW>
-1.6725

>  <SCORE.INTRA.VDW.0>
-0.478406

>  <SCORE.INTRA.norm>
0.118453

>  <SCORE.RESTR>
0.659761

>  <SCORE.RESTR.CAVITY>
0.659761

>  <SCORE.RESTR.norm>
0.0471258

>  <SCORE.SYSTEM>
0

>  <SCORE.SYSTEM.CONST>
0

>  <SCORE.SYSTEM.DIHEDRAL>
0

>  <SCORE.SYSTEM.SOLV>
0

>  <SCORE.SYSTEM.norm>
0

>  <SCORE.heavy>
14

>  <SCORE.norm>
0.740261

>  <RMSD>
19.882

$$$$
ligand
 OpenBabel11021811413D
libRbt.so/2013.1/901 2013/11/27
 14 13  0  0  0  0  0  0  0  0999 V2000
   39.0793   -4.5810   -0.0154 N   0  0  0  0  0  0  0  0  0  0  0  0
   38.1941   -5.2978    0.9278 C   0  0  0  0  0  0  0  0  0  0  0  0
   36.7174   -4.8968    0.7215 C   0  0  0  0  0  0  0  0  0  0  0  0
   36.3786   -3.4597    1.1502 C   0  0  0  0  0  0  0  0  0  0  0  0
   35.6177   -3.4490    2.4297 N   0  0  0  0  0  0  0  0  0  0  0  0
   36.5534   -3.4367    3.5834 C   0  0  0  0  0  0  0  0  0  0  0  0
   37.0006   -2.0194    4.0769 C   0  0  0  0  0  0  0  0  0  0  0  0
   38.5368   -1.8705    4.2725 C   0  0  0  0  0  0  0  0  0  0  0  0
   39.0584   -2.4988    5.5500 C   0  0  0  0  0  0  0  0  0  0  0  0
   39.1264   -3.9324    5.3387 N   0  0  0  0  0  0  0  0  0  0  0  0
   38.5625   -4.5378    6.5324 C   0  0  0  0  0  0  0  0  0  0  0  0
   37.3562   -5.4082    6.1997 C   0  0  0  0  0  0  0  0  0  0  0  0
   37.7615   -6.3446    5.0513 C   0  0  0  0  0  0  0  0  0  0  0  0
   36.6152   -7.0930    4.5139 N   0  0  0  0  0  0  0  0  0  0  0  0
  1  2  1  0  0  0  0
  2  3  1  0  0  0  0
  3  4  1  0  0  0  0
  4  5  1  0  0  0  0
  5  6  1  0  0  0  0
  6  7  1  0  0  0  0
  7  8  1  0  0  0  0
  8  9  1  0  0  0  0
  9 10  1  0  0  0  0
 10 11  1  0  0  0  0
 11 12  1  0  0  0  0
 12 13  1  0  0  0  0
 13 14  1  0  0  0  0
M  END
>  <CHROM.1>
-69.73063273,-105.47604033,87.47927277,88.78067438,-131.36202976,-77.75056329
77.42910442,-135.04980399,120.83448424,49.72632044,-171.53305672,37.61129214
-4.20161516,3.59539114,2.46027344,-1.33730697,-0.71236081

>  <Name>
ligand

>  <RI>
0

>  <Rbt.Current_Directory>
/home/itssahil/PROJECTS/Mol_Feturizer/New_Systems/rnas/1TN1

>  <Rbt.Executable>
rbdock ($Id: //depot/dev/client3/rdock/2013.1/src/exe/rbdock.cxx#4 $)

>  <Rbt.Library>
libRbt.so (2013.1, Build901 2013/11/27)

>  <Rbt.Parameter_File>
/export/apps/rDock/src/rDock_2013.1_src/data/scripts/dock_solv.prm

>  <Rbt.Receptor>
prm/blind_docking_40.prm

>  <SCORE>
13.8596

>  <SCORE.INTER>
8.50182

>  <SCORE.INTER.CONST>
1

>  <SCORE.INTER.POLAR>
0

>  <SCORE.INTER.ROT>
11

>  <SCORE.INTER.SOLV>
4.71959

>  <SCORE.INTER.VDW>
-6.83865

>  <SCORE.INTER.norm>
0.607273

>  <SCORE.INTRA>
5.27182

>  <SCORE.INTRA.DIHEDRAL>
8.62404

>  <SCORE.INTRA.DIHEDRAL.0>
7.79482

>  <SCORE.INTRA.POLAR>
0

>  <SCORE.INTRA.POLAR.0>
0

>  <SCORE.INTRA.REPUL>
0

>  <SCORE.INTRA.REPUL.0>
0

>  <SCORE.INTRA.SOLV>
3.87318

>  <SCORE.INTRA.SOLV.lig_0>
-49.456

>  <SCORE.INTRA.VDW>
-0.976795

>  <SCORE.INTRA.VDW.0>
-0.478406

>  <SCORE.INTRA.norm>
0.376558

>  <SCORE.RESTR>
0.0859235

>  <SCORE.RESTR.CAVITY>
0.0859235

>  <SCORE.RESTR.norm>
0.00613739

>  <SCORE.SYSTEM>
0

>  <SCORE.SYSTEM.CONST>
0

>  <SCORE.SYSTEM.DIHEDRAL>
0

>  <SCORE.SYSTEM.SOLV>
0

>  <SCORE.SYSTEM.norm>
0

>  <SCORE.heavy>
14

>  <SCORE.norm>
0.989968

>  <RMSD>
19.910

$$$$
ligand
 OpenBabel11021811413D
libRbt.so/2013.1/901 2013/11/27
 14 13  0  0  0  0  0  0  0  0999 V2000
   37.6708   -7.0071    5.0962 N   0  0  0  0  0  0  0  0  0  0  0  0
   36.8653   -5.7853    4.8830 C   0  0  0  0  0  0  0  0  0  0  0  0
   36.8592   -4.8939    6.1437 C   0  0  0  0  0  0  0  0  0  0  0  0
   38.2545   -4.5004    6.6558 C   0  0  0  0  0  0  0  0  0  0  0  0
   39.0986   -3.9676    5.5511 N   0  0  0  0  0  0  0  0  0  0  0  0
   39.0555   -2.4828    5.5424 C   0  0  0  0  0  0  0  0  0  0  0  0
   38.1220   -1.8393    4.4623 C   0  0  0  0  0  0  0  0  0  0  0  0
   37.7195   -2.8072    3.3127 C   0  0  0  0  0  0  0  0  0  0  0  0
   38.8957   -3.3487    2.5239 C   0  0  0  0  0  0  0  0  0  0  0  0
   38.4583   -4.5623    1.8603 N   0  0  0  0  0  0  0  0  0  0  0  0
   38.1452   -4.1786    0.4949 C   0  0  0  0  0  0  0  0  0  0  0  0
   36.8986   -4.8935   -0.0133 C   0  0  0  0  0  0  0  0  0  0  0  0
   35.7144   -4.4333    0.8501 C   0  0  0  0  0  0  0  0  0  0  0  0
   35.7149   -5.0672    2.1771 N   0  0  0  0  0  0  0  0  0  0  0  0
  1  2  1  0  0  0  0
  2  3  1  0  0  0  0
  3  4  1  0  0  0  0
  4  5  1  0  0  0  0
  5  6  1  0  0  0  0
  6  7  1  0  0  0  0
  7  8  1  0  0  0  0
  8  9  1  0  0  0  0
  9 10  1  0  0  0  0
 10 11  1  0  0  0  0
 11 12  1  0  0  0  0
 12 13  1  0  0  0  0
 13 14  1  0  0  0  0
M  END
>  <CHROM.1>
55.41228994,49.53171172,96.78510462,-101.69483812,-17.20272884,-60.08297104
159.07280112,99.06909907,-140.55821646,63.64956997,-76.01793963,37.67658345
-4.26873318,3.53851885,1.13202117,1.00706317,1.88950623

>  <Name>
ligand

>  <RI>
0

>  <Rbt.Current_Directory>
/home/itssahil/PROJECTS/Mol_Feturizer/New_Systems/rnas/1TN1

>  <Rbt.Executable>
rbdock ($Id: //depot/dev/client3/rdock/2013.1/src/exe/rbdock.cxx#4 $)

>  <Rbt.Library>
libRbt.so (2013.1, Build901 2013/11/27)

>  <Rbt.Parameter_File>
/export/apps/rDock/src/rDock_2013.1_src/data/scripts/dock_solv.prm

>  <Rbt.Receptor>
prm/blind_docking_40.prm

>  <SCORE>
13.4849

>  <SCORE.INTER>
7.05865

>  <SCORE.INTER.CONST>
1

>  <SCORE.INTER.POLAR>
0

>  <SCORE.INTER.ROT>
11

>  <SCORE.INTER.SOLV>
2.8137

>  <SCORE.INTER.VDW>
-7.16547

>  <SCORE.INTER.norm>
0.504189

>  <SCORE.INTRA>
6.34275

>  <SCORE.INTRA.DIHEDRAL>
3.13841

>  <SCORE.INTRA.DIHEDRAL.0>
7.79482

>  <SCORE.INTRA.POLAR>
0

>  <SCORE.INTRA.POLAR.0>
0

>  <SCORE.INTRA.REPUL>
0

>  <SCORE.INTRA.REPUL.0>
0

>  <SCORE.INTRA.SOLV>
10.4766

>  <SCORE.INTRA.SOLV.lig_0>
-49.456

>  <SCORE.INTRA.VDW>
-0.464777

>  <SCORE.INTRA.VDW.0>
-0.478406

>  <SCORE.INTRA.norm>
0.453053

>  <SCORE.RESTR>
0.0834518

>  <SCORE.RESTR.CAVITY>
0.0834518

>  <SCORE.RESTR.norm>
0.00596084

>  <SCORE.SYSTEM>
0

>  <SCORE.SYSTEM.CONST>
0

>  <SCORE.SYSTEM.DIHEDRAL>
0

>  <SCORE.SYSTEM.SOLV>
0

>  <SCORE.SYSTEM.norm>
0

>  <SCORE.heavy>
14

>  <SCORE.norm>
0.963204

>  <RMSD>
19.912

$$$$
ligand
 OpenBabel11021811413D
libRbt.so/2013.1/901 2013/11/27
 14 13  0  0  0  0  0  0  0  0999 V2000
   35.5017   -4.5901    4.5429 N   0  0  0  0  0  0  0  0  0  0  0  0
   36.4239   -5.7461    4.5641 C   0  0  0  0  0  0  0  0  0  0  0  0
   36.9522   -6.0124    5.9902 C   0  0  0  0  0  0  0  0  0  0  0  0
   37.6994   -4.8292    6.6271 C   0  0  0  0  0  0  0  0  0  0  0  0
   38.7641   -4.3190    5.7202 N   0  0  0  0  0  0  0  0  0  0  0  0
   39.1834   -2.9560    6.1364 C   0  0  0  0  0  0  0  0  0  0  0  0
   38.7113   -1.7889    5.2051 C   0  0  0  0  0  0  0  0  0  0  0  0
   39.0890   -1.9787    3.7079 C   0  0  0  0  0  0  0  0  0  0  0  0
   38.3042   -3.0716    3.0089 C   0  0  0  0  0  0  0  0  0  0  0  0
   39.0015   -3.3951    1.7787 N   0  0  0  0  0  0  0  0  0  0  0  0
   38.0571   -3.1361    0.7059 C   0  0  0  0  0  0  0  0  0  0  0  0
   37.8402   -4.3736   -0.1571 C   0  0  0  0  0  0  0  0  0  0  0  0
   37.2016   -5.4528    0.7303 C   0  0  0  0  0  0  0  0  0  0  0  0
   36.9769   -6.7101    0.0011 N   0  0  0  0  0  0  0  0  0  0  0  0
  1  2  1  0  0  0  0
  2  3  1  0  0  0  0
  3  4  1  0  0  0  0
  4  5  1  0  0  0  0
  5  6  1  0  0  0  0
  6  7  1  0  0  0  0
  7  8  1  0  0  0  0
  8  9  1  0  0  0  0
  9 10  1  0  0  0  0
 10 11  1  0  0  0  0
 11 12  1  0  0  0  0
 12 13  1  0  0  0  0
 13 14  1  0  0  0  0
M  END
>  <CHROM.1>
-58.50276825,-51.66027113,162.48742233,-107.38058479,-53.51703380,70.91912686
-163.96955005,-120.51977745,-123.38853245,63.75205223,-178.61455916,37.83628417
-4.16831289,3.46887908,1.41818808,0.98024129,1.52888003

>  <Name>
ligand

>  <RI>
0

>  <Rbt.Current_Directory>
/home/itssahil/PROJECTS/Mol_Feturizer/New_Systems/rnas/1TN1

>  <Rbt.Executable>
rbdock ($Id: //depot/dev/client3/rdock/2013.1/src/exe/rbdock.cxx#4 $)

>  <Rbt.Library>
libRbt.so (2013.1, Build901 2013/11/27)

>  <Rbt.Parameter_File>
/export/apps/rDock/src/rDock_2013.1_src/data/scripts/dock_solv.prm

>  <Rbt.Receptor>
prm/blind_docking_40.prm

>  <SCORE>
8.69666

>  <SCORE.INTER>
7.65371

>  <SCORE.INTER.CONST>
1

>  <SCORE.INTER.POLAR>
0

>  <SCORE.INTER.ROT>
11

>  <SCORE.INTER.SOLV>
7.77597

>  <SCORE.INTER.VDW>
-8.42285

>  <SCORE.INTER.norm>
0.546694

>  <SCORE.INTRA>
0.662773

>  <SCORE.INTRA.DIHEDRAL>
-2.20728

>  <SCORE.INTRA.DIHEDRAL.0>
7.79482

>  <SCORE.INTRA.POLAR>
0

>  <SCORE.INTRA.POLAR.0>
0

>  <SCORE.INTRA.REPUL>
0

>  <SCORE.INTRA.REPUL.0>
0

>  <SCORE.INTRA.SOLV>
5.55233

>  <SCORE.INTRA.SOLV.lig_0>
-49.456

>  <SCORE.INTRA.VDW>
-1.00975

>  <SCORE.INTRA.VDW.0>
-0.478406

>  <SCORE.INTRA.norm>
0.047341

>  <SCORE.RESTR>
0.380172

>  <SCORE.RESTR.CAVITY>
0.380172

>  <SCORE.RESTR.norm>
0.0271551

>  <SCORE.SYSTEM>
0

>  <SCORE.SYSTEM.CONST>
0

>  <SCORE.SYSTEM.DIHEDRAL>
0

>  <SCORE.SYSTEM.SOLV>
0

>  <SCORE.SYSTEM.norm>
0

>  <SCORE.heavy>
14

>  <SCORE.norm>
0.62119

>  <RMSD>
19.922

$$$$
ligand
 OpenBabel11021811413D
libRbt.so/2013.1/901 2013/11/27
 14 13  0  0  0  0  0  0  0  0999 V2000
   37.6062   -5.7553    5.6167 N   0  0  0  0  0  0  0  0  0  0  0  0
   37.1836   -4.6817    6.5420 C   0  0  0  0  0  0  0  0  0  0  0  0
   38.4036   -3.9495    7.1415 C   0  0  0  0  0  0  0  0  0  0  0  0
   39.2094   -3.1158    6.1317 C   0  0  0  0  0  0  0  0  0  0  0  0
   38.4466   -1.9109    5.7041 N   0  0  0  0  0  0  0  0  0  0  0  0
   38.9402   -1.4313    4.3876 C   0  0  0  0  0  0  0  0  0  0  0  0
   38.4624   -2.2552    3.1447 C   0  0  0  0  0  0  0  0  0  0  0  0
   38.6225   -3.7946    3.3034 C   0  0  0  0  0  0  0  0  0  0  0  0
   38.2125   -4.5858    2.0767 C   0  0  0  0  0  0  0  0  0  0  0  0
   39.0905   -4.1970    0.9894 N   0  0  0  0  0  0  0  0  0  0  0  0
   38.3395   -4.4312   -0.2317 C   0  0  0  0  0  0  0  0  0  0  0  0
   38.3115   -5.9115   -0.5938 C   0  0  0  0  0  0  0  0  0  0  0  0
   36.8674   -6.4054   -0.4189 C   0  0  0  0  0  0  0  0  0  0  0  0
   36.4492   -6.4111    0.9910 N   0  0  0  0  0  0  0  0  0  0  0  0
  1  2  1  0  0  0  0
  2  3  1  0  0  0  0
  3  4  1  0  0  0  0
  4  5  1  0  0  0  0
  5  6  1  0  0  0  0
  6  7  1  0  0  0  0
  7  8  1  0  0  0  0
  8  9  1  0  0  0  0
  9 10  1  0  0  0  0
 10 11  1  0  0  0  0
 11 12  1  0  0  0  0
 12 13  1  0  0  0  0
 13 14  1  0  0  0  0
M  END
>  <CHROM.1>
68.01054754,70.59738032,-157.16458116,76.96427766,-47.88090825,-177.60932305
62.48138951,-153.61709106,-77.50668344,111.93722913,-67.82521777,38.15332787
-4.20244449,3.19884225,1.34000469,1.11455324,1.41121225

>  <Name>
ligand

>  <RI>
0

>  <Rbt.Current_Directory>
/home/itssahil/PROJECTS/Mol_Feturizer/New_Systems/rnas/1TN1

>  <Rbt.Executable>
rbdock ($Id: //depot/dev/client3/rdock/2013.1/src/exe/rbdock.cxx#4 $)

>  <Rbt.Library>
libRbt.so (2013.1, Build901 2013/11/27)

>  <Rbt.Parameter_File>
/export/apps/rDock/src/rDock_2013.1_src/data/scripts/dock_solv.prm

>  <Rbt.Receptor>
prm/blind_docking_40.prm

>  <SCORE>
13.202

>  <SCORE.INTER>
6.57252

>  <SCORE.INTER.CONST>
1

>  <SCORE.INTER.POLAR>
0

>  <SCORE.INTER.ROT>
11

>  <SCORE.INTER.SOLV>
8.82173

>  <SCORE.INTER.VDW>
-9.49223

>  <SCORE.INTER.norm>
0.469465

>  <SCORE.INTRA>
6.01389

>  <SCORE.INTRA.DIHEDRAL>
0.27277

>  <SCORE.INTRA.DIHEDRAL.0>
7.79482

>  <SCORE.INTRA.POLAR>
0

>  <SCORE.INTRA.POLAR.0>
0

>  <SCORE.INTRA.REPUL>
0

>  <SCORE.INTRA.REPUL.0>
0

>  <SCORE.INTRA.SOLV>
7.81931

>  <SCORE.INTRA.SOLV.lig_0>
-49.456

>  <SCORE.INTRA.VDW>
1.96785

>  <SCORE.INTRA.VDW.0>
-0.478406

>  <SCORE.INTRA.norm>
0.429563

>  <SCORE.RESTR>
0.615574

>  <SCORE.RESTR.CAVITY>
0.615574

>  <SCORE.RESTR.norm>
0.0439696

>  <SCORE.SYSTEM>
0

>  <SCORE.SYSTEM.CONST>
0

>  <SCORE.SYSTEM.DIHEDRAL>
0

>  <SCORE.SYSTEM.SOLV>
0

>  <SCORE.SYSTEM.norm>
0

>  <SCORE.heavy>
14

>  <SCORE.norm>
0.942998

>  <RMSD>
19.928

$$$$
ligand
 OpenBabel11021811413D
libRbt.so/2013.1/901 2013/11/27
 14 13  0  0  0  0  0  0  0  0999 V2000
   36.9911   -5.1741   -0.4662 N   0  0  0  0  0  0  0  0  0  0  0  0
   36.7509   -5.8990    0.8003 C   0  0  0  0  0  0  0  0  0  0  0  0
   36.5109   -4.9178    1.9680 C   0  0  0  0  0  0  0  0  0  0  0  0
   36.4004   -5.5826    3.3500 C   0  0  0  0  0  0  0  0  0  0  0  0
   36.0552   -4.5829    4.3978 N   0  0  0  0  0  0  0  0  0  0  0  0
   36.5293   -5.0476    5.7267 C   0  0  0  0  0  0  0  0  0  0  0  0
   38.0815   -5.0373    5.9330 C   0  0  0  0  0  0  0  0  0  0  0  0
   38.6792   -3.6236    6.1872 C   0  0  0  0  0  0  0  0  0  0  0  0
   38.3470   -2.6118    5.1080 C   0  0  0  0  0  0  0  0  0  0  0  0
   38.9789   -3.0557    3.8800 N   0  0  0  0  0  0  0  0  0  0  0  0
   38.5690   -2.1097    2.8569 C   0  0  0  0  0  0  0  0  0  0  0  0
   39.0431   -2.5430    1.4746 C   0  0  0  0  0  0  0  0  0  0  0  0
   38.2975   -1.6882    0.4385 C   0  0  0  0  0  0  0  0  0  0  0  0
   36.8454   -1.9186    0.4697 N   0  0  0  0  0  0  0  0  0  0  0  0
  1  2  1  0  0  0  0
  2  3  1  0  0  0  0
  3  4  1  0  0  0  0
  4  5  1  0  0  0  0
  5  6  1  0  0  0  0
  6  7  1  0  0  0  0
  7  8  1  0  0  0  0
  8  9  1  0  0  0  0
  9 10  1  0  0  0  0
 10 11  1  0  0  0  0
 11 12  1  0  0  0  0
 12 13  1  0  0  0  0
 13 14  1  0  0  0  0
M  END
>  <CHROM.1>
-173.83403296,-175.16401781,-154.77574780,70.52542987,76.52410397,-55.52462513
-64.71058212,176.51086715,-173.86919282,166.83712825,-63.33396123,37.57724310
-3.84234052,3.00927013,1.67124008,-0.99308025,-1.33304430

>  <Name>
ligand

>  <RI>
0

>  <Rbt.Current_Directory>
/home/itssahil/PROJECTS/Mol_Feturizer/New_Systems/rnas/1TN1

>  <Rbt.Executable>
rbdock ($Id: //depot/dev/client3/rdock/2013.1/src/exe/rbdock.cxx#4 $)

>  <Rbt.Library>
libRbt.so (2013.1, Build901 2013/11/27)

>  <Rbt.Parameter_File>
/export/apps/rDock/src/rDock_2013.1_src/data/scripts/dock_solv.prm

>  <Rbt.Receptor>
prm/blind_docking_40.prm

>  <SCORE>
8.90268

>  <SCORE.INTER>
8.67676

>  <SCORE.INTER.CONST>
1

>  <SCORE.INTER.POLAR>
0

>  <SCORE.INTER.ROT>
11

>  <SCORE.INTER.SOLV>
4.95549

>  <SCORE.INTER.VDW>
-6.80066

>  <SCORE.INTER.norm>
0.619769

>  <SCORE.INTRA>
0.0138049

>  <SCORE.INTRA.DIHEDRAL>
-5.17398

>  <SCORE.INTRA.DIHEDRAL.0>
7.79482

>  <SCORE.INTRA.POLAR>
0

>  <SCORE.INTRA.POLAR.0>
0

>  <SCORE.INTRA.REPUL>
0

>  <SCORE.INTRA.REPUL.0>
0

>  <SCORE.INTRA.SOLV>
8.09568

>  <SCORE.INTRA.SOLV.lig_0>
-49.456

>  <SCORE.INTRA.VDW>
-1.44705

>  <SCORE.INTRA.VDW.0>
-0.478406

>  <SCORE.INTRA.norm>
0.000986064

>  <SCORE.RESTR>
0.212113

>  <SCORE.RESTR.CAVITY>
0.212113

>  <SCORE.RESTR.norm>
0.0151509

>  <SCORE.SYSTEM>
0

>  <SCORE.SYSTEM.CONST>
0

>  <SCORE.SYSTEM.DIHEDRAL>
0

>  <SCORE.SYSTEM.SOLV>
0

>  <SCORE.SYSTEM.norm>
0

>  <SCORE.heavy>
14

>  <SCORE.norm>
0.635906

>  <RMSD>
19.930

$$$$
ligand
 OpenBabel11021811413D
libRbt.so/2013.1/901 2013/11/27
 14 13  0  0  0  0  0  0  0  0999 V2000
   37.5097   -6.2105    7.6321 N   0  0  0  0  0  0  0  0  0  0  0  0
   38.1630   -4.9184    7.3307 C   0  0  0  0  0  0  0  0  0  0  0  0
   38.0834   -4.5909    5.8239 C   0  0  0  0  0  0  0  0  0  0  0  0
   36.6612   -4.6069    5.2400 C   0  0  0  0  0  0  0  0  0  0  0  0
   36.6522   -4.0979    3.8409 N   0  0  0  0  0  0  0  0  0  0  0  0
   36.4852   -2.6218    3.8327 C   0  0  0  0  0  0  0  0  0  0  0  0
   37.7346   -1.7968    4.2916 C   0  0  0  0  0  0  0  0  0  0  0  0
   39.0230   -2.0849    3.4686 C   0  0  0  0  0  0  0  0  0  0  0  0
   38.8384   -1.9526    1.9695 C   0  0  0  0  0  0  0  0  0  0  0  0
   38.1026   -3.1164    1.5130 N   0  0  0  0  0  0  0  0  0  0  0  0
   39.0822   -4.1810    1.3837 C   0  0  0  0  0  0  0  0  0  0  0  0
   38.4209   -5.5540    1.4134 C   0  0  0  0  0  0  0  0  0  0  0  0
   37.9779   -5.8875   -0.0193 C   0  0  0  0  0  0  0  0  0  0  0  0
   36.9203   -4.9848   -0.4981 N   0  0  0  0  0  0  0  0  0  0  0  0
  1  2  1  0  0  0  0
  2  3  1  0  0  0  0
  3  4  1  0  0  0  0
  4  5  1  0  0  0  0
  5  6  1  0  0  0  0
  6  7  1  0  0  0  0
  7  8  1  0  0  0  0
  8  9  1  0  0  0  0
  9 10  1  0  0  0  0
 10 11  1  0  0  0  0
 11 12  1  0  0  0  0
 12 13  1  0  0  0  0
 13 14  1  0  0  0  0
M  END
>  <CHROM.1>
54.63676854,172.03374408,-88.15343311,72.86133486,56.81227971,52.60915758
-74.82765198,-81.14154690,159.14023427,85.92429748,-65.81672285,37.83268865
-4.04294502,3.37316651,2.05718706,1.41302003,1.15982344

>  <Name>
ligand

>  <RI>
0

>  <Rbt.Current_Directory>
/home/itssahil/PROJECTS/Mol_Feturizer/New_Systems/rnas/1TN1

>  <Rbt.Executable>
rbdock ($Id: //depot/dev/client3/rdock/2013.1/src/exe/rbdock.cxx#4 $)

>  <Rbt.Library>
libRbt.so (2013.1, Build901 2013/11/27)

>  <Rbt.Parameter_File>
/export/apps/rDock/src/rDock_2013.1_src/data/scripts/dock_solv.prm

>  <Rbt.Receptor>
prm/blind_docking_40.prm

>  <SCORE>
11.7011

>  <SCORE.INTER>
8.02328

>  <SCORE.INTER.CONST>
1

>  <SCORE.INTER.POLAR>
0

>  <SCORE.INTER.ROT>
11

>  <SCORE.INTER.SOLV>
6.80101

>  <SCORE.INTER.VDW>
-7.85148

>  <SCORE.INTER.norm>
0.573091

>  <SCORE.INTRA>
3.22371

>  <SCORE.INTRA.DIHEDRAL>
-2.76377

>  <SCORE.INTRA.DIHEDRAL.0>
7.79482

>  <SCORE.INTRA.POLAR>
0

>  <SCORE.INTRA.POLAR.0>
0

>  <SCORE.INTRA.REPUL>
0

>  <SCORE.INTRA.REPUL.0>
0

>  <SCORE.INTRA.SOLV>
6.67796

>  <SCORE.INTRA.SOLV.lig_0>
-49.456

>  <SCORE.INTRA.VDW>
1.26662

>  <SCORE.INTRA.VDW.0>
-0.478406

>  <SCORE.INTRA.norm>
0.230265

>  <SCORE.RESTR>
0.454091

>  <SCORE.RESTR.CAVITY>
0.454091

>  <SCORE.RESTR.norm>
0.032435

>  <SCORE.SYSTEM>
0

>  <SCORE.SYSTEM.CONST>
0

>  <SCORE.SYSTEM.DIHEDRAL>
0

>  <SCORE.SYSTEM.SOLV>
0

>  <SCORE.SYSTEM.norm>
0

>  <SCORE.heavy>
14

>  <SCORE.norm>
0.835791

>  <RMSD>
19.992

$$$$
ligand
 OpenBabel11021811413D
libRbt.so/2013.1/901 2013/11/27
 14 13  0  0  0  0  0  0  0  0999 V2000
   38.9043   -4.7173    0.5439 N   0  0  0  0  0  0  0  0  0  0  0  0
   37.6146   -5.1637   -0.0260 C   0  0  0  0  0  0  0  0  0  0  0  0
   36.4389   -4.8114    0.9108 C   0  0  0  0  0  0  0  0  0  0  0  0
   36.2095   -3.3043    1.1108 C   0  0  0  0  0  0  0  0  0  0  0  0
   37.2553   -2.7170    1.9928 N   0  0  0  0  0  0  0  0  0  0  0  0
   36.7471   -2.5994    3.3837 C   0  0  0  0  0  0  0  0  0  0  0  0
   37.7036   -1.8824    4.3952 C   0  0  0  0  0  0  0  0  0  0  0  0
   39.1161   -2.5261    4.4990 C   0  0  0  0  0  0  0  0  0  0  0  0
   39.0947   -4.0144    4.7880 C   0  0  0  0  0  0  0  0  0  0  0  0
   38.5677   -4.1943    6.1275 N   0  0  0  0  0  0  0  0  0  0  0  0
   37.1809   -4.5920    5.9595 C   0  0  0  0  0  0  0  0  0  0  0  0
   37.0027   -6.0924    6.1603 C   0  0  0  0  0  0  0  0  0  0  0  0
   37.4103   -6.7880    4.8526 C   0  0  0  0  0  0  0  0  0  0  0  0
   36.5003   -6.4635    3.7439 N   0  0  0  0  0  0  0  0  0  0  0  0
  1  2  1  0  0  0  0
  2  3  1  0  0  0  0
  3  4  1  0  0  0  0
  4  5  1  0  0  0  0
  5  6  1  0  0  0  0
  6  7  1  0  0  0  0
  7  8  1  0  0  0  0
  8  9  1  0  0  0  0
  9 10  1  0  0  0  0
 10 11  1  0  0  0  0
 11 12  1  0  0  0  0
 12 13  1  0  0  0  0
 13 14  1  0  0  0  0
M  END
>  <CHROM.1>
64.40295838,-73.93412534,-98.29830600,-174.99401981,-56.24990218,-53.12338225
-67.02844295,101.15034010,101.99163507,-80.81733610,-66.03246804,37.55317928
-4.27607016,3.46028849,1.98850787,-1.29792724,-1.05076221

>  <Name>
ligand

>  <RI>
0

>  <Rbt.Current_Directory>
/home/itssahil/PROJECTS/Mol_Feturizer/New_Systems/rnas/1TN1

>  <Rbt.Executable>
rbdock ($Id: //depot/dev/client3/rdock/2013.1/src/exe/rbdock.cxx#4 $)

>  <Rbt.Library>
libRbt.so (2013.1, Build901 2013/11/27)

>  <Rbt.Parameter_File>
/export/apps/rDock/src/rDock_2013.1_src/data/scripts/dock_solv.prm

>  <Rbt.Receptor>
prm/blind_docking_40.prm

>  <SCORE>
12.6206

>  <SCORE.INTER>
8.95742

>  <SCORE.INTER.CONST>
1

>  <SCORE.INTER.POLAR>
0

>  <SCORE.INTER.ROT>
11

>  <SCORE.INTER.SOLV>
4.77901

>  <SCORE.INTER.VDW>
-6.55472

>  <SCORE.INTER.norm>
0.639816

>  <SCORE.INTRA>
3.50993

>  <SCORE.INTRA.DIHEDRAL>
-2.20887

>  <SCORE.INTRA.DIHEDRAL.0>
7.79482

>  <SCORE.INTRA.POLAR>
0

>  <SCORE.INTRA.POLAR.0>
0

>  <SCORE.INTRA.REPUL>
0

>  <SCORE.INTRA.REPUL.0>
0

>  <SCORE.INTRA.SOLV>
9.25521

>  <SCORE.INTRA.SOLV.lig_0>
-49.456

>  <SCORE.INTRA.VDW>
-0.0132405

>  <SCORE.INTRA.VDW.0>
-0.478406

>  <SCORE.INTRA.norm>
0.250709

>  <SCORE.RESTR>
0.153254

>  <SCORE.RESTR.CAVITY>
0.153254

>  <SCORE.RESTR.norm>
0.0109467

>  <SCORE.SYSTEM>
0

>  <SCORE.SYSTEM.CONST>
0

>  <SCORE.SYSTEM.DIHEDRAL>
0

>  <SCORE.SYSTEM.SOLV>
0

>  <SCORE.SYSTEM.norm>
0

>  <SCORE.heavy>
14

>  <SCORE.norm>
0.901472

>  <RMSD>
19.995

$$$$
ligand
 OpenBabel11021811413D
libRbt.so/2013.1/901 2013/11/27
 14 13  0  0  0  0  0  0  0  0999 V2000
   38.8992   -5.3605    0.6271 N   0  0  0  0  0  0  0  0  0  0  0  0
   38.2770   -4.4284   -0.3379 C   0  0  0  0  0  0  0  0  0  0  0  0
   37.8375   -3.1200    0.3542 C   0  0  0  0  0  0  0  0  0  0  0  0
   36.6326   -3.2688    1.2977 C   0  0  0  0  0  0  0  0  0  0  0  0
   36.9925   -4.0657    2.5026 N   0  0  0  0  0  0  0  0  0  0  0  0
   35.8942   -5.0062    2.8429 C   0  0  0  0  0  0  0  0  0  0  0  0
   36.1621   -5.9447    4.0675 C   0  0  0  0  0  0  0  0  0  0  0  0
   37.5907   -6.5602    4.0954 C   0  0  0  0  0  0  0  0  0  0  0  0
   38.5405   -5.8681    5.0533 C   0  0  0  0  0  0  0  0  0  0  0  0
   38.7331   -4.5113    4.5775 N   0  0  0  0  0  0  0  0  0  0  0  0
   38.2532   -3.6450    5.6400 C   0  0  0  0  0  0  0  0  0  0  0  0
   39.0335   -2.3366    5.6880 C   0  0  0  0  0  0  0  0  0  0  0  0
   38.4530   -1.4094    4.6094 C   0  0  0  0  0  0  0  0  0  0  0  0
   38.6769   -1.9282    3.2517 N   0  0  0  0  0  0  0  0  0  0  0  0
  1  2  1  0  0  0  0
  2  3  1  0  0  0  0
  3  4  1  0  0  0  0
  4  5  1  0  0  0  0
  5  6  1  0  0  0  0
  6  7  1  0  0  0  0
  7  8  1  0  0  0  0
  8  9  1  0  0  0  0
  9 10  1  0  0  0  0
 10 11  1  0  0  0  0
 11 12  1  0  0  0  0
 12 13  1  0  0  0  0
 13 14  1  0  0  0  0
M  END
>  <CHROM.1>
-70.57032107,68.64777347,-138.62105404,178.01122728,-43.13548492,101.19322521
-64.35860183,119.00528291,148.15094728,80.95647980,-65.33511619,37.85524299
-4.10384464,3.16226918,2.05405201,-1.23808349,-1.25850728

>  <Name>
ligand

>  <RI>
0

>  <Rbt.Current_Directory>
/home/itssahil/PROJECTS/Mol_Feturizer/New_Systems/rnas/1TN1

>  <Rbt.Executable>
rbdock ($Id: //depot/dev/client3/rdock/2013.1/src/exe/rbdock.cxx#4 $)

>  <Rbt.Library>
libRbt.so (2013.1, Build901 2013/11/27)

>  <Rbt.Parameter_File>
/export/apps/rDock/src/rDock_2013.1_src/data/scripts/dock_solv.prm

>  <Rbt.Receptor>
prm/blind_docking_40.prm

>  <SCORE>
14.871

>  <SCORE.INTER>
8.3722

>  <SCORE.INTER.CONST>
1

>  <SCORE.INTER.POLAR>
0

>  <SCORE.INTER.ROT>
11

>  <SCORE.INTER.SOLV>
4.79158

>  <SCORE.INTER.VDW>
-6.94906

>  <SCORE.INTER.norm>
0.598014

>  <SCORE.INTRA>
6.32796

>  <SCORE.INTRA.DIHEDRAL>
3.13281

>  <SCORE.INTRA.DIHEDRAL.0>
7.79482

>  <SCORE.INTRA.POLAR>
0

>  <SCORE.INTRA.POLAR.0>
0

>  <SCORE.INTRA.REPUL>
0

>  <SCORE.INTRA.REPUL.0>
0

>  <SCORE.INTRA.SOLV>
14.0121

>  <SCORE.INTRA.SOLV.lig_0>
-49.456

>  <SCORE.INTRA.VDW>
-2.24451

>  <SCORE.INTRA.VDW.0>
-0.478406

>  <SCORE.INTRA.norm>
0.451997

>  <SCORE.RESTR>
0.170853

>  <SCORE.RESTR.CAVITY>
0.170853

>  <SCORE.RESTR.norm>
0.0122038

>  <SCORE.SYSTEM>
0

>  <SCORE.SYSTEM.CONST>
0

>  <SCORE.SYSTEM.DIHEDRAL>
0

>  <SCORE.SYSTEM.SOLV>
0

>  <SCORE.SYSTEM.norm>
0

>  <SCORE.heavy>
14

>  <SCORE.norm>
1.06222

>  <RMSD>
20.017

$$$$
ligand
 OpenBabel11021811413D
libRbt.so/2013.1/901 2013/11/27
 14 13  0  0  0  0  0  0  0  0999 V2000
   37.4152   -6.2601   -0.1348 N   0  0  0  0  0  0  0  0  0  0  0  0
   37.4915   -5.0795    0.7525 C   0  0  0  0  0  0  0  0  0  0  0  0
   36.4402   -4.0185    0.3614 C   0  0  0  0  0  0  0  0  0  0  0  0
   36.4559   -2.7509    1.2315 C   0  0  0  0  0  0  0  0  0  0  0  0
   37.6995   -1.9640    1.0068 N   0  0  0  0  0  0  0  0  0  0  0  0
   38.7951   -2.4780    1.8684 C   0  0  0  0  0  0  0  0  0  0  0  0
   38.8020   -1.9489    3.3422 C   0  0  0  0  0  0  0  0  0  0  0  0
   37.5132   -2.2882    4.1448 C   0  0  0  0  0  0  0  0  0  0  0  0
   37.3037   -3.7723    4.3742 C   0  0  0  0  0  0  0  0  0  0  0  0
   35.9742   -3.9481    4.9271 N   0  0  0  0  0  0  0  0  0  0  0  0
   35.9903   -5.2348    5.6008 C   0  0  0  0  0  0  0  0  0  0  0  0
   36.1099   -5.0719    7.1115 C   0  0  0  0  0  0  0  0  0  0  0  0
   37.5317   -4.5751    7.4142 C   0  0  0  0  0  0  0  0  0  0  0  0
   38.5565   -5.5600    7.0365 N   0  0  0  0  0  0  0  0  0  0  0  0
  1  2  1  0  0  0  0
  2  3  1  0  0  0  0
  3  4  1  0  0  0  0
  4  5  1  0  0  0  0
  5  6  1  0  0  0  0
  6  7  1  0  0  0  0
  7  8  1  0  0  0  0
  8  9  1  0  0  0  0
  9 10  1  0  0  0  0
 10 11  1  0  0  0  0
 11 12  1  0  0  0  0
 12 13  1  0  0  0  0
 13 14  1  0  0  0  0
M  END
>  <CHROM.1>
-179.68670899,68.08741278,-85.17938575,-82.59500946,59.91833082,64.83707329
-170.64521825,-158.49080298,102.42880376,-70.53783296,-64.08311177,37.29129357
-3.92480882,3.50275927,1.41462224,-1.21935391,-1.53560158

>  <Name>
ligand

>  <RI>
0

>  <Rbt.Current_Directory>
/home/itssahil/PROJECTS/Mol_Feturizer/New_Systems/rnas/1TN1

>  <Rbt.Executable>
rbdock ($Id: //depot/dev/client3/rdock/2013.1/src/exe/rbdock.cxx#4 $)

>  <Rbt.Library>
libRbt.so (2013.1, Build901 2013/11/27)

>  <Rbt.Parameter_File>
/export/apps/rDock/src/rDock_2013.1_src/data/scripts/dock_solv.prm

>  <Rbt.Receptor>
prm/blind_docking_40.prm

>  <SCORE>
10.0511

>  <SCORE.INTER>
9.00411

>  <SCORE.INTER.CONST>
1

>  <SCORE.INTER.POLAR>
0

>  <SCORE.INTER.ROT>
11

>  <SCORE.INTER.SOLV>
10.665

>  <SCORE.INTER.VDW>
-8.4856

>  <SCORE.INTER.norm>
0.64315

>  <SCORE.INTRA>
0.780779

>  <SCORE.INTRA.DIHEDRAL>
-4.52735

>  <SCORE.INTRA.DIHEDRAL.0>
7.79482

>  <SCORE.INTRA.POLAR>
0

>  <SCORE.INTRA.POLAR.0>
0

>  <SCORE.INTRA.REPUL>
0

>  <SCORE.INTRA.REPUL.0>
0

>  <SCORE.INTRA.SOLV>
4.31028

>  <SCORE.INTRA.SOLV.lig_0>
-49.456

>  <SCORE.INTRA.VDW>
0.889315

>  <SCORE.INTRA.VDW.0>
-0.478406

>  <SCORE.INTRA.norm>
0.0557699

>  <SCORE.RESTR>
0.266242

>  <SCORE.RESTR.CAVITY>
0.266242

>  <SCORE.RESTR.norm>
0.0190173

>  <SCORE.SYSTEM>
0

>  <SCORE.SYSTEM.CONST>
0

>  <SCORE.SYSTEM.DIHEDRAL>
0

>  <SCORE.SYSTEM.SOLV>
0

>  <SCORE.SYSTEM.norm>
0

>  <SCORE.heavy>
14

>  <SCORE.norm>
0.717938

>  <RMSD>
20.033

$$$$
ligand
 OpenBabel11021811413D
libRbt.so/2013.1/901 2013/11/27
 14 13  0  0  0  0  0  0  0  0999 V2000
   36.4993   -5.4510    6.2204 N   0  0  0  0  0  0  0  0  0  0  0  0
   36.9618   -6.1982    5.0310 C   0  0  0  0  0  0  0  0  0  0  0  0
   38.5037   -6.2239    4.9529 C   0  0  0  0  0  0  0  0  0  0  0  0
   39.1540   -4.8554    4.6918 C   0  0  0  0  0  0  0  0  0  0  0  0
   38.8071   -3.8852    5.7663 N   0  0  0  0  0  0  0  0  0  0  0  0
   39.0597   -2.4959    5.3048 C   0  0  0  0  0  0  0  0  0  0  0  0
   37.8925   -1.8261    4.5042 C   0  0  0  0  0  0  0  0  0  0  0  0
   37.4755   -2.6012    3.2214 C   0  0  0  0  0  0  0  0  0  0  0  0
   38.5274   -2.5952    2.1294 C   0  0  0  0  0  0  0  0  0  0  0  0
   37.9730   -3.2877    0.9816 N   0  0  0  0  0  0  0  0  0  0  0  0
   38.5859   -4.6045    0.9770 C   0  0  0  0  0  0  0  0  0  0  0  0
   37.7272   -5.6167    0.2276 C   0  0  0  0  0  0  0  0  0  0  0  0
   36.4644   -5.8660    1.0661 C   0  0  0  0  0  0  0  0  0  0  0  0
   35.5913   -4.6838    1.1204 N   0  0  0  0  0  0  0  0  0  0  0  0
  1  2  1  0  0  0  0
  2  3  1  0  0  0  0
  3  4  1  0  0  0  0
  4  5  1  0  0  0  0
  5  6  1  0  0  0  0
  6  7  1  0  0  0  0
  7  8  1  0  0  0  0
  8  9  1  0  0  0  0
  9 10  1  0  0  0  0
 10 11  1  0  0  0  0
 11 12  1  0  0  0  0
 12 13  1  0  0  0  0
 13 14  1  0  0  0  0
M  END
>  <CHROM.1>
-66.99944291,59.60441905,-162.00865239,85.53531649,-58.37091031,-67.96764720
-176.98571061,-103.14406316,156.53295445,-69.39718437,67.91671946,37.80186914
-4.29933082,3.29954488,1.07120905,1.17249083,1.93802923

>  <Name>
ligand

>  <RI>
0

>  <Rbt.Current_Directory>
/home/itssahil/PROJECTS/Mol_Feturizer/New_Systems/rnas/1TN1

>  <Rbt.Executable>
rbdock ($Id: //depot/dev/client3/rdock/2013.1/src/exe/rbdock.cxx#4 $)

>  <Rbt.Library>
libRbt.so (2013.1, Build901 2013/11/27)

>  <Rbt.Parameter_File>
/export/apps/rDock/src/rDock_2013.1_src/data/scripts/dock_solv.prm

>  <Rbt.Receptor>
prm/blind_docking_40.prm

>  <SCORE>
8.67553

>  <SCORE.INTER>
7.4056

>  <SCORE.INTER.CONST>
1

>  <SCORE.INTER.POLAR>
0

>  <SCORE.INTER.ROT>
11

>  <SCORE.INTER.SOLV>
3.59749

>  <SCORE.INTER.VDW>
-7.19543

>  <SCORE.INTER.norm>
0.528971

>  <SCORE.INTRA>
0.910567

>  <SCORE.INTRA.DIHEDRAL>
-4.65504

>  <SCORE.INTRA.DIHEDRAL.0>
7.79482

>  <SCORE.INTRA.POLAR>
0

>  <SCORE.INTRA.POLAR.0>
0

>  <SCORE.INTRA.REPUL>
0

>  <SCORE.INTRA.REPUL.0>
0

>  <SCORE.INTRA.SOLV>
8.80406

>  <SCORE.INTRA.SOLV.lig_0>
-49.456

>  <SCORE.INTRA.VDW>
-1.16394

>  <SCORE.INTRA.VDW.0>
-0.478406

>  <SCORE.INTRA.norm>
0.0650405

>  <SCORE.RESTR>
0.359363

>  <SCORE.RESTR.CAVITY>
0.359363

>  <SCORE.RESTR.norm>
0.0256688

>  <SCORE.SYSTEM>
0

>  <SCORE.SYSTEM.CONST>
0

>  <SCORE.SYSTEM.DIHEDRAL>
0

>  <SCORE.SYSTEM.SOLV>
0

>  <SCORE.SYSTEM.norm>
0

>  <SCORE.heavy>
14

>  <SCORE.norm>
0.619681

>  <RMSD>
20.087

$$$$
ligand
 OpenBabel11021811413D
libRbt.so/2013.1/901 2013/11/27
 14 13  0  0  0  0  0  0  0  0999 V2000
   38.6020   -4.0318    8.2136 N   0  0  0  0  0  0  0  0  0  0  0  0
   38.5942   -5.3735    7.5917 C   0  0  0  0  0  0  0  0  0  0  0  0
   37.4984   -5.4804    6.5091 C   0  0  0  0  0  0  0  0  0  0  0  0
   37.3729   -4.2456    5.6017 C   0  0  0  0  0  0  0  0  0  0  0  0
   38.7090   -3.7957    5.1236 N   0  0  0  0  0  0  0  0  0  0  0  0
   38.6689   -2.3533    4.7703 C   0  0  0  0  0  0  0  0  0  0  0  0
   38.7095   -2.0304    3.2386 C   0  0  0  0  0  0  0  0  0  0  0  0
   37.5346   -2.6489    2.4278 C   0  0  0  0  0  0  0  0  0  0  0  0
   37.5666   -4.1631    2.3555 C   0  0  0  0  0  0  0  0  0  0  0  0
   36.5242   -4.5812    1.4373 N   0  0  0  0  0  0  0  0  0  0  0  0
   36.6895   -6.0150    1.2738 C   0  0  0  0  0  0  0  0  0  0  0  0
   36.9561   -6.3832   -0.1811 C   0  0  0  0  0  0  0  0  0  0  0  0
   38.3939   -5.9558   -0.5127 C   0  0  0  0  0  0  0  0  0  0  0  0
   38.5433   -4.4933   -0.5535 N   0  0  0  0  0  0  0  0  0  0  0  0
  1  2  1  0  0  0  0
  2  3  1  0  0  0  0
  3  4  1  0  0  0  0
  4  5  1  0  0  0  0
  5  6  1  0  0  0  0
  6  7  1  0  0  0  0
  7  8  1  0  0  0  0
  8  9  1  0  0  0  0
  9 10  1  0  0  0  0
 10 11  1  0  0  0  0
 11 12  1  0  0  0  0
 12 13  1  0  0  0  0
 13 14  1  0  0  0  0
M  END
>  <CHROM.1>
41.96790092,46.69309458,-155.70512786,-107.20737061,59.47843024,-67.11487099
-172.82577226,173.43226992,-120.02114375,73.32420788,-69.41561553,37.88299698
-4.39658876,3.37819216,1.18802831,1.27576081,1.78647397

>  <Name>
ligand

>  <RI>
0

>  <Rbt.Current_Directory>
/home/itssahil/PROJECTS/Mol_Feturizer/New_Systems/rnas/1TN1

>  <Rbt.Executable>
rbdock ($Id: //depot/dev/client3/rdock/2013.1/src/exe/rbdock.cxx#4 $)

>  <Rbt.Library>
libRbt.so (2013.1, Build901 2013/11/27)

>  <Rbt.Parameter_File>
/export/apps/rDock/src/rDock_2013.1_src/data/scripts/dock_solv.prm

>  <Rbt.Receptor>
prm/blind_docking_40.prm

>  <SCORE>
12.0397

>  <SCORE.INTER>
8.76354

>  <SCORE.INTER.CONST>
1

>  <SCORE.INTER.POLAR>
0

>  <SCORE.INTER.ROT>
11

>  <SCORE.INTER.SOLV>
7.3132

>  <SCORE.INTER.VDW>
-7.52871

>  <SCORE.INTER.norm>
0.625967

>  <SCORE.INTRA>
3.18905

>  <SCORE.INTRA.DIHEDRAL>
-1.90427

>  <SCORE.INTRA.DIHEDRAL.0>
7.79482

>  <SCORE.INTRA.POLAR>
0

>  <SCORE.INTRA.POLAR.0>
0

>  <SCORE.INTRA.REPUL>
0

>  <SCORE.INTRA.REPUL.0>
0

>  <SCORE.INTRA.SOLV>
8.71828

>  <SCORE.INTRA.SOLV.lig_0>
-49.456

>  <SCORE.INTRA.VDW>
-0.217951

>  <SCORE.INTRA.VDW.0>
-0.478406

>  <SCORE.INTRA.norm>
0.22779

>  <SCORE.RESTR>
0.0870702

>  <SCORE.RESTR.CAVITY>
0.0870702

>  <SCORE.RESTR.norm>
0.0062193

>  <SCORE.SYSTEM>
0

>  <SCORE.SYSTEM.CONST>
0

>  <SCORE.SYSTEM.DIHEDRAL>
0

>  <SCORE.SYSTEM.SOLV>
0

>  <SCORE.SYSTEM.norm>
0

>  <SCORE.heavy>
14

>  <SCORE.norm>
0.859976

>  <RMSD>
20.096

$$$$
ligand
 OpenBabel11021811413D
libRbt.so/2013.1/901 2013/11/27
 14 13  0  0  0  0  0  0  0  0999 V2000
   39.3678   -5.4030    0.4186 N   0  0  0  0  0  0  0  0  0  0  0  0
   38.0561   -5.2666   -0.2508 C   0  0  0  0  0  0  0  0  0  0  0  0
   37.0111   -6.2185    0.3702 C   0  0  0  0  0  0  0  0  0  0  0  0
   36.6052   -5.8705    1.8118 C   0  0  0  0  0  0  0  0  0  0  0  0
   35.3985   -4.9988    1.8316 N   0  0  0  0  0  0  0  0  0  0  0  0
   35.4640   -4.0574    2.9788 C   0  0  0  0  0  0  0  0  0  0  0  0
   36.1470   -2.6792    2.6851 C   0  0  0  0  0  0  0  0  0  0  0  0
   37.6970   -2.6975    2.8174 C   0  0  0  0  0  0  0  0  0  0  0  0
   38.2053   -2.2263    4.1659 C   0  0  0  0  0  0  0  0  0  0  0  0
   37.9052   -3.2630    5.1353 N   0  0  0  0  0  0  0  0  0  0  0  0
   39.0011   -3.2458    6.0884 C   0  0  0  0  0  0  0  0  0  0  0  0
   38.5993   -3.8867    7.4117 C   0  0  0  0  0  0  0  0  0  0  0  0
   38.3788   -5.3851    7.1544 C   0  0  0  0  0  0  0  0  0  0  0  0
   37.2429   -5.6328    6.2538 N   0  0  0  0  0  0  0  0  0  0  0  0
  1  2  1  0  0  0  0
  2  3  1  0  0  0  0
  3  4  1  0  0  0  0
  4  5  1  0  0  0  0
  5  6  1  0  0  0  0
  6  7  1  0  0  0  0
  7  8  1  0  0  0  0
  8  9  1  0  0  0  0
  9 10  1  0  0  0  0
 10 11  1  0  0  0  0
 11 12  1  0  0  0  0
 12 13  1  0  0  0  0
 13 14  1  0  0  0  0
M  END
>  <CHROM.1>
67.84298764,92.94273833,-146.67627382,90.67463898,-84.82697306,-95.99605221
72.36999585,145.70994223,158.87199007,67.43136271,-65.10696391,37.50567767
-4.34489930,3.49090737,-2.34272642,-1.31663789,0.60569037

>  <Name>
ligand

>  <RI>
0

>  <Rbt.Current_Directory>
/home/itssahil/PROJECTS/Mol_Feturizer/New_Systems/rnas/1TN1

>  <Rbt.Executable>
rbdock ($Id: //depot/dev/client3/rdock/2013.1/src/exe/rbdock.cxx#4 $)

>  <Rbt.Library>
libRbt.so (2013.1, Build901 2013/11/27)

>  <Rbt.Parameter_File>
/export/apps/rDock/src/rDock_2013.1_src/data/scripts/dock_solv.prm

>  <Rbt.Receptor>
prm/blind_docking_40.prm

>  <SCORE>
11.1383

>  <SCORE.INTER>
6.81656

>  <SCORE.INTER.CONST>
1

>  <SCORE.INTER.POLAR>
0

>  <SCORE.INTER.ROT>
11

>  <SCORE.INTER.SOLV>
6.13432

>  <SCORE.INTER.VDW>
-8.43374

>  <SCORE.INTER.norm>
0.486897

>  <SCORE.INTRA>
4.3006

>  <SCORE.INTRA.DIHEDRAL>
4.89804

>  <SCORE.INTRA.DIHEDRAL.0>
7.79482

>  <SCORE.INTRA.POLAR>
0

>  <SCORE.INTRA.POLAR.0>
0

>  <SCORE.INTRA.REPUL>
0

>  <SCORE.INTRA.REPUL.0>
0

>  <SCORE.INTRA.SOLV>
6.33301

>  <SCORE.INTRA.SOLV.lig_0>
-49.456

>  <SCORE.INTRA.VDW>
-1.31492

>  <SCORE.INTRA.VDW.0>
-0.478406

>  <SCORE.INTRA.norm>
0.307186

>  <SCORE.RESTR>
0.0211089

>  <SCORE.RESTR.CAVITY>
0.0211089

>  <SCORE.RESTR.norm>
0.00150778

>  <SCORE.SYSTEM>
0

>  <SCORE.SYSTEM.CONST>
0

>  <SCORE.SYSTEM.DIHEDRAL>
0

>  <SCORE.SYSTEM.SOLV>
0

>  <SCORE.SYSTEM.norm>
0

>  <SCORE.heavy>
14

>  <SCORE.norm>
0.795591

>  <RMSD>
20.105

$$$$
ligand
 OpenBabel11021811413D
libRbt.so/2013.1/901 2013/11/27
 14 13  0  0  0  0  0  0  0  0999 V2000
   37.0054   -5.9800   -0.6017 N   0  0  0  0  0  0  0  0  0  0  0  0
   38.4777   -5.8735   -0.5110 C   0  0  0  0  0  0  0  0  0  0  0  0
   38.9064   -4.4766   -0.0121 C   0  0  0  0  0  0  0  0  0  0  0  0
   38.5401   -4.1796    1.4514 C   0  0  0  0  0  0  0  0  0  0  0  0
   37.0658   -4.2262    1.6532 N   0  0  0  0  0  0  0  0  0  0  0  0
   36.7083   -3.6297    2.9659 C   0  0  0  0  0  0  0  0  0  0  0  0
   35.8577   -4.5406    3.9140 C   0  0  0  0  0  0  0  0  0  0  0  0
   36.4775   -5.9444    4.1702 C   0  0  0  0  0  0  0  0  0  0  0  0
   37.9153   -5.9042    4.6501 C   0  0  0  0  0  0  0  0  0  0  0  0
   37.9527   -5.1036    5.8592 N   0  0  0  0  0  0  0  0  0  0  0  0
   39.0208   -4.1386    5.6647 C   0  0  0  0  0  0  0  0  0  0  0  0
   38.4697   -2.7506    5.3597 C   0  0  0  0  0  0  0  0  0  0  0  0
   39.5330   -1.9968    4.5466 C   0  0  0  0  0  0  0  0  0  0  0  0
   39.0212   -0.7302    4.0021 N   0  0  0  0  0  0  0  0  0  0  0  0
  1  2  1  0  0  0  0
  2  3  1  0  0  0  0
  3  4  1  0  0  0  0
  4  5  1  0  0  0  0
  5  6  1  0  0  0  0
  6  7  1  0  0  0  0
  7  8  1  0  0  0  0
  8  9  1  0  0  0  0
  9 10  1  0  0  0  0
 10 11  1  0  0  0  0
 11 12  1  0  0  0  0
 12 13  1  0  0  0  0
 13 14  1  0  0  0  0
M  END
>  <CHROM.1>
68.17072223,-61.20283445,-166.57359833,-125.28379419,53.55109445,52.78511874
57.07564234,-130.03137320,104.64030443,-153.68625591,170.31305574,37.92517890
-4.24828677,3.07959229,1.80426623,-1.03230375,-1.75785993

>  <Name>
ligand

>  <RI>
0

>  <Rbt.Current_Directory>
/home/itssahil/PROJECTS/Mol_Feturizer/New_Systems/rnas/1TN1

>  <Rbt.Executable>
rbdock ($Id: //depot/dev/client3/rdock/2013.1/src/exe/rbdock.cxx#4 $)

>  <Rbt.Library>
libRbt.so (2013.1, Build901 2013/11/27)

>  <Rbt.Parameter_File>
/export/apps/rDock/src/rDock_2013.1_src/data/scripts/dock_solv.prm

>  <Rbt.Receptor>
prm/blind_docking_40.prm

>  <SCORE>
11.7741

>  <SCORE.INTER>
10.0399

>  <SCORE.INTER.CONST>
1

>  <SCORE.INTER.POLAR>
0

>  <SCORE.INTER.ROT>
11

>  <SCORE.INTER.SOLV>
10.2308

>  <SCORE.INTER.VDW>
-7.65033

>  <SCORE.INTER.norm>
0.717135

>  <SCORE.INTRA>
1.5481

>  <SCORE.INTRA.DIHEDRAL>
-1.10387

>  <SCORE.INTRA.DIHEDRAL.0>
7.79482

>  <SCORE.INTRA.POLAR>
0

>  <SCORE.INTRA.POLAR.0>
0

>  <SCORE.INTRA.REPUL>
0

>  <SCORE.INTRA.REPUL.0>
0

>  <SCORE.INTRA.SOLV>
5.64455

>  <SCORE.INTRA.SOLV.lig_0>
-49.456

>  <SCORE.INTRA.VDW>
-0.722243

>  <SCORE.INTRA.VDW.0>
-0.478406

>  <SCORE.INTRA.norm>
0.110579

>  <SCORE.RESTR>
0.186067

>  <SCORE.RESTR.CAVITY>
0.186067

>  <SCORE.RESTR.norm>
0.0132905

>  <SCORE.SYSTEM>
0

>  <SCORE.SYSTEM.CONST>
0

>  <SCORE.SYSTEM.DIHEDRAL>
0

>  <SCORE.SYSTEM.SOLV>
0

>  <SCORE.SYSTEM.norm>
0

>  <SCORE.heavy>
14

>  <SCORE.norm>
0.841004

>  <RMSD>
20.109

$$$$
ligand
 OpenBabel11021811413D
libRbt.so/2013.1/901 2013/11/27
 14 13  0  0  0  0  0  0  0  0999 V2000
   36.5950   -7.0281    4.6202 N   0  0  0  0  0  0  0  0  0  0  0  0
   37.6773   -6.2038    5.2000 C   0  0  0  0  0  0  0  0  0  0  0  0
   37.1093   -5.1154    6.1364 C   0  0  0  0  0  0  0  0  0  0  0  0
   38.1714   -4.2179    6.7925 C   0  0  0  0  0  0  0  0  0  0  0  0
   39.1019   -3.6588    5.7736 N   0  0  0  0  0  0  0  0  0  0  0  0
   38.7040   -2.2716    5.4212 C   0  0  0  0  0  0  0  0  0  0  0  0
   38.0367   -2.0955    4.0156 C   0  0  0  0  0  0  0  0  0  0  0  0
   36.6171   -2.7219    3.9035 C   0  0  0  0  0  0  0  0  0  0  0  0
   36.1562   -2.9509    2.4773 C   0  0  0  0  0  0  0  0  0  0  0  0
   37.0106   -3.9699    1.8977 N   0  0  0  0  0  0  0  0  0  0  0  0
   36.1980   -4.6546    0.9074 C   0  0  0  0  0  0  0  0  0  0  0  0
   36.9153   -5.8765    0.3456 C   0  0  0  0  0  0  0  0  0  0  0  0
   38.0472   -5.3737   -0.5633 C   0  0  0  0  0  0  0  0  0  0  0  0
   39.0942   -4.6689    0.1914 N   0  0  0  0  0  0  0  0  0  0  0  0
  1  2  1  0  0  0  0
  2  3  1  0  0  0  0
  3  4  1  0  0  0  0
  4  5  1  0  0  0  0
  5  6  1  0  0  0  0
  6  7  1  0  0  0  0
  7  8  1  0  0  0  0
  8  9  1  0  0  0  0
  9 10  1  0  0  0  0
 10 11  1  0  0  0  0
 11 12  1  0  0  0  0
 12 13  1  0  0  0  0
 13 14  1  0  0  0  0
M  END
>  <CHROM.1>
179.52999324,51.38415439,98.85660910,-106.53480192,69.30375568,-161.50121581
66.39502858,150.73298730,-172.47913798,-72.02448165,66.45411753,37.53084431
-4.34319657,3.36575258,1.05644718,1.36289414,1.90515392

>  <Name>
ligand

>  <RI>
0

>  <Rbt.Current_Directory>
/home/itssahil/PROJECTS/Mol_Feturizer/New_Systems/rnas/1TN1

>  <Rbt.Executable>
rbdock ($Id: //depot/dev/client3/rdock/2013.1/src/exe/rbdock.cxx#4 $)

>  <Rbt.Library>
libRbt.so (2013.1, Build901 2013/11/27)

>  <Rbt.Parameter_File>
/export/apps/rDock/src/rDock_2013.1_src/data/scripts/dock_solv.prm

>  <Rbt.Receptor>
prm/blind_docking_40.prm

>  <SCORE>
6.41215

>  <SCORE.INTER>
6.13146

>  <SCORE.INTER.CONST>
1

>  <SCORE.INTER.POLAR>
0

>  <SCORE.INTER.ROT>
11

>  <SCORE.INTER.SOLV>
5.06106

>  <SCORE.INTER.VDW>
-8.53271

>  <SCORE.INTER.norm>
0.437962

>  <SCORE.INTRA>
0.232957

>  <SCORE.INTRA.DIHEDRAL>
-2.48336

>  <SCORE.INTRA.DIHEDRAL.0>
7.79482

>  <SCORE.INTRA.POLAR>
0

>  <SCORE.INTRA.POLAR.0>
0

>  <SCORE.INTRA.REPUL>
0

>  <SCORE.INTRA.REPUL.0>
0

>  <SCORE.INTRA.SOLV>
5.42303

>  <SCORE.INTRA.SOLV.lig_0>
-49.456

>  <SCORE.INTRA.VDW>
-1.23688

>  <SCORE.INTRA.VDW.0>
-0.478406

>  <SCORE.INTRA.norm>
0.0166398

>  <SCORE.RESTR>
0.0477336

>  <SCORE.RESTR.CAVITY>
0.0477336

>  <SCORE.RESTR.norm>
0.00340954

>  <SCORE.SYSTEM>
0

>  <SCORE.SYSTEM.CONST>
0

>  <SCORE.SYSTEM.DIHEDRAL>
0

>  <SCORE.SYSTEM.SOLV>
0

>  <SCORE.SYSTEM.norm>
0

>  <SCORE.heavy>
14

>  <SCORE.norm>
0.458011

>  <RMSD>
20.260

$$$$
ligand
 OpenBabel11021811413D
libRbt.so/2013.1/901 2013/11/27
 14 13  0  0  0  0  0  0  0  0999 V2000
   39.3097   -6.0658   -0.4728 N   0  0  0  0  0  0  0  0  0  0  0  0
   38.0124   -5.5477   -0.9583 C   0  0  0  0  0  0  0  0  0  0  0  0
   36.8883   -5.8080    0.0676 C   0  0  0  0  0  0  0  0  0  0  0  0
   37.1685   -5.2599    1.4766 C   0  0  0  0  0  0  0  0  0  0  0  0
   35.9046   -5.0887    2.2445 N   0  0  0  0  0  0  0  0  0  0  0  0
   36.1279   -4.1917    3.4074 C   0  0  0  0  0  0  0  0  0  0  0  0
   36.4157   -2.6922    3.0599 C   0  0  0  0  0  0  0  0  0  0  0  0
   37.8490   -2.4305    2.5142 C   0  0  0  0  0  0  0  0  0  0  0  0
   38.9271   -2.4533    3.5801 C   0  0  0  0  0  0  0  0  0  0  0  0
   39.0974   -3.8303    4.0033 N   0  0  0  0  0  0  0  0  0  0  0  0
   38.9243   -3.8278    5.4454 C   0  0  0  0  0  0  0  0  0  0  0  0
   38.0590   -4.9954    5.9053 C   0  0  0  0  0  0  0  0  0  0  0  0
   37.7072   -4.7598    7.3820 C   0  0  0  0  0  0  0  0  0  0  0  0
   36.6292   -5.6467    7.8446 N   0  0  0  0  0  0  0  0  0  0  0  0
  1  2  1  0  0  0  0
  2  3  1  0  0  0  0
  3  4  1  0  0  0  0
  4  5  1  0  0  0  0
  5  6  1  0  0  0  0
  6  7  1  0  0  0  0
  7  8  1  0  0  0  0
  8  9  1  0  0  0  0
  9 10  1  0  0  0  0
 10 11  1  0  0  0  0
 11 12  1  0  0  0  0
 12 13  1  0  0  0  0
 13 14  1  0  0  0  0
M  END
>  <CHROM.1>
55.00455932,158.94489013,-162.63581706,68.53363120,-75.15575219,-75.74494592
71.47275102,-125.34240121,136.40471772,-169.18261407,166.65601864,37.64427124
-4.47097649,3.24992389,1.53656323,-0.97859796,-1.72033199

>  <Name>
ligand

>  <RI>
0

>  <Rbt.Current_Directory>
/home/itssahil/PROJECTS/Mol_Feturizer/New_Systems/rnas/1TN1

>  <Rbt.Executable>
rbdock ($Id: //depot/dev/client3/rdock/2013.1/src/exe/rbdock.cxx#4 $)

>  <Rbt.Library>
libRbt.so (2013.1, Build901 2013/11/27)

>  <Rbt.Parameter_File>
/export/apps/rDock/src/rDock_2013.1_src/data/scripts/dock_solv.prm

>  <Rbt.Receptor>
prm/blind_docking_40.prm

>  <SCORE>
12.4381

>  <SCORE.INTER>
11.0395

>  <SCORE.INTER.CONST>
1

>  <SCORE.INTER.POLAR>
0

>  <SCORE.INTER.ROT>
11

>  <SCORE.INTER.SOLV>
10.5346

>  <SCORE.INTER.VDW>
-7.08519

>  <SCORE.INTER.norm>
0.788538

>  <SCORE.INTRA>
1.09664

>  <SCORE.INTRA.DIHEDRAL>
-0.360432

>  <SCORE.INTRA.DIHEDRAL.0>
7.79482

>  <SCORE.INTRA.POLAR>
0

>  <SCORE.INTRA.POLAR.0>
0

>  <SCORE.INTRA.REPUL>
0

>  <SCORE.INTRA.REPUL.0>
0

>  <SCORE.INTRA.SOLV>
2.92389

>  <SCORE.INTRA.SOLV.lig_0>
-49.456

>  <SCORE.INTRA.VDW>
-0.185092

>  <SCORE.INTRA.VDW.0>
-0.478406

>  <SCORE.INTRA.norm>
0.0783311

>  <SCORE.RESTR>
0.301883

>  <SCORE.RESTR.CAVITY>
0.301883

>  <SCORE.RESTR.norm>
0.0215631

>  <SCORE.SYSTEM>
0

>  <SCORE.SYSTEM.CONST>
0

>  <SCORE.SYSTEM.DIHEDRAL>
0

>  <SCORE.SYSTEM.SOLV>
0

>  <SCORE.SYSTEM.norm>
0

>  <SCORE.heavy>
14

>  <SCORE.norm>
0.888432

>  <RMSD>
20.275

$$$$
ligand
 OpenBabel11021811413D
libRbt.so/2013.1/901 2013/11/27
 14 13  0  0  0  0  0  0  0  0999 V2000
   38.3603   -4.9470   -0.3561 N   0  0  0  0  0  0  0  0  0  0  0  0
   37.2741   -5.9383   -0.1996 C   0  0  0  0  0  0  0  0  0  0  0  0
   36.6420   -5.8561    1.2067 C   0  0  0  0  0  0  0  0  0  0  0  0
   35.7970   -4.5960    1.4557 C   0  0  0  0  0  0  0  0  0  0  0  0
   36.6435   -3.3715    1.4318 N   0  0  0  0  0  0  0  0  0  0  0  0
   37.2128   -3.1146    2.7796 C   0  0  0  0  0  0  0  0  0  0  0  0
   38.5954   -2.3796    2.8013 C   0  0  0  0  0  0  0  0  0  0  0  0
   39.1566   -2.1242    4.2297 C   0  0  0  0  0  0  0  0  0  0  0  0
   39.5019   -3.3893    4.9907 C   0  0  0  0  0  0  0  0  0  0  0  0
   38.2786   -3.8906    5.5879 N   0  0  0  0  0  0  0  0  0  0  0  0
   38.1341   -5.2556    5.1130 C   0  0  0  0  0  0  0  0  0  0  0  0
   36.6737   -5.6918    5.1053 C   0  0  0  0  0  0  0  0  0  0  0  0
   36.1292   -5.5179    6.5312 C   0  0  0  0  0  0  0  0  0  0  0  0
   34.6996   -5.8504    6.6244 N   0  0  0  0  0  0  0  0  0  0  0  0
  1  2  1  0  0  0  0
  2  3  1  0  0  0  0
  3  4  1  0  0  0  0
  4  5  1  0  0  0  0
  5  6  1  0  0  0  0
  6  7  1  0  0  0  0
  7  8  1  0  0  0  0
  8  9  1  0  0  0  0
  9 10  1  0  0  0  0
 10 11  1  0  0  0  0
 11 12  1  0  0  0  0
 12 13  1  0  0  0  0
 13 14  1  0  0  0  0
M  END
>  <CHROM.1>
70.79112707,-65.42027783,-86.99165496,150.76859009,179.80063928,65.24727894
-83.01641583,124.14550980,-154.01396046,-56.83519496,177.21244870,37.36433745
-4.42304194,3.37871005,-1.46518969,0.77901617,1.52024891

>  <Name>
ligand

>  <RI>
0

>  <Rbt.Current_Directory>
/home/itssahil/PROJECTS/Mol_Feturizer/New_Systems/rnas/1TN1

>  <Rbt.Executable>
rbdock ($Id: //depot/dev/client3/rdock/2013.1/src/exe/rbdock.cxx#4 $)

>  <Rbt.Library>
libRbt.so (2013.1, Build901 2013/11/27)

>  <Rbt.Parameter_File>
/export/apps/rDock/src/rDock_2013.1_src/data/scripts/dock_solv.prm

>  <Rbt.Receptor>
prm/blind_docking_40.prm

>  <SCORE>
9.41461

>  <SCORE.INTER>
7.74028

>  <SCORE.INTER.CONST>
1

>  <SCORE.INTER.POLAR>
0

>  <SCORE.INTER.ROT>
11

>  <SCORE.INTER.SOLV>
3.42542

>  <SCORE.INTER.VDW>
-6.91495

>  <SCORE.INTER.norm>
0.552877

>  <SCORE.INTRA>
0.362116

>  <SCORE.INTRA.DIHEDRAL>
-2.55776

>  <SCORE.INTRA.DIHEDRAL.0>
7.79482

>  <SCORE.INTRA.POLAR>
0

>  <SCORE.INTRA.POLAR.0>
0

>  <SCORE.INTRA.REPUL>
0

>  <SCORE.INTRA.REPUL.0>
0

>  <SCORE.INTRA.SOLV>
5.0493

>  <SCORE.INTRA.SOLV.lig_0>
-49.456

>  <SCORE.INTRA.VDW>
-0.88365

>  <SCORE.INTRA.VDW.0>
-0.478406

>  <SCORE.INTRA.norm>
0.0258654

>  <SCORE.RESTR>
1.31221

>  <SCORE.RESTR.CAVITY>
1.31221

>  <SCORE.RESTR.norm>
0.0937292

>  <SCORE.SYSTEM>
0

>  <SCORE.SYSTEM.CONST>
0

>  <SCORE.SYSTEM.DIHEDRAL>
0

>  <SCORE.SYSTEM.SOLV>
0

>  <SCORE.SYSTEM.norm>
0

>  <SCORE.heavy>
14

>  <SCORE.norm>
0.672472

>  <RMSD>
20.306

$$$$
ligand
 OpenBabel11021811413D
libRbt.so/2013.1/901 2013/11/27
 14 13  0  0  0  0  0  0  0  0999 V2000
   38.3538   -3.5458    7.3519 N   0  0  0  0  0  0  0  0  0  0  0  0
   39.0154   -3.2527    6.0622 C   0  0  0  0  0  0  0  0  0  0  0  0
   39.2581   -4.5451    5.2531 C   0  0  0  0  0  0  0  0  0  0  0  0
   38.1265   -4.9122    4.2790 C   0  0  0  0  0  0  0  0  0  0  0  0
   36.8282   -5.0480    4.9948 N   0  0  0  0  0  0  0  0  0  0  0  0
   35.7114   -4.6054    4.1209 C   0  0  0  0  0  0  0  0  0  0  0  0
   35.5873   -3.0584    3.9127 C   0  0  0  0  0  0  0  0  0  0  0  0
   34.8871   -2.6505    2.5847 C   0  0  0  0  0  0  0  0  0  0  0  0
   35.6692   -3.0171    1.3386 C   0  0  0  0  0  0  0  0  0  0  0  0
   36.9988   -2.4525    1.4724 N   0  0  0  0  0  0  0  0  0  0  0  0
   37.7830   -3.0202    0.3896 C   0  0  0  0  0  0  0  0  0  0  0  0
   38.6151   -4.2053    0.8654 C   0  0  0  0  0  0  0  0  0  0  0  0
   37.6781   -5.4180    0.9722 C   0  0  0  0  0  0  0  0  0  0  0  0
   37.0953   -5.7858   -0.3270 N   0  0  0  0  0  0  0  0  0  0  0  0
  1  2  1  0  0  0  0
  2  3  1  0  0  0  0
  3  4  1  0  0  0  0
  4  5  1  0  0  0  0
  5  6  1  0  0  0  0
  6  7  1  0  0  0  0
  7  8  1  0  0  0  0
  8  9  1  0  0  0  0
  9 10  1  0  0  0  0
 10 11  1  0  0  0  0
 11 12  1  0  0  0  0
 12 13  1  0  0  0  0
 13 14  1  0  0  0  0
M  END
>  <CHROM.1>
91.72837640,-57.01589913,146.55418384,-73.92835966,154.36783304,-66.23494457
-53.97845834,170.02646583,-98.11022998,78.07308625,62.17592002,37.25764457
-3.96539100,3.09062952,1.32438725,-0.50097260,1.43634065

>  <Name>
ligand

>  <RI>
0

>  <Rbt.Current_Directory>
/home/itssahil/PROJECTS/Mol_Feturizer/New_Systems/rnas/1TN1

>  <Rbt.Executable>
rbdock ($Id: //depot/dev/client3/rdock/2013.1/src/exe/rbdock.cxx#4 $)

>  <Rbt.Library>
libRbt.so (2013.1, Build901 2013/11/27)

>  <Rbt.Parameter_File>
/export/apps/rDock/src/rDock_2013.1_src/data/scripts/dock_solv.prm

>  <Rbt.Receptor>
prm/blind_docking_40.prm

>  <SCORE>
14.1322

>  <SCORE.INTER>
10.9868

>  <SCORE.INTER.CONST>
1

>  <SCORE.INTER.POLAR>
0

>  <SCORE.INTER.ROT>
11

>  <SCORE.INTER.SOLV>
7.70509

>  <SCORE.INTER.VDW>
-6.17715

>  <SCORE.INTER.norm>
0.784773

>  <SCORE.INTRA>
2.93684

>  <SCORE.INTRA.DIHEDRAL>
0.631792

>  <SCORE.INTRA.DIHEDRAL.0>
7.79482

>  <SCORE.INTRA.POLAR>
0

>  <SCORE.INTRA.POLAR.0>
0

>  <SCORE.INTRA.REPUL>
0

>  <SCORE.INTRA.REPUL.0>
0

>  <SCORE.INTRA.SOLV>
6.32855

>  <SCORE.INTRA.SOLV.lig_0>
-49.456

>  <SCORE.INTRA.VDW>
-0.543335

>  <SCORE.INTRA.VDW.0>
-0.478406

>  <SCORE.INTRA.norm>
0.209774

>  <SCORE.RESTR>
0.208532

>  <SCORE.RESTR.CAVITY>
0.208532

>  <SCORE.RESTR.norm>
0.0148951

>  <SCORE.SYSTEM>
0

>  <SCORE.SYSTEM.CONST>
0

>  <SCORE.SYSTEM.DIHEDRAL>
0

>  <SCORE.SYSTEM.SOLV>
0

>  <SCORE.SYSTEM.norm>
0

>  <SCORE.heavy>
14

>  <SCORE.norm>
1.00944

>  <RMSD>
20.406

$$$$
ligand
 OpenBabel11021811413D
libRbt.so/2013.1/901 2013/11/27
 14 13  0  0  0  0  0  0  0  0999 V2000
   38.6820   -6.2107   -0.5349 N   0  0  0  0  0  0  0  0  0  0  0  0
   37.8167   -5.1376    0.0007 C   0  0  0  0  0  0  0  0  0  0  0  0
   36.6142   -5.7232    0.7720 C   0  0  0  0  0  0  0  0  0  0  0  0
   35.6914   -4.6728    1.4117 C   0  0  0  0  0  0  0  0  0  0  0  0
   36.4048   -3.9100    2.4727 N   0  0  0  0  0  0  0  0  0  0  0  0
   37.0597   -2.7105    1.8903 C   0  0  0  0  0  0  0  0  0  0  0  0
   38.5865   -2.5549    2.2015 C   0  0  0  0  0  0  0  0  0  0  0  0
   38.8922   -1.7325    3.4862 C   0  0  0  0  0  0  0  0  0  0  0  0
   38.1931   -2.2490    4.7286 C   0  0  0  0  0  0  0  0  0  0  0  0
   38.6113   -3.6235    4.9287 N   0  0  0  0  0  0  0  0  0  0  0  0
   37.5621   -4.2483    5.7151 C   0  0  0  0  0  0  0  0  0  0  0  0
   38.0048   -5.6006    6.2615 C   0  0  0  0  0  0  0  0  0  0  0  0
   38.0342   -6.5896    5.0863 C   0  0  0  0  0  0  0  0  0  0  0  0
   36.6849   -6.9160    4.6011 N   0  0  0  0  0  0  0  0  0  0  0  0
  1  2  1  0  0  0  0
  2  3  1  0  0  0  0
  3  4  1  0  0  0  0
  4  5  1  0  0  0  0
  5  6  1  0  0  0  0
  6  7  1  0  0  0  0
  7  8  1  0  0  0  0
  8  9  1  0  0  0  0
  9 10  1  0  0  0  0
 10 11  1  0  0  0  0
 11 12  1  0  0  0  0
 12 13  1  0  0  0  0
 13 14  1  0  0  0  0
M  END
>  <CHROM.1>
177.66851774,-64.83390558,89.99476738,-127.09517183,-90.92926381,54.34879287
58.63241236,-156.45277399,-167.43270177,-72.83620588,-69.97653285,37.63129766
-4.41964408,3.07305465,2.09049062,-1.32501371,-1.19737648

>  <Name>
ligand

>  <RI>
0

>  <Rbt.Current_Directory>
/home/itssahil/PROJECTS/Mol_Feturizer/New_Systems/rnas/1TN1

>  <Rbt.Executable>
rbdock ($Id: //depot/dev/client3/rdock/2013.1/src/exe/rbdock.cxx#4 $)

>  <Rbt.Library>
libRbt.so (2013.1, Build901 2013/11/27)

>  <Rbt.Parameter_File>
/export/apps/rDock/src/rDock_2013.1_src/data/scripts/dock_solv.prm

>  <Rbt.Receptor>
prm/blind_docking_40.prm

>  <SCORE>
10.9436

>  <SCORE.INTER>
9.2075

>  <SCORE.INTER.CONST>
1

>  <SCORE.INTER.POLAR>
0

>  <SCORE.INTER.ROT>
11

>  <SCORE.INTER.SOLV>
8.11636

>  <SCORE.INTER.VDW>
-7.50045

>  <SCORE.INTER.norm>
0.657679

>  <SCORE.INTRA>
1.72273

>  <SCORE.INTRA.DIHEDRAL>
-1.39842

>  <SCORE.INTRA.DIHEDRAL.0>
7.79482

>  <SCORE.INTRA.POLAR>
0

>  <SCORE.INTRA.POLAR.0>
0

>  <SCORE.INTRA.REPUL>
0

>  <SCORE.INTRA.REPUL.0>
0

>  <SCORE.INTRA.SOLV>
6.26404

>  <SCORE.INTRA.SOLV.lig_0>
-49.456

>  <SCORE.INTRA.VDW>
-0.710084

>  <SCORE.INTRA.VDW.0>
-0.478406

>  <SCORE.INTRA.norm>
0.123052

>  <SCORE.RESTR>
0.0133335

>  <SCORE.RESTR.CAVITY>
0.0133335

>  <SCORE.RESTR.norm>
0.00095239

>  <SCORE.SYSTEM>
0

>  <SCORE.SYSTEM.CONST>
0

>  <SCORE.SYSTEM.DIHEDRAL>
0

>  <SCORE.SYSTEM.SOLV>
0

>  <SCORE.SYSTEM.norm>
0

>  <SCORE.heavy>
14

>  <SCORE.norm>
0.781683

>  <RMSD>
20.443

$$$$
