ligand
  PyMOL2.2          3D                             0

 23 24  0  0  0  0  0  0  0  0999 V2000
  -10.3620  -10.4070    0.1120 C   0  0  0  0  0  0  0  0  0  0  0  0
  -11.5930   -9.6590    0.1370 O   0  0  0  0  0  0  0  0  0  0  0  0
   -9.4760   -9.8660   -1.0010 C   0  0  0  0  0  0  0  0  0  0  0  0
   -8.5730  -10.8870   -1.6760 C   0  0  0  0  0  0  0  0  0  0  0  0
   -9.3330  -11.6380   -2.6250 O   0  0  0  0  0  0  0  0  0  0  0  0
   -7.5060   -9.9960   -2.3030 C   0  0  0  0  0  0  0  0  0  0  0  0
   -6.2350  -10.5720   -2.6270 O   0  0  0  0  0  0  0  0  0  0  0  0
   -7.3360   -8.9310   -1.2340 C   0  0  0  0  0  0  0  0  0  0  0  0
   -8.5880   -8.8530   -0.5200 O   0  0  0  0  0  0  0  0  0  0  0  0
   -6.9790   -7.6110   -1.9410 C   0  0  0  0  0  0  0  0  0  0  0  0
   -8.0320   -7.1480   -2.7980 O   0  0  0  0  0  0  0  0  0  0  0  0
   -6.1440   -8.4790    0.8160 C   0  0  0  0  0  0  0  0  0  0  0  0
   -6.3320   -9.3650   -0.3010 O   0  0  0  0  0  0  0  0  0  0  0  0
   -4.6650   -8.4830    1.1550 C   0  0  0  0  0  0  0  0  0  0  0  0
   -3.9070   -8.2880   -0.0440 O   0  0  0  0  0  0  0  0  0  0  0  0
   -4.2620   -9.8130    1.7530 C   0  0  0  0  0  0  0  0  0  0  0  0
   -2.9390   -9.6930    2.2810 O   0  0  0  0  0  0  0  0  0  0  0  0
   -5.2280  -10.2210    2.8490 C   0  0  0  0  0  0  0  0  0  0  0  0
   -4.9190  -11.5470    3.2560 O   0  0  0  0  0  0  0  0  0  0  0  0
   -6.6760  -10.1740    2.3800 C   0  0  0  0  0  0  0  0  0  0  0  0
   -6.9400   -8.8480    1.9420 O   0  0  0  0  0  0  0  0  0  0  0  0
   -7.6450  -10.5710    3.5000 C   0  0  0  0  0  0  0  0  0  0  0  0
   -6.9860  -11.1670    4.6270 O   0  0  0  0  0  0  0  0  0  0  0  0
  1  2  1  0  0  0  0
  1  3  1  0  0  0  0
  3  9  1  0  0  0  0
  3  4  1  0  0  0  0
  4  5  1  0  0  0  0
  4  6  1  0  0  0  0
  6  7  1  0  0  0  0
  6  8  1  0  0  0  0
  8  9  1  0  0  0  0
  8 10  1  0  0  0  0
 10 11  1  0  0  0  0
 12 13  1  0  0  0  0
 12 14  1  0  0  0  0
 12 21  1  0  0  0  0
  8 13  1  0  0  0  0
 14 15  1  0  0  0  0
 14 16  1  0  0  0  0
 16 17  1  0  0  0  0
 16 18  1  0  0  0  0
 18 19  1  0  0  0  0
 18 20  1  0  0  0  0
 20 21  1  0  0  0  0
 20 22  1  0  0  0  0
 22 23  1  0  0  0  0
M  END
$$$$
