ligand
 OpenBabel11021811513D
libRbt.so/2013.1/901 2013/11/27
 23 24  0  0  0  0  0  0  0  0999 V2000
  -10.4108  -10.1548   -0.0422 C   0  0  0  0  0  0  0  0  0  0  0  0
  -11.3833   -9.1670    0.3504 O   0  0  0  0  0  0  0  0  0  0  0  0
   -9.5586   -9.5904   -1.1698 C   0  0  2  0  0  0  0  0  0  0  0  0
   -8.6014  -10.5743   -1.8248 C   0  0  1  0  0  0  0  0  0  0  0  0
   -9.3203  -11.3875   -2.7544 O   0  0  0  0  0  0  0  0  0  0  0  0
   -7.5870   -9.6396   -2.4749 C   0  0  2  0  0  0  0  0  0  0  0  0
   -6.2865  -10.1510   -2.7902 O   0  0  0  0  0  0  0  0  0  0  0  0
   -7.4745   -8.5431   -1.4304 C   0  0  2  0  0  0  0  0  0  0  0  0
   -8.7274   -8.5190   -0.7143 O   0  0  0  0  0  0  0  0  0  0  0  0
   -7.1930   -7.2214   -2.1677 C   0  0  0  0  0  0  0  0  0  0  0  0
   -8.1703   -6.9414   -3.1797 O   0  0  0  0  0  0  0  0  0  0  0  0
   -6.4352   -8.0978    0.7025 C   0  0  2  0  0  0  0  0  0  0  0  0
   -6.4460   -8.8996   -0.4913 O   0  0  0  0  0  0  0  0  0  0  0  0
   -4.9847   -7.8860    1.0943 C   0  0  2  0  0  0  0  0  0  0  0  0
   -4.2440   -7.4616   -0.0553 O   0  0  0  0  0  0  0  0  0  0  0  0
   -4.3763   -9.1784    1.5928 C   0  0  1  0  0  0  0  0  0  0  0  0
   -3.1047   -8.8877    2.1775 O   0  0  0  0  0  0  0  0  0  0  0  0
   -5.2837   -9.8374    2.6142 C   0  0  2  0  0  0  0  0  0  0  0  0
   -4.7644  -11.1245    2.9193 O   0  0  0  0  0  0  0  0  0  0  0  0
   -6.7081   -9.9901    2.0976 C   0  0  2  0  0  0  0  0  0  0  0  0
   -7.1823   -8.6928    1.7633 O   0  0  0  0  0  0  0  0  0  0  0  0
   -7.6208  -10.6409    3.1437 C   0  0  0  0  0  0  0  0  0  0  0  0
   -7.2351  -11.9850    3.4665 O   0  0  0  0  0  0  0  0  0  0  0  0
  1  2  1  0  0  0  0
  3  1  1  1  0  0  0
  3  9  1  0  0  0  0
  3  4  1  0  0  0  0
  4  5  1  6  0  0  0
  4  6  1  0  0  0  0
  6  7  1  1  0  0  0
  6  8  1  0  0  0  0
  8  9  1  0  0  0  0
  8 10  1  6  0  0  0
  8 13  1  0  0  0  0
 10 11  1  0  0  0  0
 12 13  1  6  0  0  0
 12 14  1  0  0  0  0
 12 21  1  0  0  0  0
 14 15  1  6  0  0  0
 14 16  1  0  0  0  0
 16 17  1  1  0  0  0
 16 18  1  0  0  0  0
 18 19  1  6  0  0  0
 18 20  1  0  0  0  0
 20 21  1  0  0  0  0
 20 22  1  1  0  0  0
 22 23  1  0  0  0  0
M  END
>  <CHROM.1>
-172.26910969,54.57320683,-143.02089402,-167.16104179,-63.82054024,-7.09182607
-9.33696593,0.12341162,2.38807563,-0.38065966,-1.09037166

>  <Name>
ligand

>  <RI>
0

>  <Rbt.Current_Directory>
/home/itssahil/PROJECTS/Mol_Feturizer/New_Systems/rnas/4TS2

>  <Rbt.Executable>
rbdock ($Id: //depot/dev/client3/rdock/2013.1/src/exe/rbdock.cxx#4 $)

>  <Rbt.Library>
libRbt.so (2013.1, Build901 2013/11/27)

>  <Rbt.Parameter_File>
/export/apps/rDock/src/rDock_2013.1_src/data/scripts/dock_solv.prm

>  <Rbt.Receptor>
prm/pocket_docking_2.prm

>  <SCORE>
-7.35305

>  <SCORE.INTER>
-2.83469

>  <SCORE.INTER.CONST>
1

>  <SCORE.INTER.POLAR>
0

>  <SCORE.INTER.ROT>
5

>  <SCORE.INTER.SOLV>
7.16664

>  <SCORE.INTER.VDW>
-11.212

>  <SCORE.INTER.norm>
-0.123247

>  <SCORE.INTRA>
-4.51836

>  <SCORE.INTRA.DIHEDRAL>
-6.63178

>  <SCORE.INTRA.DIHEDRAL.0>
12.4853

>  <SCORE.INTRA.POLAR>
0

>  <SCORE.INTRA.POLAR.0>
0

>  <SCORE.INTRA.REPUL>
0

>  <SCORE.INTRA.REPUL.0>
0

>  <SCORE.INTRA.SOLV>
-0.106238

>  <SCORE.INTRA.SOLV.lig_0>
-31.1706

>  <SCORE.INTRA.VDW>
-1.14936

>  <SCORE.INTRA.VDW.0>
-1.16895

>  <SCORE.INTRA.norm>
-0.196451

>  <SCORE.RESTR>
0

>  <SCORE.RESTR.CAVITY>
0

>  <SCORE.RESTR.norm>
0

>  <SCORE.SYSTEM>
0

>  <SCORE.SYSTEM.CONST>
0

>  <SCORE.SYSTEM.DIHEDRAL>
0

>  <SCORE.SYSTEM.SOLV>
0

>  <SCORE.SYSTEM.norm>
0

>  <SCORE.heavy>
23

>  <SCORE.norm>
-0.319698

>  <RMSD>
0.582

$$$$
ligand
 OpenBabel11021811513D
libRbt.so/2013.1/901 2013/11/27
 23 24  0  0  0  0  0  0  0  0999 V2000
  -10.9093   -9.7894   -0.1604 C   0  0  0  0  0  0  0  0  0  0  0  0
  -11.8403   -8.7095    0.0461 O   0  0  0  0  0  0  0  0  0  0  0  0
   -9.9001   -9.3771   -1.2225 C   0  0  2  0  0  0  0  0  0  0  0  0
   -9.0405  -10.5003   -1.7822 C   0  0  1  0  0  0  0  0  0  0  0  0
   -9.7897  -11.2306   -2.7556 O   0  0  0  0  0  0  0  0  0  0  0  0
   -7.8574   -9.7313   -2.3605 C   0  0  2  0  0  0  0  0  0  0  0  0
   -6.6201  -10.4250   -2.5604 O   0  0  0  0  0  0  0  0  0  0  0  0
   -7.6763   -8.6340   -1.3266 C   0  0  2  0  0  0  0  0  0  0  0  0
   -8.9665   -8.4190   -0.7161 O   0  0  0  0  0  0  0  0  0  0  0  0
   -7.1559   -7.3833   -2.0577 C   0  0  0  0  0  0  0  0  0  0  0  0
   -8.0345   -6.9601   -3.1096 O   0  0  0  0  0  0  0  0  0  0  0  0
   -6.6314   -8.1988    0.8057 C   0  0  2  0  0  0  0  0  0  0  0  0
   -6.7853   -9.1041   -0.3010 O   0  0  0  0  0  0  0  0  0  0  0  0
   -5.1449   -7.9597    0.9937 C   0  0  2  0  0  0  0  0  0  0  0  0
   -4.5555   -7.6434   -0.2723 O   0  0  0  0  0  0  0  0  0  0  0  0
   -4.4710   -9.2052    1.5261 C   0  0  1  0  0  0  0  0  0  0  0  0
   -3.1385   -8.8693    1.9199 O   0  0  0  0  0  0  0  0  0  0  0  0
   -5.2402   -9.7658    2.7072 C   0  0  2  0  0  0  0  0  0  0  0  0
   -4.6788  -11.0229    3.0592 O   0  0  0  0  0  0  0  0  0  0  0  0
   -6.7167   -9.9575    2.3874 C   0  0  2  0  0  0  0  0  0  0  0  0
   -7.2372   -8.6930    2.0000 O   0  0  0  0  0  0  0  0  0  0  0  0
   -7.4882  -10.5078    3.5928 C   0  0  0  0  0  0  0  0  0  0  0  0
   -7.0910  -11.8389    3.9531 O   0  0  0  0  0  0  0  0  0  0  0  0
  1  2  1  0  0  0  0
  3  1  1  1  0  0  0
  3  9  1  0  0  0  0
  3  4  1  0  0  0  0
  4  5  1  6  0  0  0
  4  6  1  0  0  0  0
  6  7  1  1  0  0  0
  6  8  1  0  0  0  0
  8  9  1  0  0  0  0
  8 10  1  6  0  0  0
  8 13  1  0  0  0  0
 10 11  1  0  0  0  0
 12 13  1  6  0  0  0
 12 14  1  0  0  0  0
 12 21  1  0  0  0  0
 14 15  1  6  0  0  0
 14 16  1  0  0  0  0
 16 17  1  1  0  0  0
 16 18  1  0  0  0  0
 18 19  1  6  0  0  0
 18 20  1  0  0  0  0
 20 21  1  0  0  0  0
 20 22  1  1  0  0  0
 22 23  1  0  0  0  0
M  END
>  <CHROM.1>
-166.95151963,57.36741460,-126.80672905,-174.44242391,-65.99175087,-7.25969289
-9.30784877,0.18948142,2.38957465,-0.29696806,-1.13905254

>  <Name>
ligand

>  <RI>
0

>  <Rbt.Current_Directory>
/home/itssahil/PROJECTS/Mol_Feturizer/New_Systems/rnas/4TS2

>  <Rbt.Executable>
rbdock ($Id: //depot/dev/client3/rdock/2013.1/src/exe/rbdock.cxx#4 $)

>  <Rbt.Library>
libRbt.so (2013.1, Build901 2013/11/27)

>  <Rbt.Parameter_File>
/export/apps/rDock/src/rDock_2013.1_src/data/scripts/dock_solv.prm

>  <Rbt.Receptor>
prm/pocket_docking_2.prm

>  <SCORE>
-7.40476

>  <SCORE.INTER>
-4.1164

>  <SCORE.INTER.CONST>
1

>  <SCORE.INTER.POLAR>
0

>  <SCORE.INTER.ROT>
5

>  <SCORE.INTER.SOLV>
7.45107

>  <SCORE.INTER.VDW>
-12.1613

>  <SCORE.INTER.norm>
-0.178974

>  <SCORE.INTRA>
-3.28864

>  <SCORE.INTRA.DIHEDRAL>
-4.69756

>  <SCORE.INTRA.DIHEDRAL.0>
12.4853

>  <SCORE.INTRA.POLAR>
0

>  <SCORE.INTRA.POLAR.0>
0

>  <SCORE.INTRA.REPUL>
0

>  <SCORE.INTRA.REPUL.0>
0

>  <SCORE.INTRA.SOLV>
-0.216682

>  <SCORE.INTRA.SOLV.lig_0>
-31.1706

>  <SCORE.INTRA.VDW>
-0.831521

>  <SCORE.INTRA.VDW.0>
-1.16895

>  <SCORE.INTRA.norm>
-0.142984

>  <SCORE.RESTR>
0.0002907

>  <SCORE.RESTR.CAVITY>
0.0002907

>  <SCORE.RESTR.norm>
1.26391e-05

>  <SCORE.SYSTEM>
0

>  <SCORE.SYSTEM.CONST>
0

>  <SCORE.SYSTEM.DIHEDRAL>
0

>  <SCORE.SYSTEM.SOLV>
0

>  <SCORE.SYSTEM.norm>
0

>  <SCORE.heavy>
23

>  <SCORE.norm>
-0.321946

>  <RMSD>
0.632

$$$$
ligand
 OpenBabel11021811513D
libRbt.so/2013.1/901 2013/11/27
 23 24  0  0  0  0  0  0  0  0999 V2000
  -10.4130   -9.8849    0.1311 C   0  0  0  0  0  0  0  0  0  0  0  0
  -11.3391  -10.8928   -0.3185 O   0  0  0  0  0  0  0  0  0  0  0  0
   -9.5883   -9.4054   -1.0548 C   0  0  2  0  0  0  0  0  0  0  0  0
   -8.7151  -10.4604   -1.7166 C   0  0  1  0  0  0  0  0  0  0  0  0
   -9.5184  -11.2663   -2.5812 O   0  0  0  0  0  0  0  0  0  0  0  0
   -7.6869   -9.6033   -2.4470 C   0  0  2  0  0  0  0  0  0  0  0  0
   -6.4308  -10.1931   -2.8029 O   0  0  0  0  0  0  0  0  0  0  0  0
   -7.4685   -8.4789   -1.4501 C   0  0  2  0  0  0  0  0  0  0  0  0
   -8.6828   -8.3641   -0.6781 O   0  0  0  0  0  0  0  0  0  0  0  0
   -7.1559   -7.2001   -2.2480 C   0  0  0  0  0  0  0  0  0  0  0  0
   -8.1659   -6.9035   -3.2225 O   0  0  0  0  0  0  0  0  0  0  0  0
   -6.4204   -8.1352    0.6972 C   0  0  2  0  0  0  0  0  0  0  0  0
   -6.4156   -8.8563   -0.5469 O   0  0  0  0  0  0  0  0  0  0  0  0
   -4.9742   -7.9099    1.0973 C   0  0  2  0  0  0  0  0  0  0  0  0
   -4.2513   -7.3902   -0.0242 O   0  0  0  0  0  0  0  0  0  0  0  0
   -4.3282   -9.2152    1.5070 C   0  0  1  0  0  0  0  0  0  0  0  0
   -3.0619   -8.9288    2.1053 O   0  0  0  0  0  0  0  0  0  0  0  0
   -5.2119   -9.9650    2.4856 C   0  0  2  0  0  0  0  0  0  0  0  0
   -4.6561  -11.2546    2.7031 O   0  0  0  0  0  0  0  0  0  0  0  0
   -6.6342  -10.1225    1.9650 C   0  0  2  0  0  0  0  0  0  0  0  0
   -7.1455   -8.8195    1.7189 O   0  0  0  0  0  0  0  0  0  0  0  0
   -7.5234  -10.8659    2.9688 C   0  0  0  0  0  0  0  0  0  0  0  0
   -7.6081  -10.2053    4.2400 O   0  0  0  0  0  0  0  0  0  0  0  0
  1  2  1  0  0  0  0
  3  1  1  1  0  0  0
  3  9  1  0  0  0  0
  3  4  1  0  0  0  0
  4  5  1  6  0  0  0
  4  6  1  0  0  0  0
  6  7  1  1  0  0  0
  6  8  1  0  0  0  0
  8  9  1  0  0  0  0
  8 10  1  6  0  0  0
  8 13  1  0  0  0  0
 10 11  1  0  0  0  0
 12 13  1  6  0  0  0
 12 14  1  0  0  0  0
 12 21  1  0  0  0  0
 14 15  1  6  0  0  0
 14 16  1  0  0  0  0
 16 17  1  1  0  0  0
 16 18  1  0  0  0  0
 18 19  1  6  0  0  0
 18 20  1  0  0  0  0
 20 21  1  0  0  0  0
 20 22  1  1  0  0  0
 22 23  1  0  0  0  0
M  END
>  <CHROM.1>
-62.60319264,54.62782826,-143.76702015,-159.08531449,59.12440601,-7.10668521
-9.32594102,0.11071854,2.43242701,-0.40297453,-1.13784872

>  <Name>
ligand

>  <RI>
0

>  <Rbt.Current_Directory>
/home/itssahil/PROJECTS/Mol_Feturizer/New_Systems/rnas/4TS2

>  <Rbt.Executable>
rbdock ($Id: //depot/dev/client3/rdock/2013.1/src/exe/rbdock.cxx#4 $)

>  <Rbt.Library>
libRbt.so (2013.1, Build901 2013/11/27)

>  <Rbt.Parameter_File>
/export/apps/rDock/src/rDock_2013.1_src/data/scripts/dock_solv.prm

>  <Rbt.Receptor>
prm/pocket_docking_2.prm

>  <SCORE>
-7.07504

>  <SCORE.INTER>
-3.02245

>  <SCORE.INTER.CONST>
1

>  <SCORE.INTER.POLAR>
0

>  <SCORE.INTER.ROT>
5

>  <SCORE.INTER.SOLV>
6.80225

>  <SCORE.INTER.VDW>
-11.2157

>  <SCORE.INTER.norm>
-0.131411

>  <SCORE.INTRA>
-4.05259

>  <SCORE.INTRA.DIHEDRAL>
-5.91923

>  <SCORE.INTRA.DIHEDRAL.0>
12.4853

>  <SCORE.INTRA.POLAR>
0

>  <SCORE.INTRA.POLAR.0>
0

>  <SCORE.INTRA.REPUL>
0

>  <SCORE.INTRA.REPUL.0>
0

>  <SCORE.INTRA.SOLV>
0.283537

>  <SCORE.INTRA.SOLV.lig_0>
-31.1706

>  <SCORE.INTRA.VDW>
-1.23475

>  <SCORE.INTRA.VDW.0>
-1.16895

>  <SCORE.INTRA.norm>
-0.1762

>  <SCORE.RESTR>
0

>  <SCORE.RESTR.CAVITY>
0

>  <SCORE.RESTR.norm>
0

>  <SCORE.SYSTEM>
0

>  <SCORE.SYSTEM.CONST>
0

>  <SCORE.SYSTEM.DIHEDRAL>
0

>  <SCORE.SYSTEM.SOLV>
0

>  <SCORE.SYSTEM.norm>
0

>  <SCORE.heavy>
23

>  <SCORE.norm>
-0.307611

>  <RMSD>
0.656

$$$$
ligand
 OpenBabel11021811513D
libRbt.so/2013.1/901 2013/11/27
 23 24  0  0  0  0  0  0  0  0999 V2000
  -10.4244   -9.7684    0.1459 C   0  0  0  0  0  0  0  0  0  0  0  0
  -11.3822  -10.7513   -0.2922 O   0  0  0  0  0  0  0  0  0  0  0  0
   -9.5913   -9.3223   -1.0472 C   0  0  2  0  0  0  0  0  0  0  0  0
   -8.7426  -10.4047   -1.6966 C   0  0  1  0  0  0  0  0  0  0  0  0
   -9.5648  -11.2036   -2.5498 O   0  0  0  0  0  0  0  0  0  0  0  0
   -7.6969   -9.5799   -2.4393 C   0  0  2  0  0  0  0  0  0  0  0  0
   -6.4547  -10.2017   -2.7893 O   0  0  0  0  0  0  0  0  0  0  0  0
   -7.4522   -8.4479   -1.4571 C   0  0  2  0  0  0  0  0  0  0  0  0
   -8.6624   -8.2966   -0.6851 O   0  0  0  0  0  0  0  0  0  0  0  0
   -7.1128   -7.1866   -2.2718 C   0  0  0  0  0  0  0  0  0  0  0  0
   -8.1037   -6.8962   -3.2675 O   0  0  0  0  0  0  0  0  0  0  0  0
   -6.4089   -8.1177    0.6946 C   0  0  2  0  0  0  0  0  0  0  0  0
   -6.4064   -8.8369   -0.5507 O   0  0  0  0  0  0  0  0  0  0  0  0
   -4.9620   -7.9019    1.0974 C   0  0  2  0  0  0  0  0  0  0  0  0
   -4.2341   -7.3849   -0.0220 O   0  0  0  0  0  0  0  0  0  0  0  0
   -4.3247   -9.2117    1.5062 C   0  0  1  0  0  0  0  0  0  0  0  0
   -3.0576   -8.9340    2.1070 O   0  0  0  0  0  0  0  0  0  0  0  0
   -5.2146   -9.9576    2.4821 C   0  0  2  0  0  0  0  0  0  0  0  0
   -4.6671  -11.2509    2.6985 O   0  0  0  0  0  0  0  0  0  0  0  0
   -6.6370  -10.1056    1.9589 C   0  0  2  0  0  0  0  0  0  0  0  0
   -7.1398   -8.7990    1.7140 O   0  0  0  0  0  0  0  0  0  0  0  0
   -7.5324  -10.8451    2.9601 C   0  0  0  0  0  0  0  0  0  0  0  0
   -7.5755  -10.2129    4.2477 O   0  0  0  0  0  0  0  0  0  0  0  0
  1  2  1  0  0  0  0
  3  1  1  1  0  0  0
  3  9  1  0  0  0  0
  3  4  1  0  0  0  0
  4  5  1  6  0  0  0
  4  6  1  0  0  0  0
  6  7  1  1  0  0  0
  6  8  1  0  0  0  0
  8  9  1  0  0  0  0
  8 10  1  6  0  0  0
  8 13  1  0  0  0  0
 10 11  1  0  0  0  0
 12 13  1  6  0  0  0
 12 14  1  0  0  0  0
 12 21  1  0  0  0  0
 14 15  1  6  0  0  0
 14 16  1  0  0  0  0
 16 17  1  1  0  0  0
 16 18  1  0  0  0  0
 18 19  1  6  0  0  0
 18 20  1  0  0  0  0
 20 21  1  0  0  0  0
 20 22  1  1  0  0  0
 22 23  1  0  0  0  0
M  END
>  <CHROM.1>
-63.17751711,53.39981420,-143.53075946,-157.96150928,56.93713851,-7.10457212
-9.29542934,0.11144125,2.42573835,-0.38755303,-1.14013026

>  <Name>
ligand

>  <RI>
0

>  <Rbt.Current_Directory>
/home/itssahil/PROJECTS/Mol_Feturizer/New_Systems/rnas/4TS2

>  <Rbt.Executable>
rbdock ($Id: //depot/dev/client3/rdock/2013.1/src/exe/rbdock.cxx#4 $)

>  <Rbt.Library>
libRbt.so (2013.1, Build901 2013/11/27)

>  <Rbt.Parameter_File>
/export/apps/rDock/src/rDock_2013.1_src/data/scripts/dock_solv.prm

>  <Rbt.Receptor>
prm/pocket_docking_2.prm

>  <SCORE>
-7.17086

>  <SCORE.INTER>
-3.31908

>  <SCORE.INTER.CONST>
1

>  <SCORE.INTER.POLAR>
0

>  <SCORE.INTER.ROT>
5

>  <SCORE.INTER.SOLV>
6.8511

>  <SCORE.INTER.VDW>
-11.4298

>  <SCORE.INTER.norm>
-0.144308

>  <SCORE.INTRA>
-3.85558

>  <SCORE.INTRA.DIHEDRAL>
-5.61015

>  <SCORE.INTRA.DIHEDRAL.0>
12.4853

>  <SCORE.INTRA.POLAR>
0

>  <SCORE.INTRA.POLAR.0>
0

>  <SCORE.INTRA.REPUL>
0

>  <SCORE.INTRA.REPUL.0>
0

>  <SCORE.INTRA.SOLV>
0.29631

>  <SCORE.INTRA.SOLV.lig_0>
-31.1706

>  <SCORE.INTRA.VDW>
-1.19866

>  <SCORE.INTRA.VDW.0>
-1.16895

>  <SCORE.INTRA.norm>
-0.167634

>  <SCORE.RESTR>
0.00380809

>  <SCORE.RESTR.CAVITY>
0.00380809

>  <SCORE.RESTR.norm>
0.000165569

>  <SCORE.SYSTEM>
0

>  <SCORE.SYSTEM.CONST>
0

>  <SCORE.SYSTEM.DIHEDRAL>
0

>  <SCORE.SYSTEM.SOLV>
0

>  <SCORE.SYSTEM.norm>
0

>  <SCORE.heavy>
23

>  <SCORE.norm>
-0.311777

>  <RMSD>
0.660

$$$$
ligand
 OpenBabel11021811513D
libRbt.so/2013.1/901 2013/11/27
 23 24  0  0  0  0  0  0  0  0999 V2000
  -10.5944   -9.6184    0.0840 C   0  0  0  0  0  0  0  0  0  0  0  0
  -11.6274  -10.5086   -0.3806 O   0  0  0  0  0  0  0  0  0  0  0  0
   -9.7183   -9.2182   -1.0944 C   0  0  2  0  0  0  0  0  0  0  0  0
   -8.9146  -10.3440   -1.7271 C   0  0  1  0  0  0  0  0  0  0  0  0
   -9.7612  -11.1017   -2.5939 O   0  0  0  0  0  0  0  0  0  0  0  0
   -7.8149   -9.5754   -2.4519 C   0  0  2  0  0  0  0  0  0  0  0  0
   -6.6001  -10.2607   -2.7787 O   0  0  0  0  0  0  0  0  0  0  0  0
   -7.5303   -8.4552   -1.4669 C   0  0  2  0  0  0  0  0  0  0  0  0
   -8.7448   -8.2405   -0.7170 O   0  0  0  0  0  0  0  0  0  0  0  0
   -7.1122   -7.2148   -2.2769 C   0  0  0  0  0  0  0  0  0  0  0  0
   -8.0515   -6.8970   -3.3135 O   0  0  0  0  0  0  0  0  0  0  0  0
   -6.4928   -8.1565    0.6922 C   0  0  2  0  0  0  0  0  0  0  0  0
   -6.5221   -8.8952   -0.5413 O   0  0  0  0  0  0  0  0  0  0  0  0
   -5.0362   -7.9165    1.0433 C   0  0  2  0  0  0  0  0  0  0  0  0
   -4.3525   -7.4083   -0.1075 O   0  0  0  0  0  0  0  0  0  0  0  0
   -4.3689   -9.2117    1.4508 C   0  0  1  0  0  0  0  0  0  0  0  0
   -3.0865   -8.9089    2.0048 O   0  0  0  0  0  0  0  0  0  0  0  0
   -5.2165   -9.9530    2.4671 C   0  0  2  0  0  0  0  0  0  0  0  0
   -4.6454  -11.2360    2.6850 O   0  0  0  0  0  0  0  0  0  0  0  0
   -6.6533  -10.1269    1.9938 C   0  0  2  0  0  0  0  0  0  0  0  0
   -7.1808   -8.8307    1.7457 O   0  0  0  0  0  0  0  0  0  0  0  0
   -7.5056  -10.8615    3.0354 C   0  0  0  0  0  0  0  0  0  0  0  0
   -7.5781  -10.1690    4.2904 O   0  0  0  0  0  0  0  0  0  0  0  0
  1  2  1  0  0  0  0
  3  1  1  1  0  0  0
  3  9  1  0  0  0  0
  3  4  1  0  0  0  0
  4  5  1  6  0  0  0
  4  6  1  0  0  0  0
  6  7  1  1  0  0  0
  6  8  1  0  0  0  0
  8  9  1  0  0  0  0
  8 10  1  6  0  0  0
  8 13  1  0  0  0  0
 10 11  1  0  0  0  0
 12 13  1  6  0  0  0
 12 14  1  0  0  0  0
 12 21  1  0  0  0  0
 14 15  1  6  0  0  0
 14 16  1  0  0  0  0
 16 17  1  1  0  0  0
 16 18  1  0  0  0  0
 18 19  1  6  0  0  0
 18 20  1  0  0  0  0
 20 21  1  0  0  0  0
 20 22  1  1  0  0  0
 22 23  1  0  0  0  0
M  END
>  <CHROM.1>
-65.54568901,51.87406166,-138.41994899,-159.13576104,60.37544184,-7.18139634
-9.27250469,0.08915686,2.42733406,-0.35472518,-1.15245166

>  <Name>
ligand

>  <RI>
0

>  <Rbt.Current_Directory>
/home/itssahil/PROJECTS/Mol_Feturizer/New_Systems/rnas/4TS2

>  <Rbt.Executable>
rbdock ($Id: //depot/dev/client3/rdock/2013.1/src/exe/rbdock.cxx#4 $)

>  <Rbt.Library>
libRbt.so (2013.1, Build901 2013/11/27)

>  <Rbt.Parameter_File>
/export/apps/rDock/src/rDock_2013.1_src/data/scripts/dock_solv.prm

>  <Rbt.Receptor>
prm/pocket_docking_2.prm

>  <SCORE>
-7.13166

>  <SCORE.INTER>
-3.73618

>  <SCORE.INTER.CONST>
1

>  <SCORE.INTER.POLAR>
0

>  <SCORE.INTER.ROT>
5

>  <SCORE.INTER.SOLV>
7.09534

>  <SCORE.INTER.VDW>
-11.7892

>  <SCORE.INTER.norm>
-0.162442

>  <SCORE.INTRA>
-3.39853

>  <SCORE.INTRA.DIHEDRAL>
-4.84614

>  <SCORE.INTRA.DIHEDRAL.0>
12.4853

>  <SCORE.INTRA.POLAR>
0

>  <SCORE.INTRA.POLAR.0>
0

>  <SCORE.INTRA.REPUL>
0

>  <SCORE.INTRA.REPUL.0>
0

>  <SCORE.INTRA.SOLV>
0.236247

>  <SCORE.INTRA.SOLV.lig_0>
-31.1706

>  <SCORE.INTRA.VDW>
-1.09358

>  <SCORE.INTRA.VDW.0>
-1.16895

>  <SCORE.INTRA.norm>
-0.147762

>  <SCORE.RESTR>
0.00304027

>  <SCORE.RESTR.CAVITY>
0.00304027

>  <SCORE.RESTR.norm>
0.000132186

>  <SCORE.SYSTEM>
0

>  <SCORE.SYSTEM.CONST>
0

>  <SCORE.SYSTEM.DIHEDRAL>
0

>  <SCORE.SYSTEM.SOLV>
0

>  <SCORE.SYSTEM.norm>
0

>  <SCORE.heavy>
23

>  <SCORE.norm>
-0.310072

>  <RMSD>
0.688

$$$$
ligand
 OpenBabel11021811513D
libRbt.so/2013.1/901 2013/11/27
 23 24  0  0  0  0  0  0  0  0999 V2000
  -10.8853   -9.4774    0.1116 C   0  0  0  0  0  0  0  0  0  0  0  0
  -11.9246  -10.3381   -0.3929 O   0  0  0  0  0  0  0  0  0  0  0  0
   -9.9165   -9.1561   -1.0174 C   0  0  2  0  0  0  0  0  0  0  0  0
   -9.1522  -10.3429   -1.5841 C   0  0  1  0  0  0  0  0  0  0  0  0
   -9.9937  -11.0601   -2.4895 O   0  0  0  0  0  0  0  0  0  0  0  0
   -7.9634   -9.6603   -2.2521 C   0  0  2  0  0  0  0  0  0  0  0  0
   -6.7789  -10.4284   -2.4950 O   0  0  0  0  0  0  0  0  0  0  0  0
   -7.6650   -8.5430   -1.2680 C   0  0  2  0  0  0  0  0  0  0  0  0
   -8.9051   -8.2366   -0.5960 O   0  0  0  0  0  0  0  0  0  0  0  0
   -7.1191   -7.3471   -2.0690 C   0  0  0  0  0  0  0  0  0  0  0  0
   -8.0127   -6.9350   -3.1127 O   0  0  0  0  0  0  0  0  0  0  0  0
   -6.4910   -8.1064    0.7957 C   0  0  2  0  0  0  0  0  0  0  0  0
   -6.7445   -9.0302   -0.2769 O   0  0  0  0  0  0  0  0  0  0  0  0
   -4.9875   -7.9276    0.8953 C   0  0  2  0  0  0  0  0  0  0  0  0
   -4.4572   -7.6673   -0.4090 O   0  0  0  0  0  0  0  0  0  0  0  0
   -4.3377   -9.1882    1.4222 C   0  0  1  0  0  0  0  0  0  0  0  0
   -2.9722   -8.9012    1.7331 O   0  0  0  0  0  0  0  0  0  0  0  0
   -5.0623   -9.6868    2.6580 C   0  0  2  0  0  0  0  0  0  0  0  0
   -4.5353  -10.9583    3.0112 O   0  0  0  0  0  0  0  0  0  0  0  0
   -6.5611   -9.8217    2.4251 C   0  0  2  0  0  0  0  0  0  0  0  0
   -7.0490   -8.5454    2.0341 O   0  0  0  0  0  0  0  0  0  0  0  0
   -7.2862  -10.3093    3.6850 C   0  0  0  0  0  0  0  0  0  0  0  0
   -6.9386  -11.6536    4.0477 O   0  0  0  0  0  0  0  0  0  0  0  0
  1  2  1  0  0  0  0
  3  1  1  1  0  0  0
  3  9  1  0  0  0  0
  3  4  1  0  0  0  0
  4  5  1  6  0  0  0
  4  6  1  0  0  0  0
  6  7  1  1  0  0  0
  6  8  1  0  0  0  0
  8  9  1  0  0  0  0
  8 10  1  6  0  0  0
  8 13  1  0  0  0  0
 10 11  1  0  0  0  0
 12 13  1  6  0  0  0
 12 14  1  0  0  0  0
 12 21  1  0  0  0  0
 14 15  1  6  0  0  0
 14 16  1  0  0  0  0
 16 17  1  1  0  0  0
 16 18  1  0  0  0  0
 18 19  1  6  0  0  0
 18 20  1  0  0  0  0
 20 21  1  0  0  0  0
 20 22  1  1  0  0  0
 22 23  1  0  0  0  0
M  END
>  <CHROM.1>
-63.94546871,55.53915667,-126.44790035,-173.79214097,-66.74321921,-7.20722118
-9.29038649,0.20758844,2.48227083,-0.33872930,-1.10950102

>  <Name>
ligand

>  <RI>
0

>  <Rbt.Current_Directory>
/home/itssahil/PROJECTS/Mol_Feturizer/New_Systems/rnas/4TS2

>  <Rbt.Executable>
rbdock ($Id: //depot/dev/client3/rdock/2013.1/src/exe/rbdock.cxx#4 $)

>  <Rbt.Library>
libRbt.so (2013.1, Build901 2013/11/27)

>  <Rbt.Parameter_File>
/export/apps/rDock/src/rDock_2013.1_src/data/scripts/dock_solv.prm

>  <Rbt.Receptor>
prm/pocket_docking_2.prm

>  <SCORE>
-7.96235

>  <SCORE.INTER>
-4.65484

>  <SCORE.INTER.CONST>
1

>  <SCORE.INTER.POLAR>
0

>  <SCORE.INTER.ROT>
5

>  <SCORE.INTER.SOLV>
6.35659

>  <SCORE.INTER.VDW>
-12.1554

>  <SCORE.INTER.norm>
-0.202384

>  <SCORE.INTRA>
-3.30751

>  <SCORE.INTRA.DIHEDRAL>
-5.1152

>  <SCORE.INTRA.DIHEDRAL.0>
12.4853

>  <SCORE.INTRA.POLAR>
0

>  <SCORE.INTRA.POLAR.0>
0

>  <SCORE.INTRA.REPUL>
0

>  <SCORE.INTRA.REPUL.0>
0

>  <SCORE.INTRA.SOLV>
0.13669

>  <SCORE.INTRA.SOLV.lig_0>
-31.1706

>  <SCORE.INTRA.VDW>
-0.818253

>  <SCORE.INTRA.VDW.0>
-1.16895

>  <SCORE.INTRA.norm>
-0.143805

>  <SCORE.RESTR>
0

>  <SCORE.RESTR.CAVITY>
0

>  <SCORE.RESTR.norm>
0

>  <SCORE.SYSTEM>
0

>  <SCORE.SYSTEM.CONST>
0

>  <SCORE.SYSTEM.DIHEDRAL>
0

>  <SCORE.SYSTEM.SOLV>
0

>  <SCORE.SYSTEM.norm>
0

>  <SCORE.heavy>
23

>  <SCORE.norm>
-0.346189

>  <RMSD>
0.692

$$$$
ligand
 OpenBabel11021811513D
libRbt.so/2013.1/901 2013/11/27
 23 24  0  0  0  0  0  0  0  0999 V2000
  -10.8079   -9.5529    0.0708 C   0  0  0  0  0  0  0  0  0  0  0  0
  -11.8504  -10.4157   -0.4235 O   0  0  0  0  0  0  0  0  0  0  0  0
   -9.8783   -9.1904   -1.0785 C   0  0  2  0  0  0  0  0  0  0  0  0
   -9.1073  -10.3502   -1.6899 C   0  0  1  0  0  0  0  0  0  0  0  0
   -9.9600  -11.0668   -2.5852 O   0  0  0  0  0  0  0  0  0  0  0  0
   -7.9518   -9.6309   -2.3775 C   0  0  2  0  0  0  0  0  0  0  0  0
   -6.7597  -10.3700   -2.6689 O   0  0  0  0  0  0  0  0  0  0  0  0
   -7.6474   -8.5269   -1.3803 C   0  0  2  0  0  0  0  0  0  0  0  0
   -8.8736   -8.2588   -0.6676 O   0  0  0  0  0  0  0  0  0  0  0  0
   -7.1484   -7.3050   -2.1725 C   0  0  0  0  0  0  0  0  0  0  0  0
   -8.0727   -6.9002   -3.1921 O   0  0  0  0  0  0  0  0  0  0  0  0
   -6.6205   -8.2421    0.7858 C   0  0  2  0  0  0  0  0  0  0  0  0
   -6.6895   -9.0142   -0.4254 O   0  0  0  0  0  0  0  0  0  0  0  0
   -5.1556   -7.9573    1.0601 C   0  0  2  0  0  0  0  0  0  0  0  0
   -4.5405   -7.4637   -0.1350 O   0  0  0  0  0  0  0  0  0  0  0  0
   -4.4367   -9.2244    1.4681 C   0  0  1  0  0  0  0  0  0  0  0  0
   -3.1375   -8.8756    1.9518 O   0  0  0  0  0  0  0  0  0  0  0  0
   -5.2158   -9.9585    2.5428 C   0  0  2  0  0  0  0  0  0  0  0  0
   -4.6023  -11.2208    2.7660 O   0  0  0  0  0  0  0  0  0  0  0  0
   -6.6686  -10.1800    2.1439 C   0  0  2  0  0  0  0  0  0  0  0  0
   -7.2402   -8.9042    1.8882 O   0  0  0  0  0  0  0  0  0  0  0  0
   -7.4512  -10.9069    3.2439 C   0  0  0  0  0  0  0  0  0  0  0  0
   -7.3837  -10.2414    4.5137 O   0  0  0  0  0  0  0  0  0  0  0  0
  1  2  1  0  0  0  0
  3  1  1  1  0  0  0
  3  9  1  0  0  0  0
  3  4  1  0  0  0  0
  4  5  1  6  0  0  0
  4  6  1  0  0  0  0
  6  7  1  1  0  0  0
  6  8  1  0  0  0  0
  8  9  1  0  0  0  0
  8 10  1  6  0  0  0
  8 13  1  0  0  0  0
 10 11  1  0  0  0  0
 12 13  1  6  0  0  0
 12 14  1  0  0  0  0
 12 21  1  0  0  0  0
 14 15  1  6  0  0  0
 14 16  1  0  0  0  0
 16 17  1  1  0  0  0
 16 18  1  0  0  0  0
 18 19  1  6  0  0  0
 18 20  1  0  0  0  0
 20 21  1  0  0  0  0
 20 22  1  1  0  0  0
 22 23  1  0  0  0  0
M  END
>  <CHROM.1>
-64.42105317,54.88895921,-131.52650855,-161.92408910,55.23861422,-7.27165147
-9.30019936,0.15844550,2.43055235,-0.33953474,-1.15499107

>  <Name>
ligand

>  <RI>
0

>  <Rbt.Current_Directory>
/home/itssahil/PROJECTS/Mol_Feturizer/New_Systems/rnas/4TS2

>  <Rbt.Executable>
rbdock ($Id: //depot/dev/client3/rdock/2013.1/src/exe/rbdock.cxx#4 $)

>  <Rbt.Library>
libRbt.so (2013.1, Build901 2013/11/27)

>  <Rbt.Parameter_File>
/export/apps/rDock/src/rDock_2013.1_src/data/scripts/dock_solv.prm

>  <Rbt.Receptor>
prm/pocket_docking_2.prm

>  <SCORE>
-7.21809

>  <SCORE.INTER>
-4.06625

>  <SCORE.INTER.CONST>
1

>  <SCORE.INTER.POLAR>
0

>  <SCORE.INTER.ROT>
5

>  <SCORE.INTER.SOLV>
7.01668

>  <SCORE.INTER.VDW>
-11.9831

>  <SCORE.INTER.norm>
-0.176794

>  <SCORE.INTRA>
-3.15183

>  <SCORE.INTRA.DIHEDRAL>
-4.43601

>  <SCORE.INTRA.DIHEDRAL.0>
12.4853

>  <SCORE.INTRA.POLAR>
0

>  <SCORE.INTRA.POLAR.0>
0

>  <SCORE.INTRA.REPUL>
0

>  <SCORE.INTRA.REPUL.0>
0

>  <SCORE.INTRA.SOLV>
0.207696

>  <SCORE.INTRA.SOLV.lig_0>
-31.1706

>  <SCORE.INTRA.VDW>
-1.03768

>  <SCORE.INTRA.VDW.0>
-1.16895

>  <SCORE.INTRA.norm>
-0.137036

>  <SCORE.RESTR>
0

>  <SCORE.RESTR.CAVITY>
0

>  <SCORE.RESTR.norm>
0

>  <SCORE.SYSTEM>
0

>  <SCORE.SYSTEM.CONST>
0

>  <SCORE.SYSTEM.DIHEDRAL>
0

>  <SCORE.SYSTEM.SOLV>
0

>  <SCORE.SYSTEM.norm>
0

>  <SCORE.heavy>
23

>  <SCORE.norm>
-0.31383

>  <RMSD>
0.693

$$$$
ligand
 OpenBabel11021811513D
libRbt.so/2013.1/901 2013/11/27
 23 24  0  0  0  0  0  0  0  0999 V2000
  -10.7540   -9.5815    0.1121 C   0  0  0  0  0  0  0  0  0  0  0  0
  -11.7477  -10.5091   -0.3650 O   0  0  0  0  0  0  0  0  0  0  0  0
   -9.8481   -9.1871   -1.0456 C   0  0  2  0  0  0  0  0  0  0  0  0
   -9.0615  -10.3237   -1.6802 C   0  0  1  0  0  0  0  0  0  0  0  0
   -9.9112  -11.0483   -2.5719 O   0  0  0  0  0  0  0  0  0  0  0  0
   -7.9308   -9.5728   -2.3754 C   0  0  2  0  0  0  0  0  0  0  0  0
   -6.7277  -10.2835   -2.6911 O   0  0  0  0  0  0  0  0  0  0  0  0
   -7.6359   -8.4736   -1.3701 C   0  0  2  0  0  0  0  0  0  0  0  0
   -8.8575   -8.2391   -0.6380 O   0  0  0  0  0  0  0  0  0  0  0  0
   -7.1735   -7.2329   -2.1553 C   0  0  0  0  0  0  0  0  0  0  0  0
   -8.0655   -6.9019   -3.2288 O   0  0  0  0  0  0  0  0  0  0  0  0
   -6.5873   -8.1923    0.7861 C   0  0  2  0  0  0  0  0  0  0  0  0
   -6.6550   -8.9510   -0.4337 O   0  0  0  0  0  0  0  0  0  0  0  0
   -5.1209   -7.9383    1.0821 C   0  0  2  0  0  0  0  0  0  0  0  0
   -4.4809   -7.4449   -0.0999 O   0  0  0  0  0  0  0  0  0  0  0  0
   -4.4317   -9.2230    1.4866 C   0  0  1  0  0  0  0  0  0  0  0  0
   -3.1326   -8.9039    1.9906 O   0  0  0  0  0  0  0  0  0  0  0  0
   -5.2386   -9.9526    2.5437 C   0  0  2  0  0  0  0  0  0  0  0  0
   -4.6522  -11.2285    2.7619 O   0  0  0  0  0  0  0  0  0  0  0  0
   -6.6900  -10.1423    2.1237 C   0  0  2  0  0  0  0  0  0  0  0  0
   -7.2339   -8.8533    1.8736 O   0  0  0  0  0  0  0  0  0  0  0  0
   -7.5007  -10.8648    3.2061 C   0  0  0  0  0  0  0  0  0  0  0  0
   -7.4977  -10.1742    4.4642 O   0  0  0  0  0  0  0  0  0  0  0  0
  1  2  1  0  0  0  0
  3  1  1  1  0  0  0
  3  9  1  0  0  0  0
  3  4  1  0  0  0  0
  4  5  1  6  0  0  0
  4  6  1  0  0  0  0
  6  7  1  1  0  0  0
  6  8  1  0  0  0  0
  8  9  1  0  0  0  0
  8 10  1  6  0  0  0
  8 13  1  0  0  0  0
 10 11  1  0  0  0  0
 12 13  1  6  0  0  0
 12 14  1  0  0  0  0
 12 21  1  0  0  0  0
 14 15  1  6  0  0  0
 14 16  1  0  0  0  0
 16 17  1  1  0  0  0
 16 18  1  0  0  0  0
 18 19  1  6  0  0  0
 18 20  1  0  0  0  0
 20 21  1  0  0  0  0
 20 22  1  1  0  0  0
 22 23  1  0  0  0  0
M  END
>  <CHROM.1>
-61.79871412,50.10411089,-134.32754861,-161.81194021,58.47333262,-7.26009212
-9.27756483,0.16418168,2.42690455,-0.34514641,-1.15537009

>  <Name>
ligand

>  <RI>
0

>  <Rbt.Current_Directory>
/home/itssahil/PROJECTS/Mol_Feturizer/New_Systems/rnas/4TS2

>  <Rbt.Executable>
rbdock ($Id: //depot/dev/client3/rdock/2013.1/src/exe/rbdock.cxx#4 $)

>  <Rbt.Library>
libRbt.so (2013.1, Build901 2013/11/27)

>  <Rbt.Parameter_File>
/export/apps/rDock/src/rDock_2013.1_src/data/scripts/dock_solv.prm

>  <Rbt.Receptor>
prm/pocket_docking_2.prm

>  <SCORE>
-7.25988

>  <SCORE.INTER>
-4.0474

>  <SCORE.INTER.CONST>
1

>  <SCORE.INTER.POLAR>
0

>  <SCORE.INTER.ROT>
5

>  <SCORE.INTER.SOLV>
7.1939

>  <SCORE.INTER.VDW>
-12.0296

>  <SCORE.INTER.norm>
-0.175974

>  <SCORE.INTRA>
-3.21248

>  <SCORE.INTRA.DIHEDRAL>
-4.67084

>  <SCORE.INTRA.DIHEDRAL.0>
12.4853

>  <SCORE.INTRA.POLAR>
0

>  <SCORE.INTRA.POLAR.0>
0

>  <SCORE.INTRA.REPUL>
0

>  <SCORE.INTRA.REPUL.0>
0

>  <SCORE.INTRA.SOLV>
0.233431

>  <SCORE.INTRA.SOLV.lig_0>
-31.1706

>  <SCORE.INTRA.VDW>
-0.993773

>  <SCORE.INTRA.VDW.0>
-1.16895

>  <SCORE.INTRA.norm>
-0.139673

>  <SCORE.RESTR>
0

>  <SCORE.RESTR.CAVITY>
0

>  <SCORE.RESTR.norm>
0

>  <SCORE.SYSTEM>
0

>  <SCORE.SYSTEM.CONST>
0

>  <SCORE.SYSTEM.DIHEDRAL>
0

>  <SCORE.SYSTEM.SOLV>
0

>  <SCORE.SYSTEM.norm>
0

>  <SCORE.heavy>
23

>  <SCORE.norm>
-0.315647

>  <RMSD>
0.696

$$$$
ligand
 OpenBabel11021811513D
libRbt.so/2013.1/901 2013/11/27
 23 24  0  0  0  0  0  0  0  0999 V2000
  -11.0172   -9.6473   -0.1308 C   0  0  0  0  0  0  0  0  0  0  0  0
  -11.9355   -8.5476    0.0203 O   0  0  0  0  0  0  0  0  0  0  0  0
   -9.9950   -9.2957   -1.2022 C   0  0  2  0  0  0  0  0  0  0  0  0
   -9.1774  -10.4613   -1.7372 C   0  0  1  0  0  0  0  0  0  0  0  0
   -9.9538  -11.1854   -2.6938 O   0  0  0  0  0  0  0  0  0  0  0  0
   -7.9679   -9.7488   -2.3329 C   0  0  2  0  0  0  0  0  0  0  0  0
   -6.7567  -10.4911   -2.5178 O   0  0  0  0  0  0  0  0  0  0  0  0
   -7.7459   -8.6361   -1.3237 C   0  0  2  0  0  0  0  0  0  0  0  0
   -9.0267   -8.3609   -0.7177 O   0  0  0  0  0  0  0  0  0  0  0  0
   -7.1814   -7.4216   -2.0826 C   0  0  0  0  0  0  0  0  0  0  0  0
   -8.0681   -6.9596   -3.1112 O   0  0  0  0  0  0  0  0  0  0  0  0
   -6.6229   -8.1630    0.7602 C   0  0  2  0  0  0  0  0  0  0  0  0
   -6.8712   -9.1154   -0.2883 O   0  0  0  0  0  0  0  0  0  0  0  0
   -5.1213   -7.9628    0.8458 C   0  0  2  0  0  0  0  0  0  0  0  0
   -4.6025   -7.7271   -0.4678 O   0  0  0  0  0  0  0  0  0  0  0  0
   -4.4521   -9.2021    1.3983 C   0  0  1  0  0  0  0  0  0  0  0  0
   -3.0885   -8.8904    1.6935 O   0  0  0  0  0  0  0  0  0  0  0  0
   -5.1626   -9.6801    2.6503 C   0  0  2  0  0  0  0  0  0  0  0  0
   -4.6170  -10.9360    3.0304 O   0  0  0  0  0  0  0  0  0  0  0  0
   -6.6609   -9.8396    2.4305 C   0  0  2  0  0  0  0  0  0  0  0  0
   -7.1675   -8.5793    2.0123 O   0  0  0  0  0  0  0  0  0  0  0  0
   -7.3719  -10.3060    3.7064 C   0  0  0  0  0  0  0  0  0  0  0  0
   -6.9914  -11.6300    4.1087 O   0  0  0  0  0  0  0  0  0  0  0  0
  1  2  1  0  0  0  0
  3  1  1  1  0  0  0
  3  9  1  0  0  0  0
  3  4  1  0  0  0  0
  4  5  1  6  0  0  0
  4  6  1  0  0  0  0
  6  7  1  1  0  0  0
  6  8  1  0  0  0  0
  8  9  1  0  0  0  0
  8 10  1  6  0  0  0
  8 13  1  0  0  0  0
 10 11  1  0  0  0  0
 12 13  1  6  0  0  0
 12 14  1  0  0  0  0
 12 21  1  0  0  0  0
 14 15  1  6  0  0  0
 14 16  1  0  0  0  0
 16 17  1  1  0  0  0
 16 18  1  0  0  0  0
 18 19  1  6  0  0  0
 18 20  1  0  0  0  0
 20 21  1  0  0  0  0
 20 22  1  1  0  0  0
 22 23  1  0  0  0  0
M  END
>  <CHROM.1>
-165.04547108,59.52402449,-123.16312096,-177.79891060,-65.96621802,-7.28541347
-9.25818343,0.17580052,2.40726984,-0.25169959,-1.17427976

>  <Name>
ligand

>  <RI>
0

>  <Rbt.Current_Directory>
/home/itssahil/PROJECTS/Mol_Feturizer/New_Systems/rnas/4TS2

>  <Rbt.Executable>
rbdock ($Id: //depot/dev/client3/rdock/2013.1/src/exe/rbdock.cxx#4 $)

>  <Rbt.Library>
libRbt.so (2013.1, Build901 2013/11/27)

>  <Rbt.Parameter_File>
/export/apps/rDock/src/rDock_2013.1_src/data/scripts/dock_solv.prm

>  <Rbt.Receptor>
prm/pocket_docking_2.prm

>  <SCORE>
-7.35215

>  <SCORE.INTER>
-4.36555

>  <SCORE.INTER.CONST>
1

>  <SCORE.INTER.POLAR>
0

>  <SCORE.INTER.ROT>
5

>  <SCORE.INTER.SOLV>
7.77099

>  <SCORE.INTER.VDW>
-12.434

>  <SCORE.INTER.norm>
-0.189807

>  <SCORE.INTRA>
-2.98869

>  <SCORE.INTRA.DIHEDRAL>
-4.43406

>  <SCORE.INTRA.DIHEDRAL.0>
12.4853

>  <SCORE.INTRA.POLAR>
0

>  <SCORE.INTRA.POLAR.0>
0

>  <SCORE.INTRA.REPUL>
0

>  <SCORE.INTRA.REPUL.0>
0

>  <SCORE.INTRA.SOLV>
-0.200931

>  <SCORE.INTRA.SOLV.lig_0>
-31.1706

>  <SCORE.INTRA.VDW>
-0.671193

>  <SCORE.INTRA.VDW.0>
-1.16895

>  <SCORE.INTRA.norm>
-0.129943

>  <SCORE.RESTR>
0.00208932

>  <SCORE.RESTR.CAVITY>
0.00208932

>  <SCORE.RESTR.norm>
9.08399e-05

>  <SCORE.SYSTEM>
0

>  <SCORE.SYSTEM.CONST>
0

>  <SCORE.SYSTEM.DIHEDRAL>
0

>  <SCORE.SYSTEM.SOLV>
0

>  <SCORE.SYSTEM.norm>
0

>  <SCORE.heavy>
23

>  <SCORE.norm>
-0.319659

>  <RMSD>
0.701

$$$$
ligand
 OpenBabel11021811513D
libRbt.so/2013.1/901 2013/11/27
 23 24  0  0  0  0  0  0  0  0999 V2000
  -10.8793   -9.4570    0.1516 C   0  0  0  0  0  0  0  0  0  0  0  0
  -11.9282  -10.3122   -0.3423 O   0  0  0  0  0  0  0  0  0  0  0  0
   -9.9280   -9.1296   -0.9905 C   0  0  2  0  0  0  0  0  0  0  0  0
   -9.1686  -10.3123   -1.5717 C   0  0  1  0  0  0  0  0  0  0  0  0
  -10.0210  -11.0294   -2.4669 O   0  0  0  0  0  0  0  0  0  0  0  0
   -7.9917   -9.6241   -2.2550 C   0  0  2  0  0  0  0  0  0  0  0  0
   -6.8086  -10.3880   -2.5175 O   0  0  0  0  0  0  0  0  0  0  0  0
   -7.6822   -8.5089   -1.2720 C   0  0  2  0  0  0  0  0  0  0  0  0
   -8.9133   -8.2082   -0.5811 O   0  0  0  0  0  0  0  0  0  0  0  0
   -7.1517   -7.3090   -2.0774 C   0  0  0  0  0  0  0  0  0  0  0  0
   -8.0445   -6.9202   -3.1307 O   0  0  0  0  0  0  0  0  0  0  0  0
   -6.5097   -8.0910    0.7963 C   0  0  2  0  0  0  0  0  0  0  0  0
   -6.7459   -8.9961   -0.2959 O   0  0  0  0  0  0  0  0  0  0  0  0
   -5.0081   -7.9118    0.9210 C   0  0  2  0  0  0  0  0  0  0  0  0
   -4.4593   -7.6277   -0.3706 O   0  0  0  0  0  0  0  0  0  0  0  0
   -4.3639   -9.1806    1.4350 C   0  0  1  0  0  0  0  0  0  0  0  0
   -3.0036   -8.8971    1.7709 O   0  0  0  0  0  0  0  0  0  0  0  0
   -5.1056   -9.7019    2.6511 C   0  0  2  0  0  0  0  0  0  0  0  0
   -4.5815  -10.9787    2.9896 O   0  0  0  0  0  0  0  0  0  0  0  0
   -6.6006   -9.8349    2.3940 C   0  0  2  0  0  0  0  0  0  0  0  0
   -7.0849   -8.5527    2.0185 O   0  0  0  0  0  0  0  0  0  0  0  0
   -7.3432  -10.3457    3.6345 C   0  0  0  0  0  0  0  0  0  0  0  0
   -6.9538  -11.6738    4.0142 O   0  0  0  0  0  0  0  0  0  0  0  0
  1  2  1  0  0  0  0
  3  1  1  1  0  0  0
  3  9  1  0  0  0  0
  3  4  1  0  0  0  0
  4  5  1  6  0  0  0
  4  6  1  0  0  0  0
  6  7  1  1  0  0  0
  6  8  1  0  0  0  0
  8  9  1  0  0  0  0
  8 10  1  6  0  0  0
  8 13  1  0  0  0  0
 10 11  1  0  0  0  0
 12 13  1  6  0  0  0
 12 14  1  0  0  0  0
 12 21  1  0  0  0  0
 14 15  1  6  0  0  0
 14 16  1  0  0  0  0
 16 17  1  1  0  0  0
 16 18  1  0  0  0  0
 18 19  1  6  0  0  0
 18 20  1  0  0  0  0
 20 21  1  0  0  0  0
 20 22  1  1  0  0  0
 22 23  1  0  0  0  0
M  END
>  <CHROM.1>
-64.32755490,53.90221296,-128.14651312,-172.04151849,-64.08005413,-7.23046206
-9.27605385,0.20975143,2.48156747,-0.33921160,-1.09914319

>  <Name>
ligand

>  <RI>
0

>  <Rbt.Current_Directory>
/home/itssahil/PROJECTS/Mol_Feturizer/New_Systems/rnas/4TS2

>  <Rbt.Executable>
rbdock ($Id: //depot/dev/client3/rdock/2013.1/src/exe/rbdock.cxx#4 $)

>  <Rbt.Library>
libRbt.so (2013.1, Build901 2013/11/27)

>  <Rbt.Parameter_File>
/export/apps/rDock/src/rDock_2013.1_src/data/scripts/dock_solv.prm

>  <Rbt.Receptor>
prm/pocket_docking_2.prm

>  <SCORE>
-7.93327

>  <SCORE.INTER>
-4.62177

>  <SCORE.INTER.CONST>
1

>  <SCORE.INTER.POLAR>
0

>  <SCORE.INTER.ROT>
5

>  <SCORE.INTER.SOLV>
6.52933

>  <SCORE.INTER.VDW>
-12.191

>  <SCORE.INTER.norm>
-0.200947

>  <SCORE.INTRA>
-3.314

>  <SCORE.INTRA.DIHEDRAL>
-5.18278

>  <SCORE.INTRA.DIHEDRAL.0>
12.4853

>  <SCORE.INTRA.POLAR>
0

>  <SCORE.INTRA.POLAR.0>
0

>  <SCORE.INTRA.REPUL>
0

>  <SCORE.INTRA.REPUL.0>
0

>  <SCORE.INTRA.SOLV>
0.147548

>  <SCORE.INTRA.SOLV.lig_0>
-31.1706

>  <SCORE.INTRA.VDW>
-0.796384

>  <SCORE.INTRA.VDW.0>
-1.16895

>  <SCORE.INTRA.norm>
-0.144087

>  <SCORE.RESTR>
0.00250561

>  <SCORE.RESTR.CAVITY>
0.00250561

>  <SCORE.RESTR.norm>
0.000108939

>  <SCORE.SYSTEM>
0

>  <SCORE.SYSTEM.CONST>
0

>  <SCORE.SYSTEM.DIHEDRAL>
0

>  <SCORE.SYSTEM.SOLV>
0

>  <SCORE.SYSTEM.norm>
0

>  <SCORE.heavy>
23

>  <SCORE.norm>
-0.344925

>  <RMSD>
0.702

$$$$
ligand
 OpenBabel11021811513D
libRbt.so/2013.1/901 2013/11/27
 23 24  0  0  0  0  0  0  0  0999 V2000
  -10.9004   -9.4477    0.1420 C   0  0  0  0  0  0  0  0  0  0  0  0
  -11.9391  -10.3177   -0.3475 O   0  0  0  0  0  0  0  0  0  0  0  0
   -9.9390   -9.1349   -0.9956 C   0  0  2  0  0  0  0  0  0  0  0  0
   -9.1839  -10.3269   -1.5634 C   0  0  1  0  0  0  0  0  0  0  0  0
  -10.0352  -11.0442   -2.4595 O   0  0  0  0  0  0  0  0  0  0  0  0
   -7.9975   -9.6517   -2.2433 C   0  0  2  0  0  0  0  0  0  0  0  0
   -6.8180  -10.4257   -2.4922 O   0  0  0  0  0  0  0  0  0  0  0  0
   -7.6870   -8.5318   -1.2659 C   0  0  2  0  0  0  0  0  0  0  0  0
   -8.9207   -8.2178   -0.5856 O   0  0  0  0  0  0  0  0  0  0  0  0
   -7.1426   -7.3413   -2.0759 C   0  0  0  0  0  0  0  0  0  0  0  0
   -8.0388   -6.9350   -3.1195 O   0  0  0  0  0  0  0  0  0  0  0  0
   -6.5024   -8.0954    0.7917 C   0  0  2  0  0  0  0  0  0  0  0  0
   -6.7609   -9.0188   -0.2800 O   0  0  0  0  0  0  0  0  0  0  0  0
   -4.9980   -7.9237    0.8903 C   0  0  2  0  0  0  0  0  0  0  0  0
   -4.4673   -7.6668   -0.4145 O   0  0  0  0  0  0  0  0  0  0  0  0
   -4.3539   -9.1869    1.4178 C   0  0  1  0  0  0  0  0  0  0  0  0
   -2.9869   -8.9062    1.7278 O   0  0  0  0  0  0  0  0  0  0  0  0
   -5.0802   -9.6812    2.6544 C   0  0  2  0  0  0  0  0  0  0  0  0
   -4.5590  -10.9549    3.0083 O   0  0  0  0  0  0  0  0  0  0  0  0
   -6.5798   -9.8092    2.4224 C   0  0  2  0  0  0  0  0  0  0  0  0
   -7.0618   -8.5309    2.0307 O   0  0  0  0  0  0  0  0  0  0  0  0
   -7.3065  -10.2924    3.6831 C   0  0  0  0  0  0  0  0  0  0  0  0
   -6.9571  -11.6344    4.0525 O   0  0  0  0  0  0  0  0  0  0  0  0
  1  2  1  0  0  0  0
  3  1  1  1  0  0  0
  3  9  1  0  0  0  0
  3  4  1  0  0  0  0
  4  5  1  6  0  0  0
  4  6  1  0  0  0  0
  6  7  1  1  0  0  0
  6  8  1  0  0  0  0
  8  9  1  0  0  0  0
  8 10  1  6  0  0  0
  8 13  1  0  0  0  0
 10 11  1  0  0  0  0
 12 13  1  6  0  0  0
 12 14  1  0  0  0  0
 12 21  1  0  0  0  0
 14 15  1  6  0  0  0
 14 16  1  0  0  0  0
 16 17  1  1  0  0  0
 16 18  1  0  0  0  0
 18 19  1  6  0  0  0
 18 20  1  0  0  0  0
 20 21  1  0  0  0  0
 20 22  1  1  0  0  0
 22 23  1  0  0  0  0
M  END
>  <CHROM.1>
-63.34412985,55.18088675,-126.87268096,-173.38894461,-66.28918682,-7.22798680
-9.27979964,0.21298525,2.48381721,-0.33346835,-1.11095224

>  <Name>
ligand

>  <RI>
0

>  <Rbt.Current_Directory>
/home/itssahil/PROJECTS/Mol_Feturizer/New_Systems/rnas/4TS2

>  <Rbt.Executable>
rbdock ($Id: //depot/dev/client3/rdock/2013.1/src/exe/rbdock.cxx#4 $)

>  <Rbt.Library>
libRbt.so (2013.1, Build901 2013/11/27)

>  <Rbt.Parameter_File>
/export/apps/rDock/src/rDock_2013.1_src/data/scripts/dock_solv.prm

>  <Rbt.Receptor>
prm/pocket_docking_2.prm

>  <SCORE>
-7.93969

>  <SCORE.INTER>
-4.62012

>  <SCORE.INTER.CONST>
1

>  <SCORE.INTER.POLAR>
0

>  <SCORE.INTER.ROT>
5

>  <SCORE.INTER.SOLV>
6.46852

>  <SCORE.INTER.VDW>
-12.1696

>  <SCORE.INTER.norm>
-0.200875

>  <SCORE.INTRA>
-3.31958

>  <SCORE.INTRA.DIHEDRAL>
-5.15104

>  <SCORE.INTRA.DIHEDRAL.0>
12.4853

>  <SCORE.INTRA.POLAR>
0

>  <SCORE.INTRA.POLAR.0>
0

>  <SCORE.INTRA.REPUL>
0

>  <SCORE.INTRA.REPUL.0>
0

>  <SCORE.INTRA.SOLV>
0.140944

>  <SCORE.INTRA.SOLV.lig_0>
-31.1706

>  <SCORE.INTRA.VDW>
-0.814531

>  <SCORE.INTRA.VDW.0>
-1.16895

>  <SCORE.INTRA.norm>
-0.14433

>  <SCORE.RESTR>
0

>  <SCORE.RESTR.CAVITY>
0

>  <SCORE.RESTR.norm>
0

>  <SCORE.SYSTEM>
0

>  <SCORE.SYSTEM.CONST>
0

>  <SCORE.SYSTEM.DIHEDRAL>
0

>  <SCORE.SYSTEM.SOLV>
0

>  <SCORE.SYSTEM.norm>
0

>  <SCORE.heavy>
23

>  <SCORE.norm>
-0.345204

>  <RMSD>
0.705

$$$$
ligand
 OpenBabel11021811513D
libRbt.so/2013.1/901 2013/11/27
 23 24  0  0  0  0  0  0  0  0999 V2000
  -10.8975   -9.4684    0.1532 C   0  0  0  0  0  0  0  0  0  0  0  0
  -11.9508  -10.3166   -0.3435 O   0  0  0  0  0  0  0  0  0  0  0  0
   -9.9422   -9.1456   -0.9869 C   0  0  2  0  0  0  0  0  0  0  0  0
   -9.1867  -10.3320   -1.5659 C   0  0  1  0  0  0  0  0  0  0  0  0
  -10.0402  -11.0457   -2.4627 O   0  0  0  0  0  0  0  0  0  0  0  0
   -8.0052   -9.6493   -2.2468 C   0  0  2  0  0  0  0  0  0  0  0  0
   -6.8248  -10.4184   -2.5062 O   0  0  0  0  0  0  0  0  0  0  0  0
   -7.6931   -8.5349   -1.2636 C   0  0  2  0  0  0  0  0  0  0  0  0
   -8.9244   -8.2286   -0.5756 O   0  0  0  0  0  0  0  0  0  0  0  0
   -7.1555   -7.3378   -2.0682 C   0  0  0  0  0  0  0  0  0  0  0  0
   -8.0468   -6.9419   -3.1201 O   0  0  0  0  0  0  0  0  0  0  0  0
   -6.5012   -8.1093    0.7921 C   0  0  2  0  0  0  0  0  0  0  0  0
   -6.7612   -9.0259   -0.2851 O   0  0  0  0  0  0  0  0  0  0  0  0
   -4.9973   -7.9281    0.8813 C   0  0  2  0  0  0  0  0  0  0  0  0
   -4.4779   -7.6571   -0.4252 O   0  0  0  0  0  0  0  0  0  0  0  0
   -4.3408   -9.1911    1.3939 C   0  0  1  0  0  0  0  0  0  0  0  0
   -2.9735   -8.9034    1.6962 O   0  0  0  0  0  0  0  0  0  0  0  0
   -5.0547   -9.7001    2.6316 C   0  0  2  0  0  0  0  0  0  0  0  0
   -4.5222  -10.9731    2.9715 O   0  0  0  0  0  0  0  0  0  0  0  0
   -6.5550   -9.8366    2.4095 C   0  0  2  0  0  0  0  0  0  0  0  0
   -7.0485   -8.5585    2.0316 O   0  0  0  0  0  0  0  0  0  0  0  0
   -7.2692  -10.3348    3.6715 C   0  0  0  0  0  0  0  0  0  0  0  0
   -6.8611  -11.6537    4.0634 O   0  0  0  0  0  0  0  0  0  0  0  0
  1  2  1  0  0  0  0
  3  1  1  1  0  0  0
  3  9  1  0  0  0  0
  3  4  1  0  0  0  0
  4  5  1  6  0  0  0
  4  6  1  0  0  0  0
  6  7  1  1  0  0  0
  6  8  1  0  0  0  0
  8  9  1  0  0  0  0
  8 10  1  6  0  0  0
  8 13  1  0  0  0  0
 10 11  1  0  0  0  0
 12 13  1  6  0  0  0
 12 14  1  0  0  0  0
 12 21  1  0  0  0  0
 14 15  1  6  0  0  0
 14 16  1  0  0  0  0
 16 17  1  1  0  0  0
 16 18  1  0  0  0  0
 18 19  1  6  0  0  0
 18 20  1  0  0  0  0
 20 21  1  0  0  0  0
 20 22  1  1  0  0  0
 22 23  1  0  0  0  0
M  END
>  <CHROM.1>
-64.45908567,54.15600858,-126.60264448,-173.33000839,-63.53021132,-7.21962264
-9.28898102,0.20719082,2.48859653,-0.33232759,-1.10369121

>  <Name>
ligand

>  <RI>
0

>  <Rbt.Current_Directory>
/home/itssahil/PROJECTS/Mol_Feturizer/New_Systems/rnas/4TS2

>  <Rbt.Executable>
rbdock ($Id: //depot/dev/client3/rdock/2013.1/src/exe/rbdock.cxx#4 $)

>  <Rbt.Library>
libRbt.so (2013.1, Build901 2013/11/27)

>  <Rbt.Parameter_File>
/export/apps/rDock/src/rDock_2013.1_src/data/scripts/dock_solv.prm

>  <Rbt.Receptor>
prm/pocket_docking_2.prm

>  <SCORE>
-7.95017

>  <SCORE.INTER>
-4.69657

>  <SCORE.INTER.CONST>
1

>  <SCORE.INTER.POLAR>
0

>  <SCORE.INTER.ROT>
5

>  <SCORE.INTER.SOLV>
6.42308

>  <SCORE.INTER.VDW>
-12.2054

>  <SCORE.INTER.norm>
-0.204199

>  <SCORE.INTRA>
-3.2536

>  <SCORE.INTRA.DIHEDRAL>
-5.16629

>  <SCORE.INTRA.DIHEDRAL.0>
12.4853

>  <SCORE.INTRA.POLAR>
0

>  <SCORE.INTRA.POLAR.0>
0

>  <SCORE.INTRA.REPUL>
0

>  <SCORE.INTRA.REPUL.0>
0

>  <SCORE.INTRA.SOLV>
0.153989

>  <SCORE.INTRA.SOLV.lig_0>
-31.1706

>  <SCORE.INTRA.VDW>
-0.747454

>  <SCORE.INTRA.VDW.0>
-1.16895

>  <SCORE.INTRA.norm>
-0.141461

>  <SCORE.RESTR>
0

>  <SCORE.RESTR.CAVITY>
0

>  <SCORE.RESTR.norm>
0

>  <SCORE.SYSTEM>
0

>  <SCORE.SYSTEM.CONST>
0

>  <SCORE.SYSTEM.DIHEDRAL>
0

>  <SCORE.SYSTEM.SOLV>
0

>  <SCORE.SYSTEM.norm>
0

>  <SCORE.heavy>
23

>  <SCORE.norm>
-0.34566

>  <RMSD>
0.706

$$$$
ligand
 OpenBabel11021811513D
libRbt.so/2013.1/901 2013/11/27
 23 24  0  0  0  0  0  0  0  0999 V2000
  -10.9352   -9.4712    0.1614 C   0  0  0  0  0  0  0  0  0  0  0  0
  -11.9790  -10.3338   -0.3302 O   0  0  0  0  0  0  0  0  0  0  0  0
   -9.9772   -9.1535   -0.9778 C   0  0  2  0  0  0  0  0  0  0  0  0
   -9.2214  -10.3426   -1.5507 C   0  0  1  0  0  0  0  0  0  0  0  0
  -10.0736  -11.0591   -2.4465 O   0  0  0  0  0  0  0  0  0  0  0  0
   -8.0380   -9.6635   -2.2317 C   0  0  2  0  0  0  0  0  0  0  0  0
   -6.8577  -10.4345   -2.4857 O   0  0  0  0  0  0  0  0  0  0  0  0
   -7.7271   -8.5456   -1.2521 C   0  0  2  0  0  0  0  0  0  0  0  0
   -8.9596   -8.2356   -0.5679 O   0  0  0  0  0  0  0  0  0  0  0  0
   -7.1868   -7.3519   -2.0602 C   0  0  0  0  0  0  0  0  0  0  0  0
   -8.0715   -6.9651   -3.1211 O   0  0  0  0  0  0  0  0  0  0  0  0
   -6.5482   -8.1178    0.8107 C   0  0  2  0  0  0  0  0  0  0  0  0
   -6.7976   -9.0335   -0.2698 O   0  0  0  0  0  0  0  0  0  0  0  0
   -5.0456   -7.9326    0.9114 C   0  0  2  0  0  0  0  0  0  0  0  0
   -4.5170   -7.6584   -0.3908 O   0  0  0  0  0  0  0  0  0  0  0  0
   -4.3895   -9.1946    1.4271 C   0  0  1  0  0  0  0  0  0  0  0  0
   -3.0253   -8.9036    1.7401 O   0  0  0  0  0  0  0  0  0  0  0  0
   -5.1113   -9.7074    2.6587 C   0  0  2  0  0  0  0  0  0  0  0  0
   -4.5779  -10.9794    3.0008 O   0  0  0  0  0  0  0  0  0  0  0  0
   -6.6095   -9.8476    2.4251 C   0  0  2  0  0  0  0  0  0  0  0  0
   -7.1037   -8.5703    2.0453 O   0  0  0  0  0  0  0  0  0  0  0  0
   -7.3318  -10.3496    3.6810 C   0  0  0  0  0  0  0  0  0  0  0  0
   -6.9353  -11.6744    4.0645 O   0  0  0  0  0  0  0  0  0  0  0  0
  1  2  1  0  0  0  0
  3  1  1  1  0  0  0
  3  9  1  0  0  0  0
  3  4  1  0  0  0  0
  4  5  1  6  0  0  0
  4  6  1  0  0  0  0
  6  7  1  1  0  0  0
  6  8  1  0  0  0  0
  8  9  1  0  0  0  0
  8 10  1  6  0  0  0
  8 13  1  0  0  0  0
 10 11  1  0  0  0  0
 12 13  1  6  0  0  0
 12 14  1  0  0  0  0
 12 21  1  0  0  0  0
 14 15  1  6  0  0  0
 14 16  1  0  0  0  0
 16 17  1  1  0  0  0
 16 18  1  0  0  0  0
 18 19  1  6  0  0  0
 18 20  1  0  0  0  0
 20 21  1  0  0  0  0
 20 22  1  1  0  0  0
 22 23  1  0  0  0  0
M  END
>  <CHROM.1>
-63.75825443,53.76585856,-126.81259315,-172.80569058,-64.25766164,-7.26264865
-9.29930711,0.22436500,2.48538482,-0.33588957,-1.10441774

>  <Name>
ligand

>  <RI>
0

>  <Rbt.Current_Directory>
/home/itssahil/PROJECTS/Mol_Feturizer/New_Systems/rnas/4TS2

>  <Rbt.Executable>
rbdock ($Id: //depot/dev/client3/rdock/2013.1/src/exe/rbdock.cxx#4 $)

>  <Rbt.Library>
libRbt.so (2013.1, Build901 2013/11/27)

>  <Rbt.Parameter_File>
/export/apps/rDock/src/rDock_2013.1_src/data/scripts/dock_solv.prm

>  <Rbt.Receptor>
prm/pocket_docking_2.prm

>  <SCORE>
-7.88947

>  <SCORE.INTER>
-4.63478

>  <SCORE.INTER.CONST>
1

>  <SCORE.INTER.POLAR>
0

>  <SCORE.INTER.ROT>
5

>  <SCORE.INTER.SOLV>
6.47485

>  <SCORE.INTER.VDW>
-12.1815

>  <SCORE.INTER.norm>
-0.201512

>  <SCORE.INTRA>
-3.25469

>  <SCORE.INTRA.DIHEDRAL>
-5.13903

>  <SCORE.INTRA.DIHEDRAL.0>
12.4853

>  <SCORE.INTRA.POLAR>
0

>  <SCORE.INTRA.POLAR.0>
0

>  <SCORE.INTRA.REPUL>
0

>  <SCORE.INTRA.REPUL.0>
0

>  <SCORE.INTRA.SOLV>
0.152377

>  <SCORE.INTRA.SOLV.lig_0>
-31.1706

>  <SCORE.INTRA.VDW>
-0.76136

>  <SCORE.INTRA.VDW.0>
-1.16895

>  <SCORE.INTRA.norm>
-0.141508

>  <SCORE.RESTR>
0

>  <SCORE.RESTR.CAVITY>
0

>  <SCORE.RESTR.norm>
0

>  <SCORE.SYSTEM>
0

>  <SCORE.SYSTEM.CONST>
0

>  <SCORE.SYSTEM.DIHEDRAL>
0

>  <SCORE.SYSTEM.SOLV>
0

>  <SCORE.SYSTEM.norm>
0

>  <SCORE.heavy>
23

>  <SCORE.norm>
-0.34302

>  <RMSD>
0.710

$$$$
ligand
 OpenBabel11021811513D
libRbt.so/2013.1/901 2013/11/27
 23 24  0  0  0  0  0  0  0  0999 V2000
  -10.6054  -10.0119   -0.0629 C   0  0  0  0  0  0  0  0  0  0  0  0
  -11.5787   -8.9978    0.2531 O   0  0  0  0  0  0  0  0  0  0  0  0
   -9.7037   -9.5029   -1.1784 C   0  0  2  0  0  0  0  0  0  0  0  0
   -8.8173  -10.5499   -1.8352 C   0  0  1  0  0  0  0  0  0  0  0  0
   -9.5870  -11.2987   -2.7781 O   0  0  0  0  0  0  0  0  0  0  0  0
   -7.7302   -9.6880   -2.4684 C   0  0  2  0  0  0  0  0  0  0  0  0
   -6.4690  -10.2926   -2.7782 O   0  0  0  0  0  0  0  0  0  0  0  0
   -7.5449   -8.6124   -1.4126 C   0  0  2  0  0  0  0  0  0  0  0  0
   -8.7987   -8.5008   -0.7062 O   0  0  0  0  0  0  0  0  0  0  0  0
   -7.1591   -7.3090   -2.1351 C   0  0  0  0  0  0  0  0  0  0  0  0
   -8.1095   -6.9419   -3.1448 O   0  0  0  0  0  0  0  0  0  0  0  0
   -6.4277   -8.2099    0.6892 C   0  0  2  0  0  0  0  0  0  0  0  0
   -6.5541   -9.0532   -0.4688 O   0  0  0  0  0  0  0  0  0  0  0  0
   -4.9473   -7.9615    0.9107 C   0  0  2  0  0  0  0  0  0  0  0  0
   -4.3462   -7.5659   -0.3272 O   0  0  0  0  0  0  0  0  0  0  0  0
   -4.2624   -9.2257    1.3813 C   0  0  1  0  0  0  0  0  0  0  0  0
   -2.9401   -8.8944    1.8117 O   0  0  0  0  0  0  0  0  0  0  0  0
   -5.0387   -9.8628    2.5182 C   0  0  2  0  0  0  0  0  0  0  0  0
   -4.4637  -11.1300    2.8064 O   0  0  0  0  0  0  0  0  0  0  0  0
   -6.5080  -10.0563    2.1679 C   0  0  2  0  0  0  0  0  0  0  0  0
   -7.0416   -8.7792    1.8453 O   0  0  0  0  0  0  0  0  0  0  0  0
   -7.2870  -10.6844    3.3296 C   0  0  0  0  0  0  0  0  0  0  0  0
   -8.5986  -11.1271    2.9512 O   0  0  0  0  0  0  0  0  0  0  0  0
  1  2  1  0  0  0  0
  3  1  1  1  0  0  0
  3  9  1  0  0  0  0
  3  4  1  0  0  0  0
  4  5  1  6  0  0  0
  4  6  1  0  0  0  0
  6  7  1  1  0  0  0
  6  8  1  0  0  0  0
  8  9  1  0  0  0  0
  8 10  1  6  0  0  0
  8 13  1  0  0  0  0
 10 11  1  0  0  0  0
 12 13  1  6  0  0  0
 12 14  1  0  0  0  0
 12 21  1  0  0  0  0
 14 15  1  6  0  0  0
 14 16  1  0  0  0  0
 16 17  1  1  0  0  0
 16 18  1  0  0  0  0
 18 19  1  6  0  0  0
 18 20  1  0  0  0  0
 20 21  1  0  0  0  0
 20 22  1  1  0  0  0
 22 23  1  0  0  0  0
M  END
>  <CHROM.1>
-167.43033500,55.03159032,-133.16619465,-171.36420110,-168.22378729,-7.16090705
-9.31877669,0.05619607,2.49918784,-0.29177119,-1.16700091

>  <Name>
ligand

>  <RI>
0

>  <Rbt.Current_Directory>
/home/itssahil/PROJECTS/Mol_Feturizer/New_Systems/rnas/4TS2

>  <Rbt.Executable>
rbdock ($Id: //depot/dev/client3/rdock/2013.1/src/exe/rbdock.cxx#4 $)

>  <Rbt.Library>
libRbt.so (2013.1, Build901 2013/11/27)

>  <Rbt.Parameter_File>
/export/apps/rDock/src/rDock_2013.1_src/data/scripts/dock_solv.prm

>  <Rbt.Receptor>
prm/pocket_docking_2.prm

>  <SCORE>
-6.90068

>  <SCORE.INTER>
-3.09285

>  <SCORE.INTER.CONST>
1

>  <SCORE.INTER.POLAR>
0

>  <SCORE.INTER.ROT>
5

>  <SCORE.INTER.SOLV>
7.45601

>  <SCORE.INTER.VDW>
-11.4806

>  <SCORE.INTER.norm>
-0.134472

>  <SCORE.INTRA>
-3.8134

>  <SCORE.INTRA.DIHEDRAL>
-4.76345

>  <SCORE.INTRA.DIHEDRAL.0>
12.4853

>  <SCORE.INTRA.POLAR>
0

>  <SCORE.INTRA.POLAR.0>
0

>  <SCORE.INTRA.REPUL>
0

>  <SCORE.INTRA.REPUL.0>
0

>  <SCORE.INTRA.SOLV>
-0.42154

>  <SCORE.INTRA.SOLV.lig_0>
-31.1706

>  <SCORE.INTRA.VDW>
-1.22091

>  <SCORE.INTRA.VDW.0>
-1.16895

>  <SCORE.INTRA.norm>
-0.1658

>  <SCORE.RESTR>
0.00557007

>  <SCORE.RESTR.CAVITY>
0.00557007

>  <SCORE.RESTR.norm>
0.000242177

>  <SCORE.SYSTEM>
0

>  <SCORE.SYSTEM.CONST>
0

>  <SCORE.SYSTEM.DIHEDRAL>
0

>  <SCORE.SYSTEM.SOLV>
0

>  <SCORE.SYSTEM.norm>
0

>  <SCORE.heavy>
23

>  <SCORE.norm>
-0.30003

>  <RMSD>
0.716

$$$$
ligand
 OpenBabel11021811513D
libRbt.so/2013.1/901 2013/11/27
 23 24  0  0  0  0  0  0  0  0999 V2000
  -10.3690  -10.5652    0.3989 C   0  0  0  0  0  0  0  0  0  0  0  0
  -11.3018   -9.7062    1.0826 O   0  0  0  0  0  0  0  0  0  0  0  0
   -9.7806   -9.8136   -0.7866 C   0  0  2  0  0  0  0  0  0  0  0  0
   -8.8570  -10.6230   -1.6840 C   0  0  1  0  0  0  0  0  0  0  0  0
   -9.6402  -11.4307   -2.5651 O   0  0  0  0  0  0  0  0  0  0  0  0
   -8.0646   -9.5269   -2.3885 C   0  0  2  0  0  0  0  0  0  0  0  0
   -6.7929   -9.8584   -2.9587 O   0  0  0  0  0  0  0  0  0  0  0  0
   -7.8842   -8.5176   -1.2684 C   0  0  2  0  0  0  0  0  0  0  0  0
   -8.9933   -8.6973   -0.3624 O   0  0  0  0  0  0  0  0  0  0  0  0
   -7.8634   -7.1146   -1.9015 C   0  0  0  0  0  0  0  0  0  0  0  0
   -6.8918   -7.0031   -2.9510 O   0  0  0  0  0  0  0  0  0  0  0  0
   -6.5787   -8.1932    0.7361 C   0  0  2  0  0  0  0  0  0  0  0  0
   -6.6810   -8.8333   -0.5477 O   0  0  0  0  0  0  0  0  0  0  0  0
   -5.1030   -8.0794    1.0705 C   0  0  2  0  0  0  0  0  0  0  0  0
   -4.4063   -7.5334   -0.0550 O   0  0  0  0  0  0  0  0  0  0  0  0
   -4.5198   -9.4438    1.3657 C   0  0  1  0  0  0  0  0  0  0  0  0
   -3.2098   -9.2710    1.9111 O   0  0  0  0  0  0  0  0  0  0  0  0
   -5.3983  -10.2005    2.3436 C   0  0  2  0  0  0  0  0  0  0  0  0
   -4.9136  -11.5319    2.4530 O   0  0  0  0  0  0  0  0  0  0  0  0
   -6.8520  -10.2406    1.8917 C   0  0  2  0  0  0  0  0  0  0  0  0
   -7.2929   -8.8967    1.7523 O   0  0  0  0  0  0  0  0  0  0  0  0
   -7.7343  -10.9923    2.8955 C   0  0  0  0  0  0  0  0  0  0  0  0
   -7.7557  -10.3792    4.1929 O   0  0  0  0  0  0  0  0  0  0  0  0
  1  2  1  0  0  0  0
  3  1  1  1  0  0  0
  3  9  1  0  0  0  0
  3  4  1  0  0  0  0
  4  5  1  6  0  0  0
  4  6  1  0  0  0  0
  6  7  1  1  0  0  0
  6  8  1  0  0  0  0
  8  9  1  0  0  0  0
  8 10  1  6  0  0  0
  8 13  1  0  0  0  0
 10 11  1  0  0  0  0
 12 13  1  6  0  0  0
 12 14  1  0  0  0  0
 12 21  1  0  0  0  0
 14 15  1  6  0  0  0
 14 16  1  0  0  0  0
 16 17  1  1  0  0  0
 16 18  1  0  0  0  0
 18 19  1  6  0  0  0
 18 20  1  0  0  0  0
 20 21  1  0  0  0  0
 20 22  1  1  0  0  0
 22 23  1  0  0  0  0
M  END
>  <CHROM.1>
-175.22458861,-53.55104442,-154.45194635,-164.10988880,61.44411893,-7.24935736
-9.41159543,0.20557996,2.41144863,-0.32716439,-1.16997058

>  <Name>
ligand

>  <RI>
0

>  <Rbt.Current_Directory>
/home/itssahil/PROJECTS/Mol_Feturizer/New_Systems/rnas/4TS2

>  <Rbt.Executable>
rbdock ($Id: //depot/dev/client3/rdock/2013.1/src/exe/rbdock.cxx#4 $)

>  <Rbt.Library>
libRbt.so (2013.1, Build901 2013/11/27)

>  <Rbt.Parameter_File>
/export/apps/rDock/src/rDock_2013.1_src/data/scripts/dock_solv.prm

>  <Rbt.Receptor>
prm/pocket_docking_2.prm

>  <SCORE>
-7.84577

>  <SCORE.INTER>
-2.13177

>  <SCORE.INTER.CONST>
1

>  <SCORE.INTER.POLAR>
0

>  <SCORE.INTER.ROT>
5

>  <SCORE.INTER.SOLV>
7.00938

>  <SCORE.INTER.VDW>
-10.691

>  <SCORE.INTER.norm>
-0.0926856

>  <SCORE.INTRA>
-5.714

>  <SCORE.INTRA.DIHEDRAL>
-8.43009

>  <SCORE.INTRA.DIHEDRAL.0>
12.4853

>  <SCORE.INTRA.POLAR>
0

>  <SCORE.INTRA.POLAR.0>
0

>  <SCORE.INTRA.REPUL>
0

>  <SCORE.INTRA.REPUL.0>
0

>  <SCORE.INTRA.SOLV>
0.25898

>  <SCORE.INTRA.SOLV.lig_0>
-31.1706

>  <SCORE.INTRA.VDW>
-1.62845

>  <SCORE.INTRA.VDW.0>
-1.16895

>  <SCORE.INTRA.norm>
-0.248435

>  <SCORE.RESTR>
0

>  <SCORE.RESTR.CAVITY>
0

>  <SCORE.RESTR.norm>
0

>  <SCORE.SYSTEM>
0

>  <SCORE.SYSTEM.CONST>
0

>  <SCORE.SYSTEM.DIHEDRAL>
0

>  <SCORE.SYSTEM.SOLV>
0

>  <SCORE.SYSTEM.norm>
0

>  <SCORE.heavy>
23

>  <SCORE.norm>
-0.34112

>  <RMSD>
0.723

$$$$
ligand
 OpenBabel11021811513D
libRbt.so/2013.1/901 2013/11/27
 23 24  0  0  0  0  0  0  0  0999 V2000
  -10.5944  -10.2827    0.2860 C   0  0  0  0  0  0  0  0  0  0  0  0
  -11.5527   -9.3887    0.8843 O   0  0  0  0  0  0  0  0  0  0  0  0
   -9.8715   -9.5540   -0.8378 C   0  0  2  0  0  0  0  0  0  0  0  0
   -8.9819  -10.4203   -1.7162 C   0  0  1  0  0  0  0  0  0  0  0  0
   -9.7894  -11.1177   -2.6670 O   0  0  0  0  0  0  0  0  0  0  0  0
   -8.0498   -9.3850   -2.3364 C   0  0  2  0  0  0  0  0  0  0  0  0
   -6.7864   -9.8210   -2.8520 O   0  0  0  0  0  0  0  0  0  0  0  0
   -7.8352   -8.4357   -1.1708 C   0  0  2  0  0  0  0  0  0  0  0  0
   -9.0049   -8.5350   -0.3310 O   0  0  0  0  0  0  0  0  0  0  0  0
   -7.6441   -7.0215   -1.7480 C   0  0  0  0  0  0  0  0  0  0  0  0
   -6.4238   -6.8950   -2.4913 O   0  0  0  0  0  0  0  0  0  0  0  0
   -6.5447   -8.2159    0.8575 C   0  0  2  0  0  0  0  0  0  0  0  0
   -6.7098   -8.8917   -0.4011 O   0  0  0  0  0  0  0  0  0  0  0  0
   -5.0556   -8.1353    1.1379 C   0  0  2  0  0  0  0  0  0  0  0  0
   -4.3834   -7.6448   -0.0273 O   0  0  0  0  0  0  0  0  0  0  0  0
   -4.5013   -9.5066    1.4561 C   0  0  1  0  0  0  0  0  0  0  0  0
   -3.1687   -9.3558    1.9510 O   0  0  0  0  0  0  0  0  0  0  0  0
   -5.3664  -10.2068    2.4867 C   0  0  2  0  0  0  0  0  0  0  0  0
   -4.9161  -11.5479    2.6217 O   0  0  0  0  0  0  0  0  0  0  0  0
   -6.8355  -10.2180    2.0860 C   0  0  2  0  0  0  0  0  0  0  0  0
   -7.2426   -8.8666    1.9191 O   0  0  0  0  0  0  0  0  0  0  0  0
   -7.7032  -10.9122    3.1424 C   0  0  0  0  0  0  0  0  0  0  0  0
   -7.6263  -10.2861    4.4314 O   0  0  0  0  0  0  0  0  0  0  0  0
  1  2  1  0  0  0  0
  3  1  1  1  0  0  0
  3  9  1  0  0  0  0
  3  4  1  0  0  0  0
  4  5  1  6  0  0  0
  4  6  1  0  0  0  0
  6  7  1  1  0  0  0
  6  8  1  0  0  0  0
  8  9  1  0  0  0  0
  8 10  1  6  0  0  0
  8 13  1  0  0  0  0
 10 11  1  0  0  0  0
 12 13  1  6  0  0  0
 12 14  1  0  0  0  0
 12 21  1  0  0  0  0
 14 15  1  6  0  0  0
 14 16  1  0  0  0  0
 16 17  1  1  0  0  0
 16 18  1  0  0  0  0
 18 19  1  6  0  0  0
 18 20  1  0  0  0  0
 20 21  1  0  0  0  0
 20 22  1  1  0  0  0
 22 23  1  0  0  0  0
M  END
>  <CHROM.1>
-170.73470794,-67.42121996,-146.71708137,-169.70123460,59.43980293,-7.23540560
-9.33298754,0.29592169,2.42524372,-0.27325597,-1.18347494

>  <Name>
ligand

>  <RI>
0

>  <Rbt.Current_Directory>
/home/itssahil/PROJECTS/Mol_Feturizer/New_Systems/rnas/4TS2

>  <Rbt.Executable>
rbdock ($Id: //depot/dev/client3/rdock/2013.1/src/exe/rbdock.cxx#4 $)

>  <Rbt.Library>
libRbt.so (2013.1, Build901 2013/11/27)

>  <Rbt.Parameter_File>
/export/apps/rDock/src/rDock_2013.1_src/data/scripts/dock_solv.prm

>  <Rbt.Receptor>
prm/pocket_docking_2.prm

>  <SCORE>
-7.99615

>  <SCORE.INTER>
-2.71287

>  <SCORE.INTER.CONST>
1

>  <SCORE.INTER.POLAR>
0

>  <SCORE.INTER.ROT>
5

>  <SCORE.INTER.SOLV>
7.42131

>  <SCORE.INTER.VDW>
-11.2157

>  <SCORE.INTER.norm>
-0.117951

>  <SCORE.INTRA>
-5.28888

>  <SCORE.INTRA.DIHEDRAL>
-7.42419

>  <SCORE.INTRA.DIHEDRAL.0>
12.4853

>  <SCORE.INTRA.POLAR>
0

>  <SCORE.INTRA.POLAR.0>
0

>  <SCORE.INTRA.REPUL>
0

>  <SCORE.INTRA.REPUL.0>
0

>  <SCORE.INTRA.SOLV>
0.251178

>  <SCORE.INTRA.SOLV.lig_0>
-31.1706

>  <SCORE.INTRA.VDW>
-1.70237

>  <SCORE.INTRA.VDW.0>
-1.16895

>  <SCORE.INTRA.norm>
-0.229951

>  <SCORE.RESTR>
0.00559495

>  <SCORE.RESTR.CAVITY>
0.00559495

>  <SCORE.RESTR.norm>
0.000243259

>  <SCORE.SYSTEM>
0

>  <SCORE.SYSTEM.CONST>
0

>  <SCORE.SYSTEM.DIHEDRAL>
0

>  <SCORE.SYSTEM.SOLV>
0

>  <SCORE.SYSTEM.norm>
0

>  <SCORE.heavy>
23

>  <SCORE.norm>
-0.347659

>  <RMSD>
0.726

$$$$
ligand
 OpenBabel11021811513D
libRbt.so/2013.1/901 2013/11/27
 23 24  0  0  0  0  0  0  0  0999 V2000
  -10.9523   -9.4398    0.1323 C   0  0  0  0  0  0  0  0  0  0  0  0
  -11.9989  -10.3031   -0.3524 O   0  0  0  0  0  0  0  0  0  0  0  0
   -9.9972   -9.1288   -1.0112 C   0  0  2  0  0  0  0  0  0  0  0  0
   -9.2528  -10.3232   -1.5879 C   0  0  1  0  0  0  0  0  0  0  0  0
  -10.1144  -11.0330   -2.4802 O   0  0  0  0  0  0  0  0  0  0  0  0
   -8.0675   -9.6526   -2.2741 C   0  0  2  0  0  0  0  0  0  0  0  0
   -6.8941  -10.4322   -2.5337 O   0  0  0  0  0  0  0  0  0  0  0  0
   -7.7439   -8.5374   -1.2955 C   0  0  2  0  0  0  0  0  0  0  0  0
   -8.9709   -8.2187   -0.6056 O   0  0  0  0  0  0  0  0  0  0  0  0
   -7.1985   -7.3475   -2.1056 C   0  0  0  0  0  0  0  0  0  0  0  0
   -8.0952   -6.9396   -3.1483 O   0  0  0  0  0  0  0  0  0  0  0  0
   -6.5276   -8.1065    0.7447 C   0  0  2  0  0  0  0  0  0  0  0  0
   -6.8136   -9.0326   -0.3177 O   0  0  0  0  0  0  0  0  0  0  0  0
   -5.0215   -7.9310    0.8011 C   0  0  2  0  0  0  0  0  0  0  0  0
   -4.5279   -7.6754   -0.5185 O   0  0  0  0  0  0  0  0  0  0  0  0
   -4.3598   -9.1917    1.3128 C   0  0  1  0  0  0  0  0  0  0  0  0
   -2.9854   -8.9071    1.5840 O   0  0  0  0  0  0  0  0  0  0  0  0
   -5.0502   -9.6853    2.5700 C   0  0  2  0  0  0  0  0  0  0  0  0
   -4.5162  -10.9571    2.9116 O   0  0  0  0  0  0  0  0  0  0  0  0
   -6.5553   -9.8173    2.3801 C   0  0  2  0  0  0  0  0  0  0  0  0
   -7.0512   -8.5409    1.9996 O   0  0  0  0  0  0  0  0  0  0  0  0
   -7.2455  -10.2998    3.6615 C   0  0  0  0  0  0  0  0  0  0  0  0
   -6.8655  -11.6321    4.0359 O   0  0  0  0  0  0  0  0  0  0  0  0
  1  2  1  0  0  0  0
  3  1  1  1  0  0  0
  3  9  1  0  0  0  0
  3  4  1  0  0  0  0
  4  5  1  6  0  0  0
  4  6  1  0  0  0  0
  6  7  1  1  0  0  0
  6  8  1  0  0  0  0
  8  9  1  0  0  0  0
  8 10  1  6  0  0  0
  8 13  1  0  0  0  0
 10 11  1  0  0  0  0
 12 13  1  6  0  0  0
 12 14  1  0  0  0  0
 12 21  1  0  0  0  0
 14 15  1  6  0  0  0
 14 16  1  0  0  0  0
 16 17  1  1  0  0  0
 16 18  1  0  0  0  0
 18 19  1  6  0  0  0
 18 20  1  0  0  0  0
 20 21  1  0  0  0  0
 20 22  1  1  0  0  0
 22 23  1  0  0  0  0
M  END
>  <CHROM.1>
-63.31354618,54.72793769,-125.47316987,-174.24118574,-65.30286680,-7.25349147
-9.28221299,0.16614867,2.49753893,-0.32319204,-1.10681361

>  <Name>
ligand

>  <RI>
0

>  <Rbt.Current_Directory>
/home/itssahil/PROJECTS/Mol_Feturizer/New_Systems/rnas/4TS2

>  <Rbt.Executable>
rbdock ($Id: //depot/dev/client3/rdock/2013.1/src/exe/rbdock.cxx#4 $)

>  <Rbt.Library>
libRbt.so (2013.1, Build901 2013/11/27)

>  <Rbt.Parameter_File>
/export/apps/rDock/src/rDock_2013.1_src/data/scripts/dock_solv.prm

>  <Rbt.Receptor>
prm/pocket_docking_2.prm

>  <SCORE>
-7.90395

>  <SCORE.INTER>
-4.66608

>  <SCORE.INTER.CONST>
1

>  <SCORE.INTER.POLAR>
0

>  <SCORE.INTER.ROT>
5

>  <SCORE.INTER.SOLV>
6.5577

>  <SCORE.INTER.VDW>
-12.23

>  <SCORE.INTER.norm>
-0.202873

>  <SCORE.INTRA>
-3.23787

>  <SCORE.INTRA.DIHEDRAL>
-5.13605

>  <SCORE.INTRA.DIHEDRAL.0>
12.4853

>  <SCORE.INTRA.POLAR>
0

>  <SCORE.INTRA.POLAR.0>
0

>  <SCORE.INTRA.REPUL>
0

>  <SCORE.INTRA.REPUL.0>
0

>  <SCORE.INTRA.SOLV>
0.154945

>  <SCORE.INTRA.SOLV.lig_0>
-31.1706

>  <SCORE.INTRA.VDW>
-0.747323

>  <SCORE.INTRA.VDW.0>
-1.16895

>  <SCORE.INTRA.norm>
-0.140777

>  <SCORE.RESTR>
0

>  <SCORE.RESTR.CAVITY>
0

>  <SCORE.RESTR.norm>
0

>  <SCORE.SYSTEM>
0

>  <SCORE.SYSTEM.CONST>
0

>  <SCORE.SYSTEM.DIHEDRAL>
0

>  <SCORE.SYSTEM.SOLV>
0

>  <SCORE.SYSTEM.norm>
0

>  <SCORE.heavy>
23

>  <SCORE.norm>
-0.34365

>  <RMSD>
0.746

$$$$
ligand
 OpenBabel11021811513D
libRbt.so/2013.1/901 2013/11/27
 23 24  0  0  0  0  0  0  0  0999 V2000
  -10.6428  -10.2953    0.3469 C   0  0  0  0  0  0  0  0  0  0  0  0
  -11.6142   -9.4155    0.9450 O   0  0  0  0  0  0  0  0  0  0  0  0
   -9.9367   -9.5592   -0.7827 C   0  0  2  0  0  0  0  0  0  0  0  0
   -9.0629  -10.4202   -1.6819 C   0  0  1  0  0  0  0  0  0  0  0  0
   -9.8867  -11.1088   -2.6249 O   0  0  0  0  0  0  0  0  0  0  0  0
   -8.1390   -9.3816   -2.3090 C   0  0  2  0  0  0  0  0  0  0  0  0
   -6.8847   -9.8156   -2.8482 O   0  0  0  0  0  0  0  0  0  0  0  0
   -7.9040   -8.4417   -1.1397 C   0  0  2  0  0  0  0  0  0  0  0  0
   -9.0603   -8.5456   -0.2820 O   0  0  0  0  0  0  0  0  0  0  0  0
   -7.7197   -7.0234   -1.7090 C   0  0  0  0  0  0  0  0  0  0  0  0
   -6.5317   -6.9038   -2.5041 O   0  0  0  0  0  0  0  0  0  0  0  0
   -6.5916   -8.2527    0.8776 C   0  0  2  0  0  0  0  0  0  0  0  0
   -6.7672   -8.9054   -0.3917 O   0  0  0  0  0  0  0  0  0  0  0  0
   -5.1010   -8.1917    1.1546 C   0  0  2  0  0  0  0  0  0  0  0  0
   -4.4274   -7.6882   -0.0042 O   0  0  0  0  0  0  0  0  0  0  0  0
   -4.5595   -9.5736    1.4479 C   0  0  1  0  0  0  0  0  0  0  0  0
   -3.2240   -9.4444    1.9410 O   0  0  0  0  0  0  0  0  0  0  0  0
   -5.4284  -10.2826    2.4693 C   0  0  2  0  0  0  0  0  0  0  0  0
   -4.9911  -11.6301    2.5801 O   0  0  0  0  0  0  0  0  0  0  0  0
   -6.8987  -10.2723    2.0730 C   0  0  2  0  0  0  0  0  0  0  0  0
   -7.2929   -8.9144    1.9303 O   0  0  0  0  0  0  0  0  0  0  0  0
   -7.7701  -10.9757    3.1203 C   0  0  0  0  0  0  0  0  0  0  0  0
   -7.7055  -10.3549    4.4126 O   0  0  0  0  0  0  0  0  0  0  0  0
  1  2  1  0  0  0  0
  3  1  1  1  0  0  0
  3  9  1  0  0  0  0
  3  4  1  0  0  0  0
  4  5  1  6  0  0  0
  4  6  1  0  0  0  0
  6  7  1  1  0  0  0
  6  8  1  0  0  0  0
  8  9  1  0  0  0  0
  8 10  1  6  0  0  0
  8 13  1  0  0  0  0
 10 11  1  0  0  0  0
 12 13  1  6  0  0  0
 12 14  1  0  0  0  0
 12 21  1  0  0  0  0
 14 15  1  6  0  0  0
 14 16  1  0  0  0  0
 16 17  1  1  0  0  0
 16 18  1  0  0  0  0
 18 19  1  6  0  0  0
 18 20  1  0  0  0  0
 20 21  1  0  0  0  0
 20 22  1  1  0  0  0
 22 23  1  0  0  0  0
M  END
>  <CHROM.1>
-169.26622340,-65.67133893,-147.75095119,-168.87520256,60.70720730,-7.30321172
-9.36587823,0.31034886,2.43173013,-0.26395208,-1.16851732

>  <Name>
ligand

>  <RI>
0

>  <Rbt.Current_Directory>
/home/itssahil/PROJECTS/Mol_Feturizer/New_Systems/rnas/4TS2

>  <Rbt.Executable>
rbdock ($Id: //depot/dev/client3/rdock/2013.1/src/exe/rbdock.cxx#4 $)

>  <Rbt.Library>
libRbt.so (2013.1, Build901 2013/11/27)

>  <Rbt.Parameter_File>
/export/apps/rDock/src/rDock_2013.1_src/data/scripts/dock_solv.prm

>  <Rbt.Receptor>
prm/pocket_docking_2.prm

>  <SCORE>
-7.97679

>  <SCORE.INTER>
-2.63783

>  <SCORE.INTER.CONST>
1

>  <SCORE.INTER.POLAR>
0

>  <SCORE.INTER.ROT>
5

>  <SCORE.INTER.SOLV>
7.44962

>  <SCORE.INTER.VDW>
-11.1751

>  <SCORE.INTER.norm>
-0.114688

>  <SCORE.INTRA>
-5.33896

>  <SCORE.INTRA.DIHEDRAL>
-7.50759

>  <SCORE.INTRA.DIHEDRAL.0>
12.4853

>  <SCORE.INTRA.POLAR>
0

>  <SCORE.INTRA.POLAR.0>
0

>  <SCORE.INTRA.REPUL>
0

>  <SCORE.INTRA.REPUL.0>
0

>  <SCORE.INTRA.SOLV>
0.230888

>  <SCORE.INTRA.SOLV.lig_0>
-31.1706

>  <SCORE.INTRA.VDW>
-1.7006

>  <SCORE.INTRA.VDW.0>
-1.16895

>  <SCORE.INTRA.norm>
-0.232128

>  <SCORE.RESTR>
0

>  <SCORE.RESTR.CAVITY>
0

>  <SCORE.RESTR.norm>
0

>  <SCORE.SYSTEM>
0

>  <SCORE.SYSTEM.CONST>
0

>  <SCORE.SYSTEM.DIHEDRAL>
0

>  <SCORE.SYSTEM.SOLV>
0

>  <SCORE.SYSTEM.norm>
0

>  <SCORE.heavy>
23

>  <SCORE.norm>
-0.346817

>  <RMSD>
0.750

$$$$
ligand
 OpenBabel11021811513D
libRbt.so/2013.1/901 2013/11/27
 23 24  0  0  0  0  0  0  0  0999 V2000
  -10.7508   -9.8280   -0.0883 C   0  0  0  0  0  0  0  0  0  0  0  0
   -9.9635  -10.3948    0.9768 O   0  0  0  0  0  0  0  0  0  0  0  0
   -9.8208   -9.3732   -1.2040 C   0  0  2  0  0  0  0  0  0  0  0  0
   -8.9587  -10.4619   -1.8245 C   0  0  1  0  0  0  0  0  0  0  0  0
   -9.7393  -11.2097   -2.7591 O   0  0  0  0  0  0  0  0  0  0  0  0
   -7.8385   -9.6485   -2.4640 C   0  0  2  0  0  0  0  0  0  0  0  0
   -6.5925  -10.2980   -2.7434 O   0  0  0  0  0  0  0  0  0  0  0  0
   -7.6333   -8.5538   -1.4318 C   0  0  2  0  0  0  0  0  0  0  0  0
   -8.8915   -8.3878   -0.7442 O   0  0  0  0  0  0  0  0  0  0  0  0
   -7.1995   -7.2804   -2.1800 C   0  0  0  0  0  0  0  0  0  0  0  0
   -8.1284   -6.9069   -3.2072 O   0  0  0  0  0  0  0  0  0  0  0  0
   -6.6528   -8.2341    0.7509 C   0  0  2  0  0  0  0  0  0  0  0  0
   -6.6677   -9.0014   -0.4653 O   0  0  0  0  0  0  0  0  0  0  0  0
   -5.2020   -7.9439    1.0871 C   0  0  2  0  0  0  0  0  0  0  0  0
   -4.5399   -7.4425   -0.0793 O   0  0  0  0  0  0  0  0  0  0  0  0
   -4.4948   -9.2095    1.5196 C   0  0  1  0  0  0  0  0  0  0  0  0
   -3.2186   -8.8570    2.0585 O   0  0  0  0  0  0  0  0  0  0  0  0
   -5.3145   -9.9517    2.5579 C   0  0  2  0  0  0  0  0  0  0  0  0
   -4.7051  -11.2121    2.8013 O   0  0  0  0  0  0  0  0  0  0  0  0
   -6.7484  -10.1780    2.0978 C   0  0  2  0  0  0  0  0  0  0  0  0
   -7.3149   -8.9037    1.8237 O   0  0  0  0  0  0  0  0  0  0  0  0
   -7.5728  -10.9130    3.1613 C   0  0  0  0  0  0  0  0  0  0  0  0
   -7.6130  -10.2206    4.4177 O   0  0  0  0  0  0  0  0  0  0  0  0
  1  2  1  0  0  0  0
  3  1  1  1  0  0  0
  3  9  1  0  0  0  0
  3  4  1  0  0  0  0
  4  5  1  6  0  0  0
  4  6  1  0  0  0  0
  6  7  1  1  0  0  0
  6  8  1  0  0  0  0
  8  9  1  0  0  0  0
  8 10  1  6  0  0  0
  8 13  1  0  0  0  0
 10 11  1  0  0  0  0
 12 13  1  6  0  0  0
 12 14  1  0  0  0  0
 12 21  1  0  0  0  0
 14 15  1  6  0  0  0
 14 16  1  0  0  0  0
 16 17  1  1  0  0  0
 16 18  1  0  0  0  0
 18 19  1  6  0  0  0
 18 20  1  0  0  0  0
 20 21  1  0  0  0  0
 20 22  1  1  0  0  0
 22 23  1  0  0  0  0
M  END
>  <CHROM.1>
59.70860619,55.22183630,-134.40773340,-163.67355486,57.98519181,-7.19274492
-9.32726402,0.18375158,2.28275931,-0.38569064,-1.17016774

>  <Name>
ligand

>  <RI>
0

>  <Rbt.Current_Directory>
/home/itssahil/PROJECTS/Mol_Feturizer/New_Systems/rnas/4TS2

>  <Rbt.Executable>
rbdock ($Id: //depot/dev/client3/rdock/2013.1/src/exe/rbdock.cxx#4 $)

>  <Rbt.Library>
libRbt.so (2013.1, Build901 2013/11/27)

>  <Rbt.Parameter_File>
/export/apps/rDock/src/rDock_2013.1_src/data/scripts/dock_solv.prm

>  <Rbt.Receptor>
prm/pocket_docking_2.prm

>  <SCORE>
-7.26897

>  <SCORE.INTER>
-3.55481

>  <SCORE.INTER.CONST>
1

>  <SCORE.INTER.POLAR>
0

>  <SCORE.INTER.ROT>
5

>  <SCORE.INTER.SOLV>
7.51932

>  <SCORE.INTER.VDW>
-11.8096

>  <SCORE.INTER.norm>
-0.154557

>  <SCORE.INTRA>
-3.72

>  <SCORE.INTRA.DIHEDRAL>
-5.16109

>  <SCORE.INTRA.DIHEDRAL.0>
12.4853

>  <SCORE.INTRA.POLAR>
0

>  <SCORE.INTRA.POLAR.0>
0

>  <SCORE.INTRA.REPUL>
0

>  <SCORE.INTRA.REPUL.0>
0

>  <SCORE.INTRA.SOLV>
0.941325

>  <SCORE.INTRA.SOLV.lig_0>
-31.1706

>  <SCORE.INTRA.VDW>
-1.61012

>  <SCORE.INTRA.VDW.0>
-1.16895

>  <SCORE.INTRA.norm>
-0.161739

>  <SCORE.RESTR>
0.00584343

>  <SCORE.RESTR.CAVITY>
0.00584343

>  <SCORE.RESTR.norm>
0.000254062

>  <SCORE.SYSTEM>
0

>  <SCORE.SYSTEM.CONST>
0

>  <SCORE.SYSTEM.DIHEDRAL>
0

>  <SCORE.SYSTEM.SOLV>
0

>  <SCORE.SYSTEM.norm>
0

>  <SCORE.heavy>
23

>  <SCORE.norm>
-0.316042

>  <RMSD>
0.753

$$$$
ligand
 OpenBabel11021811513D
libRbt.so/2013.1/901 2013/11/27
 23 24  0  0  0  0  0  0  0  0999 V2000
  -10.9976   -9.5312   -0.0471 C   0  0  0  0  0  0  0  0  0  0  0  0
  -10.3221  -10.1992    1.0358 O   0  0  0  0  0  0  0  0  0  0  0  0
   -9.9852   -9.2024   -1.1350 C   0  0  2  0  0  0  0  0  0  0  0  0
   -9.2023  -10.3860   -1.6823 C   0  0  1  0  0  0  0  0  0  0  0  0
  -10.0098  -11.0929   -2.6260 O   0  0  0  0  0  0  0  0  0  0  0  0
   -7.9871   -9.7005   -2.2979 C   0  0  2  0  0  0  0  0  0  0  0  0
   -6.7958  -10.4694   -2.5018 O   0  0  0  0  0  0  0  0  0  0  0  0
   -7.7244   -8.5928   -1.2930 C   0  0  2  0  0  0  0  0  0  0  0  0
   -8.9889   -8.2892   -0.6666 O   0  0  0  0  0  0  0  0  0  0  0  0
   -7.1454   -7.3912   -2.0616 C   0  0  0  0  0  0  0  0  0  0  0  0
   -8.0178   -6.9394   -3.1068 O   0  0  0  0  0  0  0  0  0  0  0  0
   -6.6026   -8.1642    0.8012 C   0  0  2  0  0  0  0  0  0  0  0  0
   -6.8439   -9.0910   -0.2715 O   0  0  0  0  0  0  0  0  0  0  0  0
   -5.1023   -7.9568    0.8934 C   0  0  2  0  0  0  0  0  0  0  0  0
   -4.5839   -7.6844   -0.4133 O   0  0  0  0  0  0  0  0  0  0  0  0
   -4.4258   -9.2055    1.4149 C   0  0  1  0  0  0  0  0  0  0  0  0
   -3.0645   -8.8929    1.7193 O   0  0  0  0  0  0  0  0  0  0  0  0
   -5.1344   -9.7197    2.6536 C   0  0  2  0  0  0  0  0  0  0  0  0
   -4.5813  -10.9814    3.0021 O   0  0  0  0  0  0  0  0  0  0  0  0
   -6.6315   -9.8829    2.4282 C   0  0  2  0  0  0  0  0  0  0  0  0
   -7.1457   -8.6156    2.0417 O   0  0  0  0  0  0  0  0  0  0  0  0
   -7.3406  -10.3862    3.6911 C   0  0  0  0  0  0  0  0  0  0  0  0
   -6.9296  -11.7058    4.0772 O   0  0  0  0  0  0  0  0  0  0  0  0
  1  2  1  0  0  0  0
  3  1  1  1  0  0  0
  3  9  1  0  0  0  0
  3  4  1  0  0  0  0
  4  5  1  6  0  0  0
  4  6  1  0  0  0  0
  6  7  1  1  0  0  0
  6  8  1  0  0  0  0
  8  9  1  0  0  0  0
  8 10  1  6  0  0  0
  8 13  1  0  0  0  0
 10 11  1  0  0  0  0
 12 13  1  6  0  0  0
 12 14  1  0  0  0  0
 12 21  1  0  0  0  0
 14 15  1  6  0  0  0
 14 16  1  0  0  0  0
 16 17  1  1  0  0  0
 16 18  1  0  0  0  0
 18 19  1  6  0  0  0
 18 20  1  0  0  0  0
 20 21  1  0  0  0  0
 20 22  1  1  0  0  0
 22 23  1  0  0  0  0
M  END
>  <CHROM.1>
56.38646725,57.48714046,-123.36526623,-175.31568546,-64.62933015,-7.19157320
-9.32219467,0.24939166,2.35906270,-0.34647664,-1.12056922

>  <Name>
ligand

>  <RI>
0

>  <Rbt.Current_Directory>
/home/itssahil/PROJECTS/Mol_Feturizer/New_Systems/rnas/4TS2

>  <Rbt.Executable>
rbdock ($Id: //depot/dev/client3/rdock/2013.1/src/exe/rbdock.cxx#4 $)

>  <Rbt.Library>
libRbt.so (2013.1, Build901 2013/11/27)

>  <Rbt.Parameter_File>
/export/apps/rDock/src/rDock_2013.1_src/data/scripts/dock_solv.prm

>  <Rbt.Receptor>
prm/pocket_docking_2.prm

>  <SCORE>
-7.67421

>  <SCORE.INTER>
-4.43424

>  <SCORE.INTER.CONST>
1

>  <SCORE.INTER.POLAR>
0

>  <SCORE.INTER.ROT>
5

>  <SCORE.INTER.SOLV>
6.96902

>  <SCORE.INTER.VDW>
-12.2125

>  <SCORE.INTER.norm>
-0.192793

>  <SCORE.INTRA>
-3.24105

>  <SCORE.INTRA.DIHEDRAL>
-5.15603

>  <SCORE.INTRA.DIHEDRAL.0>
12.4853

>  <SCORE.INTRA.POLAR>
0

>  <SCORE.INTRA.POLAR.0>
0

>  <SCORE.INTRA.REPUL>
0

>  <SCORE.INTRA.REPUL.0>
0

>  <SCORE.INTRA.SOLV>
0.597091

>  <SCORE.INTRA.SOLV.lig_0>
-31.1706

>  <SCORE.INTRA.VDW>
-0.961583

>  <SCORE.INTRA.VDW.0>
-1.16895

>  <SCORE.INTRA.norm>
-0.140915

>  <SCORE.RESTR>
0.00108337

>  <SCORE.RESTR.CAVITY>
0.00108337

>  <SCORE.RESTR.norm>
4.71033e-05

>  <SCORE.SYSTEM>
0

>  <SCORE.SYSTEM.CONST>
0

>  <SCORE.SYSTEM.DIHEDRAL>
0

>  <SCORE.SYSTEM.SOLV>
0

>  <SCORE.SYSTEM.norm>
0

>  <SCORE.heavy>
23

>  <SCORE.norm>
-0.333661

>  <RMSD>
0.754

$$$$
ligand
 OpenBabel11021811513D
libRbt.so/2013.1/901 2013/11/27
 23 24  0  0  0  0  0  0  0  0999 V2000
  -10.4838  -10.3031    0.5206 C   0  0  0  0  0  0  0  0  0  0  0  0
  -11.5356   -9.4586    1.0264 O   0  0  0  0  0  0  0  0  0  0  0  0
   -9.7906   -9.5937   -0.6338 C   0  0  2  0  0  0  0  0  0  0  0  0
   -8.8648  -10.4590   -1.4750 C   0  0  1  0  0  0  0  0  0  0  0  0
   -9.6415  -11.2293   -2.3946 O   0  0  0  0  0  0  0  0  0  0  0  0
   -7.9758   -9.4131   -2.1395 C   0  0  2  0  0  0  0  0  0  0  0  0
   -6.6948   -9.8178   -2.6369 O   0  0  0  0  0  0  0  0  0  0  0  0
   -7.8022   -8.4068   -1.0156 C   0  0  2  0  0  0  0  0  0  0  0  0
   -8.9677   -8.5188   -0.1716 O   0  0  0  0  0  0  0  0  0  0  0  0
   -7.6695   -7.0118   -1.6529 C   0  0  0  0  0  0  0  0  0  0  0  0
   -6.5116   -6.9026   -2.4925 O   0  0  0  0  0  0  0  0  0  0  0  0
   -6.4308   -7.9409    0.9157 C   0  0  2  0  0  0  0  0  0  0  0  0
   -6.6597   -8.7823   -0.2279 O   0  0  0  0  0  0  0  0  0  0  0  0
   -4.9292   -7.8153    1.0939 C   0  0  2  0  0  0  0  0  0  0  0  0
   -4.3322   -7.4841   -0.1646 O   0  0  0  0  0  0  0  0  0  0  0  0
   -4.3394   -9.1277    1.5614 C   0  0  1  0  0  0  0  0  0  0  0  0
   -2.9825   -8.9042    1.9516 O   0  0  0  0  0  0  0  0  0  0  0  0
   -5.1340   -9.6860    2.7267 C   0  0  2  0  0  0  0  0  0  0  0  0
   -4.6590  -10.9939    3.0149 O   0  0  0  0  0  0  0  0  0  0  0  0
   -6.6235   -9.7591    2.4188 C   0  0  2  0  0  0  0  0  0  0  0  0
   -7.0575   -8.4451    2.0950 O   0  0  0  0  0  0  0  0  0  0  0  0
   -7.4193  -10.3079    3.6089 C   0  0  0  0  0  0  0  0  0  0  0  0
   -7.0900  -11.6687    3.9245 O   0  0  0  0  0  0  0  0  0  0  0  0
  1  2  1  0  0  0  0
  3  1  1  1  0  0  0
  3  9  1  0  0  0  0
  3  4  1  0  0  0  0
  4  5  1  6  0  0  0
  4  6  1  0  0  0  0
  6  7  1  1  0  0  0
  6  8  1  0  0  0  0
  8  9  1  0  0  0  0
  8 10  1  6  0  0  0
  8 13  1  0  0  0  0
 10 11  1  0  0  0  0
 12 13  1  6  0  0  0
 12 14  1  0  0  0  0
 12 21  1  0  0  0  0
 14 15  1  6  0  0  0
 14 16  1  0  0  0  0
 16 17  1  1  0  0  0
 16 18  1  0  0  0  0
 18 19  1  6  0  0  0
 18 20  1  0  0  0  0
 20 21  1  0  0  0  0
 20 22  1  1  0  0  0
 22 23  1  0  0  0  0
M  END
>  <CHROM.1>
-167.14798156,-62.53550107,-144.26880385,-176.90695324,-64.58627831,-7.10469404
-9.22816145,0.42934407,2.51907753,-0.33979601,-1.13244745

>  <Name>
ligand

>  <RI>
0

>  <Rbt.Current_Directory>
/home/itssahil/PROJECTS/Mol_Feturizer/New_Systems/rnas/4TS2

>  <Rbt.Executable>
rbdock ($Id: //depot/dev/client3/rdock/2013.1/src/exe/rbdock.cxx#4 $)

>  <Rbt.Library>
libRbt.so (2013.1, Build901 2013/11/27)

>  <Rbt.Parameter_File>
/export/apps/rDock/src/rDock_2013.1_src/data/scripts/dock_solv.prm

>  <Rbt.Receptor>
prm/pocket_docking_2.prm

>  <SCORE>
-8.10581

>  <SCORE.INTER>
-3.37711

>  <SCORE.INTER.CONST>
1

>  <SCORE.INTER.POLAR>
0

>  <SCORE.INTER.ROT>
5

>  <SCORE.INTER.SOLV>
7.0331

>  <SCORE.INTER.VDW>
-11.5291

>  <SCORE.INTER.norm>
-0.146831

>  <SCORE.INTRA>
-4.7287

>  <SCORE.INTRA.DIHEDRAL>
-7.12827

>  <SCORE.INTRA.DIHEDRAL.0>
12.4853

>  <SCORE.INTRA.POLAR>
0

>  <SCORE.INTRA.POLAR.0>
0

>  <SCORE.INTRA.REPUL>
0

>  <SCORE.INTRA.REPUL.0>
0

>  <SCORE.INTRA.SOLV>
0.230676

>  <SCORE.INTRA.SOLV.lig_0>
-31.1706

>  <SCORE.INTRA.VDW>
-1.27991

>  <SCORE.INTRA.VDW.0>
-1.16895

>  <SCORE.INTRA.norm>
-0.205596

>  <SCORE.RESTR>
0

>  <SCORE.RESTR.CAVITY>
0

>  <SCORE.RESTR.norm>
0

>  <SCORE.SYSTEM>
0

>  <SCORE.SYSTEM.CONST>
0

>  <SCORE.SYSTEM.DIHEDRAL>
0

>  <SCORE.SYSTEM.SOLV>
0

>  <SCORE.SYSTEM.norm>
0

>  <SCORE.heavy>
23

>  <SCORE.norm>
-0.352427

>  <RMSD>
0.754

$$$$
ligand
 OpenBabel11021811513D
libRbt.so/2013.1/901 2013/11/27
 23 24  0  0  0  0  0  0  0  0999 V2000
  -10.6914  -10.2934    0.1192 C   0  0  0  0  0  0  0  0  0  0  0  0
  -11.6139   -9.3562    0.7076 O   0  0  0  0  0  0  0  0  0  0  0  0
   -9.9292   -9.6012   -1.0016 C   0  0  2  0  0  0  0  0  0  0  0  0
   -8.9986  -10.4921   -1.8102 C   0  0  1  0  0  0  0  0  0  0  0  0
   -9.7619  -11.2319   -2.7653 O   0  0  0  0  0  0  0  0  0  0  0  0
   -8.0498   -9.4725   -2.4315 C   0  0  2  0  0  0  0  0  0  0  0  0
   -6.7635   -9.9163   -2.8792 O   0  0  0  0  0  0  0  0  0  0  0  0
   -7.8894   -8.4781   -1.2951 C   0  0  2  0  0  0  0  0  0  0  0  0
   -9.0913   -8.5562   -0.4996 O   0  0  0  0  0  0  0  0  0  0  0  0
   -7.6857   -7.0850   -1.9175 C   0  0  0  0  0  0  0  0  0  0  0  0
   -6.4059   -6.9518   -2.5518 O   0  0  0  0  0  0  0  0  0  0  0  0
   -6.7016   -8.1915    0.7868 C   0  0  2  0  0  0  0  0  0  0  0  0
   -6.7926   -8.8947   -0.4642 O   0  0  0  0  0  0  0  0  0  0  0  0
   -5.2304   -7.9405    1.0608 C   0  0  2  0  0  0  0  0  0  0  0  0
   -4.6208   -7.3895   -0.1118 O   0  0  0  0  0  0  0  0  0  0  0  0
   -4.5241   -9.2371    1.3908 C   0  0  1  0  0  0  0  0  0  0  0  0
   -3.2157   -8.9317    1.8791 O   0  0  0  0  0  0  0  0  0  0  0  0
   -5.3019  -10.0196    2.4317 C   0  0  2  0  0  0  0  0  0  0  0  0
   -4.7028  -11.2998    2.5785 O   0  0  0  0  0  0  0  0  0  0  0  0
   -6.7613  -10.2006    2.0366 C   0  0  2  0  0  0  0  0  0  0  0  0
   -7.3189   -8.9056    1.8576 O   0  0  0  0  0  0  0  0  0  0  0  0
   -7.5424  -10.9772    3.1033 C   0  0  0  0  0  0  0  0  0  0  0  0
   -7.5658  -10.3139    4.3757 O   0  0  0  0  0  0  0  0  0  0  0  0
  1  2  1  0  0  0  0
  3  1  1  1  0  0  0
  3  9  1  0  0  0  0
  3  4  1  0  0  0  0
  4  5  1  6  0  0  0
  4  6  1  0  0  0  0
  6  7  1  1  0  0  0
  6  8  1  0  0  0  0
  8  9  1  0  0  0  0
  8 10  1  6  0  0  0
  8 13  1  0  0  0  0
 10 11  1  0  0  0  0
 12 13  1  6  0  0  0
 12 14  1  0  0  0  0
 12 21  1  0  0  0  0
 14 15  1  6  0  0  0
 14 16  1  0  0  0  0
 16 17  1  1  0  0  0
 16 18  1  0  0  0  0
 18 19  1  6  0  0  0
 18 20  1  0  0  0  0
 20 21  1  0  0  0  0
 20 22  1  1  0  0  0
 22 23  1  0  0  0  0
M  END
>  <CHROM.1>
-174.77424554,-70.66831338,-140.68750490,-168.35701629,61.12928986,-7.25965562
-9.29256204,0.20597085,2.44948434,-0.31773748,-1.19432108

>  <Name>
ligand

>  <RI>
0

>  <Rbt.Current_Directory>
/home/itssahil/PROJECTS/Mol_Feturizer/New_Systems/rnas/4TS2

>  <Rbt.Executable>
rbdock ($Id: //depot/dev/client3/rdock/2013.1/src/exe/rbdock.cxx#4 $)

>  <Rbt.Library>
libRbt.so (2013.1, Build901 2013/11/27)

>  <Rbt.Parameter_File>
/export/apps/rDock/src/rDock_2013.1_src/data/scripts/dock_solv.prm

>  <Rbt.Receptor>
prm/pocket_docking_2.prm

>  <SCORE>
-7.96703

>  <SCORE.INTER>
-3.36411

>  <SCORE.INTER.CONST>
1

>  <SCORE.INTER.POLAR>
0

>  <SCORE.INTER.ROT>
5

>  <SCORE.INTER.SOLV>
7.4489

>  <SCORE.INTER.VDW>
-11.659

>  <SCORE.INTER.norm>
-0.146266

>  <SCORE.INTRA>
-4.60291

>  <SCORE.INTRA.DIHEDRAL>
-6.27036

>  <SCORE.INTRA.DIHEDRAL.0>
12.4853

>  <SCORE.INTRA.POLAR>
0

>  <SCORE.INTRA.POLAR.0>
0

>  <SCORE.INTRA.REPUL>
0

>  <SCORE.INTRA.REPUL.0>
0

>  <SCORE.INTRA.SOLV>
0.287291

>  <SCORE.INTRA.SOLV.lig_0>
-31.1706

>  <SCORE.INTRA.VDW>
-1.61138

>  <SCORE.INTRA.VDW.0>
-1.16895

>  <SCORE.INTRA.norm>
-0.200127

>  <SCORE.RESTR>
0

>  <SCORE.RESTR.CAVITY>
0

>  <SCORE.RESTR.norm>
0

>  <SCORE.SYSTEM>
0

>  <SCORE.SYSTEM.CONST>
0

>  <SCORE.SYSTEM.DIHEDRAL>
0

>  <SCORE.SYSTEM.SOLV>
0

>  <SCORE.SYSTEM.norm>
0

>  <SCORE.heavy>
23

>  <SCORE.norm>
-0.346392

>  <RMSD>
0.779

$$$$
ligand
 OpenBabel11021811513D
libRbt.so/2013.1/901 2013/11/27
 23 24  0  0  0  0  0  0  0  0999 V2000
  -10.8654   -9.6728    0.0495 C   0  0  0  0  0  0  0  0  0  0  0  0
  -10.0918  -10.3529    1.0567 O   0  0  0  0  0  0  0  0  0  0  0  0
   -9.9439   -9.2634   -1.0905 C   0  0  2  0  0  0  0  0  0  0  0  0
   -9.1392  -10.3897   -1.7209 C   0  0  1  0  0  0  0  0  0  0  0  0
   -9.9694  -11.1135   -2.6314 O   0  0  0  0  0  0  0  0  0  0  0  0
   -8.0030   -9.6256   -2.3923 C   0  0  2  0  0  0  0  0  0  0  0  0
   -6.7899  -10.3255   -2.6939 O   0  0  0  0  0  0  0  0  0  0  0  0
   -7.7320   -8.5319   -1.3743 C   0  0  2  0  0  0  0  0  0  0  0  0
   -8.9668   -8.3115   -0.6601 O   0  0  0  0  0  0  0  0  0  0  0  0
   -7.2660   -7.2822   -2.1428 C   0  0  0  0  0  0  0  0  0  0  0  0
   -8.1687   -6.9212   -3.1975 O   0  0  0  0  0  0  0  0  0  0  0  0
   -6.7022   -8.2439    0.7900 C   0  0  2  0  0  0  0  0  0  0  0  0
   -6.7628   -9.0094   -0.4258 O   0  0  0  0  0  0  0  0  0  0  0  0
   -5.2403   -7.9456    1.0665 C   0  0  2  0  0  0  0  0  0  0  0  0
   -4.6301   -7.4385   -0.1255 O   0  0  0  0  0  0  0  0  0  0  0  0
   -4.5085   -9.2077    1.4671 C   0  0  1  0  0  0  0  0  0  0  0  0
   -3.2131   -8.8483    1.9533 O   0  0  0  0  0  0  0  0  0  0  0  0
   -5.2802   -9.9562    2.5372 C   0  0  2  0  0  0  0  0  0  0  0  0
   -4.6538  -11.2134    2.7529 O   0  0  0  0  0  0  0  0  0  0  0  0
   -6.7305  -10.1903    2.1364 C   0  0  2  0  0  0  0  0  0  0  0  0
   -7.3153   -8.9190    1.8882 O   0  0  0  0  0  0  0  0  0  0  0  0
   -7.5059  -10.9318    3.2318 C   0  0  0  0  0  0  0  0  0  0  0  0
   -7.4931  -10.2444    4.4916 O   0  0  0  0  0  0  0  0  0  0  0  0
  1  2  1  0  0  0  0
  3  1  1  1  0  0  0
  3  9  1  0  0  0  0
  3  4  1  0  0  0  0
  4  5  1  6  0  0  0
  4  6  1  0  0  0  0
  6  7  1  1  0  0  0
  6  8  1  0  0  0  0
  8  9  1  0  0  0  0
  8 10  1  6  0  0  0
  8 13  1  0  0  0  0
 10 11  1  0  0  0  0
 12 13  1  6  0  0  0
 12 14  1  0  0  0  0
 12 21  1  0  0  0  0
 14 15  1  6  0  0  0
 14 16  1  0  0  0  0
 16 17  1  1  0  0  0
 16 18  1  0  0  0  0
 18 19  1  6  0  0  0
 18 20  1  0  0  0  0
 20 21  1  0  0  0  0
 20 22  1  1  0  0  0
 22 23  1  0  0  0  0
M  END
>  <CHROM.1>
55.39525682,52.21238532,-131.93993231,-162.94119156,57.72400044,-7.25378236
-9.30733675,0.22249645,2.31322380,-0.35797115,-1.15809175

>  <Name>
ligand

>  <RI>
0

>  <Rbt.Current_Directory>
/home/itssahil/PROJECTS/Mol_Feturizer/New_Systems/rnas/4TS2

>  <Rbt.Executable>
rbdock ($Id: //depot/dev/client3/rdock/2013.1/src/exe/rbdock.cxx#4 $)

>  <Rbt.Library>
libRbt.so (2013.1, Build901 2013/11/27)

>  <Rbt.Parameter_File>
/export/apps/rDock/src/rDock_2013.1_src/data/scripts/dock_solv.prm

>  <Rbt.Receptor>
prm/pocket_docking_2.prm

>  <SCORE>
-7.18825

>  <SCORE.INTER>
-3.88236

>  <SCORE.INTER.CONST>
1

>  <SCORE.INTER.POLAR>
0

>  <SCORE.INTER.ROT>
5

>  <SCORE.INTER.SOLV>
7.71167

>  <SCORE.INTER.VDW>
-12.0921

>  <SCORE.INTER.norm>
-0.168798

>  <SCORE.INTRA>
-3.30589

>  <SCORE.INTRA.DIHEDRAL>
-4.58107

>  <SCORE.INTRA.DIHEDRAL.0>
12.4853

>  <SCORE.INTRA.POLAR>
0

>  <SCORE.INTRA.POLAR.0>
0

>  <SCORE.INTRA.REPUL>
0

>  <SCORE.INTRA.REPUL.0>
0

>  <SCORE.INTRA.SOLV>
0.882234

>  <SCORE.INTRA.SOLV.lig_0>
-31.1706

>  <SCORE.INTRA.VDW>
-1.45647

>  <SCORE.INTRA.VDW.0>
-1.16895

>  <SCORE.INTRA.norm>
-0.143734

>  <SCORE.RESTR>
0

>  <SCORE.RESTR.CAVITY>
0

>  <SCORE.RESTR.norm>
0

>  <SCORE.SYSTEM>
0

>  <SCORE.SYSTEM.CONST>
0

>  <SCORE.SYSTEM.DIHEDRAL>
0

>  <SCORE.SYSTEM.SOLV>
0

>  <SCORE.SYSTEM.norm>
0

>  <SCORE.heavy>
23

>  <SCORE.norm>
-0.312533

>  <RMSD>
0.791

$$$$
ligand
 OpenBabel11021811513D
libRbt.so/2013.1/901 2013/11/27
 23 24  0  0  0  0  0  0  0  0999 V2000
  -10.9688   -9.4996    0.0513 C   0  0  0  0  0  0  0  0  0  0  0  0
  -12.0173  -10.3287   -0.4861 O   0  0  0  0  0  0  0  0  0  0  0  0
   -9.9691   -9.1872   -1.0530 C   0  0  2  0  0  0  0  0  0  0  0  0
   -9.2067  -10.3818   -1.6055 C   0  0  1  0  0  0  0  0  0  0  0  0
  -10.0353  -11.0850   -2.5334 O   0  0  0  0  0  0  0  0  0  0  0  0
   -7.9935   -9.7124   -2.2423 C   0  0  2  0  0  0  0  0  0  0  0  0
   -6.8135  -10.4949   -2.4595 O   0  0  0  0  0  0  0  0  0  0  0  0
   -7.7045   -8.6023   -1.2472 C   0  0  2  0  0  0  0  0  0  0  0  0
   -8.9564   -8.2822   -0.6041 O   0  0  0  0  0  0  0  0  0  0  0  0
   -7.1243   -7.4109   -2.0306 C   0  0  0  0  0  0  0  0  0  0  0  0
   -7.9986   -6.9677   -3.0778 O   0  0  0  0  0  0  0  0  0  0  0  0
   -6.6052   -8.2032    0.8646 C   0  0  2  0  0  0  0  0  0  0  0  0
   -6.8144   -9.1046   -0.2361 O   0  0  0  0  0  0  0  0  0  0  0  0
   -5.1103   -7.9724    0.9849 C   0  0  2  0  0  0  0  0  0  0  0  0
   -4.5778   -7.6558   -0.3059 O   0  0  0  0  0  0  0  0  0  0  0  0
   -4.4195   -9.2229    1.4829 C   0  0  1  0  0  0  0  0  0  0  0  0
   -3.0686   -8.8952    1.8161 O   0  0  0  0  0  0  0  0  0  0  0  0
   -5.1369   -9.7827    2.6965 C   0  0  2  0  0  0  0  0  0  0  0  0
   -4.5667  -11.0437    3.0193 O   0  0  0  0  0  0  0  0  0  0  0  0
   -6.6275   -9.9657    2.4442 C   0  0  2  0  0  0  0  0  0  0  0  0
   -7.1583   -8.6974    2.0842 O   0  0  0  0  0  0  0  0  0  0  0  0
   -7.3460  -10.5151    3.6823 C   0  0  0  0  0  0  0  0  0  0  0  0
   -8.6829  -10.9573    3.4051 O   0  0  0  0  0  0  0  0  0  0  0  0
  1  2  1  0  0  0  0
  3  1  1  1  0  0  0
  3  9  1  0  0  0  0
  3  4  1  0  0  0  0
  4  5  1  6  0  0  0
  4  6  1  0  0  0  0
  6  7  1  1  0  0  0
  6  8  1  0  0  0  0
  8  9  1  0  0  0  0
  8 10  1  6  0  0  0
  8 13  1  0  0  0  0
 10 11  1  0  0  0  0
 12 13  1  6  0  0  0
 12 14  1  0  0  0  0
 12 21  1  0  0  0  0
 14 15  1  6  0  0  0
 14 16  1  0  0  0  0
 16 17  1  1  0  0  0
 16 18  1  0  0  0  0
 18 19  1  6  0  0  0
 18 20  1  0  0  0  0
 20 21  1  0  0  0  0
 20 22  1  1  0  0  0
 22 23  1  0  0  0  0
M  END
>  <CHROM.1>
-64.80010518,56.64001716,-124.25698191,-172.09018096,-167.95189239,-7.35196023
-9.31417611,0.19555439,2.53068121,-0.32022226,-1.16589276

>  <Name>
ligand

>  <RI>
0

>  <Rbt.Current_Directory>
/home/itssahil/PROJECTS/Mol_Feturizer/New_Systems/rnas/4TS2

>  <Rbt.Executable>
rbdock ($Id: //depot/dev/client3/rdock/2013.1/src/exe/rbdock.cxx#4 $)

>  <Rbt.Library>
libRbt.so (2013.1, Build901 2013/11/27)

>  <Rbt.Parameter_File>
/export/apps/rDock/src/rDock_2013.1_src/data/scripts/dock_solv.prm

>  <Rbt.Receptor>
prm/pocket_docking_2.prm

>  <SCORE>
-7.54449

>  <SCORE.INTER>
-4.22078

>  <SCORE.INTER.CONST>
1

>  <SCORE.INTER.POLAR>
0

>  <SCORE.INTER.ROT>
5

>  <SCORE.INTER.SOLV>
6.69109

>  <SCORE.INTER.VDW>
-11.9776

>  <SCORE.INTER.norm>
-0.183512

>  <SCORE.INTRA>
-3.32371

>  <SCORE.INTRA.DIHEDRAL>
-4.56295

>  <SCORE.INTRA.DIHEDRAL.0>
12.4853

>  <SCORE.INTRA.POLAR>
0

>  <SCORE.INTRA.POLAR.0>
0

>  <SCORE.INTRA.REPUL>
0

>  <SCORE.INTRA.REPUL.0>
0

>  <SCORE.INTRA.SOLV>
-0.163076

>  <SCORE.INTRA.SOLV.lig_0>
-31.1706

>  <SCORE.INTRA.VDW>
-0.960698

>  <SCORE.INTRA.VDW.0>
-1.16895

>  <SCORE.INTRA.norm>
-0.144509

>  <SCORE.RESTR>
0

>  <SCORE.RESTR.CAVITY>
0

>  <SCORE.RESTR.norm>
0

>  <SCORE.SYSTEM>
0

>  <SCORE.SYSTEM.CONST>
0

>  <SCORE.SYSTEM.DIHEDRAL>
0

>  <SCORE.SYSTEM.SOLV>
0

>  <SCORE.SYSTEM.norm>
0

>  <SCORE.heavy>
23

>  <SCORE.norm>
-0.328021

>  <RMSD>
0.798

$$$$
ligand
 OpenBabel11021811513D
libRbt.so/2013.1/901 2013/11/27
 23 24  0  0  0  0  0  0  0  0999 V2000
  -10.9723   -9.5068   -0.1388 C   0  0  0  0  0  0  0  0  0  0  0  0
  -10.3085  -10.0886    0.9997 O   0  0  0  0  0  0  0  0  0  0  0  0
   -9.9372   -9.1955   -1.2103 C   0  0  2  0  0  0  0  0  0  0  0  0
   -9.1627  -10.3918   -1.7420 C   0  0  1  0  0  0  0  0  0  0  0  0
   -9.9646  -11.0890   -2.6975 O   0  0  0  0  0  0  0  0  0  0  0  0
   -7.9274   -9.7257   -2.3385 C   0  0  2  0  0  0  0  0  0  0  0  0
   -6.7443  -10.5126   -2.5208 O   0  0  0  0  0  0  0  0  0  0  0  0
   -7.6652   -8.6196   -1.3316 C   0  0  2  0  0  0  0  0  0  0  0  0
   -8.9354   -8.2960   -0.7272 O   0  0  0  0  0  0  0  0  0  0  0  0
   -7.0558   -7.4285   -2.0930 C   0  0  0  0  0  0  0  0  0  0  0  0
   -7.9188   -6.9447   -3.1316 O   0  0  0  0  0  0  0  0  0  0  0  0
   -6.5916   -8.2115    0.7917 C   0  0  2  0  0  0  0  0  0  0  0  0
   -6.8094   -9.1284   -0.2945 O   0  0  0  0  0  0  0  0  0  0  0  0
   -5.0950   -7.9880    0.9042 C   0  0  2  0  0  0  0  0  0  0  0  0
   -4.5643   -7.6944   -0.3929 O   0  0  0  0  0  0  0  0  0  0  0  0
   -4.4103   -9.2349    1.4193 C   0  0  1  0  0  0  0  0  0  0  0  0
   -3.0564   -8.9103    1.7436 O   0  0  0  0  0  0  0  0  0  0  0  0
   -5.1275   -9.7716    2.6434 C   0  0  2  0  0  0  0  0  0  0  0  0
   -4.5640  -11.0310    2.9839 O   0  0  0  0  0  0  0  0  0  0  0  0
   -6.6198   -9.9494    2.3982 C   0  0  2  0  0  0  0  0  0  0  0  0
   -7.1441   -8.6836    2.0203 O   0  0  0  0  0  0  0  0  0  0  0  0
   -7.3380  -10.4755    3.6465 C   0  0  0  0  0  0  0  0  0  0  0  0
   -8.5920  -11.1066    3.3483 O   0  0  0  0  0  0  0  0  0  0  0  0
  1  2  1  0  0  0  0
  3  1  1  1  0  0  0
  3  9  1  0  0  0  0
  3  4  1  0  0  0  0
  4  5  1  6  0  0  0
  4  6  1  0  0  0  0
  6  7  1  1  0  0  0
  6  8  1  0  0  0  0
  8  9  1  0  0  0  0
  8 10  1  6  0  0  0
  8 13  1  0  0  0  0
 10 11  1  0  0  0  0
 12 13  1  6  0  0  0
 12 14  1  0  0  0  0
 12 21  1  0  0  0  0
 14 15  1  6  0  0  0
 14 16  1  0  0  0  0
 16 17  1  1  0  0  0
 16 18  1  0  0  0  0
 18 19  1  6  0  0  0
 18 20  1  0  0  0  0
 20 21  1  0  0  0  0
 20 22  1  1  0  0  0
 22 23  1  0  0  0  0
M  END
>  <CHROM.1>
60.77561607,58.96490296,-122.36180815,-174.26588271,-158.67159769,-7.23985799
-9.31441927,0.18688509,2.40191473,-0.32022509,-1.18030358

>  <Name>
ligand

>  <RI>
0

>  <Rbt.Current_Directory>
/home/itssahil/PROJECTS/Mol_Feturizer/New_Systems/rnas/4TS2

>  <Rbt.Executable>
rbdock ($Id: //depot/dev/client3/rdock/2013.1/src/exe/rbdock.cxx#4 $)

>  <Rbt.Library>
libRbt.so (2013.1, Build901 2013/11/27)

>  <Rbt.Parameter_File>
/export/apps/rDock/src/rDock_2013.1_src/data/scripts/dock_solv.prm

>  <Rbt.Receptor>
prm/pocket_docking_2.prm

>  <SCORE>
-7.14894

>  <SCORE.INTER>
-4.26432

>  <SCORE.INTER.CONST>
1

>  <SCORE.INTER.POLAR>
0

>  <SCORE.INTER.ROT>
5

>  <SCORE.INTER.SOLV>
7.17146

>  <SCORE.INTER.VDW>
-12.1667

>  <SCORE.INTER.norm>
-0.185405

>  <SCORE.INTRA>
-2.88462

>  <SCORE.INTRA.DIHEDRAL>
-3.74214

>  <SCORE.INTRA.DIHEDRAL.0>
12.4853

>  <SCORE.INTRA.POLAR>
0

>  <SCORE.INTRA.POLAR.0>
0

>  <SCORE.INTRA.REPUL>
0

>  <SCORE.INTRA.REPUL.0>
0

>  <SCORE.INTRA.SOLV>
0.561733

>  <SCORE.INTRA.SOLV.lig_0>
-31.1706

>  <SCORE.INTRA.VDW>
-1.29442

>  <SCORE.INTRA.VDW.0>
-1.16895

>  <SCORE.INTRA.norm>
-0.125418

>  <SCORE.RESTR>
0

>  <SCORE.RESTR.CAVITY>
0

>  <SCORE.RESTR.norm>
0

>  <SCORE.SYSTEM>
0

>  <SCORE.SYSTEM.CONST>
0

>  <SCORE.SYSTEM.DIHEDRAL>
0

>  <SCORE.SYSTEM.SOLV>
0

>  <SCORE.SYSTEM.norm>
0

>  <SCORE.heavy>
23

>  <SCORE.norm>
-0.310824

>  <RMSD>
0.829

$$$$
ligand
 OpenBabel11021811513D
libRbt.so/2013.1/901 2013/11/27
 23 24  0  0  0  0  0  0  0  0999 V2000
  -11.0676   -9.4715   -0.1205 C   0  0  0  0  0  0  0  0  0  0  0  0
  -10.4243  -10.0639    1.0244 O   0  0  0  0  0  0  0  0  0  0  0  0
  -10.0185   -9.1852   -1.1853 C   0  0  2  0  0  0  0  0  0  0  0  0
   -9.2616  -10.3983   -1.7039 C   0  0  1  0  0  0  0  0  0  0  0  0
  -10.0683  -11.0866   -2.6618 O   0  0  0  0  0  0  0  0  0  0  0  0
   -8.0098   -9.7580   -2.2943 C   0  0  2  0  0  0  0  0  0  0  0  0
   -6.8396  -10.5670   -2.4626 O   0  0  0  0  0  0  0  0  0  0  0  0
   -7.7357   -8.6508   -1.2918 C   0  0  2  0  0  0  0  0  0  0  0  0
   -9.0046   -8.3009   -0.6994 O   0  0  0  0  0  0  0  0  0  0  0  0
   -7.0990   -7.4754   -2.0551 C   0  0  0  0  0  0  0  0  0  0  0  0
   -7.9527   -6.9701   -3.0912 O   0  0  0  0  0  0  0  0  0  0  0  0
   -6.6567   -8.2429    0.8288 C   0  0  2  0  0  0  0  0  0  0  0  0
   -6.8975   -9.1687   -0.2449 O   0  0  0  0  0  0  0  0  0  0  0  0
   -5.1600   -8.0018    0.8936 C   0  0  2  0  0  0  0  0  0  0  0  0
   -4.6732   -7.7099   -0.4210 O   0  0  0  0  0  0  0  0  0  0  0  0
   -4.4453   -9.2377    1.3942 C   0  0  1  0  0  0  0  0  0  0  0  0
   -3.0859   -8.8958    1.6744 O   0  0  0  0  0  0  0  0  0  0  0  0
   -5.1180   -9.7752    2.6429 C   0  0  2  0  0  0  0  0  0  0  0  0
   -4.5296  -11.0260    2.9728 O   0  0  0  0  0  0  0  0  0  0  0  0
   -6.6151   -9.9714    2.4452 C   0  0  2  0  0  0  0  0  0  0  0  0
   -7.1653   -8.7140    2.0766 O   0  0  0  0  0  0  0  0  0  0  0  0
   -7.2881  -10.4982    3.7182 C   0  0  0  0  0  0  0  0  0  0  0  0
   -8.5576  -11.1183    3.4662 O   0  0  0  0  0  0  0  0  0  0  0  0
  1  2  1  0  0  0  0
  3  1  1  1  0  0  0
  3  9  1  0  0  0  0
  3  4  1  0  0  0  0
  4  5  1  6  0  0  0
  4  6  1  0  0  0  0
  6  7  1  1  0  0  0
  6  8  1  0  0  0  0
  8  9  1  0  0  0  0
  8 10  1  6  0  0  0
  8 13  1  0  0  0  0
 10 11  1  0  0  0  0
 12 13  1  6  0  0  0
 12 14  1  0  0  0  0
 12 21  1  0  0  0  0
 14 15  1  6  0  0  0
 14 16  1  0  0  0  0
 16 17  1  1  0  0  0
 16 18  1  0  0  0  0
 18 19  1  6  0  0  0
 18 20  1  0  0  0  0
 20 21  1  0  0  0  0
 20 22  1  1  0  0  0
 22 23  1  0  0  0  0
M  END
>  <CHROM.1>
60.52214376,59.78326712,-119.32923961,-175.08195036,-160.00679911,-7.29077390
-9.32746255,0.21418745,2.41299553,-0.31003016,-1.18165226

>  <Name>
ligand

>  <RI>
0

>  <Rbt.Current_Directory>
/home/itssahil/PROJECTS/Mol_Feturizer/New_Systems/rnas/4TS2

>  <Rbt.Executable>
rbdock ($Id: //depot/dev/client3/rdock/2013.1/src/exe/rbdock.cxx#4 $)

>  <Rbt.Library>
libRbt.so (2013.1, Build901 2013/11/27)

>  <Rbt.Parameter_File>
/export/apps/rDock/src/rDock_2013.1_src/data/scripts/dock_solv.prm

>  <Rbt.Receptor>
prm/pocket_docking_2.prm

>  <SCORE>
-7.1837

>  <SCORE.INTER>
-4.34117

>  <SCORE.INTER.CONST>
1

>  <SCORE.INTER.POLAR>
0

>  <SCORE.INTER.ROT>
5

>  <SCORE.INTER.SOLV>
7.24119

>  <SCORE.INTER.VDW>
-12.2412

>  <SCORE.INTER.norm>
-0.188747

>  <SCORE.INTRA>
-2.84253

>  <SCORE.INTRA.DIHEDRAL>
-3.90943

>  <SCORE.INTRA.DIHEDRAL.0>
12.4853

>  <SCORE.INTRA.POLAR>
0

>  <SCORE.INTRA.POLAR.0>
0

>  <SCORE.INTRA.REPUL>
0

>  <SCORE.INTRA.REPUL.0>
0

>  <SCORE.INTRA.SOLV>
0.464472

>  <SCORE.INTRA.SOLV.lig_0>
-31.1706

>  <SCORE.INTRA.VDW>
-1.12005

>  <SCORE.INTRA.VDW.0>
-1.16895

>  <SCORE.INTRA.norm>
-0.123588

>  <SCORE.RESTR>
0

>  <SCORE.RESTR.CAVITY>
0

>  <SCORE.RESTR.norm>
0

>  <SCORE.SYSTEM>
0

>  <SCORE.SYSTEM.CONST>
0

>  <SCORE.SYSTEM.DIHEDRAL>
0

>  <SCORE.SYSTEM.SOLV>
0

>  <SCORE.SYSTEM.norm>
0

>  <SCORE.heavy>
23

>  <SCORE.norm>
-0.312335

>  <RMSD>
0.845

$$$$
ligand
 OpenBabel11021811513D
libRbt.so/2013.1/901 2013/11/27
 23 24  0  0  0  0  0  0  0  0999 V2000
  -10.7453   -9.8725    0.5427 C   0  0  0  0  0  0  0  0  0  0  0  0
  -11.7838  -10.7341    0.0381 O   0  0  0  0  0  0  0  0  0  0  0  0
  -10.0250   -9.2246   -0.6311 C   0  0  2  0  0  0  0  0  0  0  0  0
   -9.2722  -10.1779   -1.5464 C   0  0  1  0  0  0  0  0  0  0  0  0
  -10.1947  -10.8058   -2.4391 O   0  0  0  0  0  0  0  0  0  0  0  0
   -8.2862   -9.2395   -2.2340 C   0  0  2  0  0  0  0  0  0  0  0  0
   -7.1007   -9.7959   -2.8148 O   0  0  0  0  0  0  0  0  0  0  0  0
   -7.9171   -8.3037   -1.0966 C   0  0  2  0  0  0  0  0  0  0  0  0
   -9.0399   -8.2861   -0.1898 O   0  0  0  0  0  0  0  0  0  0  0  0
   -7.6303   -6.9187   -1.7043 C   0  0  0  0  0  0  0  0  0  0  0  0
   -6.4456   -6.9117   -2.5132 O   0  0  0  0  0  0  0  0  0  0  0  0
   -6.5166   -8.2081    0.8674 C   0  0  2  0  0  0  0  0  0  0  0  0
   -6.7956   -8.8553   -0.3861 O   0  0  0  0  0  0  0  0  0  0  0  0
   -5.0094   -8.1835    1.0404 C   0  0  2  0  0  0  0  0  0  0  0  0
   -4.4057   -7.6956   -0.1628 O   0  0  0  0  0  0  0  0  0  0  0  0
   -4.4826   -9.5784    1.2967 C   0  0  1  0  0  0  0  0  0  0  0  0
   -3.1134   -9.4821    1.6960 O   0  0  0  0  0  0  0  0  0  0  0  0
   -5.2956  -10.2669    2.3764 C   0  0  2  0  0  0  0  0  0  0  0  0
   -4.8845  -11.6247    2.4579 O   0  0  0  0  0  0  0  0  0  0  0  0
   -6.7891  -10.2206    2.0830 C   0  0  2  0  0  0  0  0  0  0  0  0
   -7.1591   -8.8533    1.9667 O   0  0  0  0  0  0  0  0  0  0  0  0
   -7.6028  -10.9035    3.1888 C   0  0  0  0  0  0  0  0  0  0  0  0
   -7.4105  -10.3040    4.4785 O   0  0  0  0  0  0  0  0  0  0  0  0
  1  2  1  0  0  0  0
  3  1  1  1  0  0  0
  3  9  1  0  0  0  0
  3  4  1  0  0  0  0
  4  5  1  6  0  0  0
  4  6  1  0  0  0  0
  6  7  1  1  0  0  0
  6  8  1  0  0  0  0
  8  9  1  0  0  0  0
  8 10  1  6  0  0  0
  8 13  1  0  0  0  0
 10 11  1  0  0  0  0
 12 13  1  6  0  0  0
 12 14  1  0  0  0  0
 12 21  1  0  0  0  0
 14 15  1  6  0  0  0
 14 16  1  0  0  0  0
 16 17  1  1  0  0  0
 16 18  1  0  0  0  0
 18 19  1  6  0  0  0
 18 20  1  0  0  0  0
 20 21  1  0  0  0  0
 20 22  1  1  0  0  0
 22 23  1  0  0  0  0
M  END
>  <CHROM.1>
-64.34307000,-67.68724149,-143.80041650,-168.19616252,59.39387987,-7.29311835
-9.33302393,0.27437555,2.54440856,-0.29363340,-1.10564701

>  <Name>
ligand

>  <RI>
0

>  <Rbt.Current_Directory>
/home/itssahil/PROJECTS/Mol_Feturizer/New_Systems/rnas/4TS2

>  <Rbt.Executable>
rbdock ($Id: //depot/dev/client3/rdock/2013.1/src/exe/rbdock.cxx#4 $)

>  <Rbt.Library>
libRbt.so (2013.1, Build901 2013/11/27)

>  <Rbt.Parameter_File>
/export/apps/rDock/src/rDock_2013.1_src/data/scripts/dock_solv.prm

>  <Rbt.Receptor>
prm/pocket_docking_2.prm

>  <SCORE>
-8.24051

>  <SCORE.INTER>
-3.45545

>  <SCORE.INTER.CONST>
1

>  <SCORE.INTER.POLAR>
0

>  <SCORE.INTER.ROT>
5

>  <SCORE.INTER.SOLV>
6.66666

>  <SCORE.INTER.VDW>
-11.4592

>  <SCORE.INTER.norm>
-0.150237

>  <SCORE.INTRA>
-4.78518

>  <SCORE.INTRA.DIHEDRAL>
-6.98364

>  <SCORE.INTRA.DIHEDRAL.0>
12.4853

>  <SCORE.INTRA.POLAR>
0

>  <SCORE.INTRA.POLAR.0>
0

>  <SCORE.INTRA.REPUL>
0

>  <SCORE.INTRA.REPUL.0>
0

>  <SCORE.INTRA.SOLV>
0.600293

>  <SCORE.INTRA.SOLV.lig_0>
-31.1706

>  <SCORE.INTRA.VDW>
-1.5935

>  <SCORE.INTRA.VDW.0>
-1.16895

>  <SCORE.INTRA.norm>
-0.208051

>  <SCORE.RESTR>
0.000124616

>  <SCORE.RESTR.CAVITY>
0.000124616

>  <SCORE.RESTR.norm>
5.41809e-06

>  <SCORE.SYSTEM>
0

>  <SCORE.SYSTEM.CONST>
0

>  <SCORE.SYSTEM.DIHEDRAL>
0

>  <SCORE.SYSTEM.SOLV>
0

>  <SCORE.SYSTEM.norm>
0

>  <SCORE.heavy>
23

>  <SCORE.norm>
-0.358283

>  <RMSD>
0.864

$$$$
ligand
 OpenBabel11021811513D
libRbt.so/2013.1/901 2013/11/27
 23 24  0  0  0  0  0  0  0  0999 V2000
  -10.5288  -10.3149    0.4484 C   0  0  0  0  0  0  0  0  0  0  0  0
  -11.5209   -9.4360    1.0130 O   0  0  0  0  0  0  0  0  0  0  0  0
   -9.8362   -9.6041   -0.7054 C   0  0  2  0  0  0  0  0  0  0  0  0
   -8.9409  -10.4769   -1.5715 C   0  0  1  0  0  0  0  0  0  0  0  0
   -9.7465  -11.2171   -2.4909 O   0  0  0  0  0  0  0  0  0  0  0  0
   -8.0386   -9.4410   -2.2335 C   0  0  2  0  0  0  0  0  0  0  0  0
   -6.7735   -9.8659   -2.7543 O   0  0  0  0  0  0  0  0  0  0  0  0
   -7.8279   -8.4549   -1.0982 C   0  0  2  0  0  0  0  0  0  0  0  0
   -8.9840   -8.5539   -0.2397 O   0  0  0  0  0  0  0  0  0  0  0  0
   -7.6736   -7.0541   -1.7176 C   0  0  0  0  0  0  0  0  0  0  0  0
   -6.4849   -6.9357   -2.5118 O   0  0  0  0  0  0  0  0  0  0  0  0
   -6.4853   -8.1163    0.8793 C   0  0  2  0  0  0  0  0  0  0  0  0
   -6.6832   -8.8661   -0.3318 O   0  0  0  0  0  0  0  0  0  0  0  0
   -4.9924   -7.8966    1.0388 C   0  0  2  0  0  0  0  0  0  0  0  0
   -4.4540   -7.4105   -0.1956 O   0  0  0  0  0  0  0  0  0  0  0  0
   -4.2979   -9.1986    1.3725 C   0  0  1  0  0  0  0  0  0  0  0  0
   -2.9507   -8.9114    1.7548 O   0  0  0  0  0  0  0  0  0  0  0  0
   -5.0195   -9.9165    2.4971 C   0  0  2  0  0  0  0  0  0  0  0  0
   -4.4444  -11.2064    2.6550 O   0  0  0  0  0  0  0  0  0  0  0  0
   -6.5075  -10.0714    2.2132 C   0  0  2  0  0  0  0  0  0  0  0  0
   -7.0430   -8.7693    2.0196 O   0  0  0  0  0  0  0  0  0  0  0  0
   -7.2304  -10.7823    3.3634 C   0  0  0  0  0  0  0  0  0  0  0  0
   -8.5831  -11.1375    3.0417 O   0  0  0  0  0  0  0  0  0  0  0  0
  1  2  1  0  0  0  0
  3  1  1  1  0  0  0
  3  9  1  0  0  0  0
  3  4  1  0  0  0  0
  4  5  1  6  0  0  0
  4  6  1  0  0  0  0
  6  7  1  1  0  0  0
  6  8  1  0  0  0  0
  8  9  1  0  0  0  0
  8 10  1  6  0  0  0
  8 13  1  0  0  0  0
 10 11  1  0  0  0  0
 12 13  1  6  0  0  0
 12 14  1  0  0  0  0
 12 21  1  0  0  0  0
 14 15  1  6  0  0  0
 14 16  1  0  0  0  0
 16 17  1  1  0  0  0
 16 18  1  0  0  0  0
 18 19  1  6  0  0  0
 18 20  1  0  0  0  0
 20 21  1  0  0  0  0
 20 22  1  1  0  0  0
 22 23  1  0  0  0  0
M  END
>  <CHROM.1>
-169.29020657,-65.79121109,-140.88994120,-172.00711417,-170.54798582,-7.17446465
-9.29316781,0.27820687,2.68102035,-0.31415678,-1.12902553

>  <Name>
ligand

>  <RI>
0

>  <Rbt.Current_Directory>
/home/itssahil/PROJECTS/Mol_Feturizer/New_Systems/rnas/4TS2

>  <Rbt.Executable>
rbdock ($Id: //depot/dev/client3/rdock/2013.1/src/exe/rbdock.cxx#4 $)

>  <Rbt.Library>
libRbt.so (2013.1, Build901 2013/11/27)

>  <Rbt.Parameter_File>
/export/apps/rDock/src/rDock_2013.1_src/data/scripts/dock_solv.prm

>  <Rbt.Receptor>
prm/pocket_docking_2.prm

>  <SCORE>
-7.66845

>  <SCORE.INTER>
-2.95465

>  <SCORE.INTER.CONST>
1

>  <SCORE.INTER.POLAR>
0

>  <SCORE.INTER.ROT>
5

>  <SCORE.INTER.SOLV>
7.03469

>  <SCORE.INTER.VDW>
-11.248

>  <SCORE.INTER.norm>
-0.128463

>  <SCORE.INTRA>
-4.7138

>  <SCORE.INTRA.DIHEDRAL>
-6.21286

>  <SCORE.INTRA.DIHEDRAL.0>
12.4853

>  <SCORE.INTRA.POLAR>
0

>  <SCORE.INTRA.POLAR.0>
0

>  <SCORE.INTRA.REPUL>
0

>  <SCORE.INTRA.REPUL.0>
0

>  <SCORE.INTRA.SOLV>
0.233751

>  <SCORE.INTRA.SOLV.lig_0>
-31.1706

>  <SCORE.INTRA.VDW>
-1.72425

>  <SCORE.INTRA.VDW.0>
-1.16895

>  <SCORE.INTRA.norm>
-0.204948

>  <SCORE.RESTR>
0

>  <SCORE.RESTR.CAVITY>
0

>  <SCORE.RESTR.norm>
0

>  <SCORE.SYSTEM>
0

>  <SCORE.SYSTEM.CONST>
0

>  <SCORE.SYSTEM.DIHEDRAL>
0

>  <SCORE.SYSTEM.SOLV>
0

>  <SCORE.SYSTEM.norm>
0

>  <SCORE.heavy>
23

>  <SCORE.norm>
-0.333411

>  <RMSD>
0.871

$$$$
ligand
 OpenBabel11021811513D
libRbt.so/2013.1/901 2013/11/27
 23 24  0  0  0  0  0  0  0  0999 V2000
  -10.0979  -11.3481    0.4266 C   0  0  0  0  0  0  0  0  0  0  0  0
  -11.1244  -10.4588    0.9072 O   0  0  0  0  0  0  0  0  0  0  0  0
   -9.5307  -10.7941   -0.8725 C   0  0  2  0  0  0  0  0  0  0  0  0
   -8.4384  -11.6305   -1.5212 C   0  0  1  0  0  0  0  0  0  0  0  0
   -9.0331  -12.7210   -2.2279 O   0  0  0  0  0  0  0  0  0  0  0  0
   -7.7541  -10.6082   -2.4223 C   0  0  2  0  0  0  0  0  0  0  0  0
   -6.4091  -10.8594   -2.8468 O   0  0  0  0  0  0  0  0  0  0  0  0
   -7.8007   -9.3625   -1.5551 C   0  0  2  0  0  0  0  0  0  0  0  0
   -8.9400   -9.5056   -0.6805 O   0  0  0  0  0  0  0  0  0  0  0  0
   -7.9261   -8.1459   -2.4898 C   0  0  0  0  0  0  0  0  0  0  0  0
   -7.9273   -6.9036   -1.7726 O   0  0  0  0  0  0  0  0  0  0  0  0
   -6.7332   -8.4617    0.4138 C   0  0  2  0  0  0  0  0  0  0  0  0
   -6.6238   -9.3260   -0.7303 O   0  0  0  0  0  0  0  0  0  0  0  0
   -5.3272   -8.0470    0.8059 C   0  0  2  0  0  0  0  0  0  0  0  0
   -4.6262   -7.6000   -0.3599 O   0  0  0  0  0  0  0  0  0  0  0  0
   -4.5706   -9.2218    1.3859 C   0  0  1  0  0  0  0  0  0  0  0  0
   -3.3552   -8.7403    1.9642 O   0  0  0  0  0  0  0  0  0  0  0  0
   -5.4056   -9.9295    2.4360 C   0  0  2  0  0  0  0  0  0  0  0  0
   -4.7347  -11.1213    2.8219 O   0  0  0  0  0  0  0  0  0  0  0  0
   -6.7908  -10.2896    1.9162 C   0  0  2  0  0  0  0  0  0  0  0  0
   -7.4178   -9.0837    1.5010 O   0  0  0  0  0  0  0  0  0  0  0  0
   -7.6325  -10.9885    2.9905 C   0  0  0  0  0  0  0  0  0  0  0  0
   -7.7708  -10.2109    4.1888 O   0  0  0  0  0  0  0  0  0  0  0  0
  1  2  1  0  0  0  0
  3  1  1  1  0  0  0
  3  9  1  0  0  0  0
  3  4  1  0  0  0  0
  4  5  1  6  0  0  0
  4  6  1  0  0  0  0
  6  7  1  1  0  0  0
  6  8  1  0  0  0  0
  8  9  1  0  0  0  0
  8 10  1  6  0  0  0
  8 13  1  0  0  0  0
 10 11  1  0  0  0  0
 12 13  1  6  0  0  0
 12 14  1  0  0  0  0
 12 21  1  0  0  0  0
 14 15  1  6  0  0  0
 14 16  1  0  0  0  0
 16 17  1  1  0  0  0
 16 18  1  0  0  0  0
 18 19  1  6  0  0  0
 18 20  1  0  0  0  0
 20 21  1  0  0  0  0
 20 22  1  1  0  0  0
 22 23  1  0  0  0  0
M  END
>  <CHROM.1>
-179.37938869,-177.76422620,-155.35289500,-161.21784876,56.73730225,-7.21380400
-9.79161861,0.19881905,2.53372509,-0.52540267,-1.27510100

>  <Name>
ligand

>  <RI>
0

>  <Rbt.Current_Directory>
/home/itssahil/PROJECTS/Mol_Feturizer/New_Systems/rnas/4TS2

>  <Rbt.Executable>
rbdock ($Id: //depot/dev/client3/rdock/2013.1/src/exe/rbdock.cxx#4 $)

>  <Rbt.Library>
libRbt.so (2013.1, Build901 2013/11/27)

>  <Rbt.Parameter_File>
/export/apps/rDock/src/rDock_2013.1_src/data/scripts/dock_solv.prm

>  <Rbt.Receptor>
prm/pocket_docking_2.prm

>  <SCORE>
-5.98047

>  <SCORE.INTER>
-0.171287

>  <SCORE.INTER.CONST>
1

>  <SCORE.INTER.POLAR>
0

>  <SCORE.INTER.ROT>
5

>  <SCORE.INTER.SOLV>
5.37034

>  <SCORE.INTER.VDW>
-8.83764

>  <SCORE.INTER.norm>
-0.00744725

>  <SCORE.INTRA>
-5.80919

>  <SCORE.INTRA.DIHEDRAL>
-8.39538

>  <SCORE.INTRA.DIHEDRAL.0>
12.4853

>  <SCORE.INTRA.POLAR>
0

>  <SCORE.INTRA.POLAR.0>
0

>  <SCORE.INTRA.REPUL>
0

>  <SCORE.INTRA.REPUL.0>
0

>  <SCORE.INTRA.SOLV>
0.381602

>  <SCORE.INTRA.SOLV.lig_0>
-31.1706

>  <SCORE.INTRA.VDW>
-1.8023

>  <SCORE.INTRA.VDW.0>
-1.16895

>  <SCORE.INTRA.norm>
-0.252573

>  <SCORE.RESTR>
0

>  <SCORE.RESTR.CAVITY>
0

>  <SCORE.RESTR.norm>
0

>  <SCORE.SYSTEM>
0

>  <SCORE.SYSTEM.CONST>
0

>  <SCORE.SYSTEM.DIHEDRAL>
0

>  <SCORE.SYSTEM.SOLV>
0

>  <SCORE.SYSTEM.norm>
0

>  <SCORE.heavy>
23

>  <SCORE.norm>
-0.260021

>  <RMSD>
0.876

$$$$
ligand
 OpenBabel11021811513D
libRbt.so/2013.1/901 2013/11/27
 23 24  0  0  0  0  0  0  0  0999 V2000
  -10.6010  -10.2590    0.3020 C   0  0  0  0  0  0  0  0  0  0  0  0
  -11.5854   -9.3645    0.8555 O   0  0  0  0  0  0  0  0  0  0  0  0
   -9.8619   -9.5479   -0.8224 C   0  0  2  0  0  0  0  0  0  0  0  0
   -8.9565  -10.4268   -1.6716 C   0  0  1  0  0  0  0  0  0  0  0  0
   -9.7470  -11.1424   -2.6231 O   0  0  0  0  0  0  0  0  0  0  0  0
   -8.0169   -9.3998   -2.2945 C   0  0  2  0  0  0  0  0  0  0  0  0
   -6.7444   -9.8414   -2.7824 O   0  0  0  0  0  0  0  0  0  0  0  0
   -7.8230   -8.4302   -1.1420 C   0  0  2  0  0  0  0  0  0  0  0  0
   -9.0058   -8.5182   -0.3194 O   0  0  0  0  0  0  0  0  0  0  0  0
   -7.6259   -7.0256   -1.7403 C   0  0  0  0  0  0  0  0  0  0  0  0
   -6.4037   -6.9145   -2.4828 O   0  0  0  0  0  0  0  0  0  0  0  0
   -6.4982   -8.0990    0.8486 C   0  0  2  0  0  0  0  0  0  0  0  0
   -6.7091   -8.8701   -0.3468 O   0  0  0  0  0  0  0  0  0  0  0  0
   -5.0025   -7.8908    0.9968 C   0  0  2  0  0  0  0  0  0  0  0  0
   -4.4654   -7.4338   -0.2494 O   0  0  0  0  0  0  0  0  0  0  0  0
   -4.3188   -9.1927    1.3523 C   0  0  1  0  0  0  0  0  0  0  0  0
   -2.9671   -8.9112    1.7227 O   0  0  0  0  0  0  0  0  0  0  0  0
   -5.0417   -9.8817    2.4941 C   0  0  2  0  0  0  0  0  0  0  0  0
   -4.4783  -11.1737    2.6743 O   0  0  0  0  0  0  0  0  0  0  0  0
   -6.5325  -10.0277    2.2202 C   0  0  2  0  0  0  0  0  0  0  0  0
   -7.0565   -8.7244    2.0040 O   0  0  0  0  0  0  0  0  0  0  0  0
   -7.2565  -10.7092    3.3874 C   0  0  0  0  0  0  0  0  0  0  0  0
   -8.6075  -11.0765    3.0720 O   0  0  0  0  0  0  0  0  0  0  0  0
  1  2  1  0  0  0  0
  3  1  1  1  0  0  0
  3  9  1  0  0  0  0
  3  4  1  0  0  0  0
  4  5  1  6  0  0  0
  4  6  1  0  0  0  0
  6  7  1  1  0  0  0
  6  8  1  0  0  0  0
  8  9  1  0  0  0  0
  8 10  1  6  0  0  0
  8 13  1  0  0  0  0
 10 11  1  0  0  0  0
 12 13  1  6  0  0  0
 12 14  1  0  0  0  0
 12 21  1  0  0  0  0
 14 15  1  6  0  0  0
 14 16  1  0  0  0  0
 16 17  1  1  0  0  0
 16 18  1  0  0  0  0
 18 19  1  6  0  0  0
 18 20  1  0  0  0  0
 20 21  1  0  0  0  0
 20 22  1  1  0  0  0
 22 23  1  0  0  0  0
M  END
>  <CHROM.1>
-169.83631975,-66.55312574,-138.62454908,-174.65541373,-169.61777983,-7.18560985
-9.25950656,0.23539678,2.65499445,-0.30745455,-1.14498022

>  <Name>
ligand

>  <RI>
0

>  <Rbt.Current_Directory>
/home/itssahil/PROJECTS/Mol_Feturizer/New_Systems/rnas/4TS2

>  <Rbt.Executable>
rbdock ($Id: //depot/dev/client3/rdock/2013.1/src/exe/rbdock.cxx#4 $)

>  <Rbt.Library>
libRbt.so (2013.1, Build901 2013/11/27)

>  <Rbt.Parameter_File>
/export/apps/rDock/src/rDock_2013.1_src/data/scripts/dock_solv.prm

>  <Rbt.Receptor>
prm/pocket_docking_2.prm

>  <SCORE>
-7.77716

>  <SCORE.INTER>
-3.27508

>  <SCORE.INTER.CONST>
1

>  <SCORE.INTER.POLAR>
0

>  <SCORE.INTER.ROT>
5

>  <SCORE.INTER.SOLV>
7.22397

>  <SCORE.INTER.VDW>
-11.5247

>  <SCORE.INTER.norm>
-0.142395

>  <SCORE.INTRA>
-4.50207

>  <SCORE.INTRA.DIHEDRAL>
-5.93088

>  <SCORE.INTRA.DIHEDRAL.0>
12.4853

>  <SCORE.INTRA.POLAR>
0

>  <SCORE.INTRA.POLAR.0>
0

>  <SCORE.INTRA.REPUL>
0

>  <SCORE.INTRA.REPUL.0>
0

>  <SCORE.INTRA.SOLV>
0.169838

>  <SCORE.INTRA.SOLV.lig_0>
-31.1706

>  <SCORE.INTRA.VDW>
-1.62155

>  <SCORE.INTRA.VDW.0>
-1.16895

>  <SCORE.INTRA.norm>
-0.195742

>  <SCORE.RESTR>
0

>  <SCORE.RESTR.CAVITY>
0

>  <SCORE.RESTR.norm>
0

>  <SCORE.SYSTEM>
0

>  <SCORE.SYSTEM.CONST>
0

>  <SCORE.SYSTEM.DIHEDRAL>
0

>  <SCORE.SYSTEM.SOLV>
0

>  <SCORE.SYSTEM.norm>
0

>  <SCORE.heavy>
23

>  <SCORE.norm>
-0.338137

>  <RMSD>
0.876

$$$$
ligand
 OpenBabel11021811513D
libRbt.so/2013.1/901 2013/11/27
 23 24  0  0  0  0  0  0  0  0999 V2000
  -10.6121  -10.2500    0.3045 C   0  0  0  0  0  0  0  0  0  0  0  0
  -11.6084   -9.3602    0.8440 O   0  0  0  0  0  0  0  0  0  0  0  0
   -9.8730   -9.5416   -0.8218 C   0  0  2  0  0  0  0  0  0  0  0  0
   -8.9734  -10.4241   -1.6735 C   0  0  1  0  0  0  0  0  0  0  0  0
   -9.7694  -11.1362   -2.6230 O   0  0  0  0  0  0  0  0  0  0  0  0
   -8.0312   -9.4009   -2.2987 C   0  0  2  0  0  0  0  0  0  0  0  0
   -6.7619   -9.8476   -2.7900 O   0  0  0  0  0  0  0  0  0  0  0  0
   -7.8304   -8.4323   -1.1466 C   0  0  2  0  0  0  0  0  0  0  0  0
   -9.0113   -8.5156   -0.3209 O   0  0  0  0  0  0  0  0  0  0  0  0
   -7.6290   -7.0284   -1.7451 C   0  0  0  0  0  0  0  0  0  0  0  0
   -6.4336   -6.9364   -2.5325 O   0  0  0  0  0  0  0  0  0  0  0  0
   -6.5036   -8.1118    0.8446 C   0  0  2  0  0  0  0  0  0  0  0  0
   -6.7161   -8.8770   -0.3543 O   0  0  0  0  0  0  0  0  0  0  0  0
   -5.0086   -7.8934    0.9849 C   0  0  2  0  0  0  0  0  0  0  0  0
   -4.4825   -7.4248   -0.2616 O   0  0  0  0  0  0  0  0  0  0  0  0
   -4.3132   -9.1925    1.3282 C   0  0  1  0  0  0  0  0  0  0  0  0
   -2.9614   -8.9033    1.6921 O   0  0  0  0  0  0  0  0  0  0  0  0
   -5.0240   -9.8938    2.4700 C   0  0  2  0  0  0  0  0  0  0  0  0
   -4.4500  -11.1828    2.6386 O   0  0  0  0  0  0  0  0  0  0  0  0
   -6.5154  -10.0492    2.2042 C   0  0  2  0  0  0  0  0  0  0  0  0
   -7.0502   -8.7485    1.9994 O   0  0  0  0  0  0  0  0  0  0  0  0
   -7.2272  -10.7432    3.3715 C   0  0  0  0  0  0  0  0  0  0  0  0
   -8.5992  -11.0538    3.0872 O   0  0  0  0  0  0  0  0  0  0  0  0
  1  2  1  0  0  0  0
  3  1  1  1  0  0  0
  3  9  1  0  0  0  0
  3  4  1  0  0  0  0
  4  5  1  6  0  0  0
  4  6  1  0  0  0  0
  6  7  1  1  0  0  0
  6  8  1  0  0  0  0
  8  9  1  0  0  0  0
  8 10  1  6  0  0  0
  8 13  1  0  0  0  0
 10 11  1  0  0  0  0
 12 13  1  6  0  0  0
 12 14  1  0  0  0  0
 12 21  1  0  0  0  0
 14 15  1  6  0  0  0
 14 16  1  0  0  0  0
 16 17  1  1  0  0  0
 16 18  1  0  0  0  0
 18 19  1  6  0  0  0
 18 20  1  0  0  0  0
 20 21  1  0  0  0  0
 20 22  1  1  0  0  0
 22 23  1  0  0  0  0
M  END
>  <CHROM.1>
-168.76247592,-64.35733609,-138.05929342,-174.31565815,-172.77943743,-7.18930378
-9.26308534,0.22417036,2.65656312,-0.30279849,-1.14319888

>  <Name>
ligand

>  <RI>
0

>  <Rbt.Current_Directory>
/home/itssahil/PROJECTS/Mol_Feturizer/New_Systems/rnas/4TS2

>  <Rbt.Executable>
rbdock ($Id: //depot/dev/client3/rdock/2013.1/src/exe/rbdock.cxx#4 $)

>  <Rbt.Library>
libRbt.so (2013.1, Build901 2013/11/27)

>  <Rbt.Parameter_File>
/export/apps/rDock/src/rDock_2013.1_src/data/scripts/dock_solv.prm

>  <Rbt.Receptor>
prm/pocket_docking_2.prm

>  <SCORE>
-7.74038

>  <SCORE.INTER>
-3.21462

>  <SCORE.INTER.CONST>
1

>  <SCORE.INTER.POLAR>
0

>  <SCORE.INTER.ROT>
5

>  <SCORE.INTER.SOLV>
7.20252

>  <SCORE.INTER.VDW>
-11.4773

>  <SCORE.INTER.norm>
-0.139766

>  <SCORE.INTRA>
-4.52575

>  <SCORE.INTRA.DIHEDRAL>
-6.01243

>  <SCORE.INTRA.DIHEDRAL.0>
12.4853

>  <SCORE.INTRA.POLAR>
0

>  <SCORE.INTRA.POLAR.0>
0

>  <SCORE.INTRA.REPUL>
0

>  <SCORE.INTRA.REPUL.0>
0

>  <SCORE.INTRA.SOLV>
0.14395

>  <SCORE.INTRA.SOLV.lig_0>
-31.1706

>  <SCORE.INTRA.VDW>
-1.59152

>  <SCORE.INTRA.VDW.0>
-1.16895

>  <SCORE.INTRA.norm>
-0.196772

>  <SCORE.RESTR>
0

>  <SCORE.RESTR.CAVITY>
0

>  <SCORE.RESTR.norm>
0

>  <SCORE.SYSTEM>
0

>  <SCORE.SYSTEM.CONST>
0

>  <SCORE.SYSTEM.DIHEDRAL>
0

>  <SCORE.SYSTEM.SOLV>
0

>  <SCORE.SYSTEM.norm>
0

>  <SCORE.heavy>
23

>  <SCORE.norm>
-0.336538

>  <RMSD>
0.878

$$$$
ligand
 OpenBabel11021811513D
libRbt.so/2013.1/901 2013/11/27
 23 24  0  0  0  0  0  0  0  0999 V2000
  -10.6299  -10.2223    0.3328 C   0  0  0  0  0  0  0  0  0  0  0  0
  -11.6423   -9.3397    0.8537 O   0  0  0  0  0  0  0  0  0  0  0  0
   -9.8913   -9.5177   -0.7961 C   0  0  2  0  0  0  0  0  0  0  0  0
   -8.9993  -10.4047   -1.6511 C   0  0  1  0  0  0  0  0  0  0  0  0
   -9.8023  -11.1127   -2.5977 O   0  0  0  0  0  0  0  0  0  0  0  0
   -8.0543   -9.3862   -2.2797 C   0  0  2  0  0  0  0  0  0  0  0  0
   -6.7890   -9.8392   -2.7756 O   0  0  0  0  0  0  0  0  0  0  0  0
   -7.8444   -8.4187   -1.1283 C   0  0  2  0  0  0  0  0  0  0  0  0
   -9.0227   -8.4960   -0.2983 O   0  0  0  0  0  0  0  0  0  0  0  0
   -7.6382   -7.0158   -1.7275 C   0  0  0  0  0  0  0  0  0  0  0  0
   -6.4399   -6.9269   -2.5110 O   0  0  0  0  0  0  0  0  0  0  0  0
   -6.4905   -8.0866    0.8426 C   0  0  2  0  0  0  0  0  0  0  0  0
   -6.7295   -8.8689   -0.3401 O   0  0  0  0  0  0  0  0  0  0  0  0
   -4.9909   -7.8871    0.9599 C   0  0  2  0  0  0  0  0  0  0  0  0
   -4.4748   -7.4472   -0.3012 O   0  0  0  0  0  0  0  0  0  0  0  0
   -4.3093   -9.1898    1.3164 C   0  0  1  0  0  0  0  0  0  0  0  0
   -2.9489   -8.9137    1.6577 O   0  0  0  0  0  0  0  0  0  0  0  0
   -5.0148   -9.8616    2.4791 C   0  0  2  0  0  0  0  0  0  0  0  0
   -4.4566  -11.1555    2.6624 O   0  0  0  0  0  0  0  0  0  0  0  0
   -6.5115  -10.0002    2.2354 C   0  0  2  0  0  0  0  0  0  0  0  0
   -7.0307   -8.6957    2.0151 O   0  0  0  0  0  0  0  0  0  0  0  0
   -7.2175  -10.6641    3.4235 C   0  0  0  0  0  0  0  0  0  0  0  0
   -8.5890  -10.9877    3.1517 O   0  0  0  0  0  0  0  0  0  0  0  0
  1  2  1  0  0  0  0
  3  1  1  1  0  0  0
  3  9  1  0  0  0  0
  3  4  1  0  0  0  0
  4  5  1  6  0  0  0
  4  6  1  0  0  0  0
  6  7  1  1  0  0  0
  6  8  1  0  0  0  0
  8  9  1  0  0  0  0
  8 10  1  6  0  0  0
  8 13  1  0  0  0  0
 10 11  1  0  0  0  0
 12 13  1  6  0  0  0
 12 14  1  0  0  0  0
 12 21  1  0  0  0  0
 14 15  1  6  0  0  0
 14 16  1  0  0  0  0
 16 17  1  1  0  0  0
 16 18  1  0  0  0  0
 18 19  1  6  0  0  0
 18 20  1  0  0  0  0
 20 21  1  0  0  0  0
 20 22  1  1  0  0  0
 22 23  1  0  0  0  0
M  END
>  <CHROM.1>
-167.33552266,-64.80180632,-137.81566037,-175.62780141,-171.44153272,-7.19521065
-9.24111578,0.23819294,2.65979616,-0.29334507,-1.15323126

>  <Name>
ligand

>  <RI>
0

>  <Rbt.Current_Directory>
/home/itssahil/PROJECTS/Mol_Feturizer/New_Systems/rnas/4TS2

>  <Rbt.Executable>
rbdock ($Id: //depot/dev/client3/rdock/2013.1/src/exe/rbdock.cxx#4 $)

>  <Rbt.Library>
libRbt.so (2013.1, Build901 2013/11/27)

>  <Rbt.Parameter_File>
/export/apps/rDock/src/rDock_2013.1_src/data/scripts/dock_solv.prm

>  <Rbt.Receptor>
prm/pocket_docking_2.prm

>  <SCORE>
-7.66205

>  <SCORE.INTER>
-3.24549

>  <SCORE.INTER.CONST>
1

>  <SCORE.INTER.POLAR>
0

>  <SCORE.INTER.ROT>
5

>  <SCORE.INTER.SOLV>
7.34456

>  <SCORE.INTER.VDW>
-11.5452

>  <SCORE.INTER.norm>
-0.141108

>  <SCORE.INTRA>
-4.41657

>  <SCORE.INTRA.DIHEDRAL>
-5.82093

>  <SCORE.INTRA.DIHEDRAL.0>
12.4853

>  <SCORE.INTRA.POLAR>
0

>  <SCORE.INTRA.POLAR.0>
0

>  <SCORE.INTRA.REPUL>
0

>  <SCORE.INTRA.REPUL.0>
0

>  <SCORE.INTRA.SOLV>
0.126392

>  <SCORE.INTRA.SOLV.lig_0>
-31.1706

>  <SCORE.INTRA.VDW>
-1.5693

>  <SCORE.INTRA.VDW.0>
-1.16895

>  <SCORE.INTRA.norm>
-0.192025

>  <SCORE.RESTR>
0

>  <SCORE.RESTR.CAVITY>
0

>  <SCORE.RESTR.norm>
0

>  <SCORE.SYSTEM>
0

>  <SCORE.SYSTEM.CONST>
0

>  <SCORE.SYSTEM.DIHEDRAL>
0

>  <SCORE.SYSTEM.SOLV>
0

>  <SCORE.SYSTEM.norm>
0

>  <SCORE.heavy>
23

>  <SCORE.norm>
-0.333133

>  <RMSD>
0.883

$$$$
ligand
 OpenBabel11021811513D
libRbt.so/2013.1/901 2013/11/27
 23 24  0  0  0  0  0  0  0  0999 V2000
  -10.7756   -9.7002    0.5049 C   0  0  0  0  0  0  0  0  0  0  0  0
  -11.7448  -10.6379   -0.0019 O   0  0  0  0  0  0  0  0  0  0  0  0
   -9.9687   -9.1437   -0.6595 C   0  0  2  0  0  0  0  0  0  0  0  0
   -9.1503  -10.1628   -1.4373 C   0  0  1  0  0  0  0  0  0  0  0  0
  -10.0039  -10.8639   -2.3439 O   0  0  0  0  0  0  0  0  0  0  0  0
   -8.1146   -9.2769   -2.1215 C   0  0  2  0  0  0  0  0  0  0  0  0
   -6.8895   -9.8716   -2.5660 O   0  0  0  0  0  0  0  0  0  0  0  0
   -7.8309   -8.2521   -1.0374 C   0  0  2  0  0  0  0  0  0  0  0  0
   -9.0185   -8.1683   -0.2214 O   0  0  0  0  0  0  0  0  0  0  0  0
   -7.4979   -6.9182   -1.7299 C   0  0  0  0  0  0  0  0  0  0  0  0
   -6.3035   -6.9962   -2.5204 O   0  0  0  0  0  0  0  0  0  0  0  0
   -6.4873   -7.9131    0.9393 C   0  0  2  0  0  0  0  0  0  0  0  0
   -6.7664   -8.7402   -0.2035 O   0  0  0  0  0  0  0  0  0  0  0  0
   -4.9791   -7.7946    1.0569 C   0  0  2  0  0  0  0  0  0  0  0  0
   -4.4332   -7.4507   -0.2214 O   0  0  0  0  0  0  0  0  0  0  0  0
   -4.3756   -9.1145    1.4844 C   0  0  1  0  0  0  0  0  0  0  0  0
   -3.0029   -8.9001    1.8207 O   0  0  0  0  0  0  0  0  0  0  0  0
   -5.1236   -9.6836    2.6749 C   0  0  2  0  0  0  0  0  0  0  0  0
   -4.6422  -10.9965    2.9281 O   0  0  0  0  0  0  0  0  0  0  0  0
   -6.6248   -9.7481    2.4280 C   0  0  2  0  0  0  0  0  0  0  0  0
   -7.0667   -8.4289    2.1376 O   0  0  0  0  0  0  0  0  0  0  0  0
   -7.3730  -10.3082    3.6435 C   0  0  0  0  0  0  0  0  0  0  0  0
   -7.0100  -11.6622    3.9508 O   0  0  0  0  0  0  0  0  0  0  0  0
  1  2  1  0  0  0  0
  3  1  1  1  0  0  0
  3  9  1  0  0  0  0
  3  4  1  0  0  0  0
  4  5  1  6  0  0  0
  4  6  1  0  0  0  0
  6  7  1  1  0  0  0
  6  8  1  0  0  0  0
  8  9  1  0  0  0  0
  8 10  1  6  0  0  0
  8 13  1  0  0  0  0
 10 11  1  0  0  0  0
 12 13  1  6  0  0  0
 12 14  1  0  0  0  0
 12 21  1  0  0  0  0
 14 15  1  6  0  0  0
 14 16  1  0  0  0  0
 16 17  1  1  0  0  0
 16 18  1  0  0  0  0
 18 19  1  6  0  0  0
 18 20  1  0  0  0  0
 20 21  1  0  0  0  0
 20 22  1  1  0  0  0
 22 23  1  0  0  0  0
M  END
>  <CHROM.1>
-62.45549523,-63.69294642,-136.53691948,-174.49449111,-63.03950811,-7.17338147
-9.18055947,0.36630754,2.58322424,-0.35789676,-1.08186092

>  <Name>
ligand

>  <RI>
0

>  <Rbt.Current_Directory>
/home/itssahil/PROJECTS/Mol_Feturizer/New_Systems/rnas/4TS2

>  <Rbt.Executable>
rbdock ($Id: //depot/dev/client3/rdock/2013.1/src/exe/rbdock.cxx#4 $)

>  <Rbt.Library>
libRbt.so (2013.1, Build901 2013/11/27)

>  <Rbt.Parameter_File>
/export/apps/rDock/src/rDock_2013.1_src/data/scripts/dock_solv.prm

>  <Rbt.Receptor>
prm/pocket_docking_2.prm

>  <SCORE>
-8.45176

>  <SCORE.INTER>
-4.4369

>  <SCORE.INTER.CONST>
1

>  <SCORE.INTER.POLAR>
0

>  <SCORE.INTER.ROT>
5

>  <SCORE.INTER.SOLV>
6.43091

>  <SCORE.INTER.VDW>
-12.0349

>  <SCORE.INTER.norm>
-0.192909

>  <SCORE.INTRA>
-4.01485

>  <SCORE.INTRA.DIHEDRAL>
-6.38121

>  <SCORE.INTRA.DIHEDRAL.0>
12.4853

>  <SCORE.INTRA.POLAR>
0

>  <SCORE.INTRA.POLAR.0>
0

>  <SCORE.INTRA.REPUL>
0

>  <SCORE.INTRA.REPUL.0>
0

>  <SCORE.INTRA.SOLV>
0.63494

>  <SCORE.INTRA.SOLV.lig_0>
-31.1706

>  <SCORE.INTRA.VDW>
-1.14172

>  <SCORE.INTRA.VDW.0>
-1.16895

>  <SCORE.INTRA.norm>
-0.174559

>  <SCORE.RESTR>
0

>  <SCORE.RESTR.CAVITY>
0

>  <SCORE.RESTR.norm>
0

>  <SCORE.SYSTEM>
0

>  <SCORE.SYSTEM.CONST>
0

>  <SCORE.SYSTEM.DIHEDRAL>
0

>  <SCORE.SYSTEM.SOLV>
0

>  <SCORE.SYSTEM.norm>
0

>  <SCORE.heavy>
23

>  <SCORE.norm>
-0.367468

>  <RMSD>
0.887

$$$$
ligand
 OpenBabel11021811513D
libRbt.so/2013.1/901 2013/11/27
 23 24  0  0  0  0  0  0  0  0999 V2000
  -10.4708   -9.5430    0.0984 C   0  0  0  0  0  0  0  0  0  0  0  0
  -11.3894  -10.4989   -0.4656 O   0  0  0  0  0  0  0  0  0  0  0  0
   -9.5135   -9.0749   -0.9883 C   0  0  2  0  0  0  0  0  0  0  0  0
   -8.5932  -10.1440   -1.5573 C   0  0  1  0  0  0  0  0  0  0  0  0
   -9.3125  -10.9313   -2.5086 O   0  0  0  0  0  0  0  0  0  0  0  0
   -7.4761   -9.3039   -2.1670 C   0  0  2  0  0  0  0  0  0  0  0  0
   -6.1999   -9.9161   -2.3878 O   0  0  0  0  0  0  0  0  0  0  0  0
   -7.3466   -8.1874   -1.1460 C   0  0  2  0  0  0  0  0  0  0  0  0
   -8.6351   -8.0524   -0.5097 O   0  0  0  0  0  0  0  0  0  0  0  0
   -6.9256   -6.9119   -1.8980 C   0  0  0  0  0  0  0  0  0  0  0  0
   -7.8368   -6.5738   -2.9530 O   0  0  0  0  0  0  0  0  0  0  0  0
   -6.3821   -7.7327    1.0198 C   0  0  2  0  0  0  0  0  0  0  0  0
   -6.4051   -8.5880   -0.1360 O   0  0  0  0  0  0  0  0  0  0  0  0
   -4.9294   -7.4127    1.3192 C   0  0  2  0  0  0  0  0  0  0  0  0
   -4.2809   -6.9964    0.1124 O   0  0  0  0  0  0  0  0  0  0  0  0
   -4.2122   -8.6400    1.8371 C   0  0  1  0  0  0  0  0  0  0  0  0
   -2.9325   -8.2435    2.3356 O   0  0  0  0  0  0  0  0  0  0  0  0
   -5.0184   -9.3065    2.9356 C   0  0  2  0  0  0  0  0  0  0  0  0
   -4.4008  -10.5431    3.2655 O   0  0  0  0  0  0  0  0  0  0  0  0
   -6.4556   -9.5719    2.5078 C   0  0  2  0  0  0  0  0  0  0  0  0
   -7.0306   -8.3236    2.1458 O   0  0  0  0  0  0  0  0  0  0  0  0
   -7.2663  -10.2294    3.6309 C   0  0  0  0  0  0  0  0  0  0  0  0
   -6.7722  -11.5270    3.9939 O   0  0  0  0  0  0  0  0  0  0  0  0
  1  2  1  0  0  0  0
  3  1  1  1  0  0  0
  3  9  1  0  0  0  0
  3  4  1  0  0  0  0
  4  5  1  6  0  0  0
  4  6  1  0  0  0  0
  6  7  1  1  0  0  0
  6  8  1  0  0  0  0
  8  9  1  0  0  0  0
  8 10  1  6  0  0  0
  8 13  1  0  0  0  0
 10 11  1  0  0  0  0
 12 13  1  6  0  0  0
 12 14  1  0  0  0  0
 12 21  1  0  0  0  0
 14 15  1  6  0  0  0
 14 16  1  0  0  0  0
 16 17  1  1  0  0  0
 16 18  1  0  0  0  0
 18 19  1  6  0  0  0
 18 20  1  0  0  0  0
 20 21  1  0  0  0  0
 20 22  1  1  0  0  0
 22 23  1  0  0  0  0
M  END
>  <CHROM.1>
-64.47868640,56.10786293,-132.15865836,-168.73972404,-63.46665854,-6.94659535
-8.98303105,0.36525688,2.46875513,-0.47521006,-1.05781161

>  <Name>
ligand

>  <RI>
0

>  <Rbt.Current_Directory>
/home/itssahil/PROJECTS/Mol_Feturizer/New_Systems/rnas/4TS2

>  <Rbt.Executable>
rbdock ($Id: //depot/dev/client3/rdock/2013.1/src/exe/rbdock.cxx#4 $)

>  <Rbt.Library>
libRbt.so (2013.1, Build901 2013/11/27)

>  <Rbt.Parameter_File>
/export/apps/rDock/src/rDock_2013.1_src/data/scripts/dock_solv.prm

>  <Rbt.Receptor>
prm/pocket_docking_6.prm

>  <SCORE>
-9.19913

>  <SCORE.INTER>
-5.65337

>  <SCORE.INTER.CONST>
1

>  <SCORE.INTER.POLAR>
0

>  <SCORE.INTER.ROT>
5

>  <SCORE.INTER.SOLV>
7.29247

>  <SCORE.INTER.VDW>
-13.1331

>  <SCORE.INTER.norm>
-0.245799

>  <SCORE.INTRA>
-3.54576

>  <SCORE.INTRA.DIHEDRAL>
-5.37921

>  <SCORE.INTRA.DIHEDRAL.0>
12.4853

>  <SCORE.INTRA.POLAR>
0

>  <SCORE.INTRA.POLAR.0>
0

>  <SCORE.INTRA.REPUL>
0

>  <SCORE.INTRA.REPUL.0>
0

>  <SCORE.INTRA.SOLV>
0.164327

>  <SCORE.INTRA.SOLV.lig_0>
-31.1706

>  <SCORE.INTRA.VDW>
-0.938314

>  <SCORE.INTRA.VDW.0>
-1.16895

>  <SCORE.INTRA.norm>
-0.154163

>  <SCORE.RESTR>
0

>  <SCORE.RESTR.CAVITY>
0

>  <SCORE.RESTR.norm>
0

>  <SCORE.SYSTEM>
0

>  <SCORE.SYSTEM.CONST>
0

>  <SCORE.SYSTEM.DIHEDRAL>
0

>  <SCORE.SYSTEM.SOLV>
0

>  <SCORE.SYSTEM.norm>
0

>  <SCORE.heavy>
23

>  <SCORE.norm>
-0.399962

>  <RMSD>
0.891

$$$$
ligand
 OpenBabel11021811513D
libRbt.so/2013.1/901 2013/11/27
 23 24  0  0  0  0  0  0  0  0999 V2000
  -10.5164   -9.5536    0.1400 C   0  0  0  0  0  0  0  0  0  0  0  0
  -11.4016  -10.5467   -0.4127 O   0  0  0  0  0  0  0  0  0  0  0  0
   -9.5670   -9.0750   -0.9490 C   0  0  2  0  0  0  0  0  0  0  0  0
   -8.6510  -10.1384   -1.5352 C   0  0  1  0  0  0  0  0  0  0  0  0
   -9.3773  -10.9165   -2.4888 O   0  0  0  0  0  0  0  0  0  0  0  0
   -7.5382   -9.2925   -2.1448 C   0  0  2  0  0  0  0  0  0  0  0  0
   -6.2637   -9.9025   -2.3808 O   0  0  0  0  0  0  0  0  0  0  0  0
   -7.4012   -8.1860   -1.1139 C   0  0  2  0  0  0  0  0  0  0  0  0
   -8.6851   -8.0572   -0.4670 O   0  0  0  0  0  0  0  0  0  0  0  0
   -6.9856   -6.9032   -1.8565 C   0  0  0  0  0  0  0  0  0  0  0  0
   -7.8806   -6.5787   -2.9295 O   0  0  0  0  0  0  0  0  0  0  0  0
   -6.4171   -7.7494    1.0468 C   0  0  2  0  0  0  0  0  0  0  0  0
   -6.4524   -8.5964   -0.1148 O   0  0  0  0  0  0  0  0  0  0  0  0
   -4.9626   -7.4159    1.3218 C   0  0  2  0  0  0  0  0  0  0  0  0
   -4.3411   -6.9839    0.1064 O   0  0  0  0  0  0  0  0  0  0  0  0
   -4.2230   -8.6393    1.8172 C   0  0  1  0  0  0  0  0  0  0  0  0
   -2.9386   -8.2326    2.2951 O   0  0  0  0  0  0  0  0  0  0  0  0
   -5.0016   -9.3224    2.9253 C   0  0  2  0  0  0  0  0  0  0  0  0
   -4.3649  -10.5546    3.2345 O   0  0  0  0  0  0  0  0  0  0  0  0
   -6.4436   -9.6001    2.5221 C   0  0  2  0  0  0  0  0  0  0  0  0
   -7.0384   -8.3555    2.1801 O   0  0  0  0  0  0  0  0  0  0  0  0
   -7.2263  -10.2745    3.6550 C   0  0  0  0  0  0  0  0  0  0  0  0
   -6.7331  -11.5835    3.9759 O   0  0  0  0  0  0  0  0  0  0  0  0
  1  2  1  0  0  0  0
  3  1  1  1  0  0  0
  3  9  1  0  0  0  0
  3  4  1  0  0  0  0
  4  5  1  6  0  0  0
  4  6  1  0  0  0  0
  6  7  1  1  0  0  0
  6  8  1  0  0  0  0
  8  9  1  0  0  0  0
  8 10  1  6  0  0  0
  8 13  1  0  0  0  0
 10 11  1  0  0  0  0
 12 13  1  6  0  0  0
 12 14  1  0  0  0  0
 12 21  1  0  0  0  0
 14 15  1  6  0  0  0
 14 16  1  0  0  0  0
 16 17  1  1  0  0  0
 16 18  1  0  0  0  0
 18 19  1  6  0  0  0
 18 20  1  0  0  0  0
 20 21  1  0  0  0  0
 20 22  1  1  0  0  0
 22 23  1  0  0  0  0
M  END
>  <CHROM.1>
-62.01281978,54.21429541,-131.19088011,-168.97269924,-64.96444268,-6.97347786
-8.99221887,0.37977842,2.48377465,-0.47502548,-1.04168487

>  <Name>
ligand

>  <RI>
0

>  <Rbt.Current_Directory>
/home/itssahil/PROJECTS/Mol_Feturizer/New_Systems/rnas/4TS2

>  <Rbt.Executable>
rbdock ($Id: //depot/dev/client3/rdock/2013.1/src/exe/rbdock.cxx#4 $)

>  <Rbt.Library>
libRbt.so (2013.1, Build901 2013/11/27)

>  <Rbt.Parameter_File>
/export/apps/rDock/src/rDock_2013.1_src/data/scripts/dock_solv.prm

>  <Rbt.Receptor>
prm/pocket_docking_4.prm

>  <SCORE>
-9.24079

>  <SCORE.INTER>
-5.80572

>  <SCORE.INTER.CONST>
1

>  <SCORE.INTER.POLAR>
0

>  <SCORE.INTER.ROT>
5

>  <SCORE.INTER.SOLV>
7.36451

>  <SCORE.INTER.VDW>
-13.2586

>  <SCORE.INTER.norm>
-0.252423

>  <SCORE.INTRA>
-3.43507

>  <SCORE.INTRA.DIHEDRAL>
-5.25929

>  <SCORE.INTRA.DIHEDRAL.0>
12.4853

>  <SCORE.INTRA.POLAR>
0

>  <SCORE.INTRA.POLAR.0>
0

>  <SCORE.INTRA.REPUL>
0

>  <SCORE.INTRA.REPUL.0>
0

>  <SCORE.INTRA.SOLV>
0.167602

>  <SCORE.INTRA.SOLV.lig_0>
-31.1706

>  <SCORE.INTRA.VDW>
-0.889224

>  <SCORE.INTRA.VDW.0>
-1.16895

>  <SCORE.INTRA.norm>
-0.149351

>  <SCORE.RESTR>
0

>  <SCORE.RESTR.CAVITY>
0

>  <SCORE.RESTR.norm>
0

>  <SCORE.SYSTEM>
0

>  <SCORE.SYSTEM.CONST>
0

>  <SCORE.SYSTEM.DIHEDRAL>
0

>  <SCORE.SYSTEM.SOLV>
0

>  <SCORE.SYSTEM.norm>
0

>  <SCORE.heavy>
23

>  <SCORE.norm>
-0.401773

>  <RMSD>
0.898

$$$$
ligand
 OpenBabel11021811513D
libRbt.so/2013.1/901 2013/11/27
 23 24  0  0  0  0  0  0  0  0999 V2000
  -10.4746   -9.5365    0.1036 C   0  0  0  0  0  0  0  0  0  0  0  0
  -11.3978  -10.4857   -0.4640 O   0  0  0  0  0  0  0  0  0  0  0  0
   -9.5157   -9.0682   -0.9816 C   0  0  2  0  0  0  0  0  0  0  0  0
   -8.6005  -10.1389   -1.5555 C   0  0  1  0  0  0  0  0  0  0  0  0
   -9.3237  -10.9191   -2.5097 O   0  0  0  0  0  0  0  0  0  0  0  0
   -7.4799   -9.3013   -2.1623 C   0  0  2  0  0  0  0  0  0  0  0  0
   -6.2065   -9.9182   -2.3862 O   0  0  0  0  0  0  0  0  0  0  0  0
   -7.3450   -8.1896   -1.1366 C   0  0  2  0  0  0  0  0  0  0  0  0
   -8.6326   -8.0516   -0.4992 O   0  0  0  0  0  0  0  0  0  0  0  0
   -6.9187   -6.9129   -1.8836 C   0  0  0  0  0  0  0  0  0  0  0  0
   -7.8370   -6.5578   -2.9268 O   0  0  0  0  0  0  0  0  0  0  0  0
   -6.3858   -7.7548    1.0356 C   0  0  2  0  0  0  0  0  0  0  0  0
   -6.4048   -8.5985   -0.1288 O   0  0  0  0  0  0  0  0  0  0  0  0
   -4.9362   -7.4115    1.3241 C   0  0  2  0  0  0  0  0  0  0  0  0
   -4.3075   -6.9712    0.1154 O   0  0  0  0  0  0  0  0  0  0  0  0
   -4.1919   -8.6309    1.8222 C   0  0  1  0  0  0  0  0  0  0  0  0
   -2.9146   -8.2163    2.3123 O   0  0  0  0  0  0  0  0  0  0  0  0
   -4.9749   -9.3231    2.9215 C   0  0  2  0  0  0  0  0  0  0  0  0
   -4.3317  -10.5516    3.2324 O   0  0  0  0  0  0  0  0  0  0  0  0
   -6.4112   -9.6102    2.5050 C   0  0  2  0  0  0  0  0  0  0  0  0
   -7.0123   -8.3690    2.1617 O   0  0  0  0  0  0  0  0  0  0  0  0
   -7.1987  -10.2938    3.6291 C   0  0  0  0  0  0  0  0  0  0  0  0
   -6.7199  -11.6135    3.9272 O   0  0  0  0  0  0  0  0  0  0  0  0
  1  2  1  0  0  0  0
  3  1  1  1  0  0  0
  3  9  1  0  0  0  0
  3  4  1  0  0  0  0
  4  5  1  6  0  0  0
  4  6  1  0  0  0  0
  6  7  1  1  0  0  0
  6  8  1  0  0  0  0
  8  9  1  0  0  0  0
  8 10  1  6  0  0  0
  8 13  1  0  0  0  0
 10 11  1  0  0  0  0
 12 13  1  6  0  0  0
 12 14  1  0  0  0  0
 12 21  1  0  0  0  0
 14 15  1  6  0  0  0
 14 16  1  0  0  0  0
 16 17  1  1  0  0  0
 16 18  1  0  0  0  0
 18 19  1  6  0  0  0
 18 20  1  0  0  0  0
 20 21  1  0  0  0  0
 20 22  1  1  0  0  0
 22 23  1  0  0  0  0
M  END
>  <CHROM.1>
-64.48979453,56.77424512,-131.00307948,-168.22457697,-66.44291074,-6.93515643
-8.99040990,0.36363729,2.48292693,-0.47743314,-1.03906480

>  <Name>
ligand

>  <RI>
0

>  <Rbt.Current_Directory>
/home/itssahil/PROJECTS/Mol_Feturizer/New_Systems/rnas/4TS2

>  <Rbt.Executable>
rbdock ($Id: //depot/dev/client3/rdock/2013.1/src/exe/rbdock.cxx#4 $)

>  <Rbt.Library>
libRbt.so (2013.1, Build901 2013/11/27)

>  <Rbt.Parameter_File>
/export/apps/rDock/src/rDock_2013.1_src/data/scripts/dock_solv.prm

>  <Rbt.Receptor>
prm/pocket_docking_5.prm

>  <SCORE>
-9.19371

>  <SCORE.INTER>
-5.72113

>  <SCORE.INTER.CONST>
1

>  <SCORE.INTER.POLAR>
0

>  <SCORE.INTER.ROT>
5

>  <SCORE.INTER.SOLV>
7.24088

>  <SCORE.INTER.VDW>
-13.161

>  <SCORE.INTER.norm>
-0.248745

>  <SCORE.INTRA>
-3.47258

>  <SCORE.INTRA.DIHEDRAL>
-5.11312

>  <SCORE.INTRA.DIHEDRAL.0>
12.4853

>  <SCORE.INTRA.POLAR>
0

>  <SCORE.INTRA.POLAR.0>
0

>  <SCORE.INTRA.REPUL>
0

>  <SCORE.INTRA.REPUL.0>
0

>  <SCORE.INTRA.SOLV>
0.143785

>  <SCORE.INTRA.SOLV.lig_0>
-31.1706

>  <SCORE.INTRA.VDW>
-0.987912

>  <SCORE.INTRA.VDW.0>
-1.16895

>  <SCORE.INTRA.norm>
-0.150982

>  <SCORE.RESTR>
0

>  <SCORE.RESTR.CAVITY>
0

>  <SCORE.RESTR.norm>
0

>  <SCORE.SYSTEM>
0

>  <SCORE.SYSTEM.CONST>
0

>  <SCORE.SYSTEM.DIHEDRAL>
0

>  <SCORE.SYSTEM.SOLV>
0

>  <SCORE.SYSTEM.norm>
0

>  <SCORE.heavy>
23

>  <SCORE.norm>
-0.399727

>  <RMSD>
0.901

$$$$
ligand
 OpenBabel11021811513D
libRbt.so/2013.1/901 2013/11/27
 23 24  0  0  0  0  0  0  0  0999 V2000
  -10.8398   -9.7389    0.4760 C   0  0  0  0  0  0  0  0  0  0  0  0
  -11.7998  -10.6727   -0.0551 O   0  0  0  0  0  0  0  0  0  0  0  0
  -10.0255   -9.1590   -0.6717 C   0  0  2  0  0  0  0  0  0  0  0  0
   -9.1985  -10.1615   -1.4619 C   0  0  1  0  0  0  0  0  0  0  0  0
  -10.0434  -10.8478   -2.3879 O   0  0  0  0  0  0  0  0  0  0  0  0
   -8.1599   -9.2605   -2.1216 C   0  0  2  0  0  0  0  0  0  0  0  0
   -6.9299   -9.8439   -2.5675 O   0  0  0  0  0  0  0  0  0  0  0  0
   -7.8872   -8.2553   -1.0166 C   0  0  2  0  0  0  0  0  0  0  0  0
   -9.0812   -8.1896   -0.2083 O   0  0  0  0  0  0  0  0  0  0  0  0
   -7.5523   -6.9080   -1.6817 C   0  0  0  0  0  0  0  0  0  0  0  0
   -6.3667   -6.9755   -2.4862 O   0  0  0  0  0  0  0  0  0  0  0  0
   -6.5313   -7.9276    0.9537 C   0  0  2  0  0  0  0  0  0  0  0  0
   -6.8278   -8.7562   -0.1837 O   0  0  0  0  0  0  0  0  0  0  0  0
   -5.0216   -7.8052    1.0453 C   0  0  2  0  0  0  0  0  0  0  0  0
   -4.4986   -7.4609   -0.2424 O   0  0  0  0  0  0  0  0  0  0  0  0
   -4.4076   -9.1232    1.4633 C   0  0  1  0  0  0  0  0  0  0  0  0
   -3.0298   -8.9052    1.7759 O   0  0  0  0  0  0  0  0  0  0  0  0
   -5.1336   -9.6934    2.6668 C   0  0  2  0  0  0  0  0  0  0  0  0
   -4.6446  -11.0048    2.9126 O   0  0  0  0  0  0  0  0  0  0  0  0
   -6.6387   -9.7618    2.4457 C   0  0  2  0  0  0  0  0  0  0  0  0
   -7.0888   -8.4439    2.1621 O   0  0  0  0  0  0  0  0  0  0  0  0
   -7.3645  -10.3229    3.6742 C   0  0  0  0  0  0  0  0  0  0  0  0
   -7.0018  -11.6797    3.9691 O   0  0  0  0  0  0  0  0  0  0  0  0
  1  2  1  0  0  0  0
  3  1  1  1  0  0  0
  3  9  1  0  0  0  0
  3  4  1  0  0  0  0
  4  5  1  6  0  0  0
  4  6  1  0  0  0  0
  6  7  1  1  0  0  0
  6  8  1  0  0  0  0
  8  9  1  0  0  0  0
  8 10  1  6  0  0  0
  8 13  1  0  0  0  0
 10 11  1  0  0  0  0
 12 13  1  6  0  0  0
 12 14  1  0  0  0  0
 12 21  1  0  0  0  0
 14 15  1  6  0  0  0
 14 16  1  0  0  0  0
 16 17  1  1  0  0  0
 16 18  1  0  0  0  0
 18 19  1  6  0  0  0
 18 20  1  0  0  0  0
 20 21  1  0  0  0  0
 20 22  1  1  0  0  0
 22 23  1  0  0  0  0
M  END
>  <CHROM.1>
-62.26731979,-62.50713210,-135.17772247,-176.35271902,-63.56070307,-7.21205361
-9.18768186,0.36401736,2.58388977,-0.35897956,-1.07577465

>  <Name>
ligand

>  <RI>
0

>  <Rbt.Current_Directory>
/home/itssahil/PROJECTS/Mol_Feturizer/New_Systems/rnas/4TS2

>  <Rbt.Executable>
rbdock ($Id: //depot/dev/client3/rdock/2013.1/src/exe/rbdock.cxx#4 $)

>  <Rbt.Library>
libRbt.so (2013.1, Build901 2013/11/27)

>  <Rbt.Parameter_File>
/export/apps/rDock/src/rDock_2013.1_src/data/scripts/dock_solv.prm

>  <Rbt.Receptor>
prm/pocket_docking_2.prm

>  <SCORE>
-8.45151

>  <SCORE.INTER>
-4.55647

>  <SCORE.INTER.CONST>
1

>  <SCORE.INTER.POLAR>
0

>  <SCORE.INTER.ROT>
5

>  <SCORE.INTER.SOLV>
6.54667

>  <SCORE.INTER.VDW>
-12.1532

>  <SCORE.INTER.norm>
-0.198107

>  <SCORE.INTRA>
-3.89504

>  <SCORE.INTRA.DIHEDRAL>
-6.25777

>  <SCORE.INTRA.DIHEDRAL.0>
12.4853

>  <SCORE.INTRA.POLAR>
0

>  <SCORE.INTRA.POLAR.0>
0

>  <SCORE.INTRA.REPUL>
0

>  <SCORE.INTRA.REPUL.0>
0

>  <SCORE.INTRA.SOLV>
0.646292

>  <SCORE.INTRA.SOLV.lig_0>
-31.1706

>  <SCORE.INTRA.VDW>
-1.0893

>  <SCORE.INTRA.VDW.0>
-1.16895

>  <SCORE.INTRA.norm>
-0.16935

>  <SCORE.RESTR>
0

>  <SCORE.RESTR.CAVITY>
0

>  <SCORE.RESTR.norm>
0

>  <SCORE.SYSTEM>
0

>  <SCORE.SYSTEM.CONST>
0

>  <SCORE.SYSTEM.DIHEDRAL>
0

>  <SCORE.SYSTEM.SOLV>
0

>  <SCORE.SYSTEM.norm>
0

>  <SCORE.heavy>
23

>  <SCORE.norm>
-0.367457

>  <RMSD>
0.902

$$$$
ligand
 OpenBabel11021811513D
libRbt.so/2013.1/901 2013/11/27
 23 24  0  0  0  0  0  0  0  0999 V2000
  -10.5028   -9.5590    0.1402 C   0  0  0  0  0  0  0  0  0  0  0  0
  -11.4285  -10.5060   -0.4271 O   0  0  0  0  0  0  0  0  0  0  0  0
   -9.5569   -9.0765   -0.9502 C   0  0  2  0  0  0  0  0  0  0  0  0
   -8.6353  -10.1355   -1.5355 C   0  0  1  0  0  0  0  0  0  0  0  0
   -9.3579  -10.9191   -2.4875 O   0  0  0  0  0  0  0  0  0  0  0  0
   -7.5279   -9.2841   -2.1472 C   0  0  2  0  0  0  0  0  0  0  0  0
   -6.2501   -9.8872   -2.3833 O   0  0  0  0  0  0  0  0  0  0  0  0
   -7.3964   -8.1754   -1.1179 C   0  0  2  0  0  0  0  0  0  0  0  0
   -8.6805   -8.0530   -0.4702 O   0  0  0  0  0  0  0  0  0  0  0  0
   -6.9887   -6.8913   -1.8627 C   0  0  0  0  0  0  0  0  0  0  0  0
   -7.8733   -6.5859   -2.9498 O   0  0  0  0  0  0  0  0  0  0  0  0
   -6.4153   -7.7318    1.0427 C   0  0  2  0  0  0  0  0  0  0  0  0
   -6.4445   -8.5790   -0.1190 O   0  0  0  0  0  0  0  0  0  0  0  0
   -4.9618   -7.4028    1.3284 C   0  0  2  0  0  0  0  0  0  0  0  0
   -4.3299   -6.9730    0.1176 O   0  0  0  0  0  0  0  0  0  0  0  0
   -4.2297   -8.6283    1.8296 C   0  0  1  0  0  0  0  0  0  0  0  0
   -2.9476   -8.2255    2.3169 O   0  0  0  0  0  0  0  0  0  0  0  0
   -5.0187   -9.3087    2.9320 C   0  0  2  0  0  0  0  0  0  0  0  0
   -4.3880  -10.5428    3.2462 O   0  0  0  0  0  0  0  0  0  0  0  0
   -6.4584   -9.5820    2.5181 C   0  0  2  0  0  0  0  0  0  0  0  0
   -7.0468   -8.3357    2.1715 O   0  0  0  0  0  0  0  0  0  0  0  0
   -7.2517  -10.2538    3.6453 C   0  0  0  0  0  0  0  0  0  0  0  0
   -6.8024  -11.5866    3.9304 O   0  0  0  0  0  0  0  0  0  0  0  0
  1  2  1  0  0  0  0
  3  1  1  1  0  0  0
  3  9  1  0  0  0  0
  3  4  1  0  0  0  0
  4  5  1  6  0  0  0
  4  6  1  0  0  0  0
  6  7  1  1  0  0  0
  6  8  1  0  0  0  0
  8  9  1  0  0  0  0
  8 10  1  6  0  0  0
  8 13  1  0  0  0  0
 10 11  1  0  0  0  0
 12 13  1  6  0  0  0
 12 14  1  0  0  0  0
 12 21  1  0  0  0  0
 14 15  1  6  0  0  0
 14 16  1  0  0  0  0
 16 17  1  1  0  0  0
 16 18  1  0  0  0  0
 18 19  1  6  0  0  0
 18 20  1  0  0  0  0
 20 21  1  0  0  0  0
 20 22  1  1  0  0  0
 22 23  1  0  0  0  0
M  END
>  <CHROM.1>
-65.01232376,53.21851823,-131.92542811,-168.84593524,-67.52683701,-6.97741691
-8.98198012,0.37697885,2.48338606,-0.47582052,-1.04613446

>  <Name>
ligand

>  <RI>
0

>  <Rbt.Current_Directory>
/home/itssahil/PROJECTS/Mol_Feturizer/New_Systems/rnas/4TS2

>  <Rbt.Executable>
rbdock ($Id: //depot/dev/client3/rdock/2013.1/src/exe/rbdock.cxx#4 $)

>  <Rbt.Library>
libRbt.so (2013.1, Build901 2013/11/27)

>  <Rbt.Parameter_File>
/export/apps/rDock/src/rDock_2013.1_src/data/scripts/dock_solv.prm

>  <Rbt.Receptor>
prm/pocket_docking_7.prm

>  <SCORE>
-9.26394

>  <SCORE.INTER>
-5.83511

>  <SCORE.INTER.CONST>
1

>  <SCORE.INTER.POLAR>
0

>  <SCORE.INTER.ROT>
5

>  <SCORE.INTER.SOLV>
7.4072

>  <SCORE.INTER.VDW>
-13.2925

>  <SCORE.INTER.norm>
-0.2537

>  <SCORE.INTRA>
-3.42883

>  <SCORE.INTRA.DIHEDRAL>
-5.10003

>  <SCORE.INTRA.DIHEDRAL.0>
12.4853

>  <SCORE.INTRA.POLAR>
0

>  <SCORE.INTRA.POLAR.0>
0

>  <SCORE.INTRA.REPUL>
0

>  <SCORE.INTRA.REPUL.0>
0

>  <SCORE.INTRA.SOLV>
0.144022

>  <SCORE.INTRA.SOLV.lig_0>
-31.1706

>  <SCORE.INTRA.VDW>
-0.950824

>  <SCORE.INTRA.VDW.0>
-1.16895

>  <SCORE.INTRA.norm>
-0.149079

>  <SCORE.RESTR>
0

>  <SCORE.RESTR.CAVITY>
0

>  <SCORE.RESTR.norm>
0

>  <SCORE.SYSTEM>
0

>  <SCORE.SYSTEM.CONST>
0

>  <SCORE.SYSTEM.DIHEDRAL>
0

>  <SCORE.SYSTEM.SOLV>
0

>  <SCORE.SYSTEM.norm>
0

>  <SCORE.heavy>
23

>  <SCORE.norm>
-0.40278

>  <RMSD>
0.903

$$$$
ligand
 OpenBabel11021811513D
libRbt.so/2013.1/901 2013/11/27
 23 24  0  0  0  0  0  0  0  0999 V2000
  -10.5038   -9.5602    0.1457 C   0  0  0  0  0  0  0  0  0  0  0  0
  -11.4291  -10.5106   -0.4165 O   0  0  0  0  0  0  0  0  0  0  0  0
   -9.5593   -9.0820   -0.9478 C   0  0  2  0  0  0  0  0  0  0  0  0
   -8.6441  -10.1451   -1.5358 C   0  0  1  0  0  0  0  0  0  0  0  0
   -9.3731  -10.9255   -2.4855 O   0  0  0  0  0  0  0  0  0  0  0  0
   -7.5349   -9.2986   -2.1510 C   0  0  2  0  0  0  0  0  0  0  0  0
   -6.2605   -9.9073   -2.3911 O   0  0  0  0  0  0  0  0  0  0  0  0
   -7.3953   -8.1903   -1.1223 C   0  0  2  0  0  0  0  0  0  0  0  0
   -8.6769   -8.0623   -0.4706 O   0  0  0  0  0  0  0  0  0  0  0  0
   -6.9843   -6.9082   -1.8685 C   0  0  0  0  0  0  0  0  0  0  0  0
   -7.8954   -6.5751   -2.9252 O   0  0  0  0  0  0  0  0  0  0  0  0
   -6.3988   -7.7454    1.0309 C   0  0  2  0  0  0  0  0  0  0  0  0
   -6.4421   -8.5980   -0.1263 O   0  0  0  0  0  0  0  0  0  0  0  0
   -4.9432   -7.4030    1.2886 C   0  0  2  0  0  0  0  0  0  0  0  0
   -4.3371   -6.9734    0.0645 O   0  0  0  0  0  0  0  0  0  0  0  0
   -4.1917   -8.6200    1.7815 C   0  0  1  0  0  0  0  0  0  0  0  0
   -2.9044   -8.2044    2.2435 O   0  0  0  0  0  0  0  0  0  0  0  0
   -4.9546   -9.3021    2.9012 C   0  0  2  0  0  0  0  0  0  0  0  0
   -4.3080  -10.5295    3.2091 O   0  0  0  0  0  0  0  0  0  0  0  0
   -6.3994   -9.5892    2.5149 C   0  0  2  0  0  0  0  0  0  0  0  0
   -7.0045   -8.3494    2.1737 O   0  0  0  0  0  0  0  0  0  0  0  0
   -7.1662  -10.2624    3.6594 C   0  0  0  0  0  0  0  0  0  0  0  0
   -6.6776  -11.5767    3.9653 O   0  0  0  0  0  0  0  0  0  0  0  0
  1  2  1  0  0  0  0
  3  1  1  1  0  0  0
  3  9  1  0  0  0  0
  3  4  1  0  0  0  0
  4  5  1  6  0  0  0
  4  6  1  0  0  0  0
  6  7  1  1  0  0  0
  6  8  1  0  0  0  0
  8  9  1  0  0  0  0
  8 10  1  6  0  0  0
  8 13  1  0  0  0  0
 10 11  1  0  0  0  0
 12 13  1  6  0  0  0
 12 14  1  0  0  0  0
 12 21  1  0  0  0  0
 14 15  1  6  0  0  0
 14 16  1  0  0  0  0
 16 17  1  1  0  0  0
 16 18  1  0  0  0  0
 18 19  1  6  0  0  0
 18 20  1  0  0  0  0
 20 21  1  0  0  0  0
 20 22  1  1  0  0  0
 22 23  1  0  0  0  0
M  END
>  <CHROM.1>
-64.59049268,55.11753046,-130.65568405,-169.26871542,-65.99161146,-6.95518103
-8.98590075,0.36711066,2.49472195,-0.47153451,-1.04018644

>  <Name>
ligand

>  <RI>
0

>  <Rbt.Current_Directory>
/home/itssahil/PROJECTS/Mol_Feturizer/New_Systems/rnas/4TS2

>  <Rbt.Executable>
rbdock ($Id: //depot/dev/client3/rdock/2013.1/src/exe/rbdock.cxx#4 $)

>  <Rbt.Library>
libRbt.so (2013.1, Build901 2013/11/27)

>  <Rbt.Parameter_File>
/export/apps/rDock/src/rDock_2013.1_src/data/scripts/dock_solv.prm

>  <Rbt.Receptor>
prm/pocket_docking_3.prm

>  <SCORE>
-9.25988

>  <SCORE.INTER>
-5.82169

>  <SCORE.INTER.CONST>
1

>  <SCORE.INTER.POLAR>
0

>  <SCORE.INTER.ROT>
5

>  <SCORE.INTER.SOLV>
7.32418

>  <SCORE.INTER.VDW>
-13.2558

>  <SCORE.INTER.norm>
-0.253117

>  <SCORE.INTRA>
-3.43819

>  <SCORE.INTRA.DIHEDRAL>
-5.15614

>  <SCORE.INTRA.DIHEDRAL.0>
12.4853

>  <SCORE.INTRA.POLAR>
0

>  <SCORE.INTRA.POLAR.0>
0

>  <SCORE.INTRA.REPUL>
0

>  <SCORE.INTRA.REPUL.0>
0

>  <SCORE.INTRA.SOLV>
0.142966

>  <SCORE.INTRA.SOLV.lig_0>
-31.1706

>  <SCORE.INTRA.VDW>
-0.931606

>  <SCORE.INTRA.VDW.0>
-1.16895

>  <SCORE.INTRA.norm>
-0.149487

>  <SCORE.RESTR>
0

>  <SCORE.RESTR.CAVITY>
0

>  <SCORE.RESTR.norm>
0

>  <SCORE.SYSTEM>
0

>  <SCORE.SYSTEM.CONST>
0

>  <SCORE.SYSTEM.DIHEDRAL>
0

>  <SCORE.SYSTEM.SOLV>
0

>  <SCORE.SYSTEM.norm>
0

>  <SCORE.heavy>
23

>  <SCORE.norm>
-0.402603

>  <RMSD>
0.905

$$$$
ligand
 OpenBabel11021811513D
libRbt.so/2013.1/901 2013/11/27
 23 24  0  0  0  0  0  0  0  0999 V2000
  -10.8375   -9.7241    0.4683 C   0  0  0  0  0  0  0  0  0  0  0  0
  -11.8855  -10.5591   -0.0608 O   0  0  0  0  0  0  0  0  0  0  0  0
  -10.0314   -9.1487   -0.6874 C   0  0  2  0  0  0  0  0  0  0  0  0
   -9.2147  -10.1551   -1.4833 C   0  0  1  0  0  0  0  0  0  0  0  0
  -10.0699  -10.8401   -2.4007 O   0  0  0  0  0  0  0  0  0  0  0  0
   -8.1790   -9.2586   -2.1535 C   0  0  2  0  0  0  0  0  0  0  0  0
   -6.9549   -9.8467   -2.6093 O   0  0  0  0  0  0  0  0  0  0  0  0
   -7.8933   -8.2526   -1.0526 C   0  0  2  0  0  0  0  0  0  0  0  0
   -9.0799   -8.1816   -0.2340 O   0  0  0  0  0  0  0  0  0  0  0  0
   -7.5599   -6.9074   -1.7228 C   0  0  0  0  0  0  0  0  0  0  0  0
   -6.3440   -6.9616   -2.4818 O   0  0  0  0  0  0  0  0  0  0  0  0
   -6.5170   -7.9246    0.9035 C   0  0  2  0  0  0  0  0  0  0  0  0
   -6.8282   -8.7556   -0.2282 O   0  0  0  0  0  0  0  0  0  0  0  0
   -5.0058   -7.8139    0.9838 C   0  0  2  0  0  0  0  0  0  0  0  0
   -4.4893   -7.4791   -0.3090 O   0  0  0  0  0  0  0  0  0  0  0  0
   -4.3992   -9.1350    1.4029 C   0  0  1  0  0  0  0  0  0  0  0  0
   -3.0176   -8.9266    1.7048 O   0  0  0  0  0  0  0  0  0  0  0  0
   -5.1211   -9.6943    2.6141 C   0  0  2  0  0  0  0  0  0  0  0  0
   -4.6408  -11.0086    2.8619 O   0  0  0  0  0  0  0  0  0  0  0  0
   -6.6282   -9.7517    2.4040 C   0  0  2  0  0  0  0  0  0  0  0  0
   -7.0699   -8.4315    2.1180 O   0  0  0  0  0  0  0  0  0  0  0  0
   -7.3497  -10.3018    3.6400 C   0  0  0  0  0  0  0  0  0  0  0  0
   -7.0193  -11.6701    3.9199 O   0  0  0  0  0  0  0  0  0  0  0  0
  1  2  1  0  0  0  0
  3  1  1  1  0  0  0
  3  9  1  0  0  0  0
  3  4  1  0  0  0  0
  4  5  1  6  0  0  0
  4  6  1  0  0  0  0
  6  7  1  1  0  0  0
  6  8  1  0  0  0  0
  8  9  1  0  0  0  0
  8 10  1  6  0  0  0
  8 13  1  0  0  0  0
 10 11  1  0  0  0  0
 12 13  1  6  0  0  0
 12 14  1  0  0  0  0
 12 21  1  0  0  0  0
 14 15  1  6  0  0  0
 14 16  1  0  0  0  0
 16 17  1  1  0  0  0
 16 18  1  0  0  0  0
 18 19  1  6  0  0  0
 18 20  1  0  0  0  0
 20 21  1  0  0  0  0
 20 22  1  1  0  0  0
 22 23  1  0  0  0  0
M  END
>  <CHROM.1>
-67.56350071,-65.51952722,-135.42082658,-176.48494348,-64.92340041,-7.21523728
-9.17992559,0.32664619,2.59591837,-0.34632852,-1.07832319

>  <Name>
ligand

>  <RI>
0

>  <Rbt.Current_Directory>
/home/itssahil/PROJECTS/Mol_Feturizer/New_Systems/rnas/4TS2

>  <Rbt.Executable>
rbdock ($Id: //depot/dev/client3/rdock/2013.1/src/exe/rbdock.cxx#4 $)

>  <Rbt.Library>
libRbt.so (2013.1, Build901 2013/11/27)

>  <Rbt.Parameter_File>
/export/apps/rDock/src/rDock_2013.1_src/data/scripts/dock_solv.prm

>  <Rbt.Receptor>
prm/pocket_docking_2.prm

>  <SCORE>
-8.41949

>  <SCORE.INTER>
-4.55143

>  <SCORE.INTER.CONST>
1

>  <SCORE.INTER.POLAR>
0

>  <SCORE.INTER.ROT>
5

>  <SCORE.INTER.SOLV>
6.58053

>  <SCORE.INTER.VDW>
-12.1611

>  <SCORE.INTER.norm>
-0.197888

>  <SCORE.INTRA>
-3.86806

>  <SCORE.INTRA.DIHEDRAL>
-6.00302

>  <SCORE.INTRA.DIHEDRAL.0>
12.4853

>  <SCORE.INTRA.POLAR>
0

>  <SCORE.INTRA.POLAR.0>
0

>  <SCORE.INTRA.REPUL>
0

>  <SCORE.INTRA.REPUL.0>
0

>  <SCORE.INTRA.SOLV>
0.629858

>  <SCORE.INTRA.SOLV.lig_0>
-31.1706

>  <SCORE.INTRA.VDW>
-1.18148

>  <SCORE.INTRA.VDW.0>
-1.16895

>  <SCORE.INTRA.norm>
-0.168176

>  <SCORE.RESTR>
0

>  <SCORE.RESTR.CAVITY>
0

>  <SCORE.RESTR.norm>
0

>  <SCORE.SYSTEM>
0

>  <SCORE.SYSTEM.CONST>
0

>  <SCORE.SYSTEM.DIHEDRAL>
0

>  <SCORE.SYSTEM.SOLV>
0

>  <SCORE.SYSTEM.norm>
0

>  <SCORE.heavy>
23

>  <SCORE.norm>
-0.366065

>  <RMSD>
0.906

$$$$
ligand
 OpenBabel11021811513D
libRbt.so/2013.1/901 2013/11/27
 23 24  0  0  0  0  0  0  0  0999 V2000
  -10.4806   -9.5634    0.1596 C   0  0  0  0  0  0  0  0  0  0  0  0
  -11.3737  -10.5511   -0.3901 O   0  0  0  0  0  0  0  0  0  0  0  0
   -9.5452   -9.0758   -0.9376 C   0  0  2  0  0  0  0  0  0  0  0  0
   -8.6296  -10.1321   -1.5370 C   0  0  1  0  0  0  0  0  0  0  0  0
   -9.3616  -10.9109   -2.4857 O   0  0  0  0  0  0  0  0  0  0  0  0
   -7.5279   -9.2780   -2.1552 C   0  0  2  0  0  0  0  0  0  0  0  0
   -6.2527   -9.8802   -2.4067 O   0  0  0  0  0  0  0  0  0  0  0  0
   -7.3862   -8.1743   -1.1219 C   0  0  2  0  0  0  0  0  0  0  0  0
   -8.6639   -8.0548   -0.4612 O   0  0  0  0  0  0  0  0  0  0  0  0
   -6.9854   -6.8868   -1.8644 C   0  0  0  0  0  0  0  0  0  0  0  0
   -7.8831   -6.5734   -2.9384 O   0  0  0  0  0  0  0  0  0  0  0  0
   -6.3783   -7.7367    1.0276 C   0  0  2  0  0  0  0  0  0  0  0  0
   -6.4248   -8.5829   -0.1342 O   0  0  0  0  0  0  0  0  0  0  0  0
   -4.9214   -7.4022    1.2879 C   0  0  2  0  0  0  0  0  0  0  0  0
   -4.3127   -6.9688    0.0665 O   0  0  0  0  0  0  0  0  0  0  0  0
   -4.1757   -8.6253    1.7748 C   0  0  1  0  0  0  0  0  0  0  0  0
   -2.8868   -8.2179    2.2398 O   0  0  0  0  0  0  0  0  0  0  0  0
   -4.9424   -9.3099    2.8903 C   0  0  2  0  0  0  0  0  0  0  0  0
   -4.3015  -10.5418    3.1921 O   0  0  0  0  0  0  0  0  0  0  0  0
   -6.3881   -9.5885    2.5017 C   0  0  2  0  0  0  0  0  0  0  0  0
   -6.9875   -8.3442    2.1667 O   0  0  0  0  0  0  0  0  0  0  0  0
   -7.1587  -10.2644    3.6420 C   0  0  0  0  0  0  0  0  0  0  0  0
   -6.6870  -11.5888    3.9301 O   0  0  0  0  0  0  0  0  0  0  0  0
  1  2  1  0  0  0  0
  3  1  1  1  0  0  0
  3  9  1  0  0  0  0
  3  4  1  0  0  0  0
  4  5  1  6  0  0  0
  4  6  1  0  0  0  0
  6  7  1  1  0  0  0
  6  8  1  0  0  0  0
  8  9  1  0  0  0  0
  8 10  1  6  0  0  0
  8 13  1  0  0  0  0
 10 11  1  0  0  0  0
 12 13  1  6  0  0  0
 12 14  1  0  0  0  0
 12 21  1  0  0  0  0
 14 15  1  6  0  0  0
 14 16  1  0  0  0  0
 16 17  1  1  0  0  0
 16 18  1  0  0  0  0
 18 19  1  6  0  0  0
 18 20  1  0  0  0  0
 20 21  1  0  0  0  0
 20 22  1  1  0  0  0
 22 23  1  0  0  0  0
M  END
>  <CHROM.1>
-62.50389335,53.42094148,-131.32345605,-169.20311493,-66.71722471,-6.94072939
-8.98333863,0.36301204,2.49636165,-0.47273860,-1.03587565

>  <Name>
ligand

>  <RI>
0

>  <Rbt.Current_Directory>
/home/itssahil/PROJECTS/Mol_Feturizer/New_Systems/rnas/4TS2

>  <Rbt.Executable>
rbdock ($Id: //depot/dev/client3/rdock/2013.1/src/exe/rbdock.cxx#4 $)

>  <Rbt.Library>
libRbt.so (2013.1, Build901 2013/11/27)

>  <Rbt.Parameter_File>
/export/apps/rDock/src/rDock_2013.1_src/data/scripts/dock_solv.prm

>  <Rbt.Receptor>
prm/pocket_docking_4.prm

>  <SCORE>
-9.27335

>  <SCORE.INTER>
-5.84581

>  <SCORE.INTER.CONST>
1

>  <SCORE.INTER.POLAR>
0

>  <SCORE.INTER.ROT>
5

>  <SCORE.INTER.SOLV>
7.30753

>  <SCORE.INTER.VDW>
-13.2664

>  <SCORE.INTER.norm>
-0.254166

>  <SCORE.INTRA>
-3.42754

>  <SCORE.INTRA.DIHEDRAL>
-5.18433

>  <SCORE.INTRA.DIHEDRAL.0>
12.4853

>  <SCORE.INTRA.POLAR>
0

>  <SCORE.INTRA.POLAR.0>
0

>  <SCORE.INTRA.REPUL>
0

>  <SCORE.INTRA.REPUL.0>
0

>  <SCORE.INTRA.SOLV>
0.156323

>  <SCORE.INTRA.SOLV.lig_0>
-31.1706

>  <SCORE.INTRA.VDW>
-0.913534

>  <SCORE.INTRA.VDW.0>
-1.16895

>  <SCORE.INTRA.norm>
-0.149023

>  <SCORE.RESTR>
0

>  <SCORE.RESTR.CAVITY>
0

>  <SCORE.RESTR.norm>
0

>  <SCORE.SYSTEM>
0

>  <SCORE.SYSTEM.CONST>
0

>  <SCORE.SYSTEM.DIHEDRAL>
0

>  <SCORE.SYSTEM.SOLV>
0

>  <SCORE.SYSTEM.norm>
0

>  <SCORE.heavy>
23

>  <SCORE.norm>
-0.403189

>  <RMSD>
0.910

$$$$
ligand
 OpenBabel11021811513D
libRbt.so/2013.1/901 2013/11/27
 23 24  0  0  0  0  0  0  0  0999 V2000
  -10.5363   -9.5023    0.0340 C   0  0  0  0  0  0  0  0  0  0  0  0
  -11.4429  -10.4608   -0.5448 O   0  0  0  0  0  0  0  0  0  0  0  0
   -9.5471   -9.0503   -1.0307 C   0  0  2  0  0  0  0  0  0  0  0  0
   -8.6300  -10.1338   -1.5769 C   0  0  1  0  0  0  0  0  0  0  0  0
   -9.3386  -10.9118   -2.5437 O   0  0  0  0  0  0  0  0  0  0  0  0
   -7.4865   -9.3114   -2.1615 C   0  0  2  0  0  0  0  0  0  0  0  0
   -6.2148   -9.9429   -2.3518 O   0  0  0  0  0  0  0  0  0  0  0  0
   -7.3641   -8.1954   -1.1390 C   0  0  2  0  0  0  0  0  0  0  0  0
   -8.6649   -8.0402   -0.5331 O   0  0  0  0  0  0  0  0  0  0  0  0
   -6.9067   -6.9275   -1.8826 C   0  0  0  0  0  0  0  0  0  0  0  0
   -7.8157   -6.5476   -2.9253 O   0  0  0  0  0  0  0  0  0  0  0  0
   -6.4311   -7.7423    1.0409 C   0  0  2  0  0  0  0  0  0  0  0  0
   -6.4524   -8.6084   -0.1070 O   0  0  0  0  0  0  0  0  0  0  0  0
   -4.9817   -7.3865    1.3145 C   0  0  2  0  0  0  0  0  0  0  0  0
   -4.3619   -6.9665    0.0940 O   0  0  0  0  0  0  0  0  0  0  0  0
   -4.2285   -8.5924    1.8317 C   0  0  1  0  0  0  0  0  0  0  0  0
   -2.9506   -8.1622    2.3066 O   0  0  0  0  0  0  0  0  0  0  0  0
   -5.0020   -9.2671    2.9486 C   0  0  2  0  0  0  0  0  0  0  0  0
   -4.3510  -10.4862    3.2794 O   0  0  0  0  0  0  0  0  0  0  0  0
   -6.4391   -9.5691    2.5458 C   0  0  2  0  0  0  0  0  0  0  0  0
   -7.0483   -8.3377    2.1820 O   0  0  0  0  0  0  0  0  0  0  0  0
   -7.2169  -10.2348    3.6872 C   0  0  0  0  0  0  0  0  0  0  0  0
   -6.6940  -11.5221    4.0465 O   0  0  0  0  0  0  0  0  0  0  0  0
  1  2  1  0  0  0  0
  3  1  1  1  0  0  0
  3  9  1  0  0  0  0
  3  4  1  0  0  0  0
  4  5  1  6  0  0  0
  4  6  1  0  0  0  0
  6  7  1  1  0  0  0
  6  8  1  0  0  0  0
  8  9  1  0  0  0  0
  8 10  1  6  0  0  0
  8 13  1  0  0  0  0
 10 11  1  0  0  0  0
 12 13  1  6  0  0  0
 12 14  1  0  0  0  0
 12 21  1  0  0  0  0
 14 15  1  6  0  0  0
 14 16  1  0  0  0  0
 16 17  1  1  0  0  0
 16 18  1  0  0  0  0
 18 19  1  6  0  0  0
 18 20  1  0  0  0  0
 20 21  1  0  0  0  0
 20 22  1  1  0  0  0
 22 23  1  0  0  0  0
M  END
>  <CHROM.1>
-63.59955201,58.39248156,-128.78631853,-169.48760267,-63.93451652,-6.96023910
-8.96734147,0.36652900,2.46998252,-0.47894085,-1.05571477

>  <Name>
ligand

>  <RI>
0

>  <Rbt.Current_Directory>
/home/itssahil/PROJECTS/Mol_Feturizer/New_Systems/rnas/4TS2

>  <Rbt.Executable>
rbdock ($Id: //depot/dev/client3/rdock/2013.1/src/exe/rbdock.cxx#4 $)

>  <Rbt.Library>
libRbt.so (2013.1, Build901 2013/11/27)

>  <Rbt.Parameter_File>
/export/apps/rDock/src/rDock_2013.1_src/data/scripts/dock_solv.prm

>  <Rbt.Receptor>
prm/pocket_docking_4.prm

>  <SCORE>
-9.17712

>  <SCORE.INTER>
-5.7735

>  <SCORE.INTER.CONST>
1

>  <SCORE.INTER.POLAR>
0

>  <SCORE.INTER.ROT>
5

>  <SCORE.INTER.SOLV>
7.41961

>  <SCORE.INTER.VDW>
-13.2555

>  <SCORE.INTER.norm>
-0.251022

>  <SCORE.INTRA>
-3.40362

>  <SCORE.INTRA.DIHEDRAL>
-5.15765

>  <SCORE.INTRA.DIHEDRAL.0>
12.4853

>  <SCORE.INTRA.POLAR>
0

>  <SCORE.INTRA.POLAR.0>
0

>  <SCORE.INTRA.REPUL>
0

>  <SCORE.INTRA.REPUL.0>
0

>  <SCORE.INTRA.SOLV>
0.14517

>  <SCORE.INTRA.SOLV.lig_0>
-31.1706

>  <SCORE.INTRA.VDW>
-0.897383

>  <SCORE.INTRA.VDW.0>
-1.16895

>  <SCORE.INTRA.norm>
-0.147984

>  <SCORE.RESTR>
0

>  <SCORE.RESTR.CAVITY>
0

>  <SCORE.RESTR.norm>
0

>  <SCORE.SYSTEM>
0

>  <SCORE.SYSTEM.CONST>
0

>  <SCORE.SYSTEM.DIHEDRAL>
0

>  <SCORE.SYSTEM.SOLV>
0

>  <SCORE.SYSTEM.norm>
0

>  <SCORE.heavy>
23

>  <SCORE.norm>
-0.399005

>  <RMSD>
0.918

$$$$
ligand
 OpenBabel11021811513D
libRbt.so/2013.1/901 2013/11/27
 23 24  0  0  0  0  0  0  0  0999 V2000
   -9.7151  -10.4233   -0.1847 C   0  0  0  0  0  0  0  0  0  0  0  0
  -10.7672   -9.5762    0.3163 O   0  0  0  0  0  0  0  0  0  0  0  0
   -8.9352   -9.6669   -1.2505 C   0  0  2  0  0  0  0  0  0  0  0  0
   -7.7820  -10.4292   -1.8850 C   0  0  1  0  0  0  0  0  0  0  0  0
   -8.2933  -11.3258   -2.8734 O   0  0  0  0  0  0  0  0  0  0  0  0
   -6.9338   -9.2974   -2.4550 C   0  0  2  0  0  0  0  0  0  0  0  0
   -5.5476   -9.5449   -2.7189 O   0  0  0  0  0  0  0  0  0  0  0  0
   -7.0758   -8.2402   -1.3742 C   0  0  2  0  0  0  0  0  0  0  0  0
   -8.3414   -8.4777   -0.7221 O   0  0  0  0  0  0  0  0  0  0  0  0
   -7.0156   -6.8619   -2.0570 C   0  0  0  0  0  0  0  0  0  0  0  0
   -7.9919   -6.7251   -3.0990 O   0  0  0  0  0  0  0  0  0  0  0  0
   -6.2929   -7.7868    0.8639 C   0  0  2  0  0  0  0  0  0  0  0  0
   -6.0412   -8.4346   -0.3951 O   0  0  0  0  0  0  0  0  0  0  0  0
   -4.9470   -7.4720    1.4899 C   0  0  2  0  0  0  0  0  0  0  0  0
   -4.1126   -6.8354    0.5159 O   0  0  0  0  0  0  0  0  0  0  0  0
   -4.2598   -8.7437    1.9363 C   0  0  1  0  0  0  0  0  0  0  0  0
   -3.1259   -8.3932    2.7332 O   0  0  0  0  0  0  0  0  0  0  0  0
   -5.2118   -9.6139    2.7347 C   0  0  2  0  0  0  0  0  0  0  0  0
   -4.5861  -10.8663    2.9782 O   0  0  0  0  0  0  0  0  0  0  0  0
   -6.5220   -9.8526    1.9962 C   0  0  2  0  0  0  0  0  0  0  0  0
   -7.1007   -8.5818    1.7318 O   0  0  0  0  0  0  0  0  0  0  0  0
   -7.4837  -10.7183    2.8189 C   0  0  0  0  0  0  0  0  0  0  0  0
   -7.7126  -10.2034    4.1388 O   0  0  0  0  0  0  0  0  0  0  0  0
  1  2  1  0  0  0  0
  3  1  1  1  0  0  0
  3  9  1  0  0  0  0
  3  4  1  0  0  0  0
  4  5  1  6  0  0  0
  4  6  1  0  0  0  0
  6  7  1  1  0  0  0
  6  8  1  0  0  0  0
  8  9  1  0  0  0  0
  8 10  1  6  0  0  0
  8 13  1  0  0  0  0
 10 11  1  0  0  0  0
 12 13  1  6  0  0  0
 12 14  1  0  0  0  0
 12 21  1  0  0  0  0
 14 15  1  6  0  0  0
 14 16  1  0  0  0  0
 16 17  1  1  0  0  0
 16 18  1  0  0  0  0
 18 19  1  6  0  0  0
 18 20  1  0  0  0  0
 20 21  1  0  0  0  0
 20 22  1  1  0  0  0
 22 23  1  0  0  0  0
M  END
>  <CHROM.1>
-179.94194716,55.19360339,-152.00882990,-161.91390511,53.52050457,-6.77658278
-9.04671838,0.23320144,2.26413015,-0.48543782,-1.19409348

>  <Name>
ligand

>  <RI>
0

>  <Rbt.Current_Directory>
/home/itssahil/PROJECTS/Mol_Feturizer/New_Systems/rnas/4TS2

>  <Rbt.Executable>
rbdock ($Id: //depot/dev/client3/rdock/2013.1/src/exe/rbdock.cxx#4 $)

>  <Rbt.Library>
libRbt.so (2013.1, Build901 2013/11/27)

>  <Rbt.Parameter_File>
/export/apps/rDock/src/rDock_2013.1_src/data/scripts/dock_solv.prm

>  <Rbt.Receptor>
prm/pocket_docking_7.prm

>  <SCORE>
-9.24591

>  <SCORE.INTER>
-3.91158

>  <SCORE.INTER.CONST>
1

>  <SCORE.INTER.POLAR>
0

>  <SCORE.INTER.ROT>
5

>  <SCORE.INTER.SOLV>
8.01617

>  <SCORE.INTER.VDW>
-12.2131

>  <SCORE.INTER.norm>
-0.170069

>  <SCORE.INTRA>
-5.33434

>  <SCORE.INTRA.DIHEDRAL>
-7.75924

>  <SCORE.INTRA.DIHEDRAL.0>
12.4853

>  <SCORE.INTRA.POLAR>
0

>  <SCORE.INTRA.POLAR.0>
0

>  <SCORE.INTRA.REPUL>
0

>  <SCORE.INTRA.REPUL.0>
0

>  <SCORE.INTRA.SOLV>
0.120644

>  <SCORE.INTRA.SOLV.lig_0>
-31.1706

>  <SCORE.INTRA.VDW>
-1.51504

>  <SCORE.INTRA.VDW.0>
-1.16895

>  <SCORE.INTRA.norm>
-0.231928

>  <SCORE.RESTR>
0

>  <SCORE.RESTR.CAVITY>
0

>  <SCORE.RESTR.norm>
0

>  <SCORE.SYSTEM>
0

>  <SCORE.SYSTEM.CONST>
0

>  <SCORE.SYSTEM.DIHEDRAL>
0

>  <SCORE.SYSTEM.SOLV>
0

>  <SCORE.SYSTEM.norm>
0

>  <SCORE.heavy>
23

>  <SCORE.norm>
-0.401996

>  <RMSD>
0.925

$$$$
ligand
 OpenBabel11021811513D
libRbt.so/2013.1/901 2013/11/27
 23 24  0  0  0  0  0  0  0  0999 V2000
   -9.7500  -10.3718   -0.1673 C   0  0  0  0  0  0  0  0  0  0  0  0
  -10.7867   -9.5053    0.3324 O   0  0  0  0  0  0  0  0  0  0  0  0
   -8.9611   -9.6336   -1.2393 C   0  0  2  0  0  0  0  0  0  0  0  0
   -7.8167  -10.4146   -1.8668 C   0  0  1  0  0  0  0  0  0  0  0  0
   -8.3380  -11.3136   -2.8478 O   0  0  0  0  0  0  0  0  0  0  0  0
   -6.9553   -9.2975   -2.4461 C   0  0  2  0  0  0  0  0  0  0  0  0
   -5.5720   -9.5633   -2.7074 O   0  0  0  0  0  0  0  0  0  0  0  0
   -7.0853   -8.2296   -1.3745 C   0  0  2  0  0  0  0  0  0  0  0  0
   -8.3538   -8.4469   -0.7208 O   0  0  0  0  0  0  0  0  0  0  0  0
   -7.0090   -6.8579   -2.0690 C   0  0  0  0  0  0  0  0  0  0  0  0
   -7.9843   -6.7183   -3.1115 O   0  0  0  0  0  0  0  0  0  0  0  0
   -6.3045   -7.7775    0.8646 C   0  0  2  0  0  0  0  0  0  0  0  0
   -6.0533   -8.4275   -0.3933 O   0  0  0  0  0  0  0  0  0  0  0  0
   -4.9583   -7.4453    1.4809 C   0  0  2  0  0  0  0  0  0  0  0  0
   -4.1370   -6.8034    0.4993 O   0  0  0  0  0  0  0  0  0  0  0  0
   -4.2542   -8.7075    1.9282 C   0  0  1  0  0  0  0  0  0  0  0  0
   -3.1194   -8.3412    2.7166 O   0  0  0  0  0  0  0  0  0  0  0  0
   -5.1916   -9.5849    2.7359 C   0  0  2  0  0  0  0  0  0  0  0  0
   -4.5505  -10.8293    2.9805 O   0  0  0  0  0  0  0  0  0  0  0  0
   -6.5036   -9.8411    2.0066 C   0  0  2  0  0  0  0  0  0  0  0  0
   -7.0979   -8.5779    1.7407 O   0  0  0  0  0  0  0  0  0  0  0  0
   -7.4505  -10.7141    2.8386 C   0  0  0  0  0  0  0  0  0  0  0  0
   -7.6893  -10.1882    4.1524 O   0  0  0  0  0  0  0  0  0  0  0  0
  1  2  1  0  0  0  0
  3  1  1  1  0  0  0
  3  9  1  0  0  0  0
  3  4  1  0  0  0  0
  4  5  1  6  0  0  0
  4  6  1  0  0  0  0
  6  7  1  1  0  0  0
  6  8  1  0  0  0  0
  8  9  1  0  0  0  0
  8 10  1  6  0  0  0
  8 13  1  0  0  0  0
 10 11  1  0  0  0  0
 12 13  1  6  0  0  0
 12 14  1  0  0  0  0
 12 21  1  0  0  0  0
 14 15  1  6  0  0  0
 14 16  1  0  0  0  0
 16 17  1  1  0  0  0
 16 18  1  0  0  0  0
 18 19  1  6  0  0  0
 18 20  1  0  0  0  0
 20 21  1  0  0  0  0
 20 22  1  1  0  0  0
 22 23  1  0  0  0  0
M  END
>  <CHROM.1>
179.67648258,55.25262524,-150.99809290,-161.30784113,54.20659535,-6.78206623
-9.02560930,0.23722989,2.27139896,-0.48194914,-1.19325752

>  <Name>
ligand

>  <RI>
0

>  <Rbt.Current_Directory>
/home/itssahil/PROJECTS/Mol_Feturizer/New_Systems/rnas/4TS2

>  <Rbt.Executable>
rbdock ($Id: //depot/dev/client3/rdock/2013.1/src/exe/rbdock.cxx#4 $)

>  <Rbt.Library>
libRbt.so (2013.1, Build901 2013/11/27)

>  <Rbt.Parameter_File>
/export/apps/rDock/src/rDock_2013.1_src/data/scripts/dock_solv.prm

>  <Rbt.Receptor>
prm/pocket_docking_3.prm

>  <SCORE>
-9.18456

>  <SCORE.INTER>
-3.97875

>  <SCORE.INTER.CONST>
1

>  <SCORE.INTER.POLAR>
0

>  <SCORE.INTER.ROT>
5

>  <SCORE.INTER.SOLV>
8.15855

>  <SCORE.INTER.VDW>
-12.3054

>  <SCORE.INTER.norm>
-0.172989

>  <SCORE.INTRA>
-5.20581

>  <SCORE.INTRA.DIHEDRAL>
-7.51419

>  <SCORE.INTRA.DIHEDRAL.0>
12.4853

>  <SCORE.INTRA.POLAR>
0

>  <SCORE.INTRA.POLAR.0>
0

>  <SCORE.INTRA.REPUL>
0

>  <SCORE.INTRA.REPUL.0>
0

>  <SCORE.INTRA.SOLV>
0.104513

>  <SCORE.INTRA.SOLV.lig_0>
-31.1706

>  <SCORE.INTRA.VDW>
-1.50097

>  <SCORE.INTRA.VDW.0>
-1.16895

>  <SCORE.INTRA.norm>
-0.226339

>  <SCORE.RESTR>
0

>  <SCORE.RESTR.CAVITY>
0

>  <SCORE.RESTR.norm>
0

>  <SCORE.SYSTEM>
0

>  <SCORE.SYSTEM.CONST>
0

>  <SCORE.SYSTEM.DIHEDRAL>
0

>  <SCORE.SYSTEM.SOLV>
0

>  <SCORE.SYSTEM.norm>
0

>  <SCORE.heavy>
23

>  <SCORE.norm>
-0.399329

>  <RMSD>
0.929

$$$$
ligand
 OpenBabel11021811513D
libRbt.so/2013.1/901 2013/11/27
 23 24  0  0  0  0  0  0  0  0999 V2000
   -9.8092  -10.3755    0.2206 C   0  0  0  0  0  0  0  0  0  0  0  0
  -10.8986   -9.5344    0.6463 O   0  0  0  0  0  0  0  0  0  0  0  0
   -9.0403   -9.6682   -0.8862 C   0  0  2  0  0  0  0  0  0  0  0  0
   -7.9238  -10.4762   -1.5295 C   0  0  1  0  0  0  0  0  0  0  0  0
   -8.4834  -11.3861   -2.4788 O   0  0  0  0  0  0  0  0  0  0  0  0
   -7.0640   -9.3819   -2.1531 C   0  0  2  0  0  0  0  0  0  0  0  0
   -5.6920   -9.6713   -2.4467 O   0  0  0  0  0  0  0  0  0  0  0  0
   -7.1507   -8.2925   -1.0988 C   0  0  2  0  0  0  0  0  0  0  0  0
   -8.4035   -8.4804   -0.4070 O   0  0  0  0  0  0  0  0  0  0  0  0
   -7.0755   -6.9352   -1.8210 C   0  0  0  0  0  0  0  0  0  0  0  0
   -8.0407   -6.8235   -2.8762 O   0  0  0  0  0  0  0  0  0  0  0  0
   -6.2056   -7.6629    1.0315 C   0  0  2  0  0  0  0  0  0  0  0  0
   -6.0949   -8.4861   -0.1424 O   0  0  0  0  0  0  0  0  0  0  0  0
   -4.7977   -7.3052    1.4699 C   0  0  2  0  0  0  0  0  0  0  0  0
   -4.0576   -6.8353    0.3378 O   0  0  0  0  0  0  0  0  0  0  0  0
   -4.0887   -8.5230    2.0205 C   0  0  1  0  0  0  0  0  0  0  0  0
   -2.8735   -8.0999    2.6433 O   0  0  0  0  0  0  0  0  0  0  0  0
   -4.9675   -9.2449    3.0242 C   0  0  2  0  0  0  0  0  0  0  0  0
   -4.3403  -10.4698    3.3784 O   0  0  0  0  0  0  0  0  0  0  0  0
   -6.3503   -9.5439    2.4608 C   0  0  2  0  0  0  0  0  0  0  0  0
   -6.9326   -8.3050    2.0788 O   0  0  0  0  0  0  0  0  0  0  0  0
   -7.2361  -10.2577    3.4888 C   0  0  0  0  0  0  0  0  0  0  0  0
   -6.7535  -11.5644    3.8342 O   0  0  0  0  0  0  0  0  0  0  0  0
  1  2  1  0  0  0  0
  3  1  1  1  0  0  0
  3  9  1  0  0  0  0
  3  4  1  0  0  0  0
  4  5  1  6  0  0  0
  4  6  1  0  0  0  0
  6  7  1  1  0  0  0
  6  8  1  0  0  0  0
  8  9  1  0  0  0  0
  8 10  1  6  0  0  0
  8 13  1  0  0  0  0
 10 11  1  0  0  0  0
 12 13  1  6  0  0  0
 12 14  1  0  0  0  0
 12 21  1  0  0  0  0
 14 15  1  6  0  0  0
 14 16  1  0  0  0  0
 16 17  1  1  0  0  0
 16 18  1  0  0  0  0
 18 19  1  6  0  0  0
 18 20  1  0  0  0  0
 20 21  1  0  0  0  0
 20 22  1  1  0  0  0
 22 23  1  0  0  0  0
M  END
>  <CHROM.1>
-175.03898148,52.82242232,-145.72248860,-169.72140031,-65.16238161,-6.70769688
-9.02229115,0.47023179,2.41138348,-0.51377395,-1.10692186

>  <Name>
ligand

>  <RI>
0

>  <Rbt.Current_Directory>
/home/itssahil/PROJECTS/Mol_Feturizer/New_Systems/rnas/4TS2

>  <Rbt.Executable>
rbdock ($Id: //depot/dev/client3/rdock/2013.1/src/exe/rbdock.cxx#4 $)

>  <Rbt.Library>
libRbt.so (2013.1, Build901 2013/11/27)

>  <Rbt.Parameter_File>
/export/apps/rDock/src/rDock_2013.1_src/data/scripts/dock_solv.prm

>  <Rbt.Receptor>
prm/pocket_docking_3.prm

>  <SCORE>
-9.20068

>  <SCORE.INTER>
-4.25848

>  <SCORE.INTER.CONST>
1

>  <SCORE.INTER.POLAR>
0

>  <SCORE.INTER.ROT>
5

>  <SCORE.INTER.SOLV>
7.53669

>  <SCORE.INTER.VDW>
-12.2846

>  <SCORE.INTER.norm>
-0.185151

>  <SCORE.INTRA>
-4.9422

>  <SCORE.INTRA.DIHEDRAL>
-7.37399

>  <SCORE.INTRA.DIHEDRAL.0>
12.4853

>  <SCORE.INTRA.POLAR>
0

>  <SCORE.INTRA.POLAR.0>
0

>  <SCORE.INTRA.REPUL>
0

>  <SCORE.INTRA.REPUL.0>
0

>  <SCORE.INTRA.SOLV>
-0.0970629

>  <SCORE.INTRA.SOLV.lig_0>
-31.1706

>  <SCORE.INTRA.VDW>
-1.20667

>  <SCORE.INTRA.VDW.0>
-1.16895

>  <SCORE.INTRA.norm>
-0.214878

>  <SCORE.RESTR>
0

>  <SCORE.RESTR.CAVITY>
0

>  <SCORE.RESTR.norm>
0

>  <SCORE.SYSTEM>
0

>  <SCORE.SYSTEM.CONST>
0

>  <SCORE.SYSTEM.DIHEDRAL>
0

>  <SCORE.SYSTEM.SOLV>
0

>  <SCORE.SYSTEM.norm>
0

>  <SCORE.heavy>
23

>  <SCORE.norm>
-0.40003

>  <RMSD>
0.932

$$$$
ligand
 OpenBabel11021811513D
libRbt.so/2013.1/901 2013/11/27
 23 24  0  0  0  0  0  0  0  0999 V2000
   -9.8208  -10.3195    0.2017 C   0  0  0  0  0  0  0  0  0  0  0  0
  -10.9126   -9.4659    0.5950 O   0  0  0  0  0  0  0  0  0  0  0  0
   -9.0287   -9.6339   -0.9024 C   0  0  2  0  0  0  0  0  0  0  0  0
   -7.9158  -10.4636   -1.5240 C   0  0  1  0  0  0  0  0  0  0  0  0
   -8.4765  -11.3752   -2.4711 O   0  0  0  0  0  0  0  0  0  0  0  0
   -7.0333   -9.3876   -2.1476 C   0  0  2  0  0  0  0  0  0  0  0  0
   -5.6620   -9.6988   -2.4214 O   0  0  0  0  0  0  0  0  0  0  0  0
   -7.1177   -8.2867   -1.1052 C   0  0  2  0  0  0  0  0  0  0  0  0
   -8.3813   -8.4503   -0.4270 O   0  0  0  0  0  0  0  0  0  0  0  0
   -7.0148   -6.9378   -1.8396 C   0  0  0  0  0  0  0  0  0  0  0  0
   -7.9947   -6.8052   -2.8788 O   0  0  0  0  0  0  0  0  0  0  0  0
   -6.2004   -7.6624    1.0388 C   0  0  2  0  0  0  0  0  0  0  0  0
   -6.0764   -8.4853   -0.1340 O   0  0  0  0  0  0  0  0  0  0  0  0
   -4.7975   -7.3038    1.4924 C   0  0  2  0  0  0  0  0  0  0  0  0
   -4.0455   -6.8332    0.3685 O   0  0  0  0  0  0  0  0  0  0  0  0
   -4.0937   -8.5212    2.0505 C   0  0  1  0  0  0  0  0  0  0  0  0
   -2.8856   -8.0974    2.6864 O   0  0  0  0  0  0  0  0  0  0  0  0
   -4.9828   -9.2439    3.0445 C   0  0  2  0  0  0  0  0  0  0  0  0
   -4.3586  -10.4685    3.4052 O   0  0  0  0  0  0  0  0  0  0  0  0
   -6.3592   -9.5438    2.4661 C   0  0  2  0  0  0  0  0  0  0  0  0
   -6.9382   -8.3052    2.0780 O   0  0  0  0  0  0  0  0  0  0  0  0
   -7.2556  -10.2584    3.4843 C   0  0  0  0  0  0  0  0  0  0  0  0
   -6.7771  -11.5657    3.8330 O   0  0  0  0  0  0  0  0  0  0  0  0
  1  2  1  0  0  0  0
  3  1  1  1  0  0  0
  3  9  1  0  0  0  0
  3  4  1  0  0  0  0
  4  5  1  6  0  0  0
  4  6  1  0  0  0  0
  6  7  1  1  0  0  0
  6  8  1  0  0  0  0
  8  9  1  0  0  0  0
  8 10  1  6  0  0  0
  8 13  1  0  0  0  0
 10 11  1  0  0  0  0
 12 13  1  6  0  0  0
 12 14  1  0  0  0  0
 12 21  1  0  0  0  0
 14 15  1  6  0  0  0
 14 16  1  0  0  0  0
 16 17  1  1  0  0  0
 16 18  1  0  0  0  0
 18 19  1  6  0  0  0
 18 20  1  0  0  0  0
 20 21  1  0  0  0  0
 20 22  1  1  0  0  0
 22 23  1  0  0  0  0
M  END
>  <CHROM.1>
-174.38555672,54.76444456,-145.38014146,-168.89359331,-65.26018018,-6.70125982
-9.01302718,0.47452797,2.40294599,-0.51222206,-1.11021262

>  <Name>
ligand

>  <RI>
0

>  <Rbt.Current_Directory>
/home/itssahil/PROJECTS/Mol_Feturizer/New_Systems/rnas/4TS2

>  <Rbt.Executable>
rbdock ($Id: //depot/dev/client3/rdock/2013.1/src/exe/rbdock.cxx#4 $)

>  <Rbt.Library>
libRbt.so (2013.1, Build901 2013/11/27)

>  <Rbt.Parameter_File>
/export/apps/rDock/src/rDock_2013.1_src/data/scripts/dock_solv.prm

>  <Rbt.Receptor>
prm/pocket_docking_3.prm

>  <SCORE>
-9.18711

>  <SCORE.INTER>
-4.25757

>  <SCORE.INTER.CONST>
1

>  <SCORE.INTER.POLAR>
0

>  <SCORE.INTER.ROT>
5

>  <SCORE.INTER.SOLV>
7.56765

>  <SCORE.INTER.VDW>
-12.2943

>  <SCORE.INTER.norm>
-0.185112

>  <SCORE.INTRA>
-4.92954

>  <SCORE.INTRA.DIHEDRAL>
-7.2802

>  <SCORE.INTRA.DIHEDRAL.0>
12.4853

>  <SCORE.INTRA.POLAR>
0

>  <SCORE.INTRA.POLAR.0>
0

>  <SCORE.INTRA.REPUL>
0

>  <SCORE.INTRA.REPUL.0>
0

>  <SCORE.INTRA.SOLV>
-0.101707

>  <SCORE.INTRA.SOLV.lig_0>
-31.1706

>  <SCORE.INTRA.VDW>
-1.23858

>  <SCORE.INTRA.VDW.0>
-1.16895

>  <SCORE.INTRA.norm>
-0.214328

>  <SCORE.RESTR>
0

>  <SCORE.RESTR.CAVITY>
0

>  <SCORE.RESTR.norm>
0

>  <SCORE.SYSTEM>
0

>  <SCORE.SYSTEM.CONST>
0

>  <SCORE.SYSTEM.DIHEDRAL>
0

>  <SCORE.SYSTEM.SOLV>
0

>  <SCORE.SYSTEM.norm>
0

>  <SCORE.heavy>
23

>  <SCORE.norm>
-0.39944

>  <RMSD>
0.936

$$$$
ligand
 OpenBabel11021811513D
libRbt.so/2013.1/901 2013/11/27
 23 24  0  0  0  0  0  0  0  0999 V2000
   -9.7875  -10.3411    0.2368 C   0  0  0  0  0  0  0  0  0  0  0  0
  -10.8959   -9.5082    0.6279 O   0  0  0  0  0  0  0  0  0  0  0  0
   -9.0191   -9.6507   -0.8810 C   0  0  2  0  0  0  0  0  0  0  0  0
   -7.9061  -10.4702   -1.5159 C   0  0  1  0  0  0  0  0  0  0  0  0
   -8.4703  -11.3912   -2.4517 O   0  0  0  0  0  0  0  0  0  0  0  0
   -7.0448   -9.3867   -2.1558 C   0  0  2  0  0  0  0  0  0  0  0  0
   -5.6742   -9.6836   -2.4484 O   0  0  0  0  0  0  0  0  0  0  0  0
   -7.1263   -8.2831   -1.1160 C   0  0  2  0  0  0  0  0  0  0  0  0
   -8.3781   -8.4583   -0.4190 O   0  0  0  0  0  0  0  0  0  0  0  0
   -7.0490   -6.9357   -1.8564 C   0  0  0  0  0  0  0  0  0  0  0  0
   -8.0365   -6.8232   -2.8907 O   0  0  0  0  0  0  0  0  0  0  0  0
   -6.1897   -7.6473    1.0162 C   0  0  2  0  0  0  0  0  0  0  0  0
   -6.0690   -8.4668   -0.1593 O   0  0  0  0  0  0  0  0  0  0  0  0
   -4.7854   -7.2956    1.4709 C   0  0  2  0  0  0  0  0  0  0  0  0
   -4.0318   -6.8240    0.3484 O   0  0  0  0  0  0  0  0  0  0  0  0
   -4.0861   -8.5175    2.0247 C   0  0  1  0  0  0  0  0  0  0  0  0
   -2.8763   -8.1004    2.6619 O   0  0  0  0  0  0  0  0  0  0  0  0
   -4.9778   -9.2402    3.0164 C   0  0  2  0  0  0  0  0  0  0  0  0
   -4.3581  -10.4683    3.3729 O   0  0  0  0  0  0  0  0  0  0  0  0
   -6.3554   -9.5329    2.4372 C   0  0  2  0  0  0  0  0  0  0  0  0
   -6.9298   -8.2909    2.0534 O   0  0  0  0  0  0  0  0  0  0  0  0
   -7.2543  -10.2476    3.4531 C   0  0  0  0  0  0  0  0  0  0  0  0
   -6.7997  -11.5711    3.7712 O   0  0  0  0  0  0  0  0  0  0  0  0
  1  2  1  0  0  0  0
  3  1  1  1  0  0  0
  3  9  1  0  0  0  0
  3  4  1  0  0  0  0
  4  5  1  6  0  0  0
  4  6  1  0  0  0  0
  6  7  1  1  0  0  0
  6  8  1  0  0  0  0
  8  9  1  0  0  0  0
  8 10  1  6  0  0  0
  8 13  1  0  0  0  0
 10 11  1  0  0  0  0
 12 13  1  6  0  0  0
 12 14  1  0  0  0  0
 12 21  1  0  0  0  0
 14 15  1  6  0  0  0
 14 16  1  0  0  0  0
 16 17  1  1  0  0  0
 16 18  1  0  0  0  0
 18 19  1  6  0  0  0
 18 20  1  0  0  0  0
 20 21  1  0  0  0  0
 20 22  1  1  0  0  0
 22 23  1  0  0  0  0
M  END
>  <CHROM.1>
-173.44716543,54.16974832,-146.73283984,-168.51557537,-66.77467306,-6.70026985
-9.01420654,0.46147678,2.41407038,-0.51427261,-1.10686463

>  <Name>
ligand

>  <RI>
0

>  <Rbt.Current_Directory>
/home/itssahil/PROJECTS/Mol_Feturizer/New_Systems/rnas/4TS2

>  <Rbt.Executable>
rbdock ($Id: //depot/dev/client3/rdock/2013.1/src/exe/rbdock.cxx#4 $)

>  <Rbt.Library>
libRbt.so (2013.1, Build901 2013/11/27)

>  <Rbt.Parameter_File>
/export/apps/rDock/src/rDock_2013.1_src/data/scripts/dock_solv.prm

>  <Rbt.Receptor>
prm/pocket_docking_3.prm

>  <SCORE>
-9.21182

>  <SCORE.INTER>
-4.19447

>  <SCORE.INTER.CONST>
1

>  <SCORE.INTER.POLAR>
0

>  <SCORE.INTER.ROT>
5

>  <SCORE.INTER.SOLV>
7.55045

>  <SCORE.INTER.VDW>
-12.2465

>  <SCORE.INTER.norm>
-0.182368

>  <SCORE.INTRA>
-5.01735

>  <SCORE.INTRA.DIHEDRAL>
-7.36891

>  <SCORE.INTRA.DIHEDRAL.0>
12.4853

>  <SCORE.INTRA.POLAR>
0

>  <SCORE.INTRA.POLAR.0>
0

>  <SCORE.INTRA.REPUL>
0

>  <SCORE.INTRA.REPUL.0>
0

>  <SCORE.INTRA.SOLV>
-0.0990846

>  <SCORE.INTRA.SOLV.lig_0>
-31.1706

>  <SCORE.INTRA.VDW>
-1.28335

>  <SCORE.INTRA.VDW.0>
-1.16895

>  <SCORE.INTRA.norm>
-0.218145

>  <SCORE.RESTR>
0

>  <SCORE.RESTR.CAVITY>
0

>  <SCORE.RESTR.norm>
0

>  <SCORE.SYSTEM>
0

>  <SCORE.SYSTEM.CONST>
0

>  <SCORE.SYSTEM.DIHEDRAL>
0

>  <SCORE.SYSTEM.SOLV>
0

>  <SCORE.SYSTEM.norm>
0

>  <SCORE.heavy>
23

>  <SCORE.norm>
-0.400514

>  <RMSD>
0.941

$$$$
ligand
 OpenBabel11021811513D
libRbt.so/2013.1/901 2013/11/27
 23 24  0  0  0  0  0  0  0  0999 V2000
   -9.9618  -10.3889    0.1212 C   0  0  0  0  0  0  0  0  0  0  0  0
  -10.9913   -9.6021    0.7509 O   0  0  0  0  0  0  0  0  0  0  0  0
   -9.3075   -9.5617   -0.9761 C   0  0  2  0  0  0  0  0  0  0  0  0
   -8.2380  -10.2765   -1.7876 C   0  0  1  0  0  0  0  0  0  0  0  0
   -8.8630  -11.1092   -2.7665 O   0  0  0  0  0  0  0  0  0  0  0  0
   -7.4573   -9.1066   -2.3771 C   0  0  2  0  0  0  0  0  0  0  0  0
   -6.1118   -9.3308   -2.8147 O   0  0  0  0  0  0  0  0  0  0  0  0
   -7.4700   -8.1224   -1.2208 C   0  0  2  0  0  0  0  0  0  0  0  0
   -8.6526   -8.4069   -0.4437 O   0  0  0  0  0  0  0  0  0  0  0  0
   -7.4843   -6.7024   -1.8150 C   0  0  0  0  0  0  0  0  0  0  0  0
   -6.3002   -6.4148   -2.5719 O   0  0  0  0  0  0  0  0  0  0  0  0
   -6.4069   -7.7635    0.9167 C   0  0  2  0  0  0  0  0  0  0  0  0
   -6.3299   -8.3756   -0.3823 O   0  0  0  0  0  0  0  0  0  0  0  0
   -4.9856   -7.5260    1.3919 C   0  0  2  0  0  0  0  0  0  0  0  0
   -4.2407   -6.8894    0.3478 O   0  0  0  0  0  0  0  0  0  0  0  0
   -4.3088   -8.8396    1.7164 C   0  0  1  0  0  0  0  0  0  0  0  0
   -3.0768   -8.5640    2.3869 O   0  0  0  0  0  0  0  0  0  0  0  0
   -5.2009   -9.6984    2.5925 C   0  0  2  0  0  0  0  0  0  0  0  0
   -4.6076  -10.9830    2.7233 O   0  0  0  0  0  0  0  0  0  0  0  0
   -6.5963   -9.8574    2.0039 C   0  0  2  0  0  0  0  0  0  0  0  0
   -7.1445   -8.5555    1.8475 O   0  0  0  0  0  0  0  0  0  0  0  0
   -7.4949  -10.7121    2.9055 C   0  0  0  0  0  0  0  0  0  0  0  0
   -7.5917  -10.2046    4.2444 O   0  0  0  0  0  0  0  0  0  0  0  0
  1  2  1  0  0  0  0
  3  1  1  1  0  0  0
  3  9  1  0  0  0  0
  3  4  1  0  0  0  0
  4  5  1  6  0  0  0
  4  6  1  0  0  0  0
  6  7  1  1  0  0  0
  6  8  1  0  0  0  0
  8  9  1  0  0  0  0
  8 10  1  6  0  0  0
  8 13  1  0  0  0  0
 10 11  1  0  0  0  0
 12 13  1  6  0  0  0
 12 14  1  0  0  0  0
 12 21  1  0  0  0  0
 14 15  1  6  0  0  0
 14 16  1  0  0  0  0
 16 17  1  1  0  0  0
 16 18  1  0  0  0  0
 18 19  1  6  0  0  0
 18 20  1  0  0  0  0
 20 21  1  0  0  0  0
 20 22  1  1  0  0  0
 22 23  1  0  0  0  0
M  END
>  <CHROM.1>
-177.15168666,-63.38991181,-152.95459220,-164.45991044,55.91995692,-6.89809108
-8.99969672,0.30155541,2.36141910,-0.44510083,-1.16007680

>  <Name>
ligand

>  <RI>
0

>  <Rbt.Current_Directory>
/home/itssahil/PROJECTS/Mol_Feturizer/New_Systems/rnas/4TS2

>  <Rbt.Executable>
rbdock ($Id: //depot/dev/client3/rdock/2013.1/src/exe/rbdock.cxx#4 $)

>  <Rbt.Library>
libRbt.so (2013.1, Build901 2013/11/27)

>  <Rbt.Parameter_File>
/export/apps/rDock/src/rDock_2013.1_src/data/scripts/dock_solv.prm

>  <Rbt.Receptor>
prm/pocket_docking_3.prm

>  <SCORE>
-9.82989

>  <SCORE.INTER>
-4.05421

>  <SCORE.INTER.CONST>
1

>  <SCORE.INTER.POLAR>
0

>  <SCORE.INTER.ROT>
5

>  <SCORE.INTER.SOLV>
8.17115

>  <SCORE.INTER.VDW>
-12.3599

>  <SCORE.INTER.norm>
-0.17627

>  <SCORE.INTRA>
-5.77568

>  <SCORE.INTRA.DIHEDRAL>
-8.36918

>  <SCORE.INTRA.DIHEDRAL.0>
12.4853

>  <SCORE.INTRA.POLAR>
0

>  <SCORE.INTRA.POLAR.0>
0

>  <SCORE.INTRA.REPUL>
0

>  <SCORE.INTRA.REPUL.0>
0

>  <SCORE.INTRA.SOLV>
0.338597

>  <SCORE.INTRA.SOLV.lig_0>
-31.1706

>  <SCORE.INTRA.VDW>
-1.76039

>  <SCORE.INTRA.VDW.0>
-1.16895

>  <SCORE.INTRA.norm>
-0.251116

>  <SCORE.RESTR>
0

>  <SCORE.RESTR.CAVITY>
0

>  <SCORE.RESTR.norm>
0

>  <SCORE.SYSTEM>
0

>  <SCORE.SYSTEM.CONST>
0

>  <SCORE.SYSTEM.DIHEDRAL>
0

>  <SCORE.SYSTEM.SOLV>
0

>  <SCORE.SYSTEM.norm>
0

>  <SCORE.heavy>
23

>  <SCORE.norm>
-0.427387

>  <RMSD>
0.941

$$$$
ligand
 OpenBabel11021811513D
libRbt.so/2013.1/901 2013/11/27
 23 24  0  0  0  0  0  0  0  0999 V2000
  -10.5658  -10.0577   -0.0848 C   0  0  0  0  0  0  0  0  0  0  0  0
  -11.5029   -9.0468    0.3340 O   0  0  0  0  0  0  0  0  0  0  0  0
   -9.8011   -9.5517   -1.2996 C   0  0  2  0  0  0  0  0  0  0  0  0
   -8.8566  -10.5541   -1.9450 C   0  0  1  0  0  0  0  0  0  0  0  0
   -9.6061  -11.4484   -2.7700 O   0  0  0  0  0  0  0  0  0  0  0  0
   -7.9121   -9.6413   -2.7197 C   0  0  2  0  0  0  0  0  0  0  0  0
   -6.6185  -10.1400   -3.0804 O   0  0  0  0  0  0  0  0  0  0  0  0
   -7.7691   -8.4721   -1.7614 C   0  0  2  0  0  0  0  0  0  0  0  0
   -8.9762   -8.4302   -0.9713 O   0  0  0  0  0  0  0  0  0  0  0  0
   -7.5727   -7.1983   -2.6032 C   0  0  0  0  0  0  0  0  0  0  0  0
   -7.4860   -6.0168   -1.7945 O   0  0  0  0  0  0  0  0  0  0  0  0
   -6.7350   -8.0018    0.3687 C   0  0  2  0  0  0  0  0  0  0  0  0
   -6.6751   -8.7356   -0.8666 O   0  0  0  0  0  0  0  0  0  0  0  0
   -5.3102   -7.6629    0.7653 C   0  0  2  0  0  0  0  0  0  0  0  0
   -4.6282   -7.1037   -0.3627 O   0  0  0  0  0  0  0  0  0  0  0  0
   -4.5675   -8.9105    1.1905 C   0  0  1  0  0  0  0  0  0  0  0  0
   -3.3267   -8.5219    1.7847 O   0  0  0  0  0  0  0  0  0  0  0  0
   -5.3924   -9.7131    2.1786 C   0  0  2  0  0  0  0  0  0  0  0  0
   -4.7407  -10.9542    2.4114 O   0  0  0  0  0  0  0  0  0  0  0  0
   -6.7985   -9.9840    1.6606 C   0  0  2  0  0  0  0  0  0  0  0  0
   -7.4067   -8.7265    1.3989 O   0  0  0  0  0  0  0  0  0  0  0  0
   -7.6293  -10.7803    2.6738 C   0  0  0  0  0  0  0  0  0  0  0  0
   -7.6681  -10.1689    3.9716 O   0  0  0  0  0  0  0  0  0  0  0  0
  1  2  1  0  0  0  0
  3  1  1  1  0  0  0
  3  9  1  0  0  0  0
  3  4  1  0  0  0  0
  4  5  1  6  0  0  0
  4  6  1  0  0  0  0
  6  7  1  1  0  0  0
  6  8  1  0  0  0  0
  8  9  1  0  0  0  0
  8 10  1  6  0  0  0
  8 13  1  0  0  0  0
 10 11  1  0  0  0  0
 12 13  1  6  0  0  0
 12 14  1  0  0  0  0
 12 21  1  0  0  0  0
 14 15  1  6  0  0  0
 14 16  1  0  0  0  0
 16 17  1  1  0  0  0
 16 18  1  0  0  0  0
 18 19  1  6  0  0  0
 18 20  1  0  0  0  0
 20 21  1  0  0  0  0
 20 22  1  1  0  0  0
 22 23  1  0  0  0  0
M  END
>  <CHROM.1>
-174.65535015,177.37691549,-145.07623562,-157.68247758,54.05724235,-7.28159603
-9.11720899,-0.05349403,2.50105213,-0.40081907,-1.14750560

>  <Name>
ligand

>  <RI>
0

>  <Rbt.Current_Directory>
/home/itssahil/PROJECTS/Mol_Feturizer/New_Systems/rnas/4TS2

>  <Rbt.Executable>
rbdock ($Id: //depot/dev/client3/rdock/2013.1/src/exe/rbdock.cxx#4 $)

>  <Rbt.Library>
libRbt.so (2013.1, Build901 2013/11/27)

>  <Rbt.Parameter_File>
/export/apps/rDock/src/rDock_2013.1_src/data/scripts/dock_solv.prm

>  <Rbt.Receptor>
prm/pocket_docking_6.prm

>  <SCORE>
-8.29755

>  <SCORE.INTER>
-3.87053

>  <SCORE.INTER.CONST>
1

>  <SCORE.INTER.POLAR>
0

>  <SCORE.INTER.ROT>
5

>  <SCORE.INTER.SOLV>
9.1983

>  <SCORE.INTER.VDW>
-12.5798

>  <SCORE.INTER.norm>
-0.168284

>  <SCORE.INTRA>
-4.42701

>  <SCORE.INTRA.DIHEDRAL>
-5.77955

>  <SCORE.INTRA.DIHEDRAL.0>
12.4853

>  <SCORE.INTRA.POLAR>
0

>  <SCORE.INTRA.POLAR.0>
0

>  <SCORE.INTRA.REPUL>
0

>  <SCORE.INTRA.REPUL.0>
0

>  <SCORE.INTRA.SOLV>
0.203267

>  <SCORE.INTRA.SOLV.lig_0>
-31.1706

>  <SCORE.INTRA.VDW>
-1.63887

>  <SCORE.INTRA.VDW.0>
-1.16895

>  <SCORE.INTRA.norm>
-0.192479

>  <SCORE.RESTR>
0

>  <SCORE.RESTR.CAVITY>
0

>  <SCORE.RESTR.norm>
0

>  <SCORE.SYSTEM>
0

>  <SCORE.SYSTEM.CONST>
0

>  <SCORE.SYSTEM.DIHEDRAL>
0

>  <SCORE.SYSTEM.SOLV>
0

>  <SCORE.SYSTEM.norm>
0

>  <SCORE.heavy>
23

>  <SCORE.norm>
-0.360763

>  <RMSD>
0.944

$$$$
ligand
 OpenBabel11021811513D
libRbt.so/2013.1/901 2013/11/27
 23 24  0  0  0  0  0  0  0  0999 V2000
   -9.9544  -11.5755    0.2360 C   0  0  0  0  0  0  0  0  0  0  0  0
  -11.0685  -10.7927    0.7064 O   0  0  0  0  0  0  0  0  0  0  0  0
   -9.3933  -10.9318   -1.0239 C   0  0  2  0  0  0  0  0  0  0  0  0
   -8.2308  -11.6660   -1.6743 C   0  0  1  0  0  0  0  0  0  0  0  0
   -8.7322  -12.7636   -2.4399 O   0  0  0  0  0  0  0  0  0  0  0  0
   -7.5947  -10.5640   -2.5148 C   0  0  2  0  0  0  0  0  0  0  0  0
   -6.2255  -10.7073   -2.9109 O   0  0  0  0  0  0  0  0  0  0  0  0
   -7.7475   -9.3612   -1.6006 C   0  0  2  0  0  0  0  0  0  0  0  0
   -8.8962   -9.6158   -0.7646 O   0  0  0  0  0  0  0  0  0  0  0  0
   -7.9312   -8.1180   -2.4897 C   0  0  0  0  0  0  0  0  0  0  0  0
   -7.9892   -6.9045   -1.7270 O   0  0  0  0  0  0  0  0  0  0  0  0
   -6.7759   -8.4306    0.4038 C   0  0  2  0  0  0  0  0  0  0  0  0
   -6.5969   -9.2804   -0.7424 O   0  0  0  0  0  0  0  0  0  0  0  0
   -5.4013   -7.9546    0.8354 C   0  0  2  0  0  0  0  0  0  0  0  0
   -4.6916   -7.4671   -0.3087 O   0  0  0  0  0  0  0  0  0  0  0  0
   -4.6065   -9.0975    1.4277 C   0  0  1  0  0  0  0  0  0  0  0  0
   -3.4301   -8.5649    2.0408 O   0  0  0  0  0  0  0  0  0  0  0  0
   -5.4349   -9.8507    2.4511 C   0  0  2  0  0  0  0  0  0  0  0  0
   -4.7199  -11.0133    2.8471 O   0  0  0  0  0  0  0  0  0  0  0  0
   -6.7880  -10.2704    1.8928 C   0  0  2  0  0  0  0  0  0  0  0  0
   -7.4590   -9.0915    1.4687 O   0  0  0  0  0  0  0  0  0  0  0  0
   -7.6241  -11.0153    2.9402 C   0  0  0  0  0  0  0  0  0  0  0  0
   -7.8161  -10.2601    4.1454 O   0  0  0  0  0  0  0  0  0  0  0  0
  1  2  1  0  0  0  0
  3  1  1  1  0  0  0
  3  9  1  0  0  0  0
  3  4  1  0  0  0  0
  4  5  1  6  0  0  0
  4  6  1  0  0  0  0
  6  7  1  1  0  0  0
  6  8  1  0  0  0  0
  8  9  1  0  0  0  0
  8 10  1  6  0  0  0
  8 13  1  0  0  0  0
 10 11  1  0  0  0  0
 12 13  1  6  0  0  0
 12 14  1  0  0  0  0
 12 21  1  0  0  0  0
 14 15  1  6  0  0  0
 14 16  1  0  0  0  0
 16 17  1  1  0  0  0
 16 18  1  0  0  0  0
 18 19  1  6  0  0  0
 18 20  1  0  0  0  0
 20 21  1  0  0  0  0
 20 22  1  1  0  0  0
 22 23  1  0  0  0  0
M  END
>  <CHROM.1>
-178.17755289,-175.78568710,-155.14040930,-163.56956643,56.04969850,-7.17692882
-9.78931290,0.15212799,2.51335595,-0.59259421,-1.27711056

>  <Name>
ligand

>  <RI>
0

>  <Rbt.Current_Directory>
/home/itssahil/PROJECTS/Mol_Feturizer/New_Systems/rnas/4TS2

>  <Rbt.Executable>
rbdock ($Id: //depot/dev/client3/rdock/2013.1/src/exe/rbdock.cxx#4 $)

>  <Rbt.Library>
libRbt.so (2013.1, Build901 2013/11/27)

>  <Rbt.Parameter_File>
/export/apps/rDock/src/rDock_2013.1_src/data/scripts/dock_solv.prm

>  <Rbt.Receptor>
prm/pocket_docking_2.prm

>  <SCORE>
-6.11058

>  <SCORE.INTER>
-0.215387

>  <SCORE.INTER.CONST>
1

>  <SCORE.INTER.POLAR>
0

>  <SCORE.INTER.ROT>
5

>  <SCORE.INTER.SOLV>
5.41265

>  <SCORE.INTER.VDW>
-8.88114

>  <SCORE.INTER.norm>
-0.00936465

>  <SCORE.INTRA>
-5.8952

>  <SCORE.INTRA.DIHEDRAL>
-8.60043

>  <SCORE.INTRA.DIHEDRAL.0>
12.4853

>  <SCORE.INTRA.POLAR>
0

>  <SCORE.INTRA.POLAR.0>
0

>  <SCORE.INTRA.REPUL>
0

>  <SCORE.INTRA.REPUL.0>
0

>  <SCORE.INTRA.SOLV>
0.362696

>  <SCORE.INTRA.SOLV.lig_0>
-31.1706

>  <SCORE.INTRA.VDW>
-1.77633

>  <SCORE.INTRA.VDW.0>
-1.16895

>  <SCORE.INTRA.norm>
-0.256313

>  <SCORE.RESTR>
0

>  <SCORE.RESTR.CAVITY>
0

>  <SCORE.RESTR.norm>
0

>  <SCORE.SYSTEM>
0

>  <SCORE.SYSTEM.CONST>
0

>  <SCORE.SYSTEM.DIHEDRAL>
0

>  <SCORE.SYSTEM.SOLV>
0

>  <SCORE.SYSTEM.norm>
0

>  <SCORE.heavy>
23

>  <SCORE.norm>
-0.265678

>  <RMSD>
0.948

$$$$
ligand
 OpenBabel11021811513D
libRbt.so/2013.1/901 2013/11/27
 23 24  0  0  0  0  0  0  0  0999 V2000
  -10.9826   -9.6489    0.4384 C   0  0  0  0  0  0  0  0  0  0  0  0
  -11.9970  -10.5333   -0.0757 O   0  0  0  0  0  0  0  0  0  0  0  0
  -10.1561   -9.1147   -0.7226 C   0  0  2  0  0  0  0  0  0  0  0  0
   -9.3623  -10.1557   -1.4970 C   0  0  1  0  0  0  0  0  0  0  0  0
  -10.2309  -10.8337   -2.4070 O   0  0  0  0  0  0  0  0  0  0  0  0
   -8.3003   -9.2983   -2.1770 C   0  0  2  0  0  0  0  0  0  0  0  0
   -7.0898   -9.9260   -2.6163 O   0  0  0  0  0  0  0  0  0  0  0  0
   -7.9934   -8.2813   -1.0919 C   0  0  2  0  0  0  0  0  0  0  0  0
   -9.1818   -8.1652   -0.2808 O   0  0  0  0  0  0  0  0  0  0  0  0
   -7.6217   -6.9570   -1.7831 C   0  0  0  0  0  0  0  0  0  0  0  0
   -6.4282   -7.0682   -2.5710 O   0  0  0  0  0  0  0  0  0  0  0  0
   -6.6237   -7.9596    0.8698 C   0  0  2  0  0  0  0  0  0  0  0  0
   -6.9460   -8.7977   -0.2535 O   0  0  0  0  0  0  0  0  0  0  0  0
   -5.1133   -7.8214    0.9148 C   0  0  2  0  0  0  0  0  0  0  0  0
   -4.6331   -7.4792   -0.3900 O   0  0  0  0  0  0  0  0  0  0  0  0
   -4.4732   -9.1306    1.3211 C   0  0  1  0  0  0  0  0  0  0  0  0
   -3.0890   -8.8967    1.5906 O   0  0  0  0  0  0  0  0  0  0  0  0
   -5.1565   -9.7012    2.5493 C   0  0  2  0  0  0  0  0  0  0  0  0
   -4.6467  -11.0061    2.7873 O   0  0  0  0  0  0  0  0  0  0  0  0
   -6.6668   -9.7862    2.3744 C   0  0  2  0  0  0  0  0  0  0  0  0
   -7.1389   -8.4746    2.0973 O   0  0  0  0  0  0  0  0  0  0  0  0
   -7.3492  -10.3475    3.6275 C   0  0  0  0  0  0  0  0  0  0  0  0
   -7.0068  -11.7168    3.8871 O   0  0  0  0  0  0  0  0  0  0  0  0
  1  2  1  0  0  0  0
  3  1  1  1  0  0  0
  3  9  1  0  0  0  0
  3  4  1  0  0  0  0
  4  5  1  6  0  0  0
  4  6  1  0  0  0  0
  6  7  1  1  0  0  0
  6  8  1  0  0  0  0
  8  9  1  0  0  0  0
  8 10  1  6  0  0  0
  8 13  1  0  0  0  0
 10 11  1  0  0  0  0
 12 13  1  6  0  0  0
 12 14  1  0  0  0  0
 12 21  1  0  0  0  0
 14 15  1  6  0  0  0
 14 16  1  0  0  0  0
 16 17  1  1  0  0  0
 16 18  1  0  0  0  0
 18 19  1  6  0  0  0
 18 20  1  0  0  0  0
 20 21  1  0  0  0  0
 20 22  1  1  0  0  0
 22 23  1  0  0  0  0
M  END
>  <CHROM.1>
-63.93189881,-63.56554313,-132.42515542,-176.14771284,-66.00509022,-7.30426546
-9.19648073,0.28268979,2.60210648,-0.33438232,-1.07836405

>  <Name>
ligand

>  <RI>
0

>  <Rbt.Current_Directory>
/home/itssahil/PROJECTS/Mol_Feturizer/New_Systems/rnas/4TS2

>  <Rbt.Executable>
rbdock ($Id: //depot/dev/client3/rdock/2013.1/src/exe/rbdock.cxx#4 $)

>  <Rbt.Library>
libRbt.so (2013.1, Build901 2013/11/27)

>  <Rbt.Parameter_File>
/export/apps/rDock/src/rDock_2013.1_src/data/scripts/dock_solv.prm

>  <Rbt.Receptor>
prm/pocket_docking_2.prm

>  <SCORE>
-8.51636

>  <SCORE.INTER>
-4.83637

>  <SCORE.INTER.CONST>
1

>  <SCORE.INTER.POLAR>
0

>  <SCORE.INTER.ROT>
5

>  <SCORE.INTER.SOLV>
6.61041

>  <SCORE.INTER.VDW>
-12.3611

>  <SCORE.INTER.norm>
-0.210277

>  <SCORE.INTRA>
-3.67999

>  <SCORE.INTRA.DIHEDRAL>
-5.77698

>  <SCORE.INTRA.DIHEDRAL.0>
12.4853

>  <SCORE.INTRA.POLAR>
0

>  <SCORE.INTRA.POLAR.0>
0

>  <SCORE.INTRA.REPUL>
0

>  <SCORE.INTRA.REPUL.0>
0

>  <SCORE.INTRA.SOLV>
0.650794

>  <SCORE.INTRA.SOLV.lig_0>
-31.1706

>  <SCORE.INTRA.VDW>
-1.11689

>  <SCORE.INTRA.VDW.0>
-1.16895

>  <SCORE.INTRA.norm>
-0.159999

>  <SCORE.RESTR>
0

>  <SCORE.RESTR.CAVITY>
0

>  <SCORE.RESTR.norm>
0

>  <SCORE.SYSTEM>
0

>  <SCORE.SYSTEM.CONST>
0

>  <SCORE.SYSTEM.DIHEDRAL>
0

>  <SCORE.SYSTEM.SOLV>
0

>  <SCORE.SYSTEM.norm>
0

>  <SCORE.heavy>
23

>  <SCORE.norm>
-0.370276

>  <RMSD>
0.949

$$$$
ligand
 OpenBabel11021811513D
libRbt.so/2013.1/901 2013/11/27
 23 24  0  0  0  0  0  0  0  0999 V2000
   -9.6698  -10.4485   -0.1679 C   0  0  0  0  0  0  0  0  0  0  0  0
  -10.7826   -9.6607    0.2974 O   0  0  0  0  0  0  0  0  0  0  0  0
   -8.9018   -9.6523   -1.2133 C   0  0  2  0  0  0  0  0  0  0  0  0
   -7.7372  -10.3798   -1.8674 C   0  0  1  0  0  0  0  0  0  0  0  0
   -8.2348  -11.2579   -2.8791 O   0  0  0  0  0  0  0  0  0  0  0  0
   -6.9066   -9.2205   -2.4073 C   0  0  2  0  0  0  0  0  0  0  0  0
   -5.5169   -9.4395   -2.6773 O   0  0  0  0  0  0  0  0  0  0  0  0
   -7.0647   -8.1944   -1.2991 C   0  0  2  0  0  0  0  0  0  0  0  0
   -8.3263   -8.4684   -0.6537 O   0  0  0  0  0  0  0  0  0  0  0  0
   -7.0259   -6.7978   -1.9454 C   0  0  0  0  0  0  0  0  0  0  0  0
   -7.9759   -6.6625   -3.0116 O   0  0  0  0  0  0  0  0  0  0  0  0
   -6.2749   -7.7634    0.9410 C   0  0  2  0  0  0  0  0  0  0  0  0
   -6.0270   -8.3984   -0.3252 O   0  0  0  0  0  0  0  0  0  0  0  0
   -4.9271   -7.4553    1.5662 C   0  0  2  0  0  0  0  0  0  0  0  0
   -4.0953   -6.8091    0.5963 O   0  0  0  0  0  0  0  0  0  0  0  0
   -4.2389   -8.7317    1.9977 C   0  0  1  0  0  0  0  0  0  0  0  0
   -3.1026   -8.3896    2.7948 O   0  0  0  0  0  0  0  0  0  0  0  0
   -5.1888   -9.6097    2.7899 C   0  0  2  0  0  0  0  0  0  0  0  0
   -4.5627  -10.8647    3.0189 O   0  0  0  0  0  0  0  0  0  0  0  0
   -6.5012   -9.8406    2.0529 C   0  0  2  0  0  0  0  0  0  0  0  0
   -7.0803   -8.5670    1.8032 O   0  0  0  0  0  0  0  0  0  0  0  0
   -7.4607  -10.7144    2.8696 C   0  0  0  0  0  0  0  0  0  0  0  0
   -7.7255  -10.1859    4.1773 O   0  0  0  0  0  0  0  0  0  0  0  0
  1  2  1  0  0  0  0
  3  1  1  1  0  0  0
  3  9  1  0  0  0  0
  3  4  1  0  0  0  0
  4  5  1  6  0  0  0
  4  6  1  0  0  0  0
  6  7  1  1  0  0  0
  6  8  1  0  0  0  0
  8  9  1  0  0  0  0
  8 10  1  6  0  0  0
  8 13  1  0  0  0  0
 10 11  1  0  0  0  0
 12 13  1  6  0  0  0
 12 14  1  0  0  0  0
 12 21  1  0  0  0  0
 14 15  1  6  0  0  0
 14 16  1  0  0  0  0
 16 17  1  1  0  0  0
 16 18  1  0  0  0  0
 18 19  1  6  0  0  0
 18 20  1  0  0  0  0
 20 21  1  0  0  0  0
 20 22  1  1  0  0  0
 22 23  1  0  0  0  0
M  END
>  <CHROM.1>
-176.54894479,53.36603071,-152.03647184,-163.20227359,55.74889385,-6.75655724
-9.02263343,0.28575168,2.26835469,-0.49175588,-1.18490599

>  <Name>
ligand

>  <RI>
0

>  <Rbt.Current_Directory>
/home/itssahil/PROJECTS/Mol_Feturizer/New_Systems/rnas/4TS2

>  <Rbt.Executable>
rbdock ($Id: //depot/dev/client3/rdock/2013.1/src/exe/rbdock.cxx#4 $)

>  <Rbt.Library>
libRbt.so (2013.1, Build901 2013/11/27)

>  <Rbt.Parameter_File>
/export/apps/rDock/src/rDock_2013.1_src/data/scripts/dock_solv.prm

>  <Rbt.Receptor>
prm/pocket_docking_8.prm

>  <SCORE>
-9.22338

>  <SCORE.INTER>
-3.78277

>  <SCORE.INTER.CONST>
1

>  <SCORE.INTER.POLAR>
0

>  <SCORE.INTER.ROT>
5

>  <SCORE.INTER.SOLV>
8.09611

>  <SCORE.INTER.VDW>
-12.1539

>  <SCORE.INTER.norm>
-0.164468

>  <SCORE.INTRA>
-5.4406

>  <SCORE.INTRA.DIHEDRAL>
-7.92777

>  <SCORE.INTRA.DIHEDRAL.0>
12.4853

>  <SCORE.INTRA.POLAR>
0

>  <SCORE.INTRA.POLAR.0>
0

>  <SCORE.INTRA.REPUL>
0

>  <SCORE.INTRA.REPUL.0>
0

>  <SCORE.INTRA.SOLV>
0.074238

>  <SCORE.INTRA.SOLV.lig_0>
-31.1706

>  <SCORE.INTRA.VDW>
-1.51384

>  <SCORE.INTRA.VDW.0>
-1.16895

>  <SCORE.INTRA.norm>
-0.236548

>  <SCORE.RESTR>
0

>  <SCORE.RESTR.CAVITY>
0

>  <SCORE.RESTR.norm>
0

>  <SCORE.SYSTEM>
0

>  <SCORE.SYSTEM.CONST>
0

>  <SCORE.SYSTEM.DIHEDRAL>
0

>  <SCORE.SYSTEM.SOLV>
0

>  <SCORE.SYSTEM.norm>
0

>  <SCORE.heavy>
23

>  <SCORE.norm>
-0.401016

>  <RMSD>
0.954

$$$$
ligand
 OpenBabel11021811513D
libRbt.so/2013.1/901 2013/11/27
 23 24  0  0  0  0  0  0  0  0999 V2000
  -10.8315   -9.9139    0.2344 C   0  0  0  0  0  0  0  0  0  0  0  0
   -9.9384  -10.6570    1.0862 O   0  0  0  0  0  0  0  0  0  0  0  0
  -10.0306   -9.2914   -0.9003 C   0  0  2  0  0  0  0  0  0  0  0  0
   -9.1824  -10.2582   -1.7123 C   0  0  1  0  0  0  0  0  0  0  0  0
  -10.0127  -10.9423   -2.6530 O   0  0  0  0  0  0  0  0  0  0  0  0
   -8.1640   -9.3207   -2.3522 C   0  0  2  0  0  0  0  0  0  0  0  0
   -6.9218   -9.8673   -2.8108 O   0  0  0  0  0  0  0  0  0  0  0  0
   -7.9126   -8.3341   -1.2255 C   0  0  2  0  0  0  0  0  0  0  0  0
   -9.1074   -8.3120   -0.4159 O   0  0  0  0  0  0  0  0  0  0  0  0
   -7.6074   -6.9657   -1.8610 C   0  0  0  0  0  0  0  0  0  0  0  0
   -6.3459   -6.9493   -2.5436 O   0  0  0  0  0  0  0  0  0  0  0  0
   -6.6782   -8.1242    0.8385 C   0  0  2  0  0  0  0  0  0  0  0  0
   -6.8421   -8.8299   -0.4038 O   0  0  0  0  0  0  0  0  0  0  0  0
   -5.1907   -7.9060    1.0440 C   0  0  2  0  0  0  0  0  0  0  0  0
   -4.6229   -7.3735   -0.1578 O   0  0  0  0  0  0  0  0  0  0  0  0
   -4.4997   -9.2171    1.3477 C   0  0  1  0  0  0  0  0  0  0  0  0
   -3.1639   -8.9399    1.7746 O   0  0  0  0  0  0  0  0  0  0  0  0
   -5.2468   -9.9777    2.4267 C   0  0  2  0  0  0  0  0  0  0  0  0
   -4.6709  -11.2707    2.5523 O   0  0  0  0  0  0  0  0  0  0  0  0
   -6.7265  -10.1267    2.0994 C   0  0  2  0  0  0  0  0  0  0  0  0
   -7.2621   -8.8200    1.9397 O   0  0  0  0  0  0  0  0  0  0  0  0
   -7.4756  -10.8812    3.2041 C   0  0  0  0  0  0  0  0  0  0  0  0
   -7.3537  -10.2580    4.4911 O   0  0  0  0  0  0  0  0  0  0  0  0
  1  2  1  0  0  0  0
  3  1  1  1  0  0  0
  3  9  1  0  0  0  0
  3  4  1  0  0  0  0
  4  5  1  6  0  0  0
  4  6  1  0  0  0  0
  6  7  1  1  0  0  0
  6  8  1  0  0  0  0
  8  9  1  0  0  0  0
  8 10  1  6  0  0  0
  8 13  1  0  0  0  0
 10 11  1  0  0  0  0
 12 13  1  6  0  0  0
 12 14  1  0  0  0  0
 12 21  1  0  0  0  0
 14 15  1  6  0  0  0
 14 16  1  0  0  0  0
 16 17  1  1  0  0  0
 16 18  1  0  0  0  0
 18 19  1  6  0  0  0
 18 20  1  0  0  0  0
 20 21  1  0  0  0  0
 20 22  1  1  0  0  0
 22 23  1  0  0  0  0
M  END
>  <CHROM.1>
54.24450594,-68.98853020,-136.85374917,-168.57619956,57.35111767,-7.19179140
-9.24868775,0.26774675,2.38357236,-0.36788198,-1.13652014

>  <Name>
ligand

>  <RI>
0

>  <Rbt.Current_Directory>
/home/itssahil/PROJECTS/Mol_Feturizer/New_Systems/rnas/4TS2

>  <Rbt.Executable>
rbdock ($Id: //depot/dev/client3/rdock/2013.1/src/exe/rbdock.cxx#4 $)

>  <Rbt.Library>
libRbt.so (2013.1, Build901 2013/11/27)

>  <Rbt.Parameter_File>
/export/apps/rDock/src/rDock_2013.1_src/data/scripts/dock_solv.prm

>  <Rbt.Receptor>
prm/pocket_docking_2.prm

>  <SCORE>
-8.17558

>  <SCORE.INTER>
-4.04412

>  <SCORE.INTER.CONST>
1

>  <SCORE.INTER.POLAR>
0

>  <SCORE.INTER.ROT>
5

>  <SCORE.INTER.SOLV>
7.24243

>  <SCORE.INTER.VDW>
-12.0436

>  <SCORE.INTER.norm>
-0.175832

>  <SCORE.INTRA>
-4.13146

>  <SCORE.INTRA.DIHEDRAL>
-5.7506

>  <SCORE.INTRA.DIHEDRAL.0>
12.4853

>  <SCORE.INTRA.POLAR>
0

>  <SCORE.INTRA.POLAR.0>
0

>  <SCORE.INTRA.REPUL>
0

>  <SCORE.INTRA.REPUL.0>
0

>  <SCORE.INTRA.SOLV>
1.32313

>  <SCORE.INTRA.SOLV.lig_0>
-31.1706

>  <SCORE.INTRA.VDW>
-1.91772

>  <SCORE.INTRA.VDW.0>
-1.16895

>  <SCORE.INTRA.norm>
-0.179629

>  <SCORE.RESTR>
0

>  <SCORE.RESTR.CAVITY>
0

>  <SCORE.RESTR.norm>
0

>  <SCORE.SYSTEM>
0

>  <SCORE.SYSTEM.CONST>
0

>  <SCORE.SYSTEM.DIHEDRAL>
0

>  <SCORE.SYSTEM.SOLV>
0

>  <SCORE.SYSTEM.norm>
0

>  <SCORE.heavy>
23

>  <SCORE.norm>
-0.35546

>  <RMSD>
0.957

$$$$
ligand
 OpenBabel11021811513D
libRbt.so/2013.1/901 2013/11/27
 23 24  0  0  0  0  0  0  0  0999 V2000
  -10.9634   -9.6515    0.4632 C   0  0  0  0  0  0  0  0  0  0  0  0
  -11.9544  -10.5631   -0.0490 O   0  0  0  0  0  0  0  0  0  0  0  0
  -10.1505   -9.0992   -0.6989 C   0  0  2  0  0  0  0  0  0  0  0  0
   -9.3570  -10.1266   -1.4916 C   0  0  1  0  0  0  0  0  0  0  0  0
  -10.2292  -10.7999   -2.4016 O   0  0  0  0  0  0  0  0  0  0  0  0
   -8.3062   -9.2550   -2.1711 C   0  0  2  0  0  0  0  0  0  0  0  0
   -7.0958   -9.8701   -2.6278 O   0  0  0  0  0  0  0  0  0  0  0  0
   -7.9963   -8.2482   -1.0774 C   0  0  2  0  0  0  0  0  0  0  0  0
   -9.1782   -8.1486   -0.2549 O   0  0  0  0  0  0  0  0  0  0  0  0
   -7.6388   -6.9140   -1.7571 C   0  0  0  0  0  0  0  0  0  0  0  0
   -6.4378   -7.0025   -2.5365 O   0  0  0  0  0  0  0  0  0  0  0  0
   -6.6035   -7.9338    0.8691 C   0  0  2  0  0  0  0  0  0  0  0  0
   -6.9384   -8.7673   -0.2539 O   0  0  0  0  0  0  0  0  0  0  0  0
   -5.0915   -7.8138    0.9108 C   0  0  2  0  0  0  0  0  0  0  0  0
   -4.6101   -7.4765   -0.3949 O   0  0  0  0  0  0  0  0  0  0  0  0
   -4.4663   -9.1309    1.3149 C   0  0  1  0  0  0  0  0  0  0  0  0
   -3.0787   -8.9138    1.5813 O   0  0  0  0  0  0  0  0  0  0  0  0
   -5.1536   -9.6939    2.5443 C   0  0  2  0  0  0  0  0  0  0  0  0
   -4.6590  -11.0051    2.7804 O   0  0  0  0  0  0  0  0  0  0  0  0
   -6.6652   -9.7606    2.3727 C   0  0  2  0  0  0  0  0  0  0  0  0
   -7.1221   -8.4433    2.0975 O   0  0  0  0  0  0  0  0  0  0  0  0
   -7.3515  -10.3144    3.6270 C   0  0  0  0  0  0  0  0  0  0  0  0
   -7.0361  -11.6920    3.8772 O   0  0  0  0  0  0  0  0  0  0  0  0
  1  2  1  0  0  0  0
  3  1  1  1  0  0  0
  3  9  1  0  0  0  0
  3  4  1  0  0  0  0
  4  5  1  6  0  0  0
  4  6  1  0  0  0  0
  6  7  1  1  0  0  0
  6  8  1  0  0  0  0
  8  9  1  0  0  0  0
  8 10  1  6  0  0  0
  8 13  1  0  0  0  0
 10 11  1  0  0  0  0
 12 13  1  6  0  0  0
 12 14  1  0  0  0  0
 12 21  1  0  0  0  0
 14 15  1  6  0  0  0
 14 16  1  0  0  0  0
 16 17  1  1  0  0  0
 16 18  1  0  0  0  0
 18 19  1  6  0  0  0
 18 20  1  0  0  0  0
 20 21  1  0  0  0  0
 20 22  1  1  0  0  0
 22 23  1  0  0  0  0
M  END
>  <CHROM.1>
-62.46396461,-64.64797732,-133.37927521,-176.67185179,-66.62430317,-7.29979020
-9.17590484,0.28838346,2.60643888,-0.33466678,-1.07310182

>  <Name>
ligand

>  <RI>
0

>  <Rbt.Current_Directory>
/home/itssahil/PROJECTS/Mol_Feturizer/New_Systems/rnas/4TS2

>  <Rbt.Executable>
rbdock ($Id: //depot/dev/client3/rdock/2013.1/src/exe/rbdock.cxx#4 $)

>  <Rbt.Library>
libRbt.so (2013.1, Build901 2013/11/27)

>  <Rbt.Parameter_File>
/export/apps/rDock/src/rDock_2013.1_src/data/scripts/dock_solv.prm

>  <Rbt.Receptor>
prm/pocket_docking_2.prm

>  <SCORE>
-8.47027

>  <SCORE.INTER>
-4.72483

>  <SCORE.INTER.CONST>
1

>  <SCORE.INTER.POLAR>
0

>  <SCORE.INTER.ROT>
5

>  <SCORE.INTER.SOLV>
6.76185

>  <SCORE.INTER.VDW>
-12.3372

>  <SCORE.INTER.norm>
-0.205427

>  <SCORE.INTRA>
-3.74545

>  <SCORE.INTRA.DIHEDRAL>
-5.88249

>  <SCORE.INTRA.DIHEDRAL.0>
12.4853

>  <SCORE.INTRA.POLAR>
0

>  <SCORE.INTRA.POLAR.0>
0

>  <SCORE.INTRA.REPUL>
0

>  <SCORE.INTRA.REPUL.0>
0

>  <SCORE.INTRA.SOLV>
0.657956

>  <SCORE.INTRA.SOLV.lig_0>
-31.1706

>  <SCORE.INTRA.VDW>
-1.13318

>  <SCORE.INTRA.VDW.0>
-1.16895

>  <SCORE.INTRA.norm>
-0.162846

>  <SCORE.RESTR>
0

>  <SCORE.RESTR.CAVITY>
0

>  <SCORE.RESTR.norm>
0

>  <SCORE.SYSTEM>
0

>  <SCORE.SYSTEM.CONST>
0

>  <SCORE.SYSTEM.DIHEDRAL>
0

>  <SCORE.SYSTEM.SOLV>
0

>  <SCORE.SYSTEM.norm>
0

>  <SCORE.heavy>
23

>  <SCORE.norm>
-0.368273

>  <RMSD>
0.960

$$$$
ligand
 OpenBabel11021811513D
libRbt.so/2013.1/901 2013/11/27
 23 24  0  0  0  0  0  0  0  0999 V2000
   -9.6622  -10.4510   -0.1574 C   0  0  0  0  0  0  0  0  0  0  0  0
  -10.7431   -9.6422    0.3455 O   0  0  0  0  0  0  0  0  0  0  0  0
   -8.8976   -9.6585   -1.2080 C   0  0  2  0  0  0  0  0  0  0  0  0
   -7.7294  -10.3851   -1.8567 C   0  0  1  0  0  0  0  0  0  0  0  0
   -8.2225  -11.2724   -2.8626 O   0  0  0  0  0  0  0  0  0  0  0  0
   -6.9040   -9.2256   -2.4043 C   0  0  2  0  0  0  0  0  0  0  0  0
   -5.5132   -9.4400   -2.6724 O   0  0  0  0  0  0  0  0  0  0  0  0
   -7.0673   -8.1926   -1.3033 C   0  0  2  0  0  0  0  0  0  0  0  0
   -8.3278   -8.4681   -0.6564 O   0  0  0  0  0  0  0  0  0  0  0  0
   -7.0347   -6.8003   -1.9591 C   0  0  0  0  0  0  0  0  0  0  0  0
   -7.9837   -6.6774   -3.0277 O   0  0  0  0  0  0  0  0  0  0  0  0
   -6.2870   -7.7548    0.9389 C   0  0  2  0  0  0  0  0  0  0  0  0
   -6.0290   -8.3851   -0.3276 O   0  0  0  0  0  0  0  0  0  0  0  0
   -4.9443   -7.4415    1.5723 C   0  0  2  0  0  0  0  0  0  0  0  0
   -4.1105   -6.7885    0.6087 O   0  0  0  0  0  0  0  0  0  0  0  0
   -4.2519   -8.7155    2.0042 C   0  0  1  0  0  0  0  0  0  0  0  0
   -3.1218   -8.3697    2.8084 O   0  0  0  0  0  0  0  0  0  0  0  0
   -5.2017   -9.6004    2.7889 C   0  0  2  0  0  0  0  0  0  0  0  0
   -4.5705  -10.8528    3.0180 O   0  0  0  0  0  0  0  0  0  0  0  0
   -6.5088   -9.8360    2.0441 C   0  0  2  0  0  0  0  0  0  0  0  0
   -7.0930   -8.5647    1.7945 O   0  0  0  0  0  0  0  0  0  0  0  0
   -7.4683  -10.7168    2.8532 C   0  0  0  0  0  0  0  0  0  0  0  0
   -7.7521  -10.1872    4.1565 O   0  0  0  0  0  0  0  0  0  0  0  0
  1  2  1  0  0  0  0
  3  1  1  1  0  0  0
  3  9  1  0  0  0  0
  3  4  1  0  0  0  0
  4  5  1  6  0  0  0
  4  6  1  0  0  0  0
  6  7  1  1  0  0  0
  6  8  1  0  0  0  0
  8  9  1  0  0  0  0
  8 10  1  6  0  0  0
  8 13  1  0  0  0  0
 10 11  1  0  0  0  0
 12 13  1  6  0  0  0
 12 14  1  0  0  0  0
 12 21  1  0  0  0  0
 14 15  1  6  0  0  0
 14 16  1  0  0  0  0
 16 17  1  1  0  0  0
 16 18  1  0  0  0  0
 18 19  1  6  0  0  0
 18 20  1  0  0  0  0
 20 21  1  0  0  0  0
 20 22  1  1  0  0  0
 22 23  1  0  0  0  0
M  END
>  <CHROM.1>
-179.11304524,53.28786013,-152.50212308,-162.56109176,56.25864129,-6.76066512
-9.01881770,0.28763667,2.26416549,-0.49678518,-1.18614724

>  <Name>
ligand

>  <RI>
0

>  <Rbt.Current_Directory>
/home/itssahil/PROJECTS/Mol_Feturizer/New_Systems/rnas/4TS2

>  <Rbt.Executable>
rbdock ($Id: //depot/dev/client3/rdock/2013.1/src/exe/rbdock.cxx#4 $)

>  <Rbt.Library>
libRbt.so (2013.1, Build901 2013/11/27)

>  <Rbt.Parameter_File>
/export/apps/rDock/src/rDock_2013.1_src/data/scripts/dock_solv.prm

>  <Rbt.Receptor>
prm/pocket_docking_5.prm

>  <SCORE>
-9.25893

>  <SCORE.INTER>
-3.80987

>  <SCORE.INTER.CONST>
1

>  <SCORE.INTER.POLAR>
0

>  <SCORE.INTER.ROT>
5

>  <SCORE.INTER.SOLV>
8.16407

>  <SCORE.INTER.VDW>
-12.1946

>  <SCORE.INTER.norm>
-0.165646

>  <SCORE.INTRA>
-5.44906

>  <SCORE.INTRA.DIHEDRAL>
-7.97803

>  <SCORE.INTRA.DIHEDRAL.0>
12.4853

>  <SCORE.INTRA.POLAR>
0

>  <SCORE.INTRA.POLAR.0>
0

>  <SCORE.INTRA.REPUL>
0

>  <SCORE.INTRA.REPUL.0>
0

>  <SCORE.INTRA.SOLV>
0.112617

>  <SCORE.INTRA.SOLV.lig_0>
-31.1706

>  <SCORE.INTRA.VDW>
-1.51636

>  <SCORE.INTRA.VDW.0>
-1.16895

>  <SCORE.INTRA.norm>
-0.236916

>  <SCORE.RESTR>
0

>  <SCORE.RESTR.CAVITY>
0

>  <SCORE.RESTR.norm>
0

>  <SCORE.SYSTEM>
0

>  <SCORE.SYSTEM.CONST>
0

>  <SCORE.SYSTEM.DIHEDRAL>
0

>  <SCORE.SYSTEM.SOLV>
0

>  <SCORE.SYSTEM.norm>
0

>  <SCORE.heavy>
23

>  <SCORE.norm>
-0.402562

>  <RMSD>
0.965

$$$$
ligand
 OpenBabel11021811513D
libRbt.so/2013.1/901 2013/11/27
 23 24  0  0  0  0  0  0  0  0999 V2000
  -10.5475   -9.6383   -0.0244 C   0  0  0  0  0  0  0  0  0  0  0  0
   -9.8077  -10.2770    1.0341 O   0  0  0  0  0  0  0  0  0  0  0  0
   -9.5702   -9.1257   -1.0726 C   0  0  2  0  0  0  0  0  0  0  0  0
   -8.6225  -10.1656   -1.6505 C   0  0  1  0  0  0  0  0  0  0  0  0
   -9.3082  -10.9325   -2.6425 O   0  0  0  0  0  0  0  0  0  0  0  0
   -7.5019   -9.2938   -2.2070 C   0  0  2  0  0  0  0  0  0  0  0  0
   -6.2129   -9.8833   -2.4145 O   0  0  0  0  0  0  0  0  0  0  0  0
   -7.4118   -8.2073   -1.1500 C   0  0  2  0  0  0  0  0  0  0  0  0
   -8.7171   -8.1075   -0.5420 O   0  0  0  0  0  0  0  0  0  0  0  0
   -6.9893   -6.9045   -1.8528 C   0  0  0  0  0  0  0  0  0  0  0  0
   -7.8785   -6.5461   -2.9198 O   0  0  0  0  0  0  0  0  0  0  0  0
   -6.4595   -7.7695    1.0247 C   0  0  2  0  0  0  0  0  0  0  0  0
   -6.4900   -8.6267   -0.1296 O   0  0  0  0  0  0  0  0  0  0  0  0
   -5.0078   -7.4169    1.2903 C   0  0  2  0  0  0  0  0  0  0  0  0
   -4.3967   -6.9880    0.0685 O   0  0  0  0  0  0  0  0  0  0  0  0
   -4.2518   -8.6273    1.7927 C   0  0  1  0  0  0  0  0  0  0  0  0
   -2.9701   -8.2017    2.2613 O   0  0  0  0  0  0  0  0  0  0  0  0
   -5.0175   -9.3100    2.9100 C   0  0  2  0  0  0  0  0  0  0  0  0
   -4.3651  -10.5321    3.2266 O   0  0  0  0  0  0  0  0  0  0  0  0
   -6.4579   -9.6078    2.5156 C   0  0  2  0  0  0  0  0  0  0  0  0
   -7.0687   -8.3732    2.1658 O   0  0  0  0  0  0  0  0  0  0  0  0
   -7.2278  -10.2817    3.6576 C   0  0  0  0  0  0  0  0  0  0  0  0
   -6.7259  -11.5873    3.9788 O   0  0  0  0  0  0  0  0  0  0  0  0
  1  2  1  0  0  0  0
  3  1  1  1  0  0  0
  3  9  1  0  0  0  0
  3  4  1  0  0  0  0
  4  5  1  6  0  0  0
  4  6  1  0  0  0  0
  6  7  1  1  0  0  0
  6  8  1  0  0  0  0
  8  9  1  0  0  0  0
  8 10  1  6  0  0  0
  8 13  1  0  0  0  0
 10 11  1  0  0  0  0
 12 13  1  6  0  0  0
 12 14  1  0  0  0  0
 12 21  1  0  0  0  0
 14 15  1  6  0  0  0
 14 16  1  0  0  0  0
 16 17  1  1  0  0  0
 16 18  1  0  0  0  0
 18 19  1  6  0  0  0
 18 20  1  0  0  0  0
 20 21  1  0  0  0  0
 20 22  1  1  0  0  0
 22 23  1  0  0  0  0
M  END
>  <CHROM.1>
55.40120710,56.07762474,-128.95941350,-171.59873039,-65.51639214,-6.90518397
-8.98804620,0.40832024,2.35436220,-0.48984889,-1.05614773

>  <Name>
ligand

>  <RI>
0

>  <Rbt.Current_Directory>
/home/itssahil/PROJECTS/Mol_Feturizer/New_Systems/rnas/4TS2

>  <Rbt.Executable>
rbdock ($Id: //depot/dev/client3/rdock/2013.1/src/exe/rbdock.cxx#4 $)

>  <Rbt.Library>
libRbt.so (2013.1, Build901 2013/11/27)

>  <Rbt.Parameter_File>
/export/apps/rDock/src/rDock_2013.1_src/data/scripts/dock_solv.prm

>  <Rbt.Receptor>
prm/pocket_docking_4.prm

>  <SCORE>
-9.0214

>  <SCORE.INTER>
-5.52399

>  <SCORE.INTER.CONST>
1

>  <SCORE.INTER.POLAR>
0

>  <SCORE.INTER.ROT>
5

>  <SCORE.INTER.SOLV>
7.89975

>  <SCORE.INTER.VDW>
-13.2492

>  <SCORE.INTER.norm>
-0.240174

>  <SCORE.INTRA>
-3.4974

>  <SCORE.INTRA.DIHEDRAL>
-5.22129

>  <SCORE.INTRA.DIHEDRAL.0>
12.4853

>  <SCORE.INTRA.POLAR>
0

>  <SCORE.INTRA.POLAR.0>
0

>  <SCORE.INTRA.REPUL>
0

>  <SCORE.INTRA.REPUL.0>
0

>  <SCORE.INTRA.SOLV>
0.686582

>  <SCORE.INTRA.SOLV.lig_0>
-31.1706

>  <SCORE.INTRA.VDW>
-1.23005

>  <SCORE.INTRA.VDW.0>
-1.16895

>  <SCORE.INTRA.norm>
-0.152061

>  <SCORE.RESTR>
0

>  <SCORE.RESTR.CAVITY>
0

>  <SCORE.RESTR.norm>
0

>  <SCORE.SYSTEM>
0

>  <SCORE.SYSTEM.CONST>
0

>  <SCORE.SYSTEM.DIHEDRAL>
0

>  <SCORE.SYSTEM.SOLV>
0

>  <SCORE.SYSTEM.norm>
0

>  <SCORE.heavy>
23

>  <SCORE.norm>
-0.392235

>  <RMSD>
0.969

$$$$
ligand
 OpenBabel11021811513D
libRbt.so/2013.1/901 2013/11/27
 23 24  0  0  0  0  0  0  0  0999 V2000
   -9.6651  -10.4256   -0.1550 C   0  0  0  0  0  0  0  0  0  0  0  0
  -10.7140   -9.5792    0.3538 O   0  0  0  0  0  0  0  0  0  0  0  0
   -8.8984   -9.6715   -1.2321 C   0  0  2  0  0  0  0  0  0  0  0  0
   -7.7479  -10.4322   -1.8733 C   0  0  1  0  0  0  0  0  0  0  0  0
   -8.2645  -11.3362   -2.8521 O   0  0  0  0  0  0  0  0  0  0  0  0
   -6.9100   -9.2998   -2.4571 C   0  0  2  0  0  0  0  0  0  0  0  0
   -5.5253   -9.5427   -2.7327 O   0  0  0  0  0  0  0  0  0  0  0  0
   -7.0465   -8.2375   -1.3807 C   0  0  2  0  0  0  0  0  0  0  0  0
   -8.3049   -8.4769   -0.7155 O   0  0  0  0  0  0  0  0  0  0  0  0
   -6.9987   -6.8625   -2.0713 C   0  0  0  0  0  0  0  0  0  0  0  0
   -8.0170   -6.7175   -3.0711 O   0  0  0  0  0  0  0  0  0  0  0  0
   -6.2179   -7.7224    0.8274 C   0  0  2  0  0  0  0  0  0  0  0  0
   -6.0020   -8.4221   -0.4103 O   0  0  0  0  0  0  0  0  0  0  0  0
   -4.8548   -7.4069    1.4146 C   0  0  2  0  0  0  0  0  0  0  0  0
   -4.0296   -6.8225    0.4007 O   0  0  0  0  0  0  0  0  0  0  0  0
   -4.1796   -8.6722    1.8964 C   0  0  1  0  0  0  0  0  0  0  0  0
   -3.0245   -8.3109    2.6571 O   0  0  0  0  0  0  0  0  0  0  0  0
   -5.1296   -9.4947    2.7461 C   0  0  2  0  0  0  0  0  0  0  0  0
   -4.5198  -10.7474    3.0257 O   0  0  0  0  0  0  0  0  0  0  0  0
   -6.4580   -9.7390    2.0429 C   0  0  2  0  0  0  0  0  0  0  0  0
   -7.0210   -8.4695    1.7409 O   0  0  0  0  0  0  0  0  0  0  0  0
   -7.4171  -10.5559    2.9169 C   0  0  0  0  0  0  0  0  0  0  0  0
   -6.9530  -11.8917    3.1620 O   0  0  0  0  0  0  0  0  0  0  0  0
  1  2  1  0  0  0  0
  3  1  1  1  0  0  0
  3  9  1  0  0  0  0
  3  4  1  0  0  0  0
  4  5  1  6  0  0  0
  4  6  1  0  0  0  0
  6  7  1  1  0  0  0
  6  8  1  0  0  0  0
  8  9  1  0  0  0  0
  8 10  1  6  0  0  0
  8 13  1  0  0  0  0
 10 11  1  0  0  0  0
 12 13  1  6  0  0  0
 12 14  1  0  0  0  0
 12 21  1  0  0  0  0
 14 15  1  6  0  0  0
 14 16  1  0  0  0  0
 16 17  1  1  0  0  0
 16 18  1  0  0  0  0
 18 19  1  6  0  0  0
 18 20  1  0  0  0  0
 20 21  1  0  0  0  0
 20 22  1  1  0  0  0
 22 23  1  0  0  0  0
M  END
>  <CHROM.1>
179.91231302,57.33994871,-151.44823412,-164.41671533,-65.45589207,-6.69132426
-9.08813012,0.18504021,2.37634682,-0.55778789,-1.04386134

>  <Name>
ligand

>  <RI>
0

>  <Rbt.Current_Directory>
/home/itssahil/PROJECTS/Mol_Feturizer/New_Systems/rnas/4TS2

>  <Rbt.Executable>
rbdock ($Id: //depot/dev/client3/rdock/2013.1/src/exe/rbdock.cxx#4 $)

>  <Rbt.Library>
libRbt.so (2013.1, Build901 2013/11/27)

>  <Rbt.Parameter_File>
/export/apps/rDock/src/rDock_2013.1_src/data/scripts/dock_solv.prm

>  <Rbt.Receptor>
prm/pocket_docking_6.prm

>  <SCORE>
-9.07861

>  <SCORE.INTER>
-3.6269

>  <SCORE.INTER.CONST>
1

>  <SCORE.INTER.POLAR>
0

>  <SCORE.INTER.ROT>
5

>  <SCORE.INTER.SOLV>
7.25268

>  <SCORE.INTER.VDW>
-11.7688

>  <SCORE.INTER.norm>
-0.157691

>  <SCORE.INTRA>
-5.45171

>  <SCORE.INTRA.DIHEDRAL>
-8.07587

>  <SCORE.INTRA.DIHEDRAL.0>
12.4853

>  <SCORE.INTRA.POLAR>
0

>  <SCORE.INTRA.POLAR.0>
0

>  <SCORE.INTRA.REPUL>
0

>  <SCORE.INTRA.REPUL.0>
0

>  <SCORE.INTRA.SOLV>
0.078722

>  <SCORE.INTRA.SOLV.lig_0>
-31.1706

>  <SCORE.INTRA.VDW>
-1.45313

>  <SCORE.INTRA.VDW.0>
-1.16895

>  <SCORE.INTRA.norm>
-0.237031

>  <SCORE.RESTR>
0

>  <SCORE.RESTR.CAVITY>
0

>  <SCORE.RESTR.norm>
0

>  <SCORE.SYSTEM>
0

>  <SCORE.SYSTEM.CONST>
0

>  <SCORE.SYSTEM.DIHEDRAL>
0

>  <SCORE.SYSTEM.SOLV>
0

>  <SCORE.SYSTEM.norm>
0

>  <SCORE.heavy>
23

>  <SCORE.norm>
-0.394722

>  <RMSD>
0.972

$$$$
ligand
 OpenBabel11021811513D
libRbt.so/2013.1/901 2013/11/27
 23 24  0  0  0  0  0  0  0  0999 V2000
   -9.6682  -10.4358   -0.1564 C   0  0  0  0  0  0  0  0  0  0  0  0
  -10.7638   -9.6395    0.3345 O   0  0  0  0  0  0  0  0  0  0  0  0
   -8.9054   -9.6370   -1.2035 C   0  0  2  0  0  0  0  0  0  0  0  0
   -7.7382  -10.3596   -1.8585 C   0  0  1  0  0  0  0  0  0  0  0  0
   -8.2329  -11.2409   -2.8688 O   0  0  0  0  0  0  0  0  0  0  0  0
   -6.9137   -9.1968   -2.4005 C   0  0  2  0  0  0  0  0  0  0  0  0
   -5.5234   -9.4096   -2.6721 O   0  0  0  0  0  0  0  0  0  0  0  0
   -7.0752   -8.1705   -1.2930 C   0  0  2  0  0  0  0  0  0  0  0  0
   -8.3347   -8.4499   -0.6457 O   0  0  0  0  0  0  0  0  0  0  0  0
   -7.0437   -6.7743   -1.9405 C   0  0  0  0  0  0  0  0  0  0  0  0
   -7.9826   -6.6505   -3.0180 O   0  0  0  0  0  0  0  0  0  0  0  0
   -6.2912   -7.7461    0.9504 C   0  0  2  0  0  0  0  0  0  0  0  0
   -6.0353   -8.3688   -0.3203 O   0  0  0  0  0  0  0  0  0  0  0  0
   -4.9474   -7.4288    1.5796 C   0  0  2  0  0  0  0  0  0  0  0  0
   -4.1212   -6.7667    0.6156 O   0  0  0  0  0  0  0  0  0  0  0  0
   -4.2465   -8.7012    2.0023 C   0  0  1  0  0  0  0  0  0  0  0  0
   -3.1147   -8.3534    2.8033 O   0  0  0  0  0  0  0  0  0  0  0  0
   -5.1882   -9.5949    2.7867 C   0  0  2  0  0  0  0  0  0  0  0  0
   -4.5494  -10.8450    3.0070 O   0  0  0  0  0  0  0  0  0  0  0  0
   -6.4973   -9.8338    2.0464 C   0  0  2  0  0  0  0  0  0  0  0  0
   -7.0892   -8.5644    1.8055 O   0  0  0  0  0  0  0  0  0  0  0  0
   -7.4486  -10.7235    2.8552 C   0  0  0  0  0  0  0  0  0  0  0  0
   -7.7355  -10.1980    4.1595 O   0  0  0  0  0  0  0  0  0  0  0  0
  1  2  1  0  0  0  0
  3  1  1  1  0  0  0
  3  9  1  0  0  0  0
  3  4  1  0  0  0  0
  4  5  1  6  0  0  0
  4  6  1  0  0  0  0
  6  7  1  1  0  0  0
  6  8  1  0  0  0  0
  8  9  1  0  0  0  0
  8 10  1  6  0  0  0
  8 13  1  0  0  0  0
 10 11  1  0  0  0  0
 12 13  1  6  0  0  0
 12 14  1  0  0  0  0
 12 21  1  0  0  0  0
 14 15  1  6  0  0  0
 14 16  1  0  0  0  0
 16 17  1  1  0  0  0
 16 18  1  0  0  0  0
 18 19  1  6  0  0  0
 18 20  1  0  0  0  0
 20 21  1  0  0  0  0
 20 22  1  1  0  0  0
 22 23  1  0  0  0  0
M  END
>  <CHROM.1>
-178.01479688,52.54401375,-152.15788885,-162.56458185,56.58764414,-6.76161360
-9.00420550,0.29058782,2.27027920,-0.49752374,-1.17843981

>  <Name>
ligand

>  <RI>
0

>  <Rbt.Current_Directory>
/home/itssahil/PROJECTS/Mol_Feturizer/New_Systems/rnas/4TS2

>  <Rbt.Executable>
rbdock ($Id: //depot/dev/client3/rdock/2013.1/src/exe/rbdock.cxx#4 $)

>  <Rbt.Library>
libRbt.so (2013.1, Build901 2013/11/27)

>  <Rbt.Parameter_File>
/export/apps/rDock/src/rDock_2013.1_src/data/scripts/dock_solv.prm

>  <Rbt.Receptor>
prm/pocket_docking_4.prm

>  <SCORE>
-9.23453

>  <SCORE.INTER>
-3.84028

>  <SCORE.INTER.CONST>
1

>  <SCORE.INTER.POLAR>
0

>  <SCORE.INTER.ROT>
5

>  <SCORE.INTER.SOLV>
8.23835

>  <SCORE.INTER.VDW>
-12.2396

>  <SCORE.INTER.norm>
-0.166969

>  <SCORE.INTRA>
-5.39425

>  <SCORE.INTRA.DIHEDRAL>
-7.88127

>  <SCORE.INTRA.DIHEDRAL.0>
12.4853

>  <SCORE.INTRA.POLAR>
0

>  <SCORE.INTRA.POLAR.0>
0

>  <SCORE.INTRA.REPUL>
0

>  <SCORE.INTRA.REPUL.0>
0

>  <SCORE.INTRA.SOLV>
0.0950966

>  <SCORE.INTRA.SOLV.lig_0>
-31.1706

>  <SCORE.INTRA.VDW>
-1.50116

>  <SCORE.INTRA.VDW.0>
-1.16895

>  <SCORE.INTRA.norm>
-0.234532

>  <SCORE.RESTR>
0

>  <SCORE.RESTR.CAVITY>
0

>  <SCORE.RESTR.norm>
0

>  <SCORE.SYSTEM>
0

>  <SCORE.SYSTEM.CONST>
0

>  <SCORE.SYSTEM.DIHEDRAL>
0

>  <SCORE.SYSTEM.SOLV>
0

>  <SCORE.SYSTEM.norm>
0

>  <SCORE.heavy>
23

>  <SCORE.norm>
-0.401501

>  <RMSD>
0.973

$$$$
ligand
 OpenBabel11021811513D
libRbt.so/2013.1/901 2013/11/27
 23 24  0  0  0  0  0  0  0  0999 V2000
  -10.4007   -9.7626    0.0652 C   0  0  0  0  0  0  0  0  0  0  0  0
   -9.6121  -10.3905    1.0943 O   0  0  0  0  0  0  0  0  0  0  0  0
   -9.4701   -9.2138   -1.0068 C   0  0  2  0  0  0  0  0  0  0  0  0
   -8.5003  -10.2179   -1.6108 C   0  0  1  0  0  0  0  0  0  0  0  0
   -9.1828  -11.0084   -2.5863 O   0  0  0  0  0  0  0  0  0  0  0  0
   -7.4269   -9.3053   -2.1942 C   0  0  2  0  0  0  0  0  0  0  0  0
   -6.1229   -9.8472   -2.4358 O   0  0  0  0  0  0  0  0  0  0  0  0
   -7.3493   -8.2172   -1.1379 C   0  0  2  0  0  0  0  0  0  0  0  0
   -8.6413   -8.1656   -0.4964 O   0  0  0  0  0  0  0  0  0  0  0  0
   -6.9927   -6.8992   -1.8489 C   0  0  0  0  0  0  0  0  0  0  0  0
   -7.8932   -6.5973   -2.9239 O   0  0  0  0  0  0  0  0  0  0  0  0
   -6.3692   -7.7564    1.0197 C   0  0  2  0  0  0  0  0  0  0  0  0
   -6.3869   -8.6036   -0.1422 O   0  0  0  0  0  0  0  0  0  0  0  0
   -4.9196   -7.4161    1.3117 C   0  0  2  0  0  0  0  0  0  0  0  0
   -4.2860   -6.9812    0.1036 O   0  0  0  0  0  0  0  0  0  0  0  0
   -4.1801   -8.6359    1.8157 C   0  0  1  0  0  0  0  0  0  0  0  0
   -2.9033   -8.2232    2.3086 O   0  0  0  0  0  0  0  0  0  0  0  0
   -4.9684   -9.3227    2.9147 C   0  0  2  0  0  0  0  0  0  0  0  0
   -4.3295  -10.5519    3.2314 O   0  0  0  0  0  0  0  0  0  0  0  0
   -6.4042   -9.6072    2.4947 C   0  0  2  0  0  0  0  0  0  0  0  0
   -7.0009   -8.3654    2.1456 O   0  0  0  0  0  0  0  0  0  0  0  0
   -7.1970  -10.2852    3.6183 C   0  0  0  0  0  0  0  0  0  0  0  0
   -6.7222  -11.6049    3.9226 O   0  0  0  0  0  0  0  0  0  0  0  0
  1  2  1  0  0  0  0
  3  1  1  1  0  0  0
  3  9  1  0  0  0  0
  3  4  1  0  0  0  0
  4  5  1  6  0  0  0
  4  6  1  0  0  0  0
  6  7  1  1  0  0  0
  6  8  1  0  0  0  0
  8  9  1  0  0  0  0
  8 10  1  6  0  0  0
  8 13  1  0  0  0  0
 10 11  1  0  0  0  0
 12 13  1  6  0  0  0
 12 14  1  0  0  0  0
 12 21  1  0  0  0  0
 14 15  1  6  0  0  0
 14 16  1  0  0  0  0
 16 17  1  1  0  0  0
 16 18  1  0  0  0  0
 18 19  1  6  0  0  0
 18 20  1  0  0  0  0
 20 21  1  0  0  0  0
 20 22  1  1  0  0  0
 22 23  1  0  0  0  0
M  END
>  <CHROM.1>
54.64593121,53.94704056,-132.66428547,-170.88559211,-66.40902051,-6.82913529
-9.01331072,0.42299834,2.35935509,-0.50533094,-1.05061022

>  <Name>
ligand

>  <RI>
0

>  <Rbt.Current_Directory>
/home/itssahil/PROJECTS/Mol_Feturizer/New_Systems/rnas/4TS2

>  <Rbt.Executable>
rbdock ($Id: //depot/dev/client3/rdock/2013.1/src/exe/rbdock.cxx#4 $)

>  <Rbt.Library>
libRbt.so (2013.1, Build901 2013/11/27)

>  <Rbt.Parameter_File>
/export/apps/rDock/src/rDock_2013.1_src/data/scripts/dock_solv.prm

>  <Rbt.Receptor>
prm/pocket_docking_3.prm

>  <SCORE>
-9.09221

>  <SCORE.INTER>
-5.44943

>  <SCORE.INTER.CONST>
1

>  <SCORE.INTER.POLAR>
0

>  <SCORE.INTER.ROT>
5

>  <SCORE.INTER.SOLV>
7.53467

>  <SCORE.INTER.VDW>
-13.0778

>  <SCORE.INTER.norm>
-0.236932

>  <SCORE.INTRA>
-3.64277

>  <SCORE.INTRA.DIHEDRAL>
-5.41952

>  <SCORE.INTRA.DIHEDRAL.0>
12.4853

>  <SCORE.INTRA.POLAR>
0

>  <SCORE.INTRA.POLAR.0>
0

>  <SCORE.INTRA.REPUL>
0

>  <SCORE.INTRA.REPUL.0>
0

>  <SCORE.INTRA.SOLV>
0.754732

>  <SCORE.INTRA.SOLV.lig_0>
-31.1706

>  <SCORE.INTRA.VDW>
-1.31037

>  <SCORE.INTRA.VDW.0>
-1.16895

>  <SCORE.INTRA.norm>
-0.158381

>  <SCORE.RESTR>
0

>  <SCORE.RESTR.CAVITY>
0

>  <SCORE.RESTR.norm>
0

>  <SCORE.SYSTEM>
0

>  <SCORE.SYSTEM.CONST>
0

>  <SCORE.SYSTEM.DIHEDRAL>
0

>  <SCORE.SYSTEM.SOLV>
0

>  <SCORE.SYSTEM.norm>
0

>  <SCORE.heavy>
23

>  <SCORE.norm>
-0.395313

>  <RMSD>
0.975

$$$$
ligand
 OpenBabel11021811513D
libRbt.so/2013.1/901 2013/11/27
 23 24  0  0  0  0  0  0  0  0999 V2000
   -9.8525  -10.3834    0.0391 C   0  0  0  0  0  0  0  0  0  0  0  0
  -10.8696   -9.5864    0.6763 O   0  0  0  0  0  0  0  0  0  0  0  0
   -9.1950   -9.5613   -1.0600 C   0  0  2  0  0  0  0  0  0  0  0  0
   -8.1132  -10.2754   -1.8558 C   0  0  1  0  0  0  0  0  0  0  0  0
   -8.7236  -11.1214   -2.8325 O   0  0  0  0  0  0  0  0  0  0  0  0
   -7.3361   -9.1051   -2.4491 C   0  0  2  0  0  0  0  0  0  0  0  0
   -5.9852   -9.3232   -2.8731 O   0  0  0  0  0  0  0  0  0  0  0  0
   -7.3660   -8.1106   -1.3019 C   0  0  2  0  0  0  0  0  0  0  0  0
   -8.5532   -8.3969   -0.5324 O   0  0  0  0  0  0  0  0  0  0  0  0
   -7.3856   -6.6962   -1.9090 C   0  0  0  0  0  0  0  0  0  0  0  0
   -6.1856   -6.3968   -2.6357 O   0  0  0  0  0  0  0  0  0  0  0  0
   -6.3325   -7.7405    0.8481 C   0  0  2  0  0  0  0  0  0  0  0  0
   -6.2314   -8.3478   -0.4514 O   0  0  0  0  0  0  0  0  0  0  0  0
   -4.9203   -7.5136    1.3547 C   0  0  2  0  0  0  0  0  0  0  0  0
   -4.1493   -6.8776    0.3295 O   0  0  0  0  0  0  0  0  0  0  0  0
   -4.2587   -8.8327    1.6882 C   0  0  1  0  0  0  0  0  0  0  0  0
   -3.0397   -8.5674    2.3861 O   0  0  0  0  0  0  0  0  0  0  0  0
   -5.1746   -9.6895    2.5414 C   0  0  2  0  0  0  0  0  0  0  0  0
   -4.5921  -10.9783    2.6796 O   0  0  0  0  0  0  0  0  0  0  0  0
   -6.5580   -9.8374    1.9224 C   0  0  2  0  0  0  0  0  0  0  0  0
   -7.0947   -8.5316    1.7596 O   0  0  0  0  0  0  0  0  0  0  0  0
   -7.4810  -10.6902    2.8009 C   0  0  0  0  0  0  0  0  0  0  0  0
   -7.6152  -10.1792    4.1352 O   0  0  0  0  0  0  0  0  0  0  0  0
  1  2  1  0  0  0  0
  3  1  1  1  0  0  0
  3  9  1  0  0  0  0
  3  4  1  0  0  0  0
  4  5  1  6  0  0  0
  4  6  1  0  0  0  0
  6  7  1  1  0  0  0
  6  8  1  0  0  0  0
  8  9  1  0  0  0  0
  8 10  1  6  0  0  0
  8 13  1  0  0  0  0
 10 11  1  0  0  0  0
 12 13  1  6  0  0  0
 12 14  1  0  0  0  0
 12 21  1  0  0  0  0
 14 15  1  6  0  0  0
 14 16  1  0  0  0  0
 16 17  1  1  0  0  0
 16 18  1  0  0  0  0
 18 19  1  6  0  0  0
 18 20  1  0  0  0  0
 20 21  1  0  0  0  0
 20 22  1  1  0  0  0
 22 23  1  0  0  0  0
M  END
>  <CHROM.1>
-178.64534700,-64.56820551,-154.35778511,-163.62281696,56.57000135,-6.81950177
-8.98879924,0.23517424,2.34173770,-0.45345509,-1.16781156

>  <Name>
ligand

>  <RI>
0

>  <Rbt.Current_Directory>
/home/itssahil/PROJECTS/Mol_Feturizer/New_Systems/rnas/4TS2

>  <Rbt.Executable>
rbdock ($Id: //depot/dev/client3/rdock/2013.1/src/exe/rbdock.cxx#4 $)

>  <Rbt.Library>
libRbt.so (2013.1, Build901 2013/11/27)

>  <Rbt.Parameter_File>
/export/apps/rDock/src/rDock_2013.1_src/data/scripts/dock_solv.prm

>  <Rbt.Receptor>
prm/pocket_docking_4.prm

>  <SCORE>
-9.90568

>  <SCORE.INTER>
-4.0331

>  <SCORE.INTER.CONST>
1

>  <SCORE.INTER.POLAR>
0

>  <SCORE.INTER.ROT>
5

>  <SCORE.INTER.SOLV>
7.99918

>  <SCORE.INTER.VDW>
-12.2885

>  <SCORE.INTER.norm>
-0.175352

>  <SCORE.INTRA>
-5.87258

>  <SCORE.INTRA.DIHEDRAL>
-8.535

>  <SCORE.INTRA.DIHEDRAL.0>
12.4853

>  <SCORE.INTRA.POLAR>
0

>  <SCORE.INTRA.POLAR.0>
0

>  <SCORE.INTRA.REPUL>
0

>  <SCORE.INTRA.REPUL.0>
0

>  <SCORE.INTRA.SOLV>
0.381927

>  <SCORE.INTRA.SOLV.lig_0>
-31.1706

>  <SCORE.INTRA.VDW>
-1.79605

>  <SCORE.INTRA.VDW.0>
-1.16895

>  <SCORE.INTRA.norm>
-0.25533

>  <SCORE.RESTR>
0

>  <SCORE.RESTR.CAVITY>
0

>  <SCORE.RESTR.norm>
0

>  <SCORE.SYSTEM>
0

>  <SCORE.SYSTEM.CONST>
0

>  <SCORE.SYSTEM.DIHEDRAL>
0

>  <SCORE.SYSTEM.SOLV>
0

>  <SCORE.SYSTEM.norm>
0

>  <SCORE.heavy>
23

>  <SCORE.norm>
-0.430682

>  <RMSD>
0.976

$$$$
ligand
 OpenBabel11021811513D
libRbt.so/2013.1/901 2013/11/27
 23 24  0  0  0  0  0  0  0  0999 V2000
   -9.8522  -10.3869    0.0492 C   0  0  0  0  0  0  0  0  0  0  0  0
  -10.8938   -9.6091    0.6702 O   0  0  0  0  0  0  0  0  0  0  0  0
   -9.2011   -9.5568   -1.0478 C   0  0  2  0  0  0  0  0  0  0  0  0
   -8.1149  -10.2609   -1.8466 C   0  0  1  0  0  0  0  0  0  0  0  0
   -8.7201  -11.1081   -2.8255 O   0  0  0  0  0  0  0  0  0  0  0  0
   -7.3464   -9.0834   -2.4367 C   0  0  2  0  0  0  0  0  0  0  0  0
   -5.9943   -9.2907   -2.8623 O   0  0  0  0  0  0  0  0  0  0  0  0
   -7.3824   -8.0927   -1.2864 C   0  0  2  0  0  0  0  0  0  0  0  0
   -8.5671   -8.3896   -0.5171 O   0  0  0  0  0  0  0  0  0  0  0  0
   -7.4123   -6.6765   -1.8891 C   0  0  0  0  0  0  0  0  0  0  0  0
   -6.2137   -6.3655   -2.6132 O   0  0  0  0  0  0  0  0  0  0  0  0
   -6.3521   -7.7258    0.8657 C   0  0  2  0  0  0  0  0  0  0  0  0
   -6.2456   -8.3246   -0.4374 O   0  0  0  0  0  0  0  0  0  0  0  0
   -4.9420   -7.4964    1.3768 C   0  0  2  0  0  0  0  0  0  0  0  0
   -4.1713   -6.8508    0.3573 O   0  0  0  0  0  0  0  0  0  0  0  0
   -4.2757   -8.8149    1.7035 C   0  0  1  0  0  0  0  0  0  0  0  0
   -3.0593   -8.5490    2.4058 O   0  0  0  0  0  0  0  0  0  0  0  0
   -5.1899   -9.6807    2.5493 C   0  0  2  0  0  0  0  0  0  0  0  0
   -4.6024  -10.9679    2.6807 O   0  0  0  0  0  0  0  0  0  0  0  0
   -6.5713   -9.8304    1.9263 C   0  0  2  0  0  0  0  0  0  0  0  0
   -7.1131   -8.5258    1.7706 O   0  0  0  0  0  0  0  0  0  0  0  0
   -7.4927  -10.6925    2.7974 C   0  0  0  0  0  0  0  0  0  0  0  0
   -7.6175  -10.2006    4.1398 O   0  0  0  0  0  0  0  0  0  0  0  0
  1  2  1  0  0  0  0
  3  1  1  1  0  0  0
  3  9  1  0  0  0  0
  3  4  1  0  0  0  0
  4  5  1  6  0  0  0
  4  6  1  0  0  0  0
  6  7  1  1  0  0  0
  6  8  1  0  0  0  0
  8  9  1  0  0  0  0
  8 10  1  6  0  0  0
  8 13  1  0  0  0  0
 10 11  1  0  0  0  0
 12 13  1  6  0  0  0
 12 14  1  0  0  0  0
 12 21  1  0  0  0  0
 14 15  1  6  0  0  0
 14 16  1  0  0  0  0
 16 17  1  1  0  0  0
 16 18  1  0  0  0  0
 18 19  1  6  0  0  0
 18 20  1  0  0  0  0
 20 21  1  0  0  0  0
 20 22  1  1  0  0  0
 22 23  1  0  0  0  0
M  END
>  <CHROM.1>
-177.41824365,-64.69110171,-154.66948420,-163.42235694,55.76964039,-6.83337578
-8.97744491,0.24688824,2.34505564,-0.45952401,-1.16064401

>  <Name>
ligand

>  <RI>
0

>  <Rbt.Current_Directory>
/home/itssahil/PROJECTS/Mol_Feturizer/New_Systems/rnas/4TS2

>  <Rbt.Executable>
rbdock ($Id: //depot/dev/client3/rdock/2013.1/src/exe/rbdock.cxx#4 $)

>  <Rbt.Library>
libRbt.so (2013.1, Build901 2013/11/27)

>  <Rbt.Parameter_File>
/export/apps/rDock/src/rDock_2013.1_src/data/scripts/dock_solv.prm

>  <Rbt.Receptor>
prm/pocket_docking_7.prm

>  <SCORE>
-9.90935

>  <SCORE.INTER>
-4.04763

>  <SCORE.INTER.CONST>
1

>  <SCORE.INTER.POLAR>
0

>  <SCORE.INTER.ROT>
5

>  <SCORE.INTER.SOLV>
8.09711

>  <SCORE.INTER.VDW>
-12.3308

>  <SCORE.INTER.norm>
-0.175984

>  <SCORE.INTRA>
-5.86173

>  <SCORE.INTRA.DIHEDRAL>
-8.52261

>  <SCORE.INTRA.DIHEDRAL.0>
12.4853

>  <SCORE.INTRA.POLAR>
0

>  <SCORE.INTRA.POLAR.0>
0

>  <SCORE.INTRA.REPUL>
0

>  <SCORE.INTRA.REPUL.0>
0

>  <SCORE.INTRA.SOLV>
0.376281

>  <SCORE.INTRA.SOLV.lig_0>
-31.1706

>  <SCORE.INTRA.VDW>
-1.78856

>  <SCORE.INTRA.VDW.0>
-1.16895

>  <SCORE.INTRA.norm>
-0.254858

>  <SCORE.RESTR>
0

>  <SCORE.RESTR.CAVITY>
0

>  <SCORE.RESTR.norm>
0

>  <SCORE.SYSTEM>
0

>  <SCORE.SYSTEM.CONST>
0

>  <SCORE.SYSTEM.DIHEDRAL>
0

>  <SCORE.SYSTEM.SOLV>
0

>  <SCORE.SYSTEM.norm>
0

>  <SCORE.heavy>
23

>  <SCORE.norm>
-0.430841

>  <RMSD>
0.985

$$$$
ligand
 OpenBabel11021811513D
libRbt.so/2013.1/901 2013/11/27
 23 24  0  0  0  0  0  0  0  0999 V2000
  -10.4454   -9.7695    0.3592 C   0  0  0  0  0  0  0  0  0  0  0  0
  -11.3054  -10.7941   -0.1757 O   0  0  0  0  0  0  0  0  0  0  0  0
   -9.6395   -9.1561   -0.7769 C   0  0  2  0  0  0  0  0  0  0  0  0
   -8.7075  -10.1090   -1.5095 C   0  0  1  0  0  0  0  0  0  0  0  0
   -9.4614  -10.8855   -2.4428 O   0  0  0  0  0  0  0  0  0  0  0  0
   -7.7212   -9.1449   -2.1600 C   0  0  2  0  0  0  0  0  0  0  0  0
   -6.4334   -9.6386   -2.5474 O   0  0  0  0  0  0  0  0  0  0  0  0
   -7.5691   -8.0922   -1.0763 C   0  0  2  0  0  0  0  0  0  0  0  0
   -8.7927   -8.1018   -0.3107 O   0  0  0  0  0  0  0  0  0  0  0  0
   -7.3193   -6.7402   -1.7687 C   0  0  0  0  0  0  0  0  0  0  0  0
   -6.1118   -6.7378   -2.5430 O   0  0  0  0  0  0  0  0  0  0  0  0
   -6.4214   -7.7048    1.0119 C   0  0  2  0  0  0  0  0  0  0  0  0
   -6.5036   -8.4837   -0.1941 O   0  0  0  0  0  0  0  0  0  0  0  0
   -4.9512   -7.4552    1.2921 C   0  0  2  0  0  0  0  0  0  0  0  0
   -4.3175   -6.9861    0.0969 O   0  0  0  0  0  0  0  0  0  0  0  0
   -4.2669   -8.7371    1.7131 C   0  0  1  0  0  0  0  0  0  0  0  0
   -2.9618   -8.4179    2.2014 O   0  0  0  0  0  0  0  0  0  0  0  0
   -5.0699   -9.4434    2.7888 C   0  0  2  0  0  0  0  0  0  0  0  0
   -4.4900  -10.7192    3.0243 O   0  0  0  0  0  0  0  0  0  0  0  0
   -6.5258   -9.6309    2.3835 C   0  0  2  0  0  0  0  0  0  0  0  0
   -7.0635   -8.3429    2.1156 O   0  0  0  0  0  0  0  0  0  0  0  0
   -7.3324  -10.3296    3.4844 C   0  0  0  0  0  0  0  0  0  0  0  0
   -6.8694  -11.6595    3.7611 O   0  0  0  0  0  0  0  0  0  0  0  0
  1  2  1  0  0  0  0
  3  1  1  1  0  0  0
  3  9  1  0  0  0  0
  3  4  1  0  0  0  0
  4  5  1  6  0  0  0
  4  6  1  0  0  0  0
  6  7  1  1  0  0  0
  6  8  1  0  0  0  0
  8  9  1  0  0  0  0
  8 10  1  6  0  0  0
  8 13  1  0  0  0  0
 10 11  1  0  0  0  0
 12 13  1  6  0  0  0
 12 14  1  0  0  0  0
 12 21  1  0  0  0  0
 14 15  1  6  0  0  0
 14 16  1  0  0  0  0
 16 17  1  1  0  0  0
 16 18  1  0  0  0  0
 18 19  1  6  0  0  0
 18 20  1  0  0  0  0
 20 21  1  0  0  0  0
 20 22  1  1  0  0  0
 22 23  1  0  0  0  0
M  END
>  <CHROM.1>
-62.10069690,-61.85025261,-139.71874437,-168.97416213,-62.92309072,-6.95861178
-9.02112249,0.37605139,2.57094281,-0.46506346,-1.05230387

>  <Name>
ligand

>  <RI>
0

>  <Rbt.Current_Directory>
/home/itssahil/PROJECTS/Mol_Feturizer/New_Systems/rnas/4TS2

>  <Rbt.Executable>
rbdock ($Id: //depot/dev/client3/rdock/2013.1/src/exe/rbdock.cxx#4 $)

>  <Rbt.Library>
libRbt.so (2013.1, Build901 2013/11/27)

>  <Rbt.Parameter_File>
/export/apps/rDock/src/rDock_2013.1_src/data/scripts/dock_solv.prm

>  <Rbt.Receptor>
prm/pocket_docking_4.prm

>  <SCORE>
-9.30481

>  <SCORE.INTER>
-5.11973

>  <SCORE.INTER.CONST>
1

>  <SCORE.INTER.POLAR>
0

>  <SCORE.INTER.ROT>
5

>  <SCORE.INTER.SOLV>
6.82235

>  <SCORE.INTER.VDW>
-12.6206

>  <SCORE.INTER.norm>
-0.222597

>  <SCORE.INTRA>
-4.18508

>  <SCORE.INTRA.DIHEDRAL>
-6.53629

>  <SCORE.INTRA.DIHEDRAL.0>
12.4853

>  <SCORE.INTRA.POLAR>
0

>  <SCORE.INTRA.POLAR.0>
0

>  <SCORE.INTRA.REPUL>
0

>  <SCORE.INTRA.REPUL.0>
0

>  <SCORE.INTRA.SOLV>
0.59804

>  <SCORE.INTRA.SOLV.lig_0>
-31.1706

>  <SCORE.INTRA.VDW>
-1.21596

>  <SCORE.INTRA.VDW.0>
-1.16895

>  <SCORE.INTRA.norm>
-0.18196

>  <SCORE.RESTR>
0

>  <SCORE.RESTR.CAVITY>
0

>  <SCORE.RESTR.norm>
0

>  <SCORE.SYSTEM>
0

>  <SCORE.SYSTEM.CONST>
0

>  <SCORE.SYSTEM.DIHEDRAL>
0

>  <SCORE.SYSTEM.SOLV>
0

>  <SCORE.SYSTEM.norm>
0

>  <SCORE.heavy>
23

>  <SCORE.norm>
-0.404557

>  <RMSD>
0.988

$$$$
ligand
 OpenBabel11021811513D
libRbt.so/2013.1/901 2013/11/27
 23 24  0  0  0  0  0  0  0  0999 V2000
  -10.5305   -9.5261    0.0686 C   0  0  0  0  0  0  0  0  0  0  0  0
  -11.4728  -10.4176   -0.5581 O   0  0  0  0  0  0  0  0  0  0  0  0
   -9.5313   -9.0479   -0.9751 C   0  0  2  0  0  0  0  0  0  0  0  0
   -8.6141  -10.1191   -1.5450 C   0  0  1  0  0  0  0  0  0  0  0  0
   -9.3182  -10.8662   -2.5391 O   0  0  0  0  0  0  0  0  0  0  0  0
   -7.4629   -9.2850   -2.0970 C   0  0  2  0  0  0  0  0  0  0  0  0
   -6.1922   -9.9161   -2.2955 O   0  0  0  0  0  0  0  0  0  0  0  0
   -7.3442   -8.1992   -1.0421 C   0  0  2  0  0  0  0  0  0  0  0  0
   -8.6491   -8.0561   -0.4420 O   0  0  0  0  0  0  0  0  0  0  0  0
   -6.8761   -6.9125   -1.7455 C   0  0  0  0  0  0  0  0  0  0  0  0
   -7.7530   -6.5226   -2.8117 O   0  0  0  0  0  0  0  0  0  0  0  0
   -6.4142   -7.8035    1.1502 C   0  0  2  0  0  0  0  0  0  0  0  0
   -6.4421   -8.6453   -0.0153 O   0  0  0  0  0  0  0  0  0  0  0  0
   -4.9670   -7.4229    1.4011 C   0  0  2  0  0  0  0  0  0  0  0  0
   -4.3823   -6.9641    0.1772 O   0  0  0  0  0  0  0  0  0  0  0  0
   -4.1780   -8.6232    1.8762 C   0  0  1  0  0  0  0  0  0  0  0  0
   -2.8995   -8.1761    2.3333 O   0  0  0  0  0  0  0  0  0  0  0  0
   -4.9132   -9.3376    2.9942 C   0  0  2  0  0  0  0  0  0  0  0  0
   -4.2301  -10.5494    3.2849 O   0  0  0  0  0  0  0  0  0  0  0  0
   -6.3521   -9.6615    2.6153 C   0  0  2  0  0  0  0  0  0  0  0  0
   -6.9943   -8.4358    2.2910 O   0  0  0  0  0  0  0  0  0  0  0  0
   -7.0913  -10.3675    3.7581 C   0  0  0  0  0  0  0  0  0  0  0  0
   -8.3700  -10.8858    3.3636 O   0  0  0  0  0  0  0  0  0  0  0  0
  1  2  1  0  0  0  0
  3  1  1  1  0  0  0
  3  9  1  0  0  0  0
  3  4  1  0  0  0  0
  4  5  1  6  0  0  0
  4  6  1  0  0  0  0
  6  7  1  1  0  0  0
  6  8  1  0  0  0  0
  8  9  1  0  0  0  0
  8 10  1  6  0  0  0
  8 13  1  0  0  0  0
 10 11  1  0  0  0  0
 12 13  1  6  0  0  0
 12 14  1  0  0  0  0
 12 21  1  0  0  0  0
 14 15  1  6  0  0  0
 14 16  1  0  0  0  0
 16 17  1  1  0  0  0
 16 18  1  0  0  0  0
 18 19  1  6  0  0  0
 18 20  1  0  0  0  0
 20 21  1  0  0  0  0
 20 22  1  1  0  0  0
 22 23  1  0  0  0  0
M  END
>  <CHROM.1>
-66.14977812,56.54184963,-126.35941286,-170.21431729,-170.19091487,-7.00602521
-8.95668182,0.39446589,2.52903940,-0.44478448,-1.11306991

>  <Name>
ligand

>  <RI>
0

>  <Rbt.Current_Directory>
/home/itssahil/PROJECTS/Mol_Feturizer/New_Systems/rnas/4TS2

>  <Rbt.Executable>
rbdock ($Id: //depot/dev/client3/rdock/2013.1/src/exe/rbdock.cxx#4 $)

>  <Rbt.Library>
libRbt.so (2013.1, Build901 2013/11/27)

>  <Rbt.Parameter_File>
/export/apps/rDock/src/rDock_2013.1_src/data/scripts/dock_solv.prm

>  <Rbt.Receptor>
prm/pocket_docking_7.prm

>  <SCORE>
-9.05756

>  <SCORE.INTER>
-5.5402

>  <SCORE.INTER.CONST>
1

>  <SCORE.INTER.POLAR>
0

>  <SCORE.INTER.ROT>
5

>  <SCORE.INTER.SOLV>
7.79803

>  <SCORE.INTER.VDW>
-13.2261

>  <SCORE.INTER.norm>
-0.240878

>  <SCORE.INTRA>
-3.51735

>  <SCORE.INTRA.DIHEDRAL>
-4.65114

>  <SCORE.INTRA.DIHEDRAL.0>
12.4853

>  <SCORE.INTRA.POLAR>
0

>  <SCORE.INTRA.POLAR.0>
0

>  <SCORE.INTRA.REPUL>
0

>  <SCORE.INTRA.REPUL.0>
0

>  <SCORE.INTRA.SOLV>
-0.151058

>  <SCORE.INTRA.SOLV.lig_0>
-31.1706

>  <SCORE.INTRA.VDW>
-1.11626

>  <SCORE.INTRA.VDW.0>
-1.16895

>  <SCORE.INTRA.norm>
-0.152928

>  <SCORE.RESTR>
0

>  <SCORE.RESTR.CAVITY>
0

>  <SCORE.RESTR.norm>
0

>  <SCORE.SYSTEM>
0

>  <SCORE.SYSTEM.CONST>
0

>  <SCORE.SYSTEM.DIHEDRAL>
0

>  <SCORE.SYSTEM.SOLV>
0

>  <SCORE.SYSTEM.norm>
0

>  <SCORE.heavy>
23

>  <SCORE.norm>
-0.393807

>  <RMSD>
0.988

$$$$
ligand
 OpenBabel11021811513D
libRbt.so/2013.1/901 2013/11/27
 23 24  0  0  0  0  0  0  0  0999 V2000
   -9.8675  -10.3934    0.0489 C   0  0  0  0  0  0  0  0  0  0  0  0
  -10.9344   -9.6365    0.6524 O   0  0  0  0  0  0  0  0  0  0  0  0
   -9.2188   -9.5528   -1.0414 C   0  0  2  0  0  0  0  0  0  0  0  0
   -8.1378  -10.2506   -1.8526 C   0  0  1  0  0  0  0  0  0  0  0  0
   -8.7493  -11.0852   -2.8384 O   0  0  0  0  0  0  0  0  0  0  0  0
   -7.3686   -9.0685   -2.4326 C   0  0  2  0  0  0  0  0  0  0  0  0
   -6.0189   -9.2746   -2.8662 O   0  0  0  0  0  0  0  0  0  0  0  0
   -7.3972   -8.0908   -1.2711 C   0  0  2  0  0  0  0  0  0  0  0  0
   -8.5794   -8.3933   -0.5002 O   0  0  0  0  0  0  0  0  0  0  0  0
   -7.4258   -6.6679   -1.8578 C   0  0  0  0  0  0  0  0  0  0  0  0
   -6.2181   -6.3419   -2.5598 O   0  0  0  0  0  0  0  0  0  0  0  0
   -6.3484   -7.7344    0.8738 C   0  0  2  0  0  0  0  0  0  0  0  0
   -6.2575   -8.3352   -0.4296 O   0  0  0  0  0  0  0  0  0  0  0  0
   -4.9322   -7.4955    1.3635 C   0  0  2  0  0  0  0  0  0  0  0  0
   -4.1805   -6.8474    0.3315 O   0  0  0  0  0  0  0  0  0  0  0  0
   -4.2534   -8.8093    1.6830 C   0  0  1  0  0  0  0  0  0  0  0  0
   -3.0284   -8.5347    2.3668 O   0  0  0  0  0  0  0  0  0  0  0  0
   -5.1498   -9.6787    2.5440 C   0  0  2  0  0  0  0  0  0  0  0  0
   -4.5528  -10.9622    2.6693 O   0  0  0  0  0  0  0  0  0  0  0  0
   -6.5393   -9.8380    1.9417 C   0  0  2  0  0  0  0  0  0  0  0  0
   -7.0911   -8.5369    1.7913 O   0  0  0  0  0  0  0  0  0  0  0  0
   -7.4427  -10.7037    2.8280 C   0  0  0  0  0  0  0  0  0  0  0  0
   -7.6398  -10.1509    4.1376 O   0  0  0  0  0  0  0  0  0  0  0  0
  1  2  1  0  0  0  0
  3  1  1  1  0  0  0
  3  9  1  0  0  0  0
  3  4  1  0  0  0  0
  4  5  1  6  0  0  0
  4  6  1  0  0  0  0
  6  7  1  1  0  0  0
  6  8  1  0  0  0  0
  8  9  1  0  0  0  0
  8 10  1  6  0  0  0
  8 13  1  0  0  0  0
 10 11  1  0  0  0  0
 12 13  1  6  0  0  0
 12 14  1  0  0  0  0
 12 21  1  0  0  0  0
 14 15  1  6  0  0  0
 14 16  1  0  0  0  0
 16 17  1  1  0  0  0
 16 18  1  0  0  0  0
 18 19  1  6  0  0  0
 18 20  1  0  0  0  0
 20 21  1  0  0  0  0
 20 22  1  1  0  0  0
 22 23  1  0  0  0  0
M  END
>  <CHROM.1>
-175.48312720,-65.89868416,-153.56520586,-164.28859645,60.63021473,-6.83374966
-8.97295870,0.24890221,2.36964754,-0.45477794,-1.15769070

>  <Name>
ligand

>  <RI>
0

>  <Rbt.Current_Directory>
/home/itssahil/PROJECTS/Mol_Feturizer/New_Systems/rnas/4TS2

>  <Rbt.Executable>
rbdock ($Id: //depot/dev/client3/rdock/2013.1/src/exe/rbdock.cxx#4 $)

>  <Rbt.Library>
libRbt.so (2013.1, Build901 2013/11/27)

>  <Rbt.Parameter_File>
/export/apps/rDock/src/rDock_2013.1_src/data/scripts/dock_solv.prm

>  <Rbt.Receptor>
prm/pocket_docking_8.prm

>  <SCORE>
-9.82844

>  <SCORE.INTER>
-3.96764

>  <SCORE.INTER.CONST>
1

>  <SCORE.INTER.POLAR>
0

>  <SCORE.INTER.ROT>
5

>  <SCORE.INTER.SOLV>
8.16903

>  <SCORE.INTER.VDW>
-12.3014

>  <SCORE.INTER.norm>
-0.172506

>  <SCORE.INTRA>
-5.86079

>  <SCORE.INTRA.DIHEDRAL>
-8.41299

>  <SCORE.INTRA.DIHEDRAL.0>
12.4853

>  <SCORE.INTRA.POLAR>
0

>  <SCORE.INTRA.POLAR.0>
0

>  <SCORE.INTRA.REPUL>
0

>  <SCORE.INTRA.REPUL.0>
0

>  <SCORE.INTRA.SOLV>
0.32711

>  <SCORE.INTRA.SOLV.lig_0>
-31.1706

>  <SCORE.INTRA.VDW>
-1.81785

>  <SCORE.INTRA.VDW.0>
-1.16895

>  <SCORE.INTRA.norm>
-0.254817

>  <SCORE.RESTR>
0

>  <SCORE.RESTR.CAVITY>
0

>  <SCORE.RESTR.norm>
0

>  <SCORE.SYSTEM>
0

>  <SCORE.SYSTEM.CONST>
0

>  <SCORE.SYSTEM.DIHEDRAL>
0

>  <SCORE.SYSTEM.SOLV>
0

>  <SCORE.SYSTEM.norm>
0

>  <SCORE.heavy>
23

>  <SCORE.norm>
-0.427323

>  <RMSD>
0.988

$$$$
ligand
 OpenBabel11021811513D
libRbt.so/2013.1/901 2013/11/27
 23 24  0  0  0  0  0  0  0  0999 V2000
   -9.6089  -10.4402   -0.1779 C   0  0  0  0  0  0  0  0  0  0  0  0
  -10.6771   -9.6357    0.3580 O   0  0  0  0  0  0  0  0  0  0  0  0
   -8.8599   -9.6330   -1.2286 C   0  0  2  0  0  0  0  0  0  0  0  0
   -7.6940  -10.3462   -1.8960 C   0  0  1  0  0  0  0  0  0  0  0  0
   -8.1920  -11.2268   -2.9053 O   0  0  0  0  0  0  0  0  0  0  0  0
   -6.8813   -9.1765   -2.4408 C   0  0  2  0  0  0  0  0  0  0  0  0
   -5.4920   -9.3798   -2.7251 O   0  0  0  0  0  0  0  0  0  0  0  0
   -7.0395   -8.1551   -1.3283 C   0  0  2  0  0  0  0  0  0  0  0  0
   -8.2917   -8.4445   -0.6713 O   0  0  0  0  0  0  0  0  0  0  0  0
   -7.0221   -6.7564   -1.9711 C   0  0  0  0  0  0  0  0  0  0  0  0
   -7.9794   -6.6307   -3.0319 O   0  0  0  0  0  0  0  0  0  0  0  0
   -6.2345   -7.7254    0.9066 C   0  0  2  0  0  0  0  0  0  0  0  0
   -5.9901   -8.3505   -0.3652 O   0  0  0  0  0  0  0  0  0  0  0  0
   -4.8849   -7.4224    1.5305 C   0  0  2  0  0  0  0  0  0  0  0  0
   -4.0556   -6.7689    0.5634 O   0  0  0  0  0  0  0  0  0  0  0  0
   -4.1958   -8.7023    1.9502 C   0  0  1  0  0  0  0  0  0  0  0  0
   -3.0573   -8.3667    2.7468 O   0  0  0  0  0  0  0  0  0  0  0  0
   -5.1438   -9.5862    2.7381 C   0  0  2  0  0  0  0  0  0  0  0  0
   -4.5174  -10.8431    2.9556 O   0  0  0  0  0  0  0  0  0  0  0  0
   -6.4583   -9.8111    2.0029 C   0  0  2  0  0  0  0  0  0  0  0  0
   -7.0377   -8.5354    1.7647 O   0  0  0  0  0  0  0  0  0  0  0  0
   -7.4158  -10.6909    2.8153 C   0  0  0  0  0  0  0  0  0  0  0  0
   -7.6868  -10.1661    4.1233 O   0  0  0  0  0  0  0  0  0  0  0  0
  1  2  1  0  0  0  0
  3  1  1  1  0  0  0
  3  9  1  0  0  0  0
  3  4  1  0  0  0  0
  4  5  1  6  0  0  0
  4  6  1  0  0  0  0
  6  7  1  1  0  0  0
  6  8  1  0  0  0  0
  8  9  1  0  0  0  0
  8 10  1  6  0  0  0
  8 13  1  0  0  0  0
 10 11  1  0  0  0  0
 12 13  1  6  0  0  0
 12 14  1  0  0  0  0
 12 21  1  0  0  0  0
 14 15  1  6  0  0  0
 14 16  1  0  0  0  0
 16 17  1  1  0  0  0
 16 18  1  0  0  0  0
 18 19  1  6  0  0  0
 18 20  1  0  0  0  0
 20 21  1  0  0  0  0
 20 22  1  1  0  0  0
 22 23  1  0  0  0  0
M  END
>  <CHROM.1>
-179.95931242,53.07840584,-152.90181388,-163.00649781,56.30097722,-6.71673016
-8.99137591,0.25367217,2.26967822,-0.49455843,-1.17847531

>  <Name>
ligand

>  <RI>
0

>  <Rbt.Current_Directory>
/home/itssahil/PROJECTS/Mol_Feturizer/New_Systems/rnas/4TS2

>  <Rbt.Executable>
rbdock ($Id: //depot/dev/client3/rdock/2013.1/src/exe/rbdock.cxx#4 $)

>  <Rbt.Library>
libRbt.so (2013.1, Build901 2013/11/27)

>  <Rbt.Parameter_File>
/export/apps/rDock/src/rDock_2013.1_src/data/scripts/dock_solv.prm

>  <Rbt.Receptor>
prm/pocket_docking_3.prm

>  <SCORE>
-9.21611

>  <SCORE.INTER>
-3.70252

>  <SCORE.INTER.CONST>
1

>  <SCORE.INTER.POLAR>
0

>  <SCORE.INTER.ROT>
5

>  <SCORE.INTER.SOLV>
8.1552

>  <SCORE.INTER.VDW>
-12.1201

>  <SCORE.INTER.norm>
-0.160979

>  <SCORE.INTRA>
-5.51359

>  <SCORE.INTRA.DIHEDRAL>
-8.10882

>  <SCORE.INTRA.DIHEDRAL.0>
12.4853

>  <SCORE.INTRA.POLAR>
0

>  <SCORE.INTRA.POLAR.0>
0

>  <SCORE.INTRA.REPUL>
0

>  <SCORE.INTRA.REPUL.0>
0

>  <SCORE.INTRA.SOLV>
0.126387

>  <SCORE.INTRA.SOLV.lig_0>
-31.1706

>  <SCORE.INTRA.VDW>
-1.52237

>  <SCORE.INTRA.VDW.0>
-1.16895

>  <SCORE.INTRA.norm>
-0.239721

>  <SCORE.RESTR>
0

>  <SCORE.RESTR.CAVITY>
0

>  <SCORE.RESTR.norm>
0

>  <SCORE.SYSTEM>
0

>  <SCORE.SYSTEM.CONST>
0

>  <SCORE.SYSTEM.DIHEDRAL>
0

>  <SCORE.SYSTEM.SOLV>
0

>  <SCORE.SYSTEM.norm>
0

>  <SCORE.heavy>
23

>  <SCORE.norm>
-0.4007

>  <RMSD>
0.994

$$$$
ligand
 OpenBabel11021811513D
libRbt.so/2013.1/901 2013/11/27
 23 24  0  0  0  0  0  0  0  0999 V2000
  -10.6052   -9.5276    0.0608 C   0  0  0  0  0  0  0  0  0  0  0  0
  -11.5579  -10.4188   -0.5505 O   0  0  0  0  0  0  0  0  0  0  0  0
   -9.6186   -9.0553   -0.9975 C   0  0  2  0  0  0  0  0  0  0  0  0
   -8.7066  -10.1293   -1.5705 C   0  0  1  0  0  0  0  0  0  0  0  0
   -9.4211  -10.8842   -2.5513 O   0  0  0  0  0  0  0  0  0  0  0  0
   -7.5629   -9.2977   -2.1413 C   0  0  2  0  0  0  0  0  0  0  0  0
   -6.2938   -9.9284   -2.3500 O   0  0  0  0  0  0  0  0  0  0  0  0
   -7.4336   -8.2044   -1.0954 C   0  0  2  0  0  0  0  0  0  0  0  0
   -8.7317   -8.0588   -0.4814 O   0  0  0  0  0  0  0  0  0  0  0  0
   -6.9753   -6.9220   -1.8130 C   0  0  0  0  0  0  0  0  0  0  0  0
   -7.8387   -6.5670   -2.9021 O   0  0  0  0  0  0  0  0  0  0  0  0
   -6.4774   -7.7910    1.0823 C   0  0  2  0  0  0  0  0  0  0  0  0
   -6.5193   -8.6423   -0.0759 O   0  0  0  0  0  0  0  0  0  0  0  0
   -5.0287   -7.3986    1.3054 C   0  0  2  0  0  0  0  0  0  0  0  0
   -4.4681   -6.9456    0.0682 O   0  0  0  0  0  0  0  0  0  0  0  0
   -4.2236   -8.5897    1.7764 C   0  0  1  0  0  0  0  0  0  0  0  0
   -2.9405   -8.1304    2.2081 O   0  0  0  0  0  0  0  0  0  0  0  0
   -4.9347   -9.3002    2.9124 C   0  0  2  0  0  0  0  0  0  0  0  0
   -4.2384  -10.5049    3.2009 O   0  0  0  0  0  0  0  0  0  0  0  0
   -6.3775   -9.6368    2.5606 C   0  0  2  0  0  0  0  0  0  0  0  0
   -7.0336   -8.4181    2.2378 O   0  0  0  0  0  0  0  0  0  0  0  0
   -7.0923  -10.3387    3.7214 C   0  0  0  0  0  0  0  0  0  0  0  0
   -8.3669  -10.8828    3.3487 O   0  0  0  0  0  0  0  0  0  0  0  0
  1  2  1  0  0  0  0
  3  1  1  1  0  0  0
  3  9  1  0  0  0  0
  3  4  1  0  0  0  0
  4  5  1  6  0  0  0
  4  6  1  0  0  0  0
  6  7  1  1  0  0  0
  6  8  1  0  0  0  0
  8  9  1  0  0  0  0
  8 10  1  6  0  0  0
  8 13  1  0  0  0  0
 10 11  1  0  0  0  0
 12 13  1  6  0  0  0
 12 14  1  0  0  0  0
 12 21  1  0  0  0  0
 14 15  1  6  0  0  0
 14 16  1  0  0  0  0
 16 17  1  1  0  0  0
 16 18  1  0  0  0  0
 18 19  1  6  0  0  0
 18 20  1  0  0  0  0
 20 21  1  0  0  0  0
 20 22  1  1  0  0  0
 22 23  1  0  0  0  0
M  END
>  <CHROM.1>
-66.46491395,54.47171346,-125.87098324,-170.32278099,-169.48870631,-7.06976118
-8.94956404,0.33826320,2.54284584,-0.44144658,-1.11478816

>  <Name>
ligand

>  <RI>
0

>  <Rbt.Current_Directory>
/home/itssahil/PROJECTS/Mol_Feturizer/New_Systems/rnas/4TS2

>  <Rbt.Executable>
rbdock ($Id: //depot/dev/client3/rdock/2013.1/src/exe/rbdock.cxx#4 $)

>  <Rbt.Library>
libRbt.so (2013.1, Build901 2013/11/27)

>  <Rbt.Parameter_File>
/export/apps/rDock/src/rDock_2013.1_src/data/scripts/dock_solv.prm

>  <Rbt.Receptor>
prm/pocket_docking_5.prm

>  <SCORE>
-9.12997

>  <SCORE.INTER>
-5.74038

>  <SCORE.INTER.CONST>
1

>  <SCORE.INTER.POLAR>
0

>  <SCORE.INTER.ROT>
5

>  <SCORE.INTER.SOLV>
7.91248

>  <SCORE.INTER.VDW>
-13.3977

>  <SCORE.INTER.norm>
-0.249582

>  <SCORE.INTRA>
-3.38959

>  <SCORE.INTRA.DIHEDRAL>
-4.51823

>  <SCORE.INTRA.DIHEDRAL.0>
12.4853

>  <SCORE.INTRA.POLAR>
0

>  <SCORE.INTRA.POLAR.0>
0

>  <SCORE.INTRA.REPUL>
0

>  <SCORE.INTRA.REPUL.0>
0

>  <SCORE.INTRA.SOLV>
-0.153294

>  <SCORE.INTRA.SOLV.lig_0>
-31.1706

>  <SCORE.INTRA.VDW>
-1.05383

>  <SCORE.INTRA.VDW.0>
-1.16895

>  <SCORE.INTRA.norm>
-0.147374

>  <SCORE.RESTR>
0

>  <SCORE.RESTR.CAVITY>
0

>  <SCORE.RESTR.norm>
0

>  <SCORE.SYSTEM>
0

>  <SCORE.SYSTEM.CONST>
0

>  <SCORE.SYSTEM.DIHEDRAL>
0

>  <SCORE.SYSTEM.SOLV>
0

>  <SCORE.SYSTEM.norm>
0

>  <SCORE.heavy>
23

>  <SCORE.norm>
-0.396955

>  <RMSD>
0.994

$$$$
ligand
 OpenBabel11021811513D
libRbt.so/2013.1/901 2013/11/27
 23 24  0  0  0  0  0  0  0  0999 V2000
   -9.6641  -10.3415   -0.1771 C   0  0  0  0  0  0  0  0  0  0  0  0
  -10.7293   -9.4780    0.2648 O   0  0  0  0  0  0  0  0  0  0  0  0
   -8.8653   -9.6290   -1.2591 C   0  0  2  0  0  0  0  0  0  0  0  0
   -7.7179  -10.4263   -1.8602 C   0  0  1  0  0  0  0  0  0  0  0  0
   -8.2338  -11.3458   -2.8249 O   0  0  0  0  0  0  0  0  0  0  0  0
   -6.8495   -9.3243   -2.4577 C   0  0  2  0  0  0  0  0  0  0  0  0
   -5.4649   -9.5988   -2.7022 O   0  0  0  0  0  0  0  0  0  0  0  0
   -6.9853   -8.2325   -1.4111 C   0  0  2  0  0  0  0  0  0  0  0  0
   -8.2592   -8.4324   -0.7626 O   0  0  0  0  0  0  0  0  0  0  0  0
   -6.9004   -6.8768   -2.1354 C   0  0  0  0  0  0  0  0  0  0  0  0
   -7.9330   -6.7168   -3.1182 O   0  0  0  0  0  0  0  0  0  0  0  0
   -6.2113   -7.7165    0.8165 C   0  0  2  0  0  0  0  0  0  0  0  0
   -5.9613   -8.4107   -0.4179 O   0  0  0  0  0  0  0  0  0  0  0  0
   -4.8646   -7.3884    1.4339 C   0  0  2  0  0  0  0  0  0  0  0  0
   -4.0238   -6.7928    0.4397 O   0  0  0  0  0  0  0  0  0  0  0  0
   -4.1868   -8.6479    1.9272 C   0  0  1  0  0  0  0  0  0  0  0  0
   -3.0522   -8.2766    2.7136 O   0  0  0  0  0  0  0  0  0  0  0  0
   -5.1463   -9.4825    2.7541 C   0  0  2  0  0  0  0  0  0  0  0  0
   -4.5295  -10.7295    3.0438 O   0  0  0  0  0  0  0  0  0  0  0  0
   -6.4565   -9.7388    2.0217 C   0  0  2  0  0  0  0  0  0  0  0  0
   -7.0261   -8.4745    1.7106 O   0  0  0  0  0  0  0  0  0  0  0  0
   -7.4257  -10.5680    2.8726 C   0  0  0  0  0  0  0  0  0  0  0  0
   -6.9599  -11.9042    3.1122 O   0  0  0  0  0  0  0  0  0  0  0  0
  1  2  1  0  0  0  0
  3  1  1  1  0  0  0
  3  9  1  0  0  0  0
  3  4  1  0  0  0  0
  4  5  1  6  0  0  0
  4  6  1  0  0  0  0
  6  7  1  1  0  0  0
  6  8  1  0  0  0  0
  8  9  1  0  0  0  0
  8 10  1  6  0  0  0
  8 13  1  0  0  0  0
 10 11  1  0  0  0  0
 12 13  1  6  0  0  0
 12 14  1  0  0  0  0
 12 21  1  0  0  0  0
 14 15  1  6  0  0  0
 14 16  1  0  0  0  0
 16 17  1  1  0  0  0
 16 18  1  0  0  0  0
 18 19  1  6  0  0  0
 18 20  1  0  0  0  0
 20 21  1  0  0  0  0
 20 22  1  1  0  0  0
 22 23  1  0  0  0  0
M  END
>  <CHROM.1>
-178.49056828,59.77347131,-151.34485980,-162.15790329,-66.10184393,-6.67180353
-9.07472227,0.17414839,2.37003733,-0.56309542,-1.04609234

>  <Name>
ligand

>  <RI>
0

>  <Rbt.Current_Directory>
/home/itssahil/PROJECTS/Mol_Feturizer/New_Systems/rnas/4TS2

>  <Rbt.Executable>
rbdock ($Id: //depot/dev/client3/rdock/2013.1/src/exe/rbdock.cxx#4 $)

>  <Rbt.Library>
libRbt.so (2013.1, Build901 2013/11/27)

>  <Rbt.Parameter_File>
/export/apps/rDock/src/rDock_2013.1_src/data/scripts/dock_solv.prm

>  <Rbt.Receptor>
prm/pocket_docking_3.prm

>  <SCORE>
-9.07873

>  <SCORE.INTER>
-3.77894

>  <SCORE.INTER.CONST>
1

>  <SCORE.INTER.POLAR>
0

>  <SCORE.INTER.ROT>
5

>  <SCORE.INTER.SOLV>
7.25011

>  <SCORE.INTER.VDW>
-11.8693

>  <SCORE.INTER.norm>
-0.164302

>  <SCORE.INTRA>
-5.29979

>  <SCORE.INTRA.DIHEDRAL>
-7.72655

>  <SCORE.INTRA.DIHEDRAL.0>
12.4853

>  <SCORE.INTRA.POLAR>
0

>  <SCORE.INTRA.POLAR.0>
0

>  <SCORE.INTRA.REPUL>
0

>  <SCORE.INTRA.REPUL.0>
0

>  <SCORE.INTRA.SOLV>
0.0675251

>  <SCORE.INTRA.SOLV.lig_0>
-31.1706

>  <SCORE.INTRA.VDW>
-1.47027

>  <SCORE.INTRA.VDW.0>
-1.16895

>  <SCORE.INTRA.norm>
-0.230425

>  <SCORE.RESTR>
0

>  <SCORE.RESTR.CAVITY>
0

>  <SCORE.RESTR.norm>
0

>  <SCORE.SYSTEM>
0

>  <SCORE.SYSTEM.CONST>
0

>  <SCORE.SYSTEM.DIHEDRAL>
0

>  <SCORE.SYSTEM.SOLV>
0

>  <SCORE.SYSTEM.norm>
0

>  <SCORE.heavy>
23

>  <SCORE.norm>
-0.394727

>  <RMSD>
0.996

$$$$
ligand
 OpenBabel11021811513D
libRbt.so/2013.1/901 2013/11/27
 23 24  0  0  0  0  0  0  0  0999 V2000
   -9.9826  -10.2633    0.1937 C   0  0  0  0  0  0  0  0  0  0  0  0
  -11.0538   -9.4779    0.7515 O   0  0  0  0  0  0  0  0  0  0  0  0
   -9.3139   -9.4695   -0.9195 C   0  0  2  0  0  0  0  0  0  0  0  0
   -8.2673  -10.2232   -1.7257 C   0  0  1  0  0  0  0  0  0  0  0  0
   -8.9187  -11.0544   -2.6886 O   0  0  0  0  0  0  0  0  0  0  0  0
   -7.4608   -9.0825   -2.3369 C   0  0  2  0  0  0  0  0  0  0  0  0
   -6.1239   -9.3471   -2.7782 O   0  0  0  0  0  0  0  0  0  0  0  0
   -7.4421   -8.0809   -1.1957 C   0  0  2  0  0  0  0  0  0  0  0  0
   -8.6271   -8.3237   -0.4082 O   0  0  0  0  0  0  0  0  0  0  0  0
   -7.4240   -6.6701   -1.8113 C   0  0  0  0  0  0  0  0  0  0  0  0
   -6.2330   -6.4207   -2.5710 O   0  0  0  0  0  0  0  0  0  0  0  0
   -6.3277   -7.6662    0.9052 C   0  0  2  0  0  0  0  0  0  0  0  0
   -6.3041   -8.3502   -0.3595 O   0  0  0  0  0  0  0  0  0  0  0  0
   -4.8877   -7.4279    1.3198 C   0  0  2  0  0  0  0  0  0  0  0  0
   -4.1684   -6.8631    0.2181 O   0  0  0  0  0  0  0  0  0  0  0  0
   -4.2212   -8.7333    1.6946 C   0  0  1  0  0  0  0  0  0  0  0  0
   -2.9631   -8.4429    2.3081 O   0  0  0  0  0  0  0  0  0  0  0  0
   -5.0967   -9.5267    2.6459 C   0  0  2  0  0  0  0  0  0  0  0  0
   -4.5196  -10.8124    2.8285 O   0  0  0  0  0  0  0  0  0  0  0  0
   -6.5134   -9.6933    2.1129 C   0  0  2  0  0  0  0  0  0  0  0  0
   -7.0460   -8.3926    1.9023 O   0  0  0  0  0  0  0  0  0  0  0  0
   -7.3946  -10.4812    3.0895 C   0  0  0  0  0  0  0  0  0  0  0  0
   -6.9721  -11.8430    3.2530 O   0  0  0  0  0  0  0  0  0  0  0  0
  1  2  1  0  0  0  0
  3  1  1  1  0  0  0
  3  9  1  0  0  0  0
  3  4  1  0  0  0  0
  4  5  1  6  0  0  0
  4  6  1  0  0  0  0
  6  7  1  1  0  0  0
  6  8  1  0  0  0  0
  8  9  1  0  0  0  0
  8 10  1  6  0  0  0
  8 13  1  0  0  0  0
 10 11  1  0  0  0  0
 12 13  1  6  0  0  0
 12 14  1  0  0  0  0
 12 21  1  0  0  0  0
 14 15  1  6  0  0  0
 14 16  1  0  0  0  0
 16 17  1  1  0  0  0
 16 18  1  0  0  0  0
 18 19  1  6  0  0  0
 18 20  1  0  0  0  0
 20 21  1  0  0  0  0
 20 22  1  1  0  0  0
 22 23  1  0  0  0  0
M  END
>  <CHROM.1>
-172.97120072,-63.79747435,-150.56927588,-167.27001572,-65.58490336,-6.82821744
-8.99317193,0.28033922,2.48593801,-0.46981633,-1.03870696

>  <Name>
ligand

>  <RI>
0

>  <Rbt.Current_Directory>
/home/itssahil/PROJECTS/Mol_Feturizer/New_Systems/rnas/4TS2

>  <Rbt.Executable>
rbdock ($Id: //depot/dev/client3/rdock/2013.1/src/exe/rbdock.cxx#4 $)

>  <Rbt.Library>
libRbt.so (2013.1, Build901 2013/11/27)

>  <Rbt.Parameter_File>
/export/apps/rDock/src/rDock_2013.1_src/data/scripts/dock_solv.prm

>  <Rbt.Receptor>
prm/pocket_docking_4.prm

>  <SCORE>
-9.52889

>  <SCORE.INTER>
-4.06022

>  <SCORE.INTER.CONST>
1

>  <SCORE.INTER.POLAR>
0

>  <SCORE.INTER.ROT>
5

>  <SCORE.INTER.SOLV>
7.70031

>  <SCORE.INTER.VDW>
-12.2069

>  <SCORE.INTER.norm>
-0.176531

>  <SCORE.INTRA>
-5.46867

>  <SCORE.INTRA.DIHEDRAL>
-8.04247

>  <SCORE.INTRA.DIHEDRAL.0>
12.4853

>  <SCORE.INTRA.POLAR>
0

>  <SCORE.INTRA.POLAR.0>
0

>  <SCORE.INTRA.REPUL>
0

>  <SCORE.INTRA.REPUL.0>
0

>  <SCORE.INTRA.SOLV>
0.267421

>  <SCORE.INTRA.SOLV.lig_0>
-31.1706

>  <SCORE.INTRA.VDW>
-1.58115

>  <SCORE.INTRA.VDW.0>
-1.16895

>  <SCORE.INTRA.norm>
-0.237768

>  <SCORE.RESTR>
0

>  <SCORE.RESTR.CAVITY>
0

>  <SCORE.RESTR.norm>
0

>  <SCORE.SYSTEM>
0

>  <SCORE.SYSTEM.CONST>
0

>  <SCORE.SYSTEM.DIHEDRAL>
0

>  <SCORE.SYSTEM.SOLV>
0

>  <SCORE.SYSTEM.norm>
0

>  <SCORE.heavy>
23

>  <SCORE.norm>
-0.4143

>  <RMSD>
0.996

$$$$
ligand
 OpenBabel11021811513D
libRbt.so/2013.1/901 2013/11/27
 23 24  0  0  0  0  0  0  0  0999 V2000
   -9.8954  -10.3751    0.1155 C   0  0  0  0  0  0  0  0  0  0  0  0
  -10.9343   -9.5868    0.7278 O   0  0  0  0  0  0  0  0  0  0  0  0
   -9.2445   -9.5612   -0.9937 C   0  0  2  0  0  0  0  0  0  0  0  0
   -8.1756  -10.2850   -1.7981 C   0  0  1  0  0  0  0  0  0  0  0  0
   -8.8014  -11.1311   -2.7649 O   0  0  0  0  0  0  0  0  0  0  0  0
   -7.3977   -9.1217   -2.4041 C   0  0  2  0  0  0  0  0  0  0  0  0
   -6.0527   -9.3497   -2.8415 O   0  0  0  0  0  0  0  0  0  0  0  0
   -7.4094   -8.1227   -1.2606 C   0  0  2  0  0  0  0  0  0  0  0  0
   -8.5901   -8.3987   -0.4776 O   0  0  0  0  0  0  0  0  0  0  0  0
   -7.4269   -6.7105   -1.8731 C   0  0  0  0  0  0  0  0  0  0  0  0
   -6.2222   -6.4119   -2.5923 O   0  0  0  0  0  0  0  0  0  0  0  0
   -6.3334   -7.7180    0.8621 C   0  0  2  0  0  0  0  0  0  0  0  0
   -6.2674   -8.3635   -0.4212 O   0  0  0  0  0  0  0  0  0  0  0  0
   -4.9080   -7.4844    1.3269 C   0  0  2  0  0  0  0  0  0  0  0  0
   -4.1596   -6.8826    0.2649 O   0  0  0  0  0  0  0  0  0  0  0  0
   -4.2447   -8.7968    1.6824 C   0  0  1  0  0  0  0  0  0  0  0  0
   -3.0075   -8.5180    2.3421 O   0  0  0  0  0  0  0  0  0  0  0  0
   -5.1432   -9.6233    2.5826 C   0  0  2  0  0  0  0  0  0  0  0  0
   -4.5636  -10.9108    2.7440 O   0  0  0  0  0  0  0  0  0  0  0  0
   -6.5422   -9.7817    2.0023 C   0  0  2  0  0  0  0  0  0  0  0  0
   -7.0765   -8.4782    1.8148 O   0  0  0  0  0  0  0  0  0  0  0  0
   -7.4472  -10.6035    2.9278 C   0  0  0  0  0  0  0  0  0  0  0  0
   -7.0322  -11.9720    3.0480 O   0  0  0  0  0  0  0  0  0  0  0  0
  1  2  1  0  0  0  0
  3  1  1  1  0  0  0
  3  9  1  0  0  0  0
  3  4  1  0  0  0  0
  4  5  1  6  0  0  0
  4  6  1  0  0  0  0
  6  7  1  1  0  0  0
  6  8  1  0  0  0  0
  8  9  1  0  0  0  0
  8 10  1  6  0  0  0
  8 13  1  0  0  0  0
 10 11  1  0  0  0  0
 12 13  1  6  0  0  0
 12 14  1  0  0  0  0
 12 21  1  0  0  0  0
 14 15  1  6  0  0  0
 14 16  1  0  0  0  0
 16 17  1  1  0  0  0
 16 18  1  0  0  0  0
 18 19  1  6  0  0  0
 18 20  1  0  0  0  0
 20 21  1  0  0  0  0
 20 22  1  1  0  0  0
 22 23  1  0  0  0  0
M  END
>  <CHROM.1>
-176.55302827,-65.66718445,-153.16125191,-165.35991519,-66.42518417,-6.81120216
-9.05990913,0.21907973,2.47589248,-0.49582917,-1.02098896

>  <Name>
ligand

>  <RI>
0

>  <Rbt.Current_Directory>
/home/itssahil/PROJECTS/Mol_Feturizer/New_Systems/rnas/4TS2

>  <Rbt.Executable>
rbdock ($Id: //depot/dev/client3/rdock/2013.1/src/exe/rbdock.cxx#4 $)

>  <Rbt.Library>
libRbt.so (2013.1, Build901 2013/11/27)

>  <Rbt.Parameter_File>
/export/apps/rDock/src/rDock_2013.1_src/data/scripts/dock_solv.prm

>  <Rbt.Receptor>
prm/pocket_docking_3.prm

>  <SCORE>
-9.52829

>  <SCORE.INTER>
-3.83356

>  <SCORE.INTER.CONST>
1

>  <SCORE.INTER.POLAR>
0

>  <SCORE.INTER.ROT>
5

>  <SCORE.INTER.SOLV>
7.33629

>  <SCORE.INTER.VDW>
-11.9345

>  <SCORE.INTER.norm>
-0.166676

>  <SCORE.INTRA>
-5.69473

>  <SCORE.INTRA.DIHEDRAL>
-8.3608

>  <SCORE.INTRA.DIHEDRAL.0>
12.4853

>  <SCORE.INTRA.POLAR>
0

>  <SCORE.INTRA.POLAR.0>
0

>  <SCORE.INTRA.REPUL>
0

>  <SCORE.INTRA.REPUL.0>
0

>  <SCORE.INTRA.SOLV>
0.361981

>  <SCORE.INTRA.SOLV.lig_0>
-31.1706

>  <SCORE.INTRA.VDW>
-1.69532

>  <SCORE.INTRA.VDW.0>
-1.16895

>  <SCORE.INTRA.norm>
-0.247597

>  <SCORE.RESTR>
0

>  <SCORE.RESTR.CAVITY>
0

>  <SCORE.RESTR.norm>
0

>  <SCORE.SYSTEM>
0

>  <SCORE.SYSTEM.CONST>
0

>  <SCORE.SYSTEM.DIHEDRAL>
0

>  <SCORE.SYSTEM.SOLV>
0

>  <SCORE.SYSTEM.norm>
0

>  <SCORE.heavy>
23

>  <SCORE.norm>
-0.414273

>  <RMSD>
0.997

$$$$
ligand
 OpenBabel11021811513D
libRbt.so/2013.1/901 2013/11/27
 23 24  0  0  0  0  0  0  0  0999 V2000
  -10.5564   -9.5632    0.1349 C   0  0  0  0  0  0  0  0  0  0  0  0
  -11.4743  -10.5140   -0.4386 O   0  0  0  0  0  0  0  0  0  0  0  0
   -9.5958   -9.0879   -0.9457 C   0  0  2  0  0  0  0  0  0  0  0  0
   -8.6804  -10.1551   -1.5258 C   0  0  1  0  0  0  0  0  0  0  0  0
   -9.4028  -10.9283   -2.4863 O   0  0  0  0  0  0  0  0  0  0  0  0
   -7.5585   -9.3140   -2.1252 C   0  0  2  0  0  0  0  0  0  0  0  0
   -6.2852   -9.9301   -2.3517 O   0  0  0  0  0  0  0  0  0  0  0  0
   -7.4244   -8.2095   -1.0918 C   0  0  2  0  0  0  0  0  0  0  0  0
   -8.7128   -8.0751   -0.4552 O   0  0  0  0  0  0  0  0  0  0  0  0
   -6.9964   -6.9279   -1.8293 C   0  0  0  0  0  0  0  0  0  0  0  0
   -7.8870   -6.5916   -2.9024 O   0  0  0  0  0  0  0  0  0  0  0  0
   -6.4366   -7.7656    1.0657 C   0  0  2  0  0  0  0  0  0  0  0  0
   -6.4858   -8.6259   -0.0856 O   0  0  0  0  0  0  0  0  0  0  0  0
   -4.9878   -7.3645    1.2715 C   0  0  2  0  0  0  0  0  0  0  0  0
   -4.4417   -6.9183    0.0253 O   0  0  0  0  0  0  0  0  0  0  0  0
   -4.1721   -8.5480    1.7435 C   0  0  1  0  0  0  0  0  0  0  0  0
   -2.8872   -8.0792    2.1590 O   0  0  0  0  0  0  0  0  0  0  0  0
   -4.8684   -9.2532    2.8918 C   0  0  2  0  0  0  0  0  0  0  0  0
   -4.1634  -10.4523    3.1826 O   0  0  0  0  0  0  0  0  0  0  0  0
   -6.3130   -9.5995    2.5569 C   0  0  2  0  0  0  0  0  0  0  0  0
   -6.9783   -8.3865    2.2314 O   0  0  0  0  0  0  0  0  0  0  0  0
   -7.0128  -10.2959    3.7301 C   0  0  0  0  0  0  0  0  0  0  0  0
   -8.2848  -10.8559    3.3723 O   0  0  0  0  0  0  0  0  0  0  0  0
  1  2  1  0  0  0  0
  3  1  1  1  0  0  0
  3  9  1  0  0  0  0
  3  4  1  0  0  0  0
  4  5  1  6  0  0  0
  4  6  1  0  0  0  0
  6  7  1  1  0  0  0
  6  8  1  0  0  0  0
  8  9  1  0  0  0  0
  8 10  1  6  0  0  0
  8 13  1  0  0  0  0
 10 11  1  0  0  0  0
 12 13  1  6  0  0  0
 12 14  1  0  0  0  0
 12 21  1  0  0  0  0
 14 15  1  6  0  0  0
 14 16  1  0  0  0  0
 16 17  1  1  0  0  0
 16 18  1  0  0  0  0
 18 19  1  6  0  0  0
 18 20  1  0  0  0  0
 20 21  1  0  0  0  0
 20 22  1  1  0  0  0
 22 23  1  0  0  0  0
M  END
>  <CHROM.1>
-64.14375222,54.68051830,-126.61059952,-170.15020814,-169.14409982,-7.03310011
-8.94423155,0.34607604,2.56302504,-0.44670130,-1.11412400

>  <Name>
ligand

>  <RI>
0

>  <Rbt.Current_Directory>
/home/itssahil/PROJECTS/Mol_Feturizer/New_Systems/rnas/4TS2

>  <Rbt.Executable>
rbdock ($Id: //depot/dev/client3/rdock/2013.1/src/exe/rbdock.cxx#4 $)

>  <Rbt.Library>
libRbt.so (2013.1, Build901 2013/11/27)

>  <Rbt.Parameter_File>
/export/apps/rDock/src/rDock_2013.1_src/data/scripts/dock_solv.prm

>  <Rbt.Receptor>
prm/pocket_docking_7.prm

>  <SCORE>
-9.14077

>  <SCORE.INTER>
-5.68043

>  <SCORE.INTER.CONST>
1

>  <SCORE.INTER.POLAR>
0

>  <SCORE.INTER.ROT>
5

>  <SCORE.INTER.SOLV>
7.84669

>  <SCORE.INTER.VDW>
-13.3358

>  <SCORE.INTER.norm>
-0.246975

>  <SCORE.INTRA>
-3.46034

>  <SCORE.INTRA.DIHEDRAL>
-4.61829

>  <SCORE.INTRA.DIHEDRAL.0>
12.4853

>  <SCORE.INTRA.POLAR>
0

>  <SCORE.INTRA.POLAR.0>
0

>  <SCORE.INTRA.REPUL>
0

>  <SCORE.INTRA.REPUL.0>
0

>  <SCORE.INTRA.SOLV>
-0.135434

>  <SCORE.INTRA.SOLV.lig_0>
-31.1706

>  <SCORE.INTRA.VDW>
-1.08347

>  <SCORE.INTRA.VDW.0>
-1.16895

>  <SCORE.INTRA.norm>
-0.150449

>  <SCORE.RESTR>
0

>  <SCORE.RESTR.CAVITY>
0

>  <SCORE.RESTR.norm>
0

>  <SCORE.SYSTEM>
0

>  <SCORE.SYSTEM.CONST>
0

>  <SCORE.SYSTEM.DIHEDRAL>
0

>  <SCORE.SYSTEM.SOLV>
0

>  <SCORE.SYSTEM.norm>
0

>  <SCORE.heavy>
23

>  <SCORE.norm>
-0.397425

>  <RMSD>
1.002

$$$$
ligand
 OpenBabel11021811513D
libRbt.so/2013.1/901 2013/11/27
 23 24  0  0  0  0  0  0  0  0999 V2000
   -9.8510  -10.3488    0.1025 C   0  0  0  0  0  0  0  0  0  0  0  0
  -10.9018   -9.5916    0.7332 O   0  0  0  0  0  0  0  0  0  0  0  0
   -9.2190   -9.5020   -0.9929 C   0  0  2  0  0  0  0  0  0  0  0  0
   -8.1463  -10.1934   -1.8205 C   0  0  1  0  0  0  0  0  0  0  0  0
   -8.7677  -11.0263   -2.8014 O   0  0  0  0  0  0  0  0  0  0  0  0
   -7.3884   -9.0067   -2.4059 C   0  0  2  0  0  0  0  0  0  0  0  0
   -6.0437   -9.2068   -2.8575 O   0  0  0  0  0  0  0  0  0  0  0  0
   -7.4052   -8.0333   -1.2405 C   0  0  2  0  0  0  0  0  0  0  0  0
   -8.5765   -8.3425   -0.4556 O   0  0  0  0  0  0  0  0  0  0  0  0
   -7.4459   -6.6083   -1.8214 C   0  0  0  0  0  0  0  0  0  0  0  0
   -6.2654   -6.2902   -2.5717 O   0  0  0  0  0  0  0  0  0  0  0  0
   -6.3378   -7.6964    0.8984 C   0  0  2  0  0  0  0  0  0  0  0  0
   -6.2540   -8.2771   -0.4146 O   0  0  0  0  0  0  0  0  0  0  0  0
   -4.9189   -7.4831    1.3920 C   0  0  2  0  0  0  0  0  0  0  0  0
   -4.1590   -6.8277    0.3706 O   0  0  0  0  0  0  0  0  0  0  0  0
   -4.2564   -8.8101    1.6902 C   0  0  1  0  0  0  0  0  0  0  0  0
   -3.0283   -8.5618    2.3783 O   0  0  0  0  0  0  0  0  0  0  0  0
   -5.1638   -9.6823    2.5369 C   0  0  2  0  0  0  0  0  0  0  0  0
   -4.5827  -10.9749    2.6413 O   0  0  0  0  0  0  0  0  0  0  0  0
   -6.5550   -9.8146    1.9320 C   0  0  2  0  0  0  0  0  0  0  0  0
   -7.0906   -8.5045    1.8027 O   0  0  0  0  0  0  0  0  0  0  0  0
   -7.4692  -10.6833    2.8041 C   0  0  0  0  0  0  0  0  0  0  0  0
   -7.6326  -10.1672    4.1332 O   0  0  0  0  0  0  0  0  0  0  0  0
  1  2  1  0  0  0  0
  3  1  1  1  0  0  0
  3  9  1  0  0  0  0
  3  4  1  0  0  0  0
  4  5  1  6  0  0  0
  4  6  1  0  0  0  0
  6  7  1  1  0  0  0
  6  8  1  0  0  0  0
  8  9  1  0  0  0  0
  8 10  1  6  0  0  0
  8 13  1  0  0  0  0
 10 11  1  0  0  0  0
 12 13  1  6  0  0  0
 12 14  1  0  0  0  0
 12 21  1  0  0  0  0
 14 15  1  6  0  0  0
 14 16  1  0  0  0  0
 16 17  1  1  0  0  0
 16 18  1  0  0  0  0
 18 19  1  6  0  0  0
 18 20  1  0  0  0  0
 20 21  1  0  0  0  0
 20 22  1  1  0  0  0
 22 23  1  0  0  0  0
M  END
>  <CHROM.1>
-176.17140931,-64.14153396,-155.04862394,-163.50185204,59.14552766,-6.83923451
-8.94063177,0.26840723,2.36272020,-0.44978721,-1.14398390

>  <Name>
ligand

>  <RI>
0

>  <Rbt.Current_Directory>
/home/itssahil/PROJECTS/Mol_Feturizer/New_Systems/rnas/4TS2

>  <Rbt.Executable>
rbdock ($Id: //depot/dev/client3/rdock/2013.1/src/exe/rbdock.cxx#4 $)

>  <Rbt.Library>
libRbt.so (2013.1, Build901 2013/11/27)

>  <Rbt.Parameter_File>
/export/apps/rDock/src/rDock_2013.1_src/data/scripts/dock_solv.prm

>  <Rbt.Receptor>
prm/pocket_docking_3.prm

>  <SCORE>
-9.84952

>  <SCORE.INTER>
-3.90245

>  <SCORE.INTER.CONST>
1

>  <SCORE.INTER.POLAR>
0

>  <SCORE.INTER.ROT>
5

>  <SCORE.INTER.SOLV>
8.37795

>  <SCORE.INTER.VDW>
-12.3276

>  <SCORE.INTER.norm>
-0.169672

>  <SCORE.INTRA>
-5.94707

>  <SCORE.INTRA.DIHEDRAL>
-8.64838

>  <SCORE.INTRA.DIHEDRAL.0>
12.4853

>  <SCORE.INTRA.POLAR>
0

>  <SCORE.INTRA.POLAR.0>
0

>  <SCORE.INTRA.REPUL>
0

>  <SCORE.INTRA.REPUL.0>
0

>  <SCORE.INTRA.SOLV>
0.353505

>  <SCORE.INTRA.SOLV.lig_0>
-31.1706

>  <SCORE.INTRA.VDW>
-1.79963

>  <SCORE.INTRA.VDW.0>
-1.16895

>  <SCORE.INTRA.norm>
-0.258568

>  <SCORE.RESTR>
0

>  <SCORE.RESTR.CAVITY>
0

>  <SCORE.RESTR.norm>
0

>  <SCORE.SYSTEM>
0

>  <SCORE.SYSTEM.CONST>
0

>  <SCORE.SYSTEM.DIHEDRAL>
0

>  <SCORE.SYSTEM.SOLV>
0

>  <SCORE.SYSTEM.norm>
0

>  <SCORE.heavy>
23

>  <SCORE.norm>
-0.42824

>  <RMSD>
1.010

$$$$
ligand
 OpenBabel11021811513D
libRbt.so/2013.1/901 2013/11/27
 23 24  0  0  0  0  0  0  0  0999 V2000
  -10.1835  -10.0861    0.4744 C   0  0  0  0  0  0  0  0  0  0  0  0
  -10.9705  -11.1736   -0.0486 O   0  0  0  0  0  0  0  0  0  0  0  0
   -9.4833   -9.3818   -0.6790 C   0  0  2  0  0  0  0  0  0  0  0  0
   -8.4968  -10.2316   -1.4651 C   0  0  1  0  0  0  0  0  0  0  0  0
   -9.2118  -11.0597   -2.3846 O   0  0  0  0  0  0  0  0  0  0  0  0
   -7.6304   -9.1692   -2.1331 C   0  0  2  0  0  0  0  0  0  0  0  0
   -6.3188   -9.5343   -2.5786 O   0  0  0  0  0  0  0  0  0  0  0  0
   -7.5337   -8.1247   -1.0351 C   0  0  2  0  0  0  0  0  0  0  0  0
   -8.7200   -8.2609   -0.2242 O   0  0  0  0  0  0  0  0  0  0  0  0
   -7.4376   -6.7443   -1.7095 C   0  0  0  0  0  0  0  0  0  0  0  0
   -6.2411   -6.5981   -2.4870 O   0  0  0  0  0  0  0  0  0  0  0  0
   -6.3344   -7.6520    1.0059 C   0  0  2  0  0  0  0  0  0  0  0  0
   -6.4025   -8.4296   -0.2019 O   0  0  0  0  0  0  0  0  0  0  0  0
   -4.8676   -7.4031    1.3038 C   0  0  2  0  0  0  0  0  0  0  0  0
   -4.2197   -6.9328    0.1167 O   0  0  0  0  0  0  0  0  0  0  0  0
   -4.1886   -8.6857    1.7314 C   0  0  1  0  0  0  0  0  0  0  0  0
   -2.8893   -8.3673    2.2354 O   0  0  0  0  0  0  0  0  0  0  0  0
   -5.0045   -9.3930    2.7967 C   0  0  2  0  0  0  0  0  0  0  0  0
   -4.4276  -10.6692    3.0375 O   0  0  0  0  0  0  0  0  0  0  0  0
   -6.4555   -9.5797    2.3740 C   0  0  2  0  0  0  0  0  0  0  0  0
   -6.9897   -8.2913    2.1012 O   0  0  0  0  0  0  0  0  0  0  0  0
   -7.2753  -10.2795    3.4645 C   0  0  0  0  0  0  0  0  0  0  0  0
   -6.8419  -11.6243    3.7161 O   0  0  0  0  0  0  0  0  0  0  0  0
  1  2  1  0  0  0  0
  3  1  1  1  0  0  0
  3  9  1  0  0  0  0
  3  4  1  0  0  0  0
  4  5  1  6  0  0  0
  4  6  1  0  0  0  0
  6  7  1  1  0  0  0
  6  8  1  0  0  0  0
  8  9  1  0  0  0  0
  8 10  1  6  0  0  0
  8 13  1  0  0  0  0
 10 11  1  0  0  0  0
 12 13  1  6  0  0  0
 12 14  1  0  0  0  0
 12 21  1  0  0  0  0
 14 15  1  6  0  0  0
 14 16  1  0  0  0  0
 16 17  1  1  0  0  0
 16 18  1  0  0  0  0
 18 19  1  6  0  0  0
 18 20  1  0  0  0  0
 20 21  1  0  0  0  0
 20 22  1  1  0  0  0
 22 23  1  0  0  0  0
M  END
>  <CHROM.1>
-62.37137270,-64.11671154,-145.46214489,-169.85375338,-64.72497804,-6.86453025
-9.04646089,0.40567030,2.61133635,-0.51678219,-1.03587369

>  <Name>
ligand

>  <RI>
0

>  <Rbt.Current_Directory>
/home/itssahil/PROJECTS/Mol_Feturizer/New_Systems/rnas/4TS2

>  <Rbt.Executable>
rbdock ($Id: //depot/dev/client3/rdock/2013.1/src/exe/rbdock.cxx#4 $)

>  <Rbt.Library>
libRbt.so (2013.1, Build901 2013/11/27)

>  <Rbt.Parameter_File>
/export/apps/rDock/src/rDock_2013.1_src/data/scripts/dock_solv.prm

>  <Rbt.Receptor>
prm/pocket_docking_4.prm

>  <SCORE>
-9.31135

>  <SCORE.INTER>
-4.44435

>  <SCORE.INTER.CONST>
1

>  <SCORE.INTER.POLAR>
0

>  <SCORE.INTER.ROT>
5

>  <SCORE.INTER.SOLV>
6.65527

>  <SCORE.INTER.VDW>
-12.1147

>  <SCORE.INTER.norm>
-0.193233

>  <SCORE.INTRA>
-4.86701

>  <SCORE.INTRA.DIHEDRAL>
-7.51716

>  <SCORE.INTRA.DIHEDRAL.0>
12.4853

>  <SCORE.INTRA.POLAR>
0

>  <SCORE.INTRA.POLAR.0>
0

>  <SCORE.INTRA.REPUL>
0

>  <SCORE.INTRA.REPUL.0>
0

>  <SCORE.INTRA.SOLV>
0.589796

>  <SCORE.INTRA.SOLV.lig_0>
-31.1706

>  <SCORE.INTRA.VDW>
-1.40332

>  <SCORE.INTRA.VDW.0>
-1.16895

>  <SCORE.INTRA.norm>
-0.211609

>  <SCORE.RESTR>
0

>  <SCORE.RESTR.CAVITY>
0

>  <SCORE.RESTR.norm>
0

>  <SCORE.SYSTEM>
0

>  <SCORE.SYSTEM.CONST>
0

>  <SCORE.SYSTEM.DIHEDRAL>
0

>  <SCORE.SYSTEM.SOLV>
0

>  <SCORE.SYSTEM.norm>
0

>  <SCORE.heavy>
23

>  <SCORE.norm>
-0.404841

>  <RMSD>
1.011

$$$$
ligand
 OpenBabel11021811513D
libRbt.so/2013.1/901 2013/11/27
 23 24  0  0  0  0  0  0  0  0999 V2000
  -10.2277  -10.2756    0.1852 C   0  0  0  0  0  0  0  0  0  0  0  0
  -11.2375   -9.4222    0.7575 O   0  0  0  0  0  0  0  0  0  0  0  0
   -9.5007   -9.5145   -0.9142 C   0  0  2  0  0  0  0  0  0  0  0  0
   -8.4682  -10.3142   -1.6937 C   0  0  1  0  0  0  0  0  0  0  0  0
   -9.1312  -11.1210   -2.6693 O   0  0  0  0  0  0  0  0  0  0  0  0
   -7.6006   -9.2104   -2.2889 C   0  0  2  0  0  0  0  0  0  0  0  0
   -6.2660   -9.5323   -2.6982 O   0  0  0  0  0  0  0  0  0  0  0  0
   -7.5665   -8.2064   -1.1502 C   0  0  2  0  0  0  0  0  0  0  0  0
   -8.7786   -8.3966   -0.3899 O   0  0  0  0  0  0  0  0  0  0  0  0
   -7.4750   -6.7998   -1.7690 C   0  0  0  0  0  0  0  0  0  0  0  0
   -6.2627   -6.6072   -2.5112 O   0  0  0  0  0  0  0  0  0  0  0  0
   -6.4642   -7.8021    0.9591 C   0  0  2  0  0  0  0  0  0  0  0  0
   -6.4605   -8.5200   -0.2870 O   0  0  0  0  0  0  0  0  0  0  0  0
   -5.0205   -7.4940    1.3101 C   0  0  2  0  0  0  0  0  0  0  0  0
   -4.3680   -6.9317    0.1663 O   0  0  0  0  0  0  0  0  0  0  0  0
   -4.2864   -8.7603    1.6930 C   0  0  1  0  0  0  0  0  0  0  0  0
   -3.0189   -8.4018    2.2485 O   0  0  0  0  0  0  0  0  0  0  0  0
   -5.0911   -9.5614    2.6987 C   0  0  2  0  0  0  0  0  0  0  0  0
   -4.4544  -10.8170    2.8927 O   0  0  0  0  0  0  0  0  0  0  0  0
   -6.5190   -9.8003    2.2266 C   0  0  2  0  0  0  0  0  0  0  0  0
   -7.1129   -8.5287    2.0026 O   0  0  0  0  0  0  0  0  0  0  0  0
   -7.3286  -10.5954    3.2578 C   0  0  0  0  0  0  0  0  0  0  0  0
   -8.6108  -11.0110    2.7649 O   0  0  0  0  0  0  0  0  0  0  0  0
  1  2  1  0  0  0  0
  3  1  1  1  0  0  0
  3  9  1  0  0  0  0
  3  4  1  0  0  0  0
  4  5  1  6  0  0  0
  4  6  1  0  0  0  0
  6  7  1  1  0  0  0
  6  8  1  0  0  0  0
  8  9  1  0  0  0  0
  8 10  1  6  0  0  0
  8 13  1  0  0  0  0
 10 11  1  0  0  0  0
 12 13  1  6  0  0  0
 12 14  1  0  0  0  0
 12 21  1  0  0  0  0
 14 15  1  6  0  0  0
 14 16  1  0  0  0  0
 16 17  1  1  0  0  0
 16 18  1  0  0  0  0
 18 19  1  6  0  0  0
 18 20  1  0  0  0  0
 20 21  1  0  0  0  0
 20 22  1  1  0  0  0
 22 23  1  0  0  0  0
M  END
>  <CHROM.1>
-175.57744875,-63.27786825,-143.97328287,-168.97058111,-171.21678115,-7.00860179
-9.03129132,0.29335195,2.60951315,-0.42457535,-1.13765846

>  <Name>
ligand

>  <RI>
0

>  <Rbt.Current_Directory>
/home/itssahil/PROJECTS/Mol_Feturizer/New_Systems/rnas/4TS2

>  <Rbt.Executable>
rbdock ($Id: //depot/dev/client3/rdock/2013.1/src/exe/rbdock.cxx#4 $)

>  <Rbt.Library>
libRbt.so (2013.1, Build901 2013/11/27)

>  <Rbt.Parameter_File>
/export/apps/rDock/src/rDock_2013.1_src/data/scripts/dock_solv.prm

>  <Rbt.Receptor>
prm/pocket_docking_3.prm

>  <SCORE>
-9.3066

>  <SCORE.INTER>
-4.20758

>  <SCORE.INTER.CONST>
1

>  <SCORE.INTER.POLAR>
0

>  <SCORE.INTER.ROT>
5

>  <SCORE.INTER.SOLV>
7.86752

>  <SCORE.INTER.VDW>
-12.3609

>  <SCORE.INTER.norm>
-0.182938

>  <SCORE.INTRA>
-5.09902

>  <SCORE.INTRA.DIHEDRAL>
-6.94809

>  <SCORE.INTRA.DIHEDRAL.0>
12.4853

>  <SCORE.INTRA.POLAR>
0

>  <SCORE.INTRA.POLAR.0>
0

>  <SCORE.INTRA.REPUL>
0

>  <SCORE.INTRA.REPUL.0>
0

>  <SCORE.INTRA.SOLV>
0.385783

>  <SCORE.INTRA.SOLV.lig_0>
-31.1706

>  <SCORE.INTRA.VDW>
-1.81787

>  <SCORE.INTRA.VDW.0>
-1.16895

>  <SCORE.INTRA.norm>
-0.221697

>  <SCORE.RESTR>
0

>  <SCORE.RESTR.CAVITY>
0

>  <SCORE.RESTR.norm>
0

>  <SCORE.SYSTEM>
0

>  <SCORE.SYSTEM.CONST>
0

>  <SCORE.SYSTEM.DIHEDRAL>
0

>  <SCORE.SYSTEM.SOLV>
0

>  <SCORE.SYSTEM.norm>
0

>  <SCORE.heavy>
23

>  <SCORE.norm>
-0.404635

>  <RMSD>
1.015

$$$$
ligand
 OpenBabel11021811513D
libRbt.so/2013.1/901 2013/11/27
 23 24  0  0  0  0  0  0  0  0999 V2000
  -10.3734   -9.7950    0.3490 C   0  0  0  0  0  0  0  0  0  0  0  0
  -11.2284  -10.8175   -0.1978 O   0  0  0  0  0  0  0  0  0  0  0  0
   -9.5678   -9.1671   -0.7794 C   0  0  2  0  0  0  0  0  0  0  0  0
   -8.6203  -10.1057   -1.5105 C   0  0  1  0  0  0  0  0  0  0  0  0
   -9.3593  -10.8866   -2.4519 O   0  0  0  0  0  0  0  0  0  0  0  0
   -7.6414   -9.1272   -2.1506 C   0  0  2  0  0  0  0  0  0  0  0  0
   -6.3456   -9.6041   -2.5322 O   0  0  0  0  0  0  0  0  0  0  0  0
   -7.5082   -8.0777   -1.0612 C   0  0  2  0  0  0  0  0  0  0  0  0
   -8.7363   -8.1051   -0.3032 O   0  0  0  0  0  0  0  0  0  0  0  0
   -7.2700   -6.7198   -1.7461 C   0  0  0  0  0  0  0  0  0  0  0  0
   -6.0588   -6.7003   -2.5143 O   0  0  0  0  0  0  0  0  0  0  0  0
   -6.3615   -7.6692    1.0234 C   0  0  2  0  0  0  0  0  0  0  0  0
   -6.4436   -8.4608   -0.1743 O   0  0  0  0  0  0  0  0  0  0  0  0
   -4.8917   -7.4080    1.2953 C   0  0  2  0  0  0  0  0  0  0  0  0
   -4.2655   -6.9473    0.0929 O   0  0  0  0  0  0  0  0  0  0  0  0
   -4.1981   -8.6815    1.7266 C   0  0  1  0  0  0  0  0  0  0  0  0
   -2.8931   -8.3495    2.2065 O   0  0  0  0  0  0  0  0  0  0  0  0
   -4.9927   -9.3816    2.8126 C   0  0  2  0  0  0  0  0  0  0  0  0
   -4.4042  -10.6514    3.0587 O   0  0  0  0  0  0  0  0  0  0  0  0
   -6.4490   -9.5819    2.4149 C   0  0  2  0  0  0  0  0  0  0  0  0
   -6.9955   -8.2999    2.1360 O   0  0  0  0  0  0  0  0  0  0  0  0
   -7.2471  -10.2742    3.5260 C   0  0  0  0  0  0  0  0  0  0  0  0
   -6.8123  -11.6191    3.7746 O   0  0  0  0  0  0  0  0  0  0  0  0
  1  2  1  0  0  0  0
  3  1  1  1  0  0  0
  3  9  1  0  0  0  0
  3  4  1  0  0  0  0
  4  5  1  6  0  0  0
  4  6  1  0  0  0  0
  6  7  1  1  0  0  0
  6  8  1  0  0  0  0
  8  9  1  0  0  0  0
  8 10  1  6  0  0  0
  8 13  1  0  0  0  0
 10 11  1  0  0  0  0
 12 13  1  6  0  0  0
 12 14  1  0  0  0  0
 12 21  1  0  0  0  0
 14 15  1  6  0  0  0
 14 16  1  0  0  0  0
 16 17  1  1  0  0  0
 16 18  1  0  0  0  0
 18 19  1  6  0  0  0
 18 20  1  0  0  0  0
 20 21  1  0  0  0  0
 20 22  1  1  0  0  0
 22 23  1  0  0  0  0
M  END
>  <CHROM.1>
-62.70128320,-61.77317489,-139.24537855,-170.14493194,-65.45084356,-6.88837439
-8.99280697,0.38759486,2.57600492,-0.47496483,-1.05651443

>  <Name>
ligand

>  <RI>
0

>  <Rbt.Current_Directory>
/home/itssahil/PROJECTS/Mol_Feturizer/New_Systems/rnas/4TS2

>  <Rbt.Executable>
rbdock ($Id: //depot/dev/client3/rdock/2013.1/src/exe/rbdock.cxx#4 $)

>  <Rbt.Library>
libRbt.so (2013.1, Build901 2013/11/27)

>  <Rbt.Parameter_File>
/export/apps/rDock/src/rDock_2013.1_src/data/scripts/dock_solv.prm

>  <Rbt.Receptor>
prm/pocket_docking_4.prm

>  <SCORE>
-9.38084

>  <SCORE.INTER>
-5.18855

>  <SCORE.INTER.CONST>
1

>  <SCORE.INTER.POLAR>
0

>  <SCORE.INTER.ROT>
5

>  <SCORE.INTER.SOLV>
6.81574

>  <SCORE.INTER.VDW>
-12.6643

>  <SCORE.INTER.norm>
-0.225589

>  <SCORE.INTRA>
-4.19229

>  <SCORE.INTRA.DIHEDRAL>
-6.47365

>  <SCORE.INTRA.DIHEDRAL.0>
12.4853

>  <SCORE.INTRA.POLAR>
0

>  <SCORE.INTRA.POLAR.0>
0

>  <SCORE.INTRA.REPUL>
0

>  <SCORE.INTRA.REPUL.0>
0

>  <SCORE.INTRA.SOLV>
0.58203

>  <SCORE.INTRA.SOLV.lig_0>
-31.1706

>  <SCORE.INTRA.VDW>
-1.24648

>  <SCORE.INTRA.VDW.0>
-1.16895

>  <SCORE.INTRA.norm>
-0.182273

>  <SCORE.RESTR>
0

>  <SCORE.RESTR.CAVITY>
0

>  <SCORE.RESTR.norm>
0

>  <SCORE.SYSTEM>
0

>  <SCORE.SYSTEM.CONST>
0

>  <SCORE.SYSTEM.DIHEDRAL>
0

>  <SCORE.SYSTEM.SOLV>
0

>  <SCORE.SYSTEM.norm>
0

>  <SCORE.heavy>
23

>  <SCORE.norm>
-0.407862

>  <RMSD>
1.016

$$$$
ligand
 OpenBabel11021811513D
libRbt.so/2013.1/901 2013/11/27
 23 24  0  0  0  0  0  0  0  0999 V2000
  -10.2565  -10.2593    0.1583 C   0  0  0  0  0  0  0  0  0  0  0  0
  -11.2674   -9.4008    0.7208 O   0  0  0  0  0  0  0  0  0  0  0  0
   -9.5218   -9.5053   -0.9410 C   0  0  2  0  0  0  0  0  0  0  0  0
   -8.4895  -10.3123   -1.7133 C   0  0  1  0  0  0  0  0  0  0  0  0
   -9.1519  -11.1199   -2.6886 O   0  0  0  0  0  0  0  0  0  0  0  0
   -7.6148   -9.2143   -2.3090 C   0  0  2  0  0  0  0  0  0  0  0  0
   -6.2800   -9.5434   -2.7116 O   0  0  0  0  0  0  0  0  0  0  0  0
   -7.5812   -8.2062   -1.1739 C   0  0  2  0  0  0  0  0  0  0  0  0
   -8.7971   -8.3885   -0.4179 O   0  0  0  0  0  0  0  0  0  0  0  0
   -7.4812   -6.8024   -1.7975 C   0  0  0  0  0  0  0  0  0  0  0  0
   -6.2720   -6.6226   -2.5479 O   0  0  0  0  0  0  0  0  0  0  0  0
   -6.4913   -7.8063    0.9427 C   0  0  2  0  0  0  0  0  0  0  0  0
   -6.4800   -8.5213   -0.3050 O   0  0  0  0  0  0  0  0  0  0  0  0
   -5.0506   -7.4888    1.2974 C   0  0  2  0  0  0  0  0  0  0  0  0
   -4.3997   -6.9193    0.1562 O   0  0  0  0  0  0  0  0  0  0  0  0
   -4.3083   -8.7507    1.6789 C   0  0  1  0  0  0  0  0  0  0  0  0
   -3.0446   -8.3846    2.2378 O   0  0  0  0  0  0  0  0  0  0  0  0
   -5.1093   -9.5598    2.6811 C   0  0  2  0  0  0  0  0  0  0  0  0
   -4.4642  -10.8113    2.8735 O   0  0  0  0  0  0  0  0  0  0  0  0
   -6.5346   -9.8077    2.2055 C   0  0  2  0  0  0  0  0  0  0  0  0
   -7.1370   -8.5398    1.9832 O   0  0  0  0  0  0  0  0  0  0  0  0
   -7.3406  -10.6109    3.2332 C   0  0  0  0  0  0  0  0  0  0  0  0
   -8.6144  -11.0434    2.7332 O   0  0  0  0  0  0  0  0  0  0  0  0
  1  2  1  0  0  0  0
  3  1  1  1  0  0  0
  3  9  1  0  0  0  0
  3  4  1  0  0  0  0
  4  5  1  6  0  0  0
  4  6  1  0  0  0  0
  6  7  1  1  0  0  0
  6  8  1  0  0  0  0
  8  9  1  0  0  0  0
  8 10  1  6  0  0  0
  8 13  1  0  0  0  0
 10 11  1  0  0  0  0
 12 13  1  6  0  0  0
 12 14  1  0  0  0  0
 12 21  1  0  0  0  0
 14 15  1  6  0  0  0
 14 16  1  0  0  0  0
 16 17  1  1  0  0  0
 16 18  1  0  0  0  0
 18 19  1  6  0  0  0
 18 20  1  0  0  0  0
 20 21  1  0  0  0  0
 20 22  1  1  0  0  0
 22 23  1  0  0  0  0
M  END
>  <CHROM.1>
-175.42460807,-62.62971414,-143.54194423,-168.51894061,-170.75304725,-7.02761318
-9.03114635,0.27172023,2.60771586,-0.42588345,-1.13576680

>  <Name>
ligand

>  <RI>
0

>  <Rbt.Current_Directory>
/home/itssahil/PROJECTS/Mol_Feturizer/New_Systems/rnas/4TS2

>  <Rbt.Executable>
rbdock ($Id: //depot/dev/client3/rdock/2013.1/src/exe/rbdock.cxx#4 $)

>  <Rbt.Library>
libRbt.so (2013.1, Build901 2013/11/27)

>  <Rbt.Parameter_File>
/export/apps/rDock/src/rDock_2013.1_src/data/scripts/dock_solv.prm

>  <Rbt.Receptor>
prm/pocket_docking_3.prm

>  <SCORE>
-9.32361

>  <SCORE.INTER>
-4.29444

>  <SCORE.INTER.CONST>
1

>  <SCORE.INTER.POLAR>
0

>  <SCORE.INTER.ROT>
5

>  <SCORE.INTER.SOLV>
7.89608

>  <SCORE.INTER.VDW>
-12.4283

>  <SCORE.INTER.norm>
-0.186715

>  <SCORE.INTRA>
-5.02917

>  <SCORE.INTRA.DIHEDRAL>
-6.80497

>  <SCORE.INTRA.DIHEDRAL.0>
12.4853

>  <SCORE.INTRA.POLAR>
0

>  <SCORE.INTRA.POLAR.0>
0

>  <SCORE.INTRA.REPUL>
0

>  <SCORE.INTRA.REPUL.0>
0

>  <SCORE.INTRA.SOLV>
0.361201

>  <SCORE.INTRA.SOLV.lig_0>
-31.1706

>  <SCORE.INTRA.VDW>
-1.80729

>  <SCORE.INTRA.VDW.0>
-1.16895

>  <SCORE.INTRA.norm>
-0.218659

>  <SCORE.RESTR>
0

>  <SCORE.RESTR.CAVITY>
0

>  <SCORE.RESTR.norm>
0

>  <SCORE.SYSTEM>
0

>  <SCORE.SYSTEM.CONST>
0

>  <SCORE.SYSTEM.DIHEDRAL>
0

>  <SCORE.SYSTEM.SOLV>
0

>  <SCORE.SYSTEM.norm>
0

>  <SCORE.heavy>
23

>  <SCORE.norm>
-0.405374

>  <RMSD>
1.018

$$$$
ligand
 OpenBabel11021811513D
libRbt.so/2013.1/901 2013/11/27
 23 24  0  0  0  0  0  0  0  0999 V2000
   -9.8296  -10.3971    0.0587 C   0  0  0  0  0  0  0  0  0  0  0  0
  -10.8443   -9.6071    0.7082 O   0  0  0  0  0  0  0  0  0  0  0  0
   -9.1846   -9.5672   -1.0421 C   0  0  2  0  0  0  0  0  0  0  0  0
   -8.1016  -10.2709   -1.8455 C   0  0  1  0  0  0  0  0  0  0  0  0
   -8.7106  -11.1194   -2.8208 O   0  0  0  0  0  0  0  0  0  0  0  0
   -7.3370   -9.0930   -2.4402 C   0  0  2  0  0  0  0  0  0  0  0  0
   -5.9869   -9.2994   -2.8721 O   0  0  0  0  0  0  0  0  0  0  0  0
   -7.3685   -8.1015   -1.2905 C   0  0  2  0  0  0  0  0  0  0  0  0
   -8.5492   -8.3990   -0.5153 O   0  0  0  0  0  0  0  0  0  0  0  0
   -7.4027   -6.6858   -1.8942 C   0  0  0  0  0  0  0  0  0  0  0  0
   -6.2156   -6.3809   -2.6395 O   0  0  0  0  0  0  0  0  0  0  0  0
   -6.3140   -7.7047    0.8445 C   0  0  2  0  0  0  0  0  0  0  0  0
   -6.2274   -8.3317   -0.4468 O   0  0  0  0  0  0  0  0  0  0  0  0
   -4.8964   -7.4911    1.3416 C   0  0  2  0  0  0  0  0  0  0  0  0
   -4.1210   -6.8806    0.3041 O   0  0  0  0  0  0  0  0  0  0  0  0
   -4.2522   -8.8147    1.6908 C   0  0  1  0  0  0  0  0  0  0  0  0
   -3.0263   -8.5571    2.3796 O   0  0  0  0  0  0  0  0  0  0  0  0
   -5.1763   -9.6461    2.5601 C   0  0  2  0  0  0  0  0  0  0  0  0
   -4.6117  -10.9411    2.7139 O   0  0  0  0  0  0  0  0  0  0  0  0
   -6.5645   -9.7829    1.9492 C   0  0  2  0  0  0  0  0  0  0  0  0
   -7.0832   -8.4719    1.7704 O   0  0  0  0  0  0  0  0  0  0  0  0
   -7.4956  -10.6099    2.8437 C   0  0  0  0  0  0  0  0  0  0  0  0
   -7.0732  -11.9744    2.9835 O   0  0  0  0  0  0  0  0  0  0  0  0
  1  2  1  0  0  0  0
  3  1  1  1  0  0  0
  3  9  1  0  0  0  0
  3  4  1  0  0  0  0
  4  5  1  6  0  0  0
  4  6  1  0  0  0  0
  6  7  1  1  0  0  0
  6  8  1  0  0  0  0
  8  9  1  0  0  0  0
  8 10  1  6  0  0  0
  8 13  1  0  0  0  0
 10 11  1  0  0  0  0
 12 13  1  6  0  0  0
 12 14  1  0  0  0  0
 12 21  1  0  0  0  0
 14 15  1  6  0  0  0
 14 16  1  0  0  0  0
 16 17  1  1  0  0  0
 16 18  1  0  0  0  0
 18 19  1  6  0  0  0
 18 20  1  0  0  0  0
 20 21  1  0  0  0  0
 20 22  1  1  0  0  0
 22 23  1  0  0  0  0
M  END
>  <CHROM.1>
-178.95937095,-63.89769832,-154.96285252,-164.86294139,-64.69557031,-6.78929627
-9.05730113,0.18998282,2.44571652,-0.50737733,-1.01989797

>  <Name>
ligand

>  <RI>
0

>  <Rbt.Current_Directory>
/home/itssahil/PROJECTS/Mol_Feturizer/New_Systems/rnas/4TS2

>  <Rbt.Executable>
rbdock ($Id: //depot/dev/client3/rdock/2013.1/src/exe/rbdock.cxx#4 $)

>  <Rbt.Library>
libRbt.so (2013.1, Build901 2013/11/27)

>  <Rbt.Parameter_File>
/export/apps/rDock/src/rDock_2013.1_src/data/scripts/dock_solv.prm

>  <Rbt.Receptor>
prm/pocket_docking_3.prm

>  <SCORE>
-9.61294

>  <SCORE.INTER>
-3.77342

>  <SCORE.INTER.CONST>
1

>  <SCORE.INTER.POLAR>
0

>  <SCORE.INTER.ROT>
5

>  <SCORE.INTER.SOLV>
7.30699

>  <SCORE.INTER.VDW>
-11.8846

>  <SCORE.INTER.norm>
-0.164062

>  <SCORE.INTRA>
-5.83952

>  <SCORE.INTRA.DIHEDRAL>
-8.783

>  <SCORE.INTRA.DIHEDRAL.0>
12.4853

>  <SCORE.INTRA.POLAR>
0

>  <SCORE.INTRA.POLAR.0>
0

>  <SCORE.INTRA.REPUL>
0

>  <SCORE.INTRA.REPUL.0>
0

>  <SCORE.INTRA.SOLV>
0.431191

>  <SCORE.INTRA.SOLV.lig_0>
-31.1706

>  <SCORE.INTRA.VDW>
-1.66361

>  <SCORE.INTRA.VDW.0>
-1.16895

>  <SCORE.INTRA.norm>
-0.253892

>  <SCORE.RESTR>
0

>  <SCORE.RESTR.CAVITY>
0

>  <SCORE.RESTR.norm>
0

>  <SCORE.SYSTEM>
0

>  <SCORE.SYSTEM.CONST>
0

>  <SCORE.SYSTEM.DIHEDRAL>
0

>  <SCORE.SYSTEM.SOLV>
0

>  <SCORE.SYSTEM.norm>
0

>  <SCORE.heavy>
23

>  <SCORE.norm>
-0.417954

>  <RMSD>
1.020

$$$$
ligand
 OpenBabel11021811513D
libRbt.so/2013.1/901 2013/11/27
 23 24  0  0  0  0  0  0  0  0999 V2000
   -9.9542  -10.2184   -0.1999 C   0  0  0  0  0  0  0  0  0  0  0  0
  -10.9801   -9.2917    0.2053 O   0  0  0  0  0  0  0  0  0  0  0  0
   -9.0887   -9.5639   -1.2671 C   0  0  2  0  0  0  0  0  0  0  0  0
   -7.9843  -10.4369   -1.8430 C   0  0  1  0  0  0  0  0  0  0  0  0
   -8.5399  -11.3241   -2.8158 O   0  0  0  0  0  0  0  0  0  0  0  0
   -7.0334   -9.3965   -2.4251 C   0  0  2  0  0  0  0  0  0  0  0  0
   -5.6653   -9.7621   -2.6409 O   0  0  0  0  0  0  0  0  0  0  0  0
   -7.1183   -8.2943   -1.3840 C   0  0  2  0  0  0  0  0  0  0  0  0
   -8.4153   -8.4078   -0.7610 O   0  0  0  0  0  0  0  0  0  0  0  0
   -6.9300   -6.9497   -2.1095 C   0  0  0  0  0  0  0  0  0  0  0  0
   -7.9217   -6.7320   -3.1228 O   0  0  0  0  0  0  0  0  0  0  0  0
   -6.3219   -7.7744    0.8348 C   0  0  2  0  0  0  0  0  0  0  0  0
   -6.1284   -8.5357   -0.3698 O   0  0  0  0  0  0  0  0  0  0  0  0
   -4.9497   -7.3782    1.3471 C   0  0  2  0  0  0  0  0  0  0  0  0
   -4.1871   -6.8240    0.2693 O   0  0  0  0  0  0  0  0  0  0  0  0
   -4.2094   -8.5893    1.8706 C   0  0  1  0  0  0  0  0  0  0  0  0
   -3.0398   -8.1447    2.5619 O   0  0  0  0  0  0  0  0  0  0  0  0
   -5.0941   -9.3948    2.8030 C   0  0  2  0  0  0  0  0  0  0  0  0
   -4.4273  -10.6073    3.1267 O   0  0  0  0  0  0  0  0  0  0  0  0
   -6.4388   -9.7255    2.1696 C   0  0  2  0  0  0  0  0  0  0  0  0
   -7.0603   -8.4959    1.8207 O   0  0  0  0  0  0  0  0  0  0  0  0
   -7.3319  -10.5244    3.1263 C   0  0  0  0  0  0  0  0  0  0  0  0
   -8.5184  -11.0293    2.4964 O   0  0  0  0  0  0  0  0  0  0  0  0
  1  2  1  0  0  0  0
  3  1  1  1  0  0  0
  3  9  1  0  0  0  0
  3  4  1  0  0  0  0
  4  5  1  6  0  0  0
  4  6  1  0  0  0  0
  6  7  1  1  0  0  0
  6  8  1  0  0  0  0
  8  9  1  0  0  0  0
  8 10  1  6  0  0  0
  8 13  1  0  0  0  0
 10 11  1  0  0  0  0
 12 13  1  6  0  0  0
 12 14  1  0  0  0  0
 12 21  1  0  0  0  0
 14 15  1  6  0  0  0
 14 16  1  0  0  0  0
 16 17  1  1  0  0  0
 16 18  1  0  0  0  0
 18 19  1  6  0  0  0
 18 20  1  0  0  0  0
 20 21  1  0  0  0  0
 20 22  1  1  0  0  0
 22 23  1  0  0  0  0
M  END
>  <CHROM.1>
-177.72340590,59.17821611,-142.91354045,-164.93426563,-170.97094548,-6.84784272
-9.02120404,0.15733455,2.44815663,-0.48549961,-1.15835941

>  <Name>
ligand

>  <RI>
0

>  <Rbt.Current_Directory>
/home/itssahil/PROJECTS/Mol_Feturizer/New_Systems/rnas/4TS2

>  <Rbt.Executable>
rbdock ($Id: //depot/dev/client3/rdock/2013.1/src/exe/rbdock.cxx#4 $)

>  <Rbt.Library>
libRbt.so (2013.1, Build901 2013/11/27)

>  <Rbt.Parameter_File>
/export/apps/rDock/src/rDock_2013.1_src/data/scripts/dock_solv.prm

>  <Rbt.Receptor>
prm/pocket_docking_3.prm

>  <SCORE>
-9.01618

>  <SCORE.INTER>
-4.19449

>  <SCORE.INTER.CONST>
1

>  <SCORE.INTER.POLAR>
0

>  <SCORE.INTER.ROT>
5

>  <SCORE.INTER.SOLV>
7.86397

>  <SCORE.INTER.VDW>
-12.351

>  <SCORE.INTER.norm>
-0.182369

>  <SCORE.INTRA>
-4.82169

>  <SCORE.INTRA.DIHEDRAL>
-6.38569

>  <SCORE.INTRA.DIHEDRAL.0>
12.4853

>  <SCORE.INTRA.POLAR>
0

>  <SCORE.INTRA.POLAR.0>
0

>  <SCORE.INTRA.REPUL>
0

>  <SCORE.INTRA.REPUL.0>
0

>  <SCORE.INTRA.SOLV>
0.00486611

>  <SCORE.INTRA.SOLV.lig_0>
-31.1706

>  <SCORE.INTRA.VDW>
-1.63128

>  <SCORE.INTRA.VDW.0>
-1.16895

>  <SCORE.INTRA.norm>
-0.209638

>  <SCORE.RESTR>
0

>  <SCORE.RESTR.CAVITY>
0

>  <SCORE.RESTR.norm>
0

>  <SCORE.SYSTEM>
0

>  <SCORE.SYSTEM.CONST>
0

>  <SCORE.SYSTEM.DIHEDRAL>
0

>  <SCORE.SYSTEM.SOLV>
0

>  <SCORE.SYSTEM.norm>
0

>  <SCORE.heavy>
23

>  <SCORE.norm>
-0.392008

>  <RMSD>
1.020

$$$$
ligand
 OpenBabel11021811513D
libRbt.so/2013.1/901 2013/11/27
 23 24  0  0  0  0  0  0  0  0999 V2000
  -10.3477   -9.7050   -0.0595 C   0  0  0  0  0  0  0  0  0  0  0  0
   -9.5981  -10.3164    1.0081 O   0  0  0  0  0  0  0  0  0  0  0  0
   -9.3766   -9.1418   -1.0873 C   0  0  2  0  0  0  0  0  0  0  0  0
   -8.3822  -10.1371   -1.6652 C   0  0  1  0  0  0  0  0  0  0  0  0
   -9.0246  -10.9162   -2.6764 O   0  0  0  0  0  0  0  0  0  0  0  0
   -7.2882   -9.2160   -2.1946 C   0  0  2  0  0  0  0  0  0  0  0  0
   -5.9749   -9.7532   -2.3916 O   0  0  0  0  0  0  0  0  0  0  0  0
   -7.2540   -8.1410   -1.1226 C   0  0  2  0  0  0  0  0  0  0  0  0
   -8.5703   -8.0990   -0.5318 O   0  0  0  0  0  0  0  0  0  0  0  0
   -6.8721   -6.8138   -1.8027 C   0  0  0  0  0  0  0  0  0  0  0  0
   -7.7884   -6.4503   -2.8448 O   0  0  0  0  0  0  0  0  0  0  0  0
   -6.3625   -7.7079    1.0785 C   0  0  2  0  0  0  0  0  0  0  0  0
   -6.3307   -8.5386   -0.0949 O   0  0  0  0  0  0  0  0  0  0  0  0
   -4.9268   -7.3682    1.4335 C   0  0  2  0  0  0  0  0  0  0  0  0
   -4.2463   -6.9147    0.2582 O   0  0  0  0  0  0  0  0  0  0  0  0
   -4.2045   -8.5932    1.9498 C   0  0  1  0  0  0  0  0  0  0  0  0
   -2.9498   -8.1844    2.4995 O   0  0  0  0  0  0  0  0  0  0  0  0
   -5.0344   -9.2974    3.0064 C   0  0  2  0  0  0  0  0  0  0  0  0
   -4.4051  -10.5294    3.3313 O   0  0  0  0  0  0  0  0  0  0  0  0
   -6.4512   -9.5795    2.5248 C   0  0  2  0  0  0  0  0  0  0  0  0
   -7.0371   -8.3343    2.1695 O   0  0  0  0  0  0  0  0  0  0  0  0
   -7.2866  -10.2753    3.6060 C   0  0  0  0  0  0  0  0  0  0  0  0
   -6.7939  -11.5806    3.9422 O   0  0  0  0  0  0  0  0  0  0  0  0
  1  2  1  0  0  0  0
  3  1  1  1  0  0  0
  3  9  1  0  0  0  0
  3  4  1  0  0  0  0
  4  5  1  6  0  0  0
  4  6  1  0  0  0  0
  6  7  1  1  0  0  0
  6  8  1  0  0  0  0
  8  9  1  0  0  0  0
  8 10  1  6  0  0  0
  8 13  1  0  0  0  0
 10 11  1  0  0  0  0
 12 13  1  6  0  0  0
 12 14  1  0  0  0  0
 12 21  1  0  0  0  0
 14 15  1  6  0  0  0
 14 16  1  0  0  0  0
 16 17  1  1  0  0  0
 16 18  1  0  0  0  0
 18 19  1  6  0  0  0
 18 20  1  0  0  0  0
 20 21  1  0  0  0  0
 20 22  1  1  0  0  0
 22 23  1  0  0  0  0
M  END
>  <CHROM.1>
56.01817084,58.23857997,-132.70154660,-170.73925465,-64.46496568,-6.79659112
-8.95268821,0.45289701,2.32293657,-0.52594748,-1.05215651

>  <Name>
ligand

>  <RI>
0

>  <Rbt.Current_Directory>
/home/itssahil/PROJECTS/Mol_Feturizer/New_Systems/rnas/4TS2

>  <Rbt.Executable>
rbdock ($Id: //depot/dev/client3/rdock/2013.1/src/exe/rbdock.cxx#4 $)

>  <Rbt.Library>
libRbt.so (2013.1, Build901 2013/11/27)

>  <Rbt.Parameter_File>
/export/apps/rDock/src/rDock_2013.1_src/data/scripts/dock_solv.prm

>  <Rbt.Receptor>
prm/pocket_docking_4.prm

>  <SCORE>
-8.91715

>  <SCORE.INTER>
-5.13602

>  <SCORE.INTER.CONST>
1

>  <SCORE.INTER.POLAR>
0

>  <SCORE.INTER.ROT>
5

>  <SCORE.INTER.SOLV>
7.87921

>  <SCORE.INTER.VDW>
-12.9838

>  <SCORE.INTER.norm>
-0.223305

>  <SCORE.INTRA>
-3.78113

>  <SCORE.INTRA.DIHEDRAL>
-5.62001

>  <SCORE.INTRA.DIHEDRAL.0>
12.4853

>  <SCORE.INTRA.POLAR>
0

>  <SCORE.INTRA.POLAR.0>
0

>  <SCORE.INTRA.REPUL>
0

>  <SCORE.INTRA.REPUL.0>
0

>  <SCORE.INTRA.SOLV>
0.760851

>  <SCORE.INTRA.SOLV.lig_0>
-31.1706

>  <SCORE.INTRA.VDW>
-1.35155

>  <SCORE.INTRA.VDW.0>
-1.16895

>  <SCORE.INTRA.norm>
-0.164397

>  <SCORE.RESTR>
0

>  <SCORE.RESTR.CAVITY>
0

>  <SCORE.RESTR.norm>
0

>  <SCORE.SYSTEM>
0

>  <SCORE.SYSTEM.CONST>
0

>  <SCORE.SYSTEM.DIHEDRAL>
0

>  <SCORE.SYSTEM.SOLV>
0

>  <SCORE.SYSTEM.norm>
0

>  <SCORE.heavy>
23

>  <SCORE.norm>
-0.387702

>  <RMSD>
1.021

$$$$
ligand
 OpenBabel11021811513D
libRbt.so/2013.1/901 2013/11/27
 23 24  0  0  0  0  0  0  0  0999 V2000
   -9.6259  -10.3810   -0.1599 C   0  0  0  0  0  0  0  0  0  0  0  0
  -10.7107   -9.5681    0.3278 O   0  0  0  0  0  0  0  0  0  0  0  0
   -8.8612   -9.6023   -1.2207 C   0  0  2  0  0  0  0  0  0  0  0  0
   -7.7028  -10.3429   -1.8711 C   0  0  1  0  0  0  0  0  0  0  0  0
   -8.2090  -11.2334   -2.8676 O   0  0  0  0  0  0  0  0  0  0  0  0
   -6.8714   -9.1941   -2.4318 C   0  0  2  0  0  0  0  0  0  0  0  0
   -5.4840   -9.4217   -2.7066 O   0  0  0  0  0  0  0  0  0  0  0  0
   -7.0197   -8.1520   -1.3373 C   0  0  2  0  0  0  0  0  0  0  0  0
   -8.2786   -8.4126   -0.6810 O   0  0  0  0  0  0  0  0  0  0  0  0
   -6.9799   -6.7648   -2.0034 C   0  0  0  0  0  0  0  0  0  0  0  0
   -7.9563   -6.6308   -3.0456 O   0  0  0  0  0  0  0  0  0  0  0  0
   -6.1967   -7.6598    0.8781 C   0  0  2  0  0  0  0  0  0  0  0  0
   -5.9772   -8.3460   -0.3665 O   0  0  0  0  0  0  0  0  0  0  0  0
   -4.8354   -7.3586    1.4769 C   0  0  2  0  0  0  0  0  0  0  0  0
   -4.0012   -6.7666    0.4749 O   0  0  0  0  0  0  0  0  0  0  0  0
   -4.1698   -8.6330    1.9477 C   0  0  1  0  0  0  0  0  0  0  0  0
   -3.0172   -8.2869    2.7192 O   0  0  0  0  0  0  0  0  0  0  0  0
   -5.1291   -9.4604    2.7819 C   0  0  2  0  0  0  0  0  0  0  0  0
   -4.5275  -10.7196    3.0502 O   0  0  0  0  0  0  0  0  0  0  0  0
   -6.4546   -9.6894    2.0682 C   0  0  2  0  0  0  0  0  0  0  0  0
   -7.0091   -8.4134    1.7779 O   0  0  0  0  0  0  0  0  0  0  0  0
   -7.4231  -10.5114    2.9268 C   0  0  0  0  0  0  0  0  0  0  0  0
   -6.9655  -11.8511    3.1622 O   0  0  0  0  0  0  0  0  0  0  0  0
  1  2  1  0  0  0  0
  3  1  1  1  0  0  0
  3  9  1  0  0  0  0
  3  4  1  0  0  0  0
  4  5  1  6  0  0  0
  4  6  1  0  0  0  0
  6  7  1  1  0  0  0
  6  8  1  0  0  0  0
  8  9  1  0  0  0  0
  8 10  1  6  0  0  0
  8 13  1  0  0  0  0
 10 11  1  0  0  0  0
 12 13  1  6  0  0  0
 12 14  1  0  0  0  0
 12 21  1  0  0  0  0
 14 15  1  6  0  0  0
 14 16  1  0  0  0  0
 16 17  1  1  0  0  0
 16 18  1  0  0  0  0
 18 19  1  6  0  0  0
 18 20  1  0  0  0  0
 20 21  1  0  0  0  0
 20 22  1  1  0  0  0
 22 23  1  0  0  0  0
M  END
>  <CHROM.1>
-178.17565109,54.70618201,-151.87034036,-164.96501819,-65.27757807,-6.66990298
-9.02592059,0.21366343,2.36823290,-0.56147523,-1.03966080

>  <Name>
ligand

>  <RI>
0

>  <Rbt.Current_Directory>
/home/itssahil/PROJECTS/Mol_Feturizer/New_Systems/rnas/4TS2

>  <Rbt.Executable>
rbdock ($Id: //depot/dev/client3/rdock/2013.1/src/exe/rbdock.cxx#4 $)

>  <Rbt.Library>
libRbt.so (2013.1, Build901 2013/11/27)

>  <Rbt.Parameter_File>
/export/apps/rDock/src/rDock_2013.1_src/data/scripts/dock_solv.prm

>  <Rbt.Receptor>
prm/pocket_docking_3.prm

>  <SCORE>
-9.0744

>  <SCORE.INTER>
-3.60969

>  <SCORE.INTER.CONST>
1

>  <SCORE.INTER.POLAR>
0

>  <SCORE.INTER.ROT>
5

>  <SCORE.INTER.SOLV>
7.50727

>  <SCORE.INTER.VDW>
-11.8422

>  <SCORE.INTER.norm>
-0.156943

>  <SCORE.INTRA>
-5.46471

>  <SCORE.INTRA.DIHEDRAL>
-8.16403

>  <SCORE.INTRA.DIHEDRAL.0>
12.4853

>  <SCORE.INTRA.POLAR>
0

>  <SCORE.INTRA.POLAR.0>
0

>  <SCORE.INTRA.REPUL>
0

>  <SCORE.INTRA.REPUL.0>
0

>  <SCORE.INTRA.SOLV>
0.0753037

>  <SCORE.INTRA.SOLV.lig_0>
-31.1706

>  <SCORE.INTRA.VDW>
-1.42034

>  <SCORE.INTRA.VDW.0>
-1.16895

>  <SCORE.INTRA.norm>
-0.237596

>  <SCORE.RESTR>
0

>  <SCORE.RESTR.CAVITY>
0

>  <SCORE.RESTR.norm>
0

>  <SCORE.SYSTEM>
0

>  <SCORE.SYSTEM.CONST>
0

>  <SCORE.SYSTEM.DIHEDRAL>
0

>  <SCORE.SYSTEM.SOLV>
0

>  <SCORE.SYSTEM.norm>
0

>  <SCORE.heavy>
23

>  <SCORE.norm>
-0.394539

>  <RMSD>
1.023

$$$$
ligand
 OpenBabel11021811513D
libRbt.so/2013.1/901 2013/11/27
 23 24  0  0  0  0  0  0  0  0999 V2000
  -10.1122  -10.0511    0.2952 C   0  0  0  0  0  0  0  0  0  0  0  0
  -10.8947  -11.1274   -0.2569 O   0  0  0  0  0  0  0  0  0  0  0  0
   -9.4334   -9.2988   -0.8404 C   0  0  2  0  0  0  0  0  0  0  0  0
   -8.4402  -10.1066   -1.6616 C   0  0  1  0  0  0  0  0  0  0  0  0
   -9.1498  -10.9162   -2.6014 O   0  0  0  0  0  0  0  0  0  0  0  0
   -7.5968   -9.0093   -2.3020 C   0  0  2  0  0  0  0  0  0  0  0  0
   -6.2834   -9.3384   -2.7698 O   0  0  0  0  0  0  0  0  0  0  0  0
   -7.5074   -7.9992   -1.1717 C   0  0  2  0  0  0  0  0  0  0  0  0
   -8.6843   -8.1807   -0.3559 O   0  0  0  0  0  0  0  0  0  0  0  0
   -7.4394   -6.5964   -1.8019 C   0  0  0  0  0  0  0  0  0  0  0  0
   -6.2519   -6.4055   -2.5836 O   0  0  0  0  0  0  0  0  0  0  0  0
   -6.3974   -7.7251    0.9544 C   0  0  2  0  0  0  0  0  0  0  0  0
   -6.3643   -8.3121   -0.3580 O   0  0  0  0  0  0  0  0  0  0  0  0
   -4.9605   -7.5165    1.3951 C   0  0  2  0  0  0  0  0  0  0  0  0
   -4.2352   -6.8695    0.3436 O   0  0  0  0  0  0  0  0  0  0  0  0
   -4.2939   -8.8455    1.6751 C   0  0  1  0  0  0  0  0  0  0  0  0
   -3.0403   -8.6002    2.3169 O   0  0  0  0  0  0  0  0  0  0  0  0
   -5.1739   -9.7094    2.5583 C   0  0  2  0  0  0  0  0  0  0  0  0
   -4.5956  -11.0043    2.6476 O   0  0  0  0  0  0  0  0  0  0  0  0
   -6.5869   -9.8375    2.0051 C   0  0  2  0  0  0  0  0  0  0  0  0
   -7.1206   -8.5254    1.8894 O   0  0  0  0  0  0  0  0  0  0  0  0
   -7.4728  -10.6978    2.9140 C   0  0  0  0  0  0  0  0  0  0  0  0
   -7.5702  -10.1850    4.2509 O   0  0  0  0  0  0  0  0  0  0  0  0
  1  2  1  0  0  0  0
  3  1  1  1  0  0  0
  3  9  1  0  0  0  0
  3  4  1  0  0  0  0
  4  5  1  6  0  0  0
  4  6  1  0  0  0  0
  6  7  1  1  0  0  0
  6  8  1  0  0  0  0
  8  9  1  0  0  0  0
  8 10  1  6  0  0  0
  8 13  1  0  0  0  0
 10 11  1  0  0  0  0
 12 13  1  6  0  0  0
 12 14  1  0  0  0  0
 12 21  1  0  0  0  0
 14 15  1  6  0  0  0
 14 16  1  0  0  0  0
 16 17  1  1  0  0  0
 16 18  1  0  0  0  0
 18 19  1  6  0  0  0
 18 20  1  0  0  0  0
 20 21  1  0  0  0  0
 20 22  1  1  0  0  0
 22 23  1  0  0  0  0
M  END
>  <CHROM.1>
-62.82749884,-64.13892716,-151.47922850,-161.16105160,58.33025409,-6.93120624
-9.00267740,0.28511523,2.50119136,-0.50107470,-1.08491663

>  <Name>
ligand

>  <RI>
0

>  <Rbt.Current_Directory>
/home/itssahil/PROJECTS/Mol_Feturizer/New_Systems/rnas/4TS2

>  <Rbt.Executable>
rbdock ($Id: //depot/dev/client3/rdock/2013.1/src/exe/rbdock.cxx#4 $)

>  <Rbt.Library>
libRbt.so (2013.1, Build901 2013/11/27)

>  <Rbt.Parameter_File>
/export/apps/rDock/src/rDock_2013.1_src/data/scripts/dock_solv.prm

>  <Rbt.Receptor>
prm/pocket_docking_3.prm

>  <SCORE>
-9.44934

>  <SCORE.INTER>
-4.26689

>  <SCORE.INTER.CONST>
1

>  <SCORE.INTER.POLAR>
0

>  <SCORE.INTER.ROT>
5

>  <SCORE.INTER.SOLV>
7.56642

>  <SCORE.INTER.VDW>
-12.3001

>  <SCORE.INTER.norm>
-0.185517

>  <SCORE.INTRA>
-5.18245

>  <SCORE.INTRA.DIHEDRAL>
-7.67893

>  <SCORE.INTRA.DIHEDRAL.0>
12.4853

>  <SCORE.INTRA.POLAR>
0

>  <SCORE.INTRA.POLAR.0>
0

>  <SCORE.INTRA.REPUL>
0

>  <SCORE.INTRA.REPUL.0>
0

>  <SCORE.INTRA.SOLV>
0.590793

>  <SCORE.INTRA.SOLV.lig_0>
-31.1706

>  <SCORE.INTRA.VDW>
-1.63838

>  <SCORE.INTRA.VDW.0>
-1.16895

>  <SCORE.INTRA.norm>
-0.225324

>  <SCORE.RESTR>
0

>  <SCORE.RESTR.CAVITY>
0

>  <SCORE.RESTR.norm>
0

>  <SCORE.SYSTEM>
0

>  <SCORE.SYSTEM.CONST>
0

>  <SCORE.SYSTEM.DIHEDRAL>
0

>  <SCORE.SYSTEM.SOLV>
0

>  <SCORE.SYSTEM.norm>
0

>  <SCORE.heavy>
23

>  <SCORE.norm>
-0.410841

>  <RMSD>
1.024

$$$$
ligand
 OpenBabel11021811513D
libRbt.so/2013.1/901 2013/11/27
 23 24  0  0  0  0  0  0  0  0999 V2000
  -10.0717  -10.2493    0.6657 C   0  0  0  0  0  0  0  0  0  0  0  0
  -10.8329  -11.3706    0.1769 O   0  0  0  0  0  0  0  0  0  0  0  0
   -9.4446   -9.5233   -0.5159 C   0  0  2  0  0  0  0  0  0  0  0  0
   -8.4535  -10.3362   -1.3347 C   0  0  1  0  0  0  0  0  0  0  0  0
   -9.1671  -11.1983   -2.2234 O   0  0  0  0  0  0  0  0  0  0  0  0
   -7.6573   -9.2427   -2.0390 C   0  0  2  0  0  0  0  0  0  0  0  0
   -6.3490   -9.5559   -2.5316 O   0  0  0  0  0  0  0  0  0  0  0  0
   -7.5634   -8.1888   -0.9498 C   0  0  2  0  0  0  0  0  0  0  0  0
   -8.7121   -8.3692   -0.0946 O   0  0  0  0  0  0  0  0  0  0  0  0
   -7.5497   -6.8095   -1.6331 C   0  0  0  0  0  0  0  0  0  0  0  0
   -6.3673   -6.6001   -2.4177 O   0  0  0  0  0  0  0  0  0  0  0  0
   -6.3052   -7.6485    1.0384 C   0  0  2  0  0  0  0  0  0  0  0  0
   -6.3904   -8.4419   -0.1580 O   0  0  0  0  0  0  0  0  0  0  0  0
   -4.8344   -7.3930    1.3101 C   0  0  2  0  0  0  0  0  0  0  0  0
   -4.2060   -6.9370    0.1071 O   0  0  0  0  0  0  0  0  0  0  0  0
   -4.1462   -8.6686    1.7438 C   0  0  1  0  0  0  0  0  0  0  0  0
   -2.8400   -8.3412    2.2234 O   0  0  0  0  0  0  0  0  0  0  0  0
   -4.9441   -9.3635    2.8308 C   0  0  2  0  0  0  0  0  0  0  0  0
   -4.3609  -10.6353    3.0793 O   0  0  0  0  0  0  0  0  0  0  0  0
   -6.4010   -9.5583    2.4332 C   0  0  2  0  0  0  0  0  0  0  0  0
   -6.9421   -8.2746    2.1519 O   0  0  0  0  0  0  0  0  0  0  0  0
   -7.2024  -10.2454    3.5453 C   0  0  0  0  0  0  0  0  0  0  0  0
   -6.8068  -11.6077    3.7623 O   0  0  0  0  0  0  0  0  0  0  0  0
  1  2  1  0  0  0  0
  3  1  1  1  0  0  0
  3  9  1  0  0  0  0
  3  4  1  0  0  0  0
  4  5  1  6  0  0  0
  4  6  1  0  0  0  0
  6  7  1  1  0  0  0
  6  8  1  0  0  0  0
  8  9  1  0  0  0  0
  8 10  1  6  0  0  0
  8 13  1  0  0  0  0
 10 11  1  0  0  0  0
 12 13  1  6  0  0  0
 12 14  1  0  0  0  0
 12 21  1  0  0  0  0
 14 15  1  6  0  0  0
 14 16  1  0  0  0  0
 16 17  1  1  0  0  0
 16 18  1  0  0  0  0
 18 19  1  6  0  0  0
 18 20  1  0  0  0  0
 20 21  1  0  0  0  0
 20 22  1  1  0  0  0
 22 23  1  0  0  0  0
M  END
>  <CHROM.1>
-62.43126648,-66.17149053,-147.88368304,-170.27029257,-67.63958471,-6.83947962
-9.08487881,0.48209020,2.65723127,-0.53093289,-1.02922662

>  <Name>
ligand

>  <RI>
0

>  <Rbt.Current_Directory>
/home/itssahil/PROJECTS/Mol_Feturizer/New_Systems/rnas/4TS2

>  <Rbt.Executable>
rbdock ($Id: //depot/dev/client3/rdock/2013.1/src/exe/rbdock.cxx#4 $)

>  <Rbt.Library>
libRbt.so (2013.1, Build901 2013/11/27)

>  <Rbt.Parameter_File>
/export/apps/rDock/src/rDock_2013.1_src/data/scripts/dock_solv.prm

>  <Rbt.Receptor>
prm/pocket_docking_3.prm

>  <SCORE>
-9.27195

>  <SCORE.INTER>
-4.13003

>  <SCORE.INTER.CONST>
1

>  <SCORE.INTER.POLAR>
0

>  <SCORE.INTER.ROT>
5

>  <SCORE.INTER.SOLV>
6.47942

>  <SCORE.INTER.VDW>
-11.8465

>  <SCORE.INTER.norm>
-0.179567

>  <SCORE.INTRA>
-5.14192

>  <SCORE.INTRA.DIHEDRAL>
-7.8086

>  <SCORE.INTRA.DIHEDRAL.0>
12.4853

>  <SCORE.INTRA.POLAR>
0

>  <SCORE.INTRA.POLAR.0>
0

>  <SCORE.INTRA.REPUL>
0

>  <SCORE.INTRA.REPUL.0>
0

>  <SCORE.INTRA.SOLV>
0.581173

>  <SCORE.INTRA.SOLV.lig_0>
-31.1706

>  <SCORE.INTRA.VDW>
-1.52821

>  <SCORE.INTRA.VDW.0>
-1.16895

>  <SCORE.INTRA.norm>
-0.223562

>  <SCORE.RESTR>
0

>  <SCORE.RESTR.CAVITY>
0

>  <SCORE.RESTR.norm>
0

>  <SCORE.SYSTEM>
0

>  <SCORE.SYSTEM.CONST>
0

>  <SCORE.SYSTEM.DIHEDRAL>
0

>  <SCORE.SYSTEM.SOLV>
0

>  <SCORE.SYSTEM.norm>
0

>  <SCORE.heavy>
23

>  <SCORE.norm>
-0.403128

>  <RMSD>
1.028

$$$$
ligand
 OpenBabel11021811513D
libRbt.so/2013.1/901 2013/11/27
 23 24  0  0  0  0  0  0  0  0999 V2000
  -10.2146   -9.9701    0.3586 C   0  0  0  0  0  0  0  0  0  0  0  0
  -11.0340  -11.0203   -0.1901 O   0  0  0  0  0  0  0  0  0  0  0  0
   -9.4673   -9.2814   -0.7744 C   0  0  2  0  0  0  0  0  0  0  0  0
   -8.4844  -10.1549   -1.5388 C   0  0  1  0  0  0  0  0  0  0  0  0
   -9.1979  -10.9610   -2.4786 O   0  0  0  0  0  0  0  0  0  0  0  0
   -7.5737   -9.1141   -2.1812 C   0  0  2  0  0  0  0  0  0  0  0  0
   -6.2615   -9.5127   -2.5952 O   0  0  0  0  0  0  0  0  0  0  0  0
   -7.4768   -8.0756   -1.0775 C   0  0  2  0  0  0  0  0  0  0  0  0
   -8.6861   -8.1825   -0.2969 O   0  0  0  0  0  0  0  0  0  0  0  0
   -7.3273   -6.6963   -1.7445 C   0  0  0  0  0  0  0  0  0  0  0  0
   -6.0913   -6.5669   -2.4608 O   0  0  0  0  0  0  0  0  0  0  0  0
   -6.3132   -7.6366    0.9916 C   0  0  2  0  0  0  0  0  0  0  0  0
   -6.3752   -8.4129   -0.2174 O   0  0  0  0  0  0  0  0  0  0  0  0
   -4.8479   -7.3878    1.2969 C   0  0  2  0  0  0  0  0  0  0  0  0
   -4.1943   -6.9161    0.1135 O   0  0  0  0  0  0  0  0  0  0  0  0
   -4.1708   -8.6707    1.7264 C   0  0  1  0  0  0  0  0  0  0  0  0
   -2.8741   -8.3527    2.2372 O   0  0  0  0  0  0  0  0  0  0  0  0
   -4.9918   -9.3794    2.7869 C   0  0  2  0  0  0  0  0  0  0  0  0
   -4.4159  -10.6557    3.0292 O   0  0  0  0  0  0  0  0  0  0  0  0
   -6.4406   -9.5658    2.3569 C   0  0  2  0  0  0  0  0  0  0  0  0
   -6.9738   -8.2772    2.0829 O   0  0  0  0  0  0  0  0  0  0  0  0
   -7.2656  -10.2670    3.4425 C   0  0  0  0  0  0  0  0  0  0  0  0
   -6.8384  -11.6147    3.6892 O   0  0  0  0  0  0  0  0  0  0  0  0
  1  2  1  0  0  0  0
  3  1  1  1  0  0  0
  3  9  1  0  0  0  0
  3  4  1  0  0  0  0
  4  5  1  6  0  0  0
  4  6  1  0  0  0  0
  6  7  1  1  0  0  0
  6  8  1  0  0  0  0
  8  9  1  0  0  0  0
  8 10  1  6  0  0  0
  8 13  1  0  0  0  0
 10 11  1  0  0  0  0
 12 13  1  6  0  0  0
 12 14  1  0  0  0  0
 12 21  1  0  0  0  0
 14 15  1  6  0  0  0
 14 16  1  0  0  0  0
 16 17  1  1  0  0  0
 16 18  1  0  0  0  0
 18 19  1  6  0  0  0
 18 20  1  0  0  0  0
 20 21  1  0  0  0  0
 20 22  1  1  0  0  0
 22 23  1  0  0  0  0
M  END
>  <CHROM.1>
-63.32351308,-65.72908544,-143.44856606,-170.12254645,-65.07318367,-6.83816835
-9.00296348,0.36870892,2.59383084,-0.50769554,-1.04168678

>  <Name>
ligand

>  <RI>
0

>  <Rbt.Current_Directory>
/home/itssahil/PROJECTS/Mol_Feturizer/New_Systems/rnas/4TS2

>  <Rbt.Executable>
rbdock ($Id: //depot/dev/client3/rdock/2013.1/src/exe/rbdock.cxx#4 $)

>  <Rbt.Library>
libRbt.so (2013.1, Build901 2013/11/27)

>  <Rbt.Parameter_File>
/export/apps/rDock/src/rDock_2013.1_src/data/scripts/dock_solv.prm

>  <Rbt.Receptor>
prm/pocket_docking_3.prm

>  <SCORE>
-9.3839

>  <SCORE.INTER>
-4.73148

>  <SCORE.INTER.CONST>
1

>  <SCORE.INTER.POLAR>
0

>  <SCORE.INTER.ROT>
5

>  <SCORE.INTER.SOLV>
6.77541

>  <SCORE.INTER.VDW>
-12.3461

>  <SCORE.INTER.norm>
-0.205716

>  <SCORE.INTRA>
-4.65242

>  <SCORE.INTRA.DIHEDRAL>
-7.1033

>  <SCORE.INTRA.DIHEDRAL.0>
12.4853

>  <SCORE.INTRA.POLAR>
0

>  <SCORE.INTRA.POLAR.0>
0

>  <SCORE.INTRA.REPUL>
0

>  <SCORE.INTRA.REPUL.0>
0

>  <SCORE.INTRA.SOLV>
0.595511

>  <SCORE.INTRA.SOLV.lig_0>
-31.1706

>  <SCORE.INTRA.VDW>
-1.39853

>  <SCORE.INTRA.VDW.0>
-1.16895

>  <SCORE.INTRA.norm>
-0.202279

>  <SCORE.RESTR>
0

>  <SCORE.RESTR.CAVITY>
0

>  <SCORE.RESTR.norm>
0

>  <SCORE.SYSTEM>
0

>  <SCORE.SYSTEM.CONST>
0

>  <SCORE.SYSTEM.DIHEDRAL>
0

>  <SCORE.SYSTEM.SOLV>
0

>  <SCORE.SYSTEM.norm>
0

>  <SCORE.heavy>
23

>  <SCORE.norm>
-0.407996

>  <RMSD>
1.031

$$$$
ligand
 OpenBabel11021811513D
libRbt.so/2013.1/901 2013/11/27
 23 24  0  0  0  0  0  0  0  0999 V2000
  -10.0336  -10.0965   -0.2589 C   0  0  0  0  0  0  0  0  0  0  0  0
  -11.0624   -9.1550    0.1025 O   0  0  0  0  0  0  0  0  0  0  0  0
   -9.1325   -9.4660   -1.3111 C   0  0  2  0  0  0  0  0  0  0  0  0
   -8.0453  -10.3702   -1.8713 C   0  0  1  0  0  0  0  0  0  0  0  0
   -8.6113  -11.2392   -2.8544 O   0  0  0  0  0  0  0  0  0  0  0  0
   -7.0553   -9.3573   -2.4364 C   0  0  2  0  0  0  0  0  0  0  0  0
   -5.6952   -9.7626   -2.6314 O   0  0  0  0  0  0  0  0  0  0  0  0
   -7.1241   -8.2546   -1.3946 C   0  0  2  0  0  0  0  0  0  0  0  0
   -8.4336   -8.3309   -0.7923 O   0  0  0  0  0  0  0  0  0  0  0  0
   -6.8851   -6.9150   -2.1145 C   0  0  0  0  0  0  0  0  0  0  0  0
   -7.8694   -6.6544   -3.1248 O   0  0  0  0  0  0  0  0  0  0  0  0
   -6.3668   -7.7851    0.8490 C   0  0  2  0  0  0  0  0  0  0  0  0
   -6.1579   -8.5265   -0.3654 O   0  0  0  0  0  0  0  0  0  0  0  0
   -5.0015   -7.3920    1.3817 C   0  0  2  0  0  0  0  0  0  0  0  0
   -4.2300   -6.8180    0.3209 O   0  0  0  0  0  0  0  0  0  0  0  0
   -4.2621   -8.6085    1.8937 C   0  0  1  0  0  0  0  0  0  0  0  0
   -3.1015   -8.1707    2.6042 O   0  0  0  0  0  0  0  0  0  0  0  0
   -5.1533   -9.4320    2.8040 C   0  0  2  0  0  0  0  0  0  0  0  0
   -4.4853  -10.6470    3.1154 O   0  0  0  0  0  0  0  0  0  0  0  0
   -6.4902   -9.7575    2.1514 C   0  0  2  0  0  0  0  0  0  0  0  0
   -7.1126   -8.5249    1.8155 O   0  0  0  0  0  0  0  0  0  0  0  0
   -7.3900  -10.5747    3.0860 C   0  0  0  0  0  0  0  0  0  0  0  0
   -8.5885  -11.0384    2.4471 O   0  0  0  0  0  0  0  0  0  0  0  0
  1  2  1  0  0  0  0
  3  1  1  1  0  0  0
  3  9  1  0  0  0  0
  3  4  1  0  0  0  0
  4  5  1  6  0  0  0
  4  6  1  0  0  0  0
  6  7  1  1  0  0  0
  6  8  1  0  0  0  0
  8  9  1  0  0  0  0
  8 10  1  6  0  0  0
  8 13  1  0  0  0  0
 10 11  1  0  0  0  0
 12 13  1  6  0  0  0
 12 14  1  0  0  0  0
 12 21  1  0  0  0  0
 14 15  1  6  0  0  0
 14 16  1  0  0  0  0
 16 17  1  1  0  0  0
 16 18  1  0  0  0  0
 18 19  1  6  0  0  0
 18 20  1  0  0  0  0
 20 21  1  0  0  0  0
 20 22  1  1  0  0  0
 22 23  1  0  0  0  0
M  END
>  <CHROM.1>
-176.00982373,60.33207788,-141.85029420,-163.52553328,-172.81831369,-6.88921339
-8.99804919,0.14510254,2.43585730,-0.47769521,-1.14630155

>  <Name>
ligand

>  <RI>
0

>  <Rbt.Current_Directory>
/home/itssahil/PROJECTS/Mol_Feturizer/New_Systems/rnas/4TS2

>  <Rbt.Executable>
rbdock ($Id: //depot/dev/client3/rdock/2013.1/src/exe/rbdock.cxx#4 $)

>  <Rbt.Library>
libRbt.so (2013.1, Build901 2013/11/27)

>  <Rbt.Parameter_File>
/export/apps/rDock/src/rDock_2013.1_src/data/scripts/dock_solv.prm

>  <Rbt.Receptor>
prm/pocket_docking_4.prm

>  <SCORE>
-9.02152

>  <SCORE.INTER>
-4.37036

>  <SCORE.INTER.CONST>
1

>  <SCORE.INTER.POLAR>
0

>  <SCORE.INTER.ROT>
5

>  <SCORE.INTER.SOLV>
8.13009

>  <SCORE.INTER.VDW>
-12.5569

>  <SCORE.INTER.norm>
-0.190016

>  <SCORE.INTRA>
-4.65116

>  <SCORE.INTRA.DIHEDRAL>
-6.08333

>  <SCORE.INTRA.DIHEDRAL.0>
12.4853

>  <SCORE.INTRA.POLAR>
0

>  <SCORE.INTRA.POLAR.0>
0

>  <SCORE.INTRA.REPUL>
0

>  <SCORE.INTRA.REPUL.0>
0

>  <SCORE.INTRA.SOLV>
-0.0497605

>  <SCORE.INTRA.SOLV.lig_0>
-31.1706

>  <SCORE.INTRA.VDW>
-1.58462

>  <SCORE.INTRA.VDW.0>
-1.16895

>  <SCORE.INTRA.norm>
-0.202225

>  <SCORE.RESTR>
0

>  <SCORE.RESTR.CAVITY>
0

>  <SCORE.RESTR.norm>
0

>  <SCORE.SYSTEM>
0

>  <SCORE.SYSTEM.CONST>
0

>  <SCORE.SYSTEM.DIHEDRAL>
0

>  <SCORE.SYSTEM.SOLV>
0

>  <SCORE.SYSTEM.norm>
0

>  <SCORE.heavy>
23

>  <SCORE.norm>
-0.39224

>  <RMSD>
1.032

$$$$
ligand
 OpenBabel11021811513D
libRbt.so/2013.1/901 2013/11/27
 23 24  0  0  0  0  0  0  0  0999 V2000
  -10.2380   -9.8804    0.3503 C   0  0  0  0  0  0  0  0  0  0  0  0
  -11.0271  -10.9569   -0.1919 O   0  0  0  0  0  0  0  0  0  0  0  0
   -9.4729   -9.2084   -0.7808 C   0  0  2  0  0  0  0  0  0  0  0  0
   -8.5056  -10.1027   -1.5410 C   0  0  1  0  0  0  0  0  0  0  0  0
   -9.2324  -10.8948   -2.4825 O   0  0  0  0  0  0  0  0  0  0  0  0
   -7.5715   -9.0814   -2.1813 C   0  0  2  0  0  0  0  0  0  0  0  0
   -6.2664   -9.5074   -2.5905 O   0  0  0  0  0  0  0  0  0  0  0  0
   -7.4570   -8.0441   -1.0782 C   0  0  2  0  0  0  0  0  0  0  0  0
   -8.6709   -8.1253   -0.3016 O   0  0  0  0  0  0  0  0  0  0  0  0
   -7.2768   -6.6688   -1.7459 C   0  0  0  0  0  0  0  0  0  0  0  0
   -6.0534   -6.5784   -2.4894 O   0  0  0  0  0  0  0  0  0  0  0  0
   -6.2960   -7.6321    0.9978 C   0  0  2  0  0  0  0  0  0  0  0  0
   -6.3655   -8.4031   -0.2141 O   0  0  0  0  0  0  0  0  0  0  0  0
   -4.8282   -7.4037    1.3073 C   0  0  2  0  0  0  0  0  0  0  0  0
   -4.1657   -6.9364    0.1270 O   0  0  0  0  0  0  0  0  0  0  0  0
   -4.1690   -8.6971    1.7335 C   0  0  1  0  0  0  0  0  0  0  0  0
   -2.8693   -8.3980    2.2483 O   0  0  0  0  0  0  0  0  0  0  0  0
   -5.0016   -9.3987    2.7897 C   0  0  2  0  0  0  0  0  0  0  0  0
   -4.4430  -10.6833    3.0285 O   0  0  0  0  0  0  0  0  0  0  0  0
   -6.4518   -9.5644    2.3558 C   0  0  2  0  0  0  0  0  0  0  0  0
   -6.9673   -8.2679    2.0854 O   0  0  0  0  0  0  0  0  0  0  0  0
   -7.2884  -10.2586    3.4371 C   0  0  0  0  0  0  0  0  0  0  0  0
   -6.8618  -11.6036    3.6993 O   0  0  0  0  0  0  0  0  0  0  0  0
  1  2  1  0  0  0  0
  3  1  1  1  0  0  0
  3  9  1  0  0  0  0
  3  4  1  0  0  0  0
  4  5  1  6  0  0  0
  4  6  1  0  0  0  0
  6  7  1  1  0  0  0
  6  8  1  0  0  0  0
  8  9  1  0  0  0  0
  8 10  1  6  0  0  0
  8 13  1  0  0  0  0
 10 11  1  0  0  0  0
 12 13  1  6  0  0  0
 12 14  1  0  0  0  0
 12 21  1  0  0  0  0
 14 15  1  6  0  0  0
 14 16  1  0  0  0  0
 16 17  1  1  0  0  0
 16 18  1  0  0  0  0
 18 19  1  6  0  0  0
 18 20  1  0  0  0  0
 20 21  1  0  0  0  0
 20 22  1  1  0  0  0
 22 23  1  0  0  0  0
M  END
>  <CHROM.1>
-60.53289898,-64.08753559,-143.17609278,-169.79600144,-63.86534041,-6.83660769
-8.98695281,0.36896101,2.57603598,-0.49523998,-1.04454729

>  <Name>
ligand

>  <RI>
0

>  <Rbt.Current_Directory>
/home/itssahil/PROJECTS/Mol_Feturizer/New_Systems/rnas/4TS2

>  <Rbt.Executable>
rbdock ($Id: //depot/dev/client3/rdock/2013.1/src/exe/rbdock.cxx#4 $)

>  <Rbt.Library>
libRbt.so (2013.1, Build901 2013/11/27)

>  <Rbt.Parameter_File>
/export/apps/rDock/src/rDock_2013.1_src/data/scripts/dock_solv.prm

>  <Rbt.Receptor>
prm/pocket_docking_3.prm

>  <SCORE>
-9.41772

>  <SCORE.INTER>
-4.81726

>  <SCORE.INTER.CONST>
1

>  <SCORE.INTER.POLAR>
0

>  <SCORE.INTER.ROT>
5

>  <SCORE.INTER.SOLV>
6.83822

>  <SCORE.INTER.VDW>
-12.4242

>  <SCORE.INTER.norm>
-0.209446

>  <SCORE.INTRA>
-4.60046

>  <SCORE.INTRA.DIHEDRAL>
-7.15082

>  <SCORE.INTRA.DIHEDRAL.0>
12.4853

>  <SCORE.INTRA.POLAR>
0

>  <SCORE.INTRA.POLAR.0>
0

>  <SCORE.INTRA.REPUL>
0

>  <SCORE.INTRA.REPUL.0>
0

>  <SCORE.INTRA.SOLV>
0.606618

>  <SCORE.INTRA.SOLV.lig_0>
-31.1706

>  <SCORE.INTRA.VDW>
-1.32836

>  <SCORE.INTRA.VDW.0>
-1.16895

>  <SCORE.INTRA.norm>
-0.20002

>  <SCORE.RESTR>
0

>  <SCORE.RESTR.CAVITY>
0

>  <SCORE.RESTR.norm>
0

>  <SCORE.SYSTEM>
0

>  <SCORE.SYSTEM.CONST>
0

>  <SCORE.SYSTEM.DIHEDRAL>
0

>  <SCORE.SYSTEM.SOLV>
0

>  <SCORE.SYSTEM.norm>
0

>  <SCORE.heavy>
23

>  <SCORE.norm>
-0.409466

>  <RMSD>
1.033

$$$$
ligand
 OpenBabel11021811513D
libRbt.so/2013.1/901 2013/11/27
 23 24  0  0  0  0  0  0  0  0999 V2000
   -9.8319  -10.3975    0.0622 C   0  0  0  0  0  0  0  0  0  0  0  0
  -10.8609   -9.6158    0.6990 O   0  0  0  0  0  0  0  0  0  0  0  0
   -9.1917   -9.5684   -1.0420 C   0  0  2  0  0  0  0  0  0  0  0  0
   -8.1116  -10.2723   -1.8491 C   0  0  1  0  0  0  0  0  0  0  0  0
   -8.7242  -11.1220   -2.8211 O   0  0  0  0  0  0  0  0  0  0  0  0
   -7.3500   -9.0947   -2.4480 C   0  0  2  0  0  0  0  0  0  0  0  0
   -6.0015   -9.3008   -2.8852 O   0  0  0  0  0  0  0  0  0  0  0  0
   -7.3773   -8.1021   -1.2991 C   0  0  2  0  0  0  0  0  0  0  0  0
   -8.5546   -8.3993   -0.5188 O   0  0  0  0  0  0  0  0  0  0  0  0
   -7.4145   -6.6870   -1.9040 C   0  0  0  0  0  0  0  0  0  0  0  0
   -6.2037   -6.3579   -2.5992 O   0  0  0  0  0  0  0  0  0  0  0  0
   -6.3221   -7.7177    0.8378 C   0  0  2  0  0  0  0  0  0  0  0  0
   -6.2327   -8.3309   -0.4598 O   0  0  0  0  0  0  0  0  0  0  0  0
   -4.9054   -7.4856    1.3292 C   0  0  2  0  0  0  0  0  0  0  0  0
   -4.1459   -6.8528    0.2934 O   0  0  0  0  0  0  0  0  0  0  0  0
   -4.2378   -8.8018    1.6622 C   0  0  1  0  0  0  0  0  0  0  0  0
   -3.0124   -8.5307    2.3467 O   0  0  0  0  0  0  0  0  0  0  0  0
   -5.1433   -9.6564    2.5286 C   0  0  2  0  0  0  0  0  0  0  0  0
   -4.5568  -10.9433    2.6670 O   0  0  0  0  0  0  0  0  0  0  0  0
   -6.5325   -9.8100    1.9241 C   0  0  2  0  0  0  0  0  0  0  0  0
   -7.0735   -8.5061    1.7606 O   0  0  0  0  0  0  0  0  0  0  0  0
   -7.4449  -10.6606    2.8157 C   0  0  0  0  0  0  0  0  0  0  0  0
   -7.0221  -12.0289    2.9080 O   0  0  0  0  0  0  0  0  0  0  0  0
  1  2  1  0  0  0  0
  3  1  1  1  0  0  0
  3  9  1  0  0  0  0
  3  4  1  0  0  0  0
  4  5  1  6  0  0  0
  4  6  1  0  0  0  0
  6  7  1  1  0  0  0
  6  8  1  0  0  0  0
  8  9  1  0  0  0  0
  8 10  1  6  0  0  0
  8 13  1  0  0  0  0
 10 11  1  0  0  0  0
 12 13  1  6  0  0  0
 12 14  1  0  0  0  0
 12 21  1  0  0  0  0
 14 15  1  6  0  0  0
 14 16  1  0  0  0  0
 16 17  1  1  0  0  0
 16 18  1  0  0  0  0
 18 19  1  6  0  0  0
 18 20  1  0  0  0  0
 20 21  1  0  0  0  0
 20 22  1  1  0  0  0
 22 23  1  0  0  0  0
M  END
>  <CHROM.1>
-177.92833109,-66.74692772,-154.46596027,-164.07371365,-66.45008433,-6.78390602
-9.06216721,0.17537518,2.47460296,-0.50996824,-1.00213615

>  <Name>
ligand

>  <RI>
0

>  <Rbt.Current_Directory>
/home/itssahil/PROJECTS/Mol_Feturizer/New_Systems/rnas/4TS2

>  <Rbt.Executable>
rbdock ($Id: //depot/dev/client3/rdock/2013.1/src/exe/rbdock.cxx#4 $)

>  <Rbt.Library>
libRbt.so (2013.1, Build901 2013/11/27)

>  <Rbt.Parameter_File>
/export/apps/rDock/src/rDock_2013.1_src/data/scripts/dock_solv.prm

>  <Rbt.Receptor>
prm/pocket_docking_5.prm

>  <SCORE>
-9.54652

>  <SCORE.INTER>
-3.81937

>  <SCORE.INTER.CONST>
1

>  <SCORE.INTER.POLAR>
0

>  <SCORE.INTER.ROT>
5

>  <SCORE.INTER.SOLV>
7.30908

>  <SCORE.INTER.VDW>
-11.9159

>  <SCORE.INTER.norm>
-0.16606

>  <SCORE.INTRA>
-5.72715

>  <SCORE.INTRA.DIHEDRAL>
-8.42837

>  <SCORE.INTRA.DIHEDRAL.0>
12.4853

>  <SCORE.INTRA.POLAR>
0

>  <SCORE.INTRA.POLAR.0>
0

>  <SCORE.INTRA.REPUL>
0

>  <SCORE.INTRA.REPUL.0>
0

>  <SCORE.INTRA.SOLV>
0.417265

>  <SCORE.INTRA.SOLV.lig_0>
-31.1706

>  <SCORE.INTRA.VDW>
-1.7216

>  <SCORE.INTRA.VDW.0>
-1.16895

>  <SCORE.INTRA.norm>
-0.249007

>  <SCORE.RESTR>
0

>  <SCORE.RESTR.CAVITY>
0

>  <SCORE.RESTR.norm>
0

>  <SCORE.SYSTEM>
0

>  <SCORE.SYSTEM.CONST>
0

>  <SCORE.SYSTEM.DIHEDRAL>
0

>  <SCORE.SYSTEM.SOLV>
0

>  <SCORE.SYSTEM.norm>
0

>  <SCORE.heavy>
23

>  <SCORE.norm>
-0.415066

>  <RMSD>
1.034

$$$$
ligand
 OpenBabel11021811513D
libRbt.so/2013.1/901 2013/11/27
 23 24  0  0  0  0  0  0  0  0999 V2000
  -10.2312   -9.9480    0.3227 C   0  0  0  0  0  0  0  0  0  0  0  0
  -11.0034  -11.0320   -0.2289 O   0  0  0  0  0  0  0  0  0  0  0  0
   -9.4709   -9.2591   -0.8015 C   0  0  2  0  0  0  0  0  0  0  0  0
   -8.4886  -10.1358   -1.5630 C   0  0  1  0  0  0  0  0  0  0  0  0
   -9.2009  -10.9321   -2.5120 O   0  0  0  0  0  0  0  0  0  0  0  0
   -7.5659   -9.0982   -2.1937 C   0  0  2  0  0  0  0  0  0  0  0  0
   -6.2536   -9.5041   -2.6002 O   0  0  0  0  0  0  0  0  0  0  0  0
   -7.4697   -8.0660   -1.0841 C   0  0  2  0  0  0  0  0  0  0  0  0
   -8.6854   -8.1681   -0.3128 O   0  0  0  0  0  0  0  0  0  0  0  0
   -7.3056   -6.6845   -1.7431 C   0  0  0  0  0  0  0  0  0  0  0  0
   -6.0850   -6.5763   -2.4887 O   0  0  0  0  0  0  0  0  0  0  0  0
   -6.3130   -7.6395    0.9914 C   0  0  2  0  0  0  0  0  0  0  0  0
   -6.3769   -8.4152   -0.2178 O   0  0  0  0  0  0  0  0  0  0  0  0
   -4.8472   -7.3913    1.2950 C   0  0  2  0  0  0  0  0  0  0  0  0
   -4.1949   -6.9194    0.1109 O   0  0  0  0  0  0  0  0  0  0  0  0
   -4.1700   -8.6747    1.7231 C   0  0  1  0  0  0  0  0  0  0  0  0
   -2.8726   -8.3573    2.2324 O   0  0  0  0  0  0  0  0  0  0  0  0
   -4.9900   -9.3834    2.7844 C   0  0  2  0  0  0  0  0  0  0  0  0
   -4.4142  -10.6600    3.0255 O   0  0  0  0  0  0  0  0  0  0  0  0
   -6.4394   -9.5691    2.3562 C   0  0  2  0  0  0  0  0  0  0  0  0
   -6.9724   -8.2802    2.0833 O   0  0  0  0  0  0  0  0  0  0  0  0
   -7.2633  -10.2703    3.4427 C   0  0  0  0  0  0  0  0  0  0  0  0
   -6.8371  -11.6187    3.6874 O   0  0  0  0  0  0  0  0  0  0  0  0
  1  2  1  0  0  0  0
  3  1  1  1  0  0  0
  3  9  1  0  0  0  0
  3  4  1  0  0  0  0
  4  5  1  6  0  0  0
  4  6  1  0  0  0  0
  6  7  1  1  0  0  0
  6  8  1  0  0  0  0
  8  9  1  0  0  0  0
  8 10  1  6  0  0  0
  8 13  1  0  0  0  0
 10 11  1  0  0  0  0
 12 13  1  6  0  0  0
 12 14  1  0  0  0  0
 12 21  1  0  0  0  0
 14 15  1  6  0  0  0
 14 16  1  0  0  0  0
 16 17  1  1  0  0  0
 16 18  1  0  0  0  0
 18 19  1  6  0  0  0
 18 20  1  0  0  0  0
 20 21  1  0  0  0  0
 20 22  1  1  0  0  0
 22 23  1  0  0  0  0
M  END
>  <CHROM.1>
-60.52616957,-63.68878027,-142.71501376,-170.51152352,-65.13178318,-6.83522098
-8.99934187,0.35780269,2.58291628,-0.50759263,-1.04168518

>  <Name>
ligand

>  <RI>
0

>  <Rbt.Current_Directory>
/home/itssahil/PROJECTS/Mol_Feturizer/New_Systems/rnas/4TS2

>  <Rbt.Executable>
rbdock ($Id: //depot/dev/client3/rdock/2013.1/src/exe/rbdock.cxx#4 $)

>  <Rbt.Library>
libRbt.so (2013.1, Build901 2013/11/27)

>  <Rbt.Parameter_File>
/export/apps/rDock/src/rDock_2013.1_src/data/scripts/dock_solv.prm

>  <Rbt.Receptor>
prm/pocket_docking_7.prm

>  <SCORE>
-9.38977

>  <SCORE.INTER>
-4.80036

>  <SCORE.INTER.CONST>
1

>  <SCORE.INTER.POLAR>
0

>  <SCORE.INTER.ROT>
5

>  <SCORE.INTER.SOLV>
6.79433

>  <SCORE.INTER.VDW>
-12.3984

>  <SCORE.INTER.norm>
-0.208711

>  <SCORE.INTRA>
-4.5894

>  <SCORE.INTRA.DIHEDRAL>
-7.09416

>  <SCORE.INTRA.DIHEDRAL.0>
12.4853

>  <SCORE.INTRA.POLAR>
0

>  <SCORE.INTRA.POLAR.0>
0

>  <SCORE.INTRA.REPUL>
0

>  <SCORE.INTRA.REPUL.0>
0

>  <SCORE.INTRA.SOLV>
0.597079

>  <SCORE.INTRA.SOLV.lig_0>
-31.1706

>  <SCORE.INTRA.VDW>
-1.34086

>  <SCORE.INTRA.VDW.0>
-1.16895

>  <SCORE.INTRA.norm>
-0.199539

>  <SCORE.RESTR>
0

>  <SCORE.RESTR.CAVITY>
0

>  <SCORE.RESTR.norm>
0

>  <SCORE.SYSTEM>
0

>  <SCORE.SYSTEM.CONST>
0

>  <SCORE.SYSTEM.DIHEDRAL>
0

>  <SCORE.SYSTEM.SOLV>
0

>  <SCORE.SYSTEM.norm>
0

>  <SCORE.heavy>
23

>  <SCORE.norm>
-0.408251

>  <RMSD>
1.035

$$$$
ligand
 OpenBabel11021811513D
libRbt.so/2013.1/901 2013/11/27
 23 24  0  0  0  0  0  0  0  0999 V2000
  -10.3720   -9.7208    0.3326 C   0  0  0  0  0  0  0  0  0  0  0  0
  -11.2680  -10.7122   -0.2056 O   0  0  0  0  0  0  0  0  0  0  0  0
   -9.5622   -9.1151   -0.8049 C   0  0  2  0  0  0  0  0  0  0  0  0
   -8.6240  -10.0718   -1.5247 C   0  0  1  0  0  0  0  0  0  0  0  0
   -9.3712  -10.8584   -2.4548 O   0  0  0  0  0  0  0  0  0  0  0  0
   -7.6372   -9.1106   -2.1787 C   0  0  2  0  0  0  0  0  0  0  0  0
   -6.3462   -9.6040   -2.5555 O   0  0  0  0  0  0  0  0  0  0  0  0
   -7.4933   -8.0481   -1.1034 C   0  0  2  0  0  0  0  0  0  0  0  0
   -8.7206   -8.0544   -0.3437 O   0  0  0  0  0  0  0  0  0  0  0  0
   -7.2438   -6.7015   -1.8064 C   0  0  0  0  0  0  0  0  0  0  0  0
   -6.0253   -6.6978   -2.5633 O   0  0  0  0  0  0  0  0  0  0  0  0
   -6.3600   -7.6426    0.9892 C   0  0  2  0  0  0  0  0  0  0  0  0
   -6.4310   -8.4290   -0.2127 O   0  0  0  0  0  0  0  0  0  0  0  0
   -4.8935   -7.3695    1.2672 C   0  0  2  0  0  0  0  0  0  0  0  0
   -4.2676   -6.8971    0.0692 O   0  0  0  0  0  0  0  0  0  0  0  0
   -4.1898   -8.6388    1.6945 C   0  0  1  0  0  0  0  0  0  0  0  0
   -2.8894   -8.2974    2.1803 O   0  0  0  0  0  0  0  0  0  0  0  0
   -4.9816   -9.3515    2.7743 C   0  0  2  0  0  0  0  0  0  0  0  0
   -4.3823  -10.6171    3.0160 O   0  0  0  0  0  0  0  0  0  0  0  0
   -6.4346   -9.5630    2.3708 C   0  0  2  0  0  0  0  0  0  0  0  0
   -6.9919   -8.2847    2.0965 O   0  0  0  0  0  0  0  0  0  0  0  0
   -7.2301  -10.2681    3.4758 C   0  0  0  0  0  0  0  0  0  0  0  0
   -6.7981  -11.6174    3.7043 O   0  0  0  0  0  0  0  0  0  0  0  0
  1  2  1  0  0  0  0
  3  1  1  1  0  0  0
  3  9  1  0  0  0  0
  3  4  1  0  0  0  0
  4  5  1  6  0  0  0
  4  6  1  0  0  0  0
  6  7  1  1  0  0  0
  6  8  1  0  0  0  0
  8  9  1  0  0  0  0
  8 10  1  6  0  0  0
  8 13  1  0  0  0  0
 10 11  1  0  0  0  0
 12 13  1  6  0  0  0
 12 14  1  0  0  0  0
 12 21  1  0  0  0  0
 14 15  1  6  0  0  0
 14 16  1  0  0  0  0
 16 17  1  1  0  0  0
 16 18  1  0  0  0  0
 18 19  1  6  0  0  0
 18 20  1  0  0  0  0
 20 21  1  0  0  0  0
 20 22  1  1  0  0  0
 22 23  1  0  0  0  0
M  END
>  <CHROM.1>
-64.55432683,-62.46777884,-139.03908526,-168.75195699,-66.39378810,-6.88197899
-8.95969439,0.35377190,2.58249252,-0.46986731,-1.05512897

>  <Name>
ligand

>  <RI>
0

>  <Rbt.Current_Directory>
/home/itssahil/PROJECTS/Mol_Feturizer/New_Systems/rnas/4TS2

>  <Rbt.Executable>
rbdock ($Id: //depot/dev/client3/rdock/2013.1/src/exe/rbdock.cxx#4 $)

>  <Rbt.Library>
libRbt.so (2013.1, Build901 2013/11/27)

>  <Rbt.Parameter_File>
/export/apps/rDock/src/rDock_2013.1_src/data/scripts/dock_solv.prm

>  <Rbt.Receptor>
prm/pocket_docking_3.prm

>  <SCORE>
-9.34571

>  <SCORE.INTER>
-5.21347

>  <SCORE.INTER.CONST>
1

>  <SCORE.INTER.POLAR>
0

>  <SCORE.INTER.ROT>
5

>  <SCORE.INTER.SOLV>
6.91567

>  <SCORE.INTER.VDW>
-12.7142

>  <SCORE.INTER.norm>
-0.226672

>  <SCORE.INTRA>
-4.13225

>  <SCORE.INTRA.DIHEDRAL>
-6.22804

>  <SCORE.INTRA.DIHEDRAL.0>
12.4853

>  <SCORE.INTRA.POLAR>
0

>  <SCORE.INTRA.POLAR.0>
0

>  <SCORE.INTRA.REPUL>
0

>  <SCORE.INTRA.REPUL.0>
0

>  <SCORE.INTRA.SOLV>
0.572805

>  <SCORE.INTRA.SOLV.lig_0>
-31.1706

>  <SCORE.INTRA.VDW>
-1.30463

>  <SCORE.INTRA.VDW.0>
-1.16895

>  <SCORE.INTRA.norm>
-0.179663

>  <SCORE.RESTR>
0

>  <SCORE.RESTR.CAVITY>
0

>  <SCORE.RESTR.norm>
0

>  <SCORE.SYSTEM>
0

>  <SCORE.SYSTEM.CONST>
0

>  <SCORE.SYSTEM.DIHEDRAL>
0

>  <SCORE.SYSTEM.SOLV>
0

>  <SCORE.SYSTEM.norm>
0

>  <SCORE.heavy>
23

>  <SCORE.norm>
-0.406335

>  <RMSD>
1.039

$$$$
ligand
 OpenBabel11021811513D
libRbt.so/2013.1/901 2013/11/27
 23 24  0  0  0  0  0  0  0  0999 V2000
  -10.0522  -10.0124   -0.2396 C   0  0  0  0  0  0  0  0  0  0  0  0
  -11.0840   -9.0714    0.1146 O   0  0  0  0  0  0  0  0  0  0  0  0
   -9.1609   -9.3922   -1.3060 C   0  0  2  0  0  0  0  0  0  0  0  0
   -8.0952  -10.3098   -1.8856 C   0  0  1  0  0  0  0  0  0  0  0  0
   -8.6891  -11.1698   -2.8602 O   0  0  0  0  0  0  0  0  0  0  0  0
   -7.1016   -9.3091   -2.4661 C   0  0  2  0  0  0  0  0  0  0  0  0
   -5.7505   -9.7319   -2.6845 O   0  0  0  0  0  0  0  0  0  0  0  0
   -7.1384   -8.2072   -1.4218 C   0  0  2  0  0  0  0  0  0  0  0  0
   -8.4384   -8.2672   -0.7976 O   0  0  0  0  0  0  0  0  0  0  0  0
   -6.8939   -6.8698   -2.1438 C   0  0  0  0  0  0  0  0  0  0  0  0
   -7.8667   -6.6153   -3.1668 O   0  0  0  0  0  0  0  0  0  0  0  0
   -6.3466   -7.7631    0.8151 C   0  0  2  0  0  0  0  0  0  0  0  0
   -6.1585   -8.4934   -0.4094 O   0  0  0  0  0  0  0  0  0  0  0  0
   -4.9716   -7.3924    1.3386 C   0  0  2  0  0  0  0  0  0  0  0  0
   -4.2035   -6.8159    0.2766 O   0  0  0  0  0  0  0  0  0  0  0  0
   -4.2419   -8.6233    1.8298 C   0  0  1  0  0  0  0  0  0  0  0  0
   -3.0692   -8.2074    2.5335 O   0  0  0  0  0  0  0  0  0  0  0  0
   -5.1341   -9.4461    2.7397 C   0  0  2  0  0  0  0  0  0  0  0  0
   -4.4779  -10.6724    3.0310 O   0  0  0  0  0  0  0  0  0  0  0  0
   -6.4811   -9.7484    2.0968 C   0  0  2  0  0  0  0  0  0  0  0  0
   -7.0919   -8.5046    1.7807 O   0  0  0  0  0  0  0  0  0  0  0  0
   -7.3816  -10.5651    3.0312 C   0  0  0  0  0  0  0  0  0  0  0  0
   -8.5771  -11.0336    2.3902 O   0  0  0  0  0  0  0  0  0  0  0  0
  1  2  1  0  0  0  0
  3  1  1  1  0  0  0
  3  9  1  0  0  0  0
  3  4  1  0  0  0  0
  4  5  1  6  0  0  0
  4  6  1  0  0  0  0
  6  7  1  1  0  0  0
  6  8  1  0  0  0  0
  8  9  1  0  0  0  0
  8 10  1  6  0  0  0
  8 13  1  0  0  0  0
 10 11  1  0  0  0  0
 12 13  1  6  0  0  0
 12 14  1  0  0  0  0
 12 21  1  0  0  0  0
 14 15  1  6  0  0  0
 14 16  1  0  0  0  0
 16 17  1  1  0  0  0
 16 18  1  0  0  0  0
 18 19  1  6  0  0  0
 18 20  1  0  0  0  0
 20 21  1  0  0  0  0
 20 22  1  1  0  0  0
 22 23  1  0  0  0  0
M  END
>  <CHROM.1>
-174.48501607,58.43455082,-142.37013269,-162.81411208,-171.44840475,-6.89437299
-8.96971603,0.10922772,2.44623291,-0.46241131,-1.13298783

>  <Name>
ligand

>  <RI>
0

>  <Rbt.Current_Directory>
/home/itssahil/PROJECTS/Mol_Feturizer/New_Systems/rnas/4TS2

>  <Rbt.Executable>
rbdock ($Id: //depot/dev/client3/rdock/2013.1/src/exe/rbdock.cxx#4 $)

>  <Rbt.Library>
libRbt.so (2013.1, Build901 2013/11/27)

>  <Rbt.Parameter_File>
/export/apps/rDock/src/rDock_2013.1_src/data/scripts/dock_solv.prm

>  <Rbt.Receptor>
prm/pocket_docking_3.prm

>  <SCORE>
-8.9336

>  <SCORE.INTER>
-4.37997

>  <SCORE.INTER.CONST>
1

>  <SCORE.INTER.POLAR>
0

>  <SCORE.INTER.ROT>
5

>  <SCORE.INTER.SOLV>
8.28396

>  <SCORE.INTER.VDW>
-12.6146

>  <SCORE.INTER.norm>
-0.190433

>  <SCORE.INTRA>
-4.55363

>  <SCORE.INTRA.DIHEDRAL>
-5.95434

>  <SCORE.INTRA.DIHEDRAL.0>
12.4853

>  <SCORE.INTRA.POLAR>
0

>  <SCORE.INTRA.POLAR.0>
0

>  <SCORE.INTRA.REPUL>
0

>  <SCORE.INTRA.REPUL.0>
0

>  <SCORE.INTRA.SOLV>
-0.0335775

>  <SCORE.INTRA.SOLV.lig_0>
-31.1706

>  <SCORE.INTRA.VDW>
-1.55968

>  <SCORE.INTRA.VDW.0>
-1.16895

>  <SCORE.INTRA.norm>
-0.197984

>  <SCORE.RESTR>
0

>  <SCORE.RESTR.CAVITY>
0

>  <SCORE.RESTR.norm>
0

>  <SCORE.SYSTEM>
0

>  <SCORE.SYSTEM.CONST>
0

>  <SCORE.SYSTEM.DIHEDRAL>
0

>  <SCORE.SYSTEM.SOLV>
0

>  <SCORE.SYSTEM.norm>
0

>  <SCORE.heavy>
23

>  <SCORE.norm>
-0.388417

>  <RMSD>
1.044

$$$$
ligand
 OpenBabel11021811513D
libRbt.so/2013.1/901 2013/11/27
 23 24  0  0  0  0  0  0  0  0999 V2000
  -10.1867  -10.2679    0.1695 C   0  0  0  0  0  0  0  0  0  0  0  0
  -11.2061   -9.4268    0.7430 O   0  0  0  0  0  0  0  0  0  0  0  0
   -9.4633   -9.4944   -0.9236 C   0  0  2  0  0  0  0  0  0  0  0  0
   -8.4200  -10.2802   -1.7031 C   0  0  1  0  0  0  0  0  0  0  0  0
   -9.0714  -11.0888   -2.6849 O   0  0  0  0  0  0  0  0  0  0  0  0
   -7.5613   -9.1649   -2.2899 C   0  0  2  0  0  0  0  0  0  0  0  0
   -6.2221   -9.4716   -2.6957 O   0  0  0  0  0  0  0  0  0  0  0  0
   -7.5414   -8.1661   -1.1463 C   0  0  2  0  0  0  0  0  0  0  0  0
   -8.7543   -8.3719   -0.3915 O   0  0  0  0  0  0  0  0  0  0  0  0
   -7.4617   -6.7557   -1.7582 C   0  0  0  0  0  0  0  0  0  0  0  0
   -6.2302   -6.5330   -2.4592 O   0  0  0  0  0  0  0  0  0  0  0  0
   -6.4558   -7.7677    0.9728 C   0  0  2  0  0  0  0  0  0  0  0  0
   -6.4354   -8.4727   -0.2805 O   0  0  0  0  0  0  0  0  0  0  0  0
   -5.0173   -7.4585    1.3434 C   0  0  2  0  0  0  0  0  0  0  0  0
   -4.3536   -6.8824    0.2130 O   0  0  0  0  0  0  0  0  0  0  0  0
   -4.2833   -8.7262    1.7217 C   0  0  1  0  0  0  0  0  0  0  0  0
   -3.0235   -8.3694    2.2953 O   0  0  0  0  0  0  0  0  0  0  0  0
   -5.0967   -9.5403    2.7099 C   0  0  2  0  0  0  0  0  0  0  0  0
   -4.4581  -10.7957    2.8981 O   0  0  0  0  0  0  0  0  0  0  0  0
   -6.5183   -9.7790    2.2190 C   0  0  2  0  0  0  0  0  0  0  0  0
   -7.1139   -8.5071    2.0013 O   0  0  0  0  0  0  0  0  0  0  0  0
   -7.3370  -10.5873    3.2326 C   0  0  0  0  0  0  0  0  0  0  0  0
   -8.6078  -11.0105    2.7174 O   0  0  0  0  0  0  0  0  0  0  0  0
  1  2  1  0  0  0  0
  3  1  1  1  0  0  0
  3  9  1  0  0  0  0
  3  4  1  0  0  0  0
  4  5  1  6  0  0  0
  4  6  1  0  0  0  0
  6  7  1  1  0  0  0
  6  8  1  0  0  0  0
  8  9  1  0  0  0  0
  8 10  1  6  0  0  0
  8 13  1  0  0  0  0
 10 11  1  0  0  0  0
 12 13  1  6  0  0  0
 12 14  1  0  0  0  0
 12 21  1  0  0  0  0
 14 15  1  6  0  0  0
 14 16  1  0  0  0  0
 16 17  1  1  0  0  0
 16 18  1  0  0  0  0
 18 19  1  6  0  0  0
 18 20  1  0  0  0  0
 20 21  1  0  0  0  0
 20 22  1  1  0  0  0
 22 23  1  0  0  0  0
M  END
>  <CHROM.1>
-175.64058363,-65.12700540,-144.69353002,-168.56258967,-170.78040192,-6.98975485
-9.00055354,0.29835711,2.61089267,-0.43557084,-1.12979884

>  <Name>
ligand

>  <RI>
0

>  <Rbt.Current_Directory>
/home/itssahil/PROJECTS/Mol_Feturizer/New_Systems/rnas/4TS2

>  <Rbt.Executable>
rbdock ($Id: //depot/dev/client3/rdock/2013.1/src/exe/rbdock.cxx#4 $)

>  <Rbt.Library>
libRbt.so (2013.1, Build901 2013/11/27)

>  <Rbt.Parameter_File>
/export/apps/rDock/src/rDock_2013.1_src/data/scripts/dock_solv.prm

>  <Rbt.Receptor>
prm/pocket_docking_3.prm

>  <SCORE>
-9.31449

>  <SCORE.INTER>
-4.20545

>  <SCORE.INTER.CONST>
1

>  <SCORE.INTER.POLAR>
0

>  <SCORE.INTER.ROT>
5

>  <SCORE.INTER.SOLV>
8.03511

>  <SCORE.INTER.VDW>
-12.4153

>  <SCORE.INTER.norm>
-0.182846

>  <SCORE.INTRA>
-5.10903

>  <SCORE.INTRA.DIHEDRAL>
-6.97368

>  <SCORE.INTRA.DIHEDRAL.0>
12.4853

>  <SCORE.INTRA.POLAR>
0

>  <SCORE.INTRA.POLAR.0>
0

>  <SCORE.INTRA.REPUL>
0

>  <SCORE.INTRA.REPUL.0>
0

>  <SCORE.INTRA.SOLV>
0.427432

>  <SCORE.INTRA.SOLV.lig_0>
-31.1706

>  <SCORE.INTRA.VDW>
-1.8359

>  <SCORE.INTRA.VDW.0>
-1.16895

>  <SCORE.INTRA.norm>
-0.222132

>  <SCORE.RESTR>
0

>  <SCORE.RESTR.CAVITY>
0

>  <SCORE.RESTR.norm>
0

>  <SCORE.SYSTEM>
0

>  <SCORE.SYSTEM.CONST>
0

>  <SCORE.SYSTEM.DIHEDRAL>
0

>  <SCORE.SYSTEM.SOLV>
0

>  <SCORE.SYSTEM.norm>
0

>  <SCORE.heavy>
23

>  <SCORE.norm>
-0.404978

>  <RMSD>
1.046

$$$$
ligand
 OpenBabel11021811513D
libRbt.so/2013.1/901 2013/11/27
 23 24  0  0  0  0  0  0  0  0999 V2000
   -9.9690  -10.1436    0.2265 C   0  0  0  0  0  0  0  0  0  0  0  0
  -10.7148  -11.2454   -0.3260 O   0  0  0  0  0  0  0  0  0  0  0  0
   -9.3032   -9.3776   -0.9076 C   0  0  2  0  0  0  0  0  0  0  0  0
   -8.2746  -10.1580   -1.7116 C   0  0  1  0  0  0  0  0  0  0  0  0
   -8.9463  -10.9980   -2.6526 O   0  0  0  0  0  0  0  0  0  0  0  0
   -7.4612   -9.0380   -2.3515 C   0  0  2  0  0  0  0  0  0  0  0  0
   -6.1324   -9.3265   -2.8024 O   0  0  0  0  0  0  0  0  0  0  0  0
   -7.4181   -8.0169   -1.2284 C   0  0  2  0  0  0  0  0  0  0  0  0
   -8.5972   -8.2315   -0.4240 O   0  0  0  0  0  0  0  0  0  0  0  0
   -7.3899   -6.6174   -1.8689 C   0  0  0  0  0  0  0  0  0  0  0  0
   -6.1994   -6.3918   -2.6367 O   0  0  0  0  0  0  0  0  0  0  0  0
   -6.3494   -7.7046    0.9136 C   0  0  2  0  0  0  0  0  0  0  0  0
   -6.2742   -8.2853   -0.3998 O   0  0  0  0  0  0  0  0  0  0  0  0
   -4.9273   -7.4948    1.3995 C   0  0  2  0  0  0  0  0  0  0  0  0
   -4.1714   -6.8411    0.3741 O   0  0  0  0  0  0  0  0  0  0  0  0
   -4.2664   -8.8235    1.6939 C   0  0  1  0  0  0  0  0  0  0  0  0
   -3.0339   -8.5783    2.3753 O   0  0  0  0  0  0  0  0  0  0  0  0
   -5.1712   -9.6936    2.5454 C   0  0  2  0  0  0  0  0  0  0  0  0
   -4.5928  -10.9876    2.6465 O   0  0  0  0  0  0  0  0  0  0  0  0
   -6.5661   -9.8224    1.9481 C   0  0  2  0  0  0  0  0  0  0  0  0
   -7.0992   -8.5110    1.8220 O   0  0  0  0  0  0  0  0  0  0  0  0
   -7.4776  -10.6890    2.8251 C   0  0  0  0  0  0  0  0  0  0  0  0
   -7.5770  -10.2113    4.1748 O   0  0  0  0  0  0  0  0  0  0  0  0
  1  2  1  0  0  0  0
  3  1  1  1  0  0  0
  3  9  1  0  0  0  0
  3  4  1  0  0  0  0
  4  5  1  6  0  0  0
  4  6  1  0  0  0  0
  6  7  1  1  0  0  0
  6  8  1  0  0  0  0
  8  9  1  0  0  0  0
  8 10  1  6  0  0  0
  8 13  1  0  0  0  0
 10 11  1  0  0  0  0
 12 13  1  6  0  0  0
 12 14  1  0  0  0  0
 12 21  1  0  0  0  0
 14 15  1  6  0  0  0
 14 16  1  0  0  0  0
 16 17  1  1  0  0  0
 16 18  1  0  0  0  0
 18 19  1  6  0  0  0
 18 20  1  0  0  0  0
 20 21  1  0  0  0  0
 20 22  1  1  0  0  0
 22 23  1  0  0  0  0
M  END
>  <CHROM.1>
-63.12963715,-64.27173742,-153.91401780,-160.37956700,56.09380566,-6.85739292
-9.01703191,0.24594388,2.48425665,-0.53221506,-1.08973722

>  <Name>
ligand

>  <RI>
0

>  <Rbt.Current_Directory>
/home/itssahil/PROJECTS/Mol_Feturizer/New_Systems/rnas/4TS2

>  <Rbt.Executable>
rbdock ($Id: //depot/dev/client3/rdock/2013.1/src/exe/rbdock.cxx#4 $)

>  <Rbt.Library>
libRbt.so (2013.1, Build901 2013/11/27)

>  <Rbt.Parameter_File>
/export/apps/rDock/src/rDock_2013.1_src/data/scripts/dock_solv.prm

>  <Rbt.Receptor>
prm/pocket_docking_4.prm

>  <SCORE>
-9.42875

>  <SCORE.INTER>
-4.10061

>  <SCORE.INTER.CONST>
1

>  <SCORE.INTER.POLAR>
0

>  <SCORE.INTER.ROT>
5

>  <SCORE.INTER.SOLV>
7.3358

>  <SCORE.INTER.VDW>
-12.1123

>  <SCORE.INTER.norm>
-0.178287

>  <SCORE.INTRA>
-5.32814

>  <SCORE.INTRA.DIHEDRAL>
-7.9573

>  <SCORE.INTRA.DIHEDRAL.0>
12.4853

>  <SCORE.INTRA.POLAR>
0

>  <SCORE.INTRA.POLAR.0>
0

>  <SCORE.INTRA.REPUL>
0

>  <SCORE.INTRA.REPUL.0>
0

>  <SCORE.INTRA.SOLV>
0.610976

>  <SCORE.INTRA.SOLV.lig_0>
-31.1706

>  <SCORE.INTRA.VDW>
-1.65498

>  <SCORE.INTRA.VDW.0>
-1.16895

>  <SCORE.INTRA.norm>
-0.231658

>  <SCORE.RESTR>
0

>  <SCORE.RESTR.CAVITY>
0

>  <SCORE.RESTR.norm>
0

>  <SCORE.SYSTEM>
0

>  <SCORE.SYSTEM.CONST>
0

>  <SCORE.SYSTEM.DIHEDRAL>
0

>  <SCORE.SYSTEM.SOLV>
0

>  <SCORE.SYSTEM.norm>
0

>  <SCORE.heavy>
23

>  <SCORE.norm>
-0.409946

>  <RMSD>
1.047

$$$$
ligand
 OpenBabel11021811513D
libRbt.so/2013.1/901 2013/11/27
 23 24  0  0  0  0  0  0  0  0999 V2000
  -10.1005  -10.3262    0.1291 C   0  0  0  0  0  0  0  0  0  0  0  0
  -11.1478   -9.5107    0.6890 O   0  0  0  0  0  0  0  0  0  0  0  0
   -9.3886   -9.5385   -0.9614 C   0  0  2  0  0  0  0  0  0  0  0  0
   -8.3324  -10.3056   -1.7421 C   0  0  1  0  0  0  0  0  0  0  0  0
   -8.9701  -11.1219   -2.7265 O   0  0  0  0  0  0  0  0  0  0  0  0
   -7.4910   -9.1753   -2.3254 C   0  0  2  0  0  0  0  0  0  0  0  0
   -6.1468   -9.4597   -2.7309 O   0  0  0  0  0  0  0  0  0  0  0  0
   -7.4878   -8.1792   -1.1792 C   0  0  2  0  0  0  0  0  0  0  0  0
   -8.6979   -8.4062   -0.4258 O   0  0  0  0  0  0  0  0  0  0  0  0
   -7.4301   -6.7662   -1.7873 C   0  0  0  0  0  0  0  0  0  0  0  0
   -6.2103   -6.5292   -2.5040 O   0  0  0  0  0  0  0  0  0  0  0  0
   -6.4086   -7.7667    0.9404 C   0  0  2  0  0  0  0  0  0  0  0  0
   -6.3778   -8.4705   -0.3133 O   0  0  0  0  0  0  0  0  0  0  0  0
   -4.9740   -7.4469    1.3171 C   0  0  2  0  0  0  0  0  0  0  0  0
   -4.3102   -6.8647    0.1899 O   0  0  0  0  0  0  0  0  0  0  0  0
   -4.2319   -8.7093    1.6974 C   0  0  1  0  0  0  0  0  0  0  0  0
   -2.9772   -8.3433    2.2764 O   0  0  0  0  0  0  0  0  0  0  0  0
   -5.0431   -9.5303    2.6816 C   0  0  2  0  0  0  0  0  0  0  0  0
   -4.3957  -10.7810    2.8715 O   0  0  0  0  0  0  0  0  0  0  0  0
   -6.4608   -9.7794    2.1848 C   0  0  2  0  0  0  0  0  0  0  0  0
   -7.0652   -8.5120    1.9657 O   0  0  0  0  0  0  0  0  0  0  0  0
   -7.2774  -10.5948    3.1944 C   0  0  0  0  0  0  0  0  0  0  0  0
   -8.5603  -10.9919    2.6883 O   0  0  0  0  0  0  0  0  0  0  0  0
  1  2  1  0  0  0  0
  3  1  1  1  0  0  0
  3  9  1  0  0  0  0
  3  4  1  0  0  0  0
  4  5  1  6  0  0  0
  4  6  1  0  0  0  0
  6  7  1  1  0  0  0
  6  8  1  0  0  0  0
  8  9  1  0  0  0  0
  8 10  1  6  0  0  0
  8 13  1  0  0  0  0
 10 11  1  0  0  0  0
 12 13  1  6  0  0  0
 12 14  1  0  0  0  0
 12 21  1  0  0  0  0
 14 15  1  6  0  0  0
 14 16  1  0  0  0  0
 16 17  1  1  0  0  0
 16 18  1  0  0  0  0
 18 19  1  6  0  0  0
 18 20  1  0  0  0  0
 20 21  1  0  0  0  0
 20 22  1  1  0  0  0
 22 23  1  0  0  0  0
M  END
>  <CHROM.1>
-174.70815777,-64.24726083,-145.13769543,-168.70434233,-172.60215132,-6.93193513
-9.00873848,0.26460510,2.61201807,-0.44646647,-1.13132028

>  <Name>
ligand

>  <RI>
0

>  <Rbt.Current_Directory>
/home/itssahil/PROJECTS/Mol_Feturizer/New_Systems/rnas/4TS2

>  <Rbt.Executable>
rbdock ($Id: //depot/dev/client3/rdock/2013.1/src/exe/rbdock.cxx#4 $)

>  <Rbt.Library>
libRbt.so (2013.1, Build901 2013/11/27)

>  <Rbt.Parameter_File>
/export/apps/rDock/src/rDock_2013.1_src/data/scripts/dock_solv.prm

>  <Rbt.Receptor>
prm/pocket_docking_5.prm

>  <SCORE>
-9.26173

>  <SCORE.INTER>
-4.08713

>  <SCORE.INTER.CONST>
1

>  <SCORE.INTER.POLAR>
0

>  <SCORE.INTER.ROT>
5

>  <SCORE.INTER.SOLV>
7.79301

>  <SCORE.INTER.VDW>
-12.2558

>  <SCORE.INTER.norm>
-0.177701

>  <SCORE.INTRA>
-5.1746

>  <SCORE.INTRA.DIHEDRAL>
-7.16278

>  <SCORE.INTRA.DIHEDRAL.0>
12.4853

>  <SCORE.INTRA.POLAR>
0

>  <SCORE.INTRA.POLAR.0>
0

>  <SCORE.INTRA.REPUL>
0

>  <SCORE.INTRA.REPUL.0>
0

>  <SCORE.INTRA.SOLV>
0.441576

>  <SCORE.INTRA.SOLV.lig_0>
-31.1706

>  <SCORE.INTRA.VDW>
-1.814

>  <SCORE.INTRA.VDW.0>
-1.16895

>  <SCORE.INTRA.norm>
-0.224983

>  <SCORE.RESTR>
0

>  <SCORE.RESTR.CAVITY>
0

>  <SCORE.RESTR.norm>
0

>  <SCORE.SYSTEM>
0

>  <SCORE.SYSTEM.CONST>
0

>  <SCORE.SYSTEM.DIHEDRAL>
0

>  <SCORE.SYSTEM.SOLV>
0

>  <SCORE.SYSTEM.norm>
0

>  <SCORE.heavy>
23

>  <SCORE.norm>
-0.402684

>  <RMSD>
1.049

$$$$
ligand
 OpenBabel11021811513D
libRbt.so/2013.1/901 2013/11/27
 23 24  0  0  0  0  0  0  0  0999 V2000
   -9.8217  -10.4095    0.0554 C   0  0  0  0  0  0  0  0  0  0  0  0
  -10.9139   -9.6778    0.6446 O   0  0  0  0  0  0  0  0  0  0  0  0
   -9.1760   -9.5523   -1.0238 C   0  0  2  0  0  0  0  0  0  0  0  0
   -8.0798  -10.2297   -1.8318 C   0  0  1  0  0  0  0  0  0  0  0  0
   -8.6727  -11.0650   -2.8283 O   0  0  0  0  0  0  0  0  0  0  0  0
   -7.3220   -9.0333   -2.3973 C   0  0  2  0  0  0  0  0  0  0  0  0
   -5.9665   -9.2183   -2.8221 O   0  0  0  0  0  0  0  0  0  0  0  0
   -7.3724   -8.0647   -1.2290 C   0  0  2  0  0  0  0  0  0  0  0  0
   -8.5562   -8.3884   -0.4693 O   0  0  0  0  0  0  0  0  0  0  0  0
   -7.4155   -6.6379   -1.8054 C   0  0  0  0  0  0  0  0  0  0  0  0
   -6.1957   -6.2801   -2.4700 O   0  0  0  0  0  0  0  0  0  0  0  0
   -6.3300   -7.6824    0.9146 C   0  0  2  0  0  0  0  0  0  0  0  0
   -6.2359   -8.3002   -0.3806 O   0  0  0  0  0  0  0  0  0  0  0  0
   -4.9150   -7.4487    1.4102 C   0  0  2  0  0  0  0  0  0  0  0  0
   -4.1518   -6.8195    0.3749 O   0  0  0  0  0  0  0  0  0  0  0  0
   -4.2486   -8.7637    1.7503 C   0  0  1  0  0  0  0  0  0  0  0  0
   -3.0257   -8.4903    2.4382 O   0  0  0  0  0  0  0  0  0  0  0  0
   -5.1573   -9.6152    2.6163 C   0  0  2  0  0  0  0  0  0  0  0  0
   -4.5713  -10.9017    2.7613 O   0  0  0  0  0  0  0  0  0  0  0  0
   -6.5443   -9.7710    2.0074 C   0  0  2  0  0  0  0  0  0  0  0  0
   -7.0847   -8.4676    1.8374 O   0  0  0  0  0  0  0  0  0  0  0  0
   -7.4599  -10.6184    2.8987 C   0  0  0  0  0  0  0  0  0  0  0  0
   -7.0425  -11.9884    2.9902 O   0  0  0  0  0  0  0  0  0  0  0  0
  1  2  1  0  0  0  0
  3  1  1  1  0  0  0
  3  9  1  0  0  0  0
  3  4  1  0  0  0  0
  4  5  1  6  0  0  0
  4  6  1  0  0  0  0
  6  7  1  1  0  0  0
  6  8  1  0  0  0  0
  8  9  1  0  0  0  0
  8 10  1  6  0  0  0
  8 13  1  0  0  0  0
 10 11  1  0  0  0  0
 12 13  1  6  0  0  0
 12 14  1  0  0  0  0
 12 21  1  0  0  0  0
 14 15  1  6  0  0  0
 14 16  1  0  0  0  0
 16 17  1  1  0  0  0
 16 18  1  0  0  0  0
 18 19  1  6  0  0  0
 18 20  1  0  0  0  0
 20 21  1  0  0  0  0
 20 22  1  1  0  0  0
 22 23  1  0  0  0  0
M  END
>  <CHROM.1>
-174.76410398,-67.19839174,-153.95694623,-165.75431360,-66.83776118,-6.78449453
-9.02666760,0.23764836,2.47476928,-0.52082696,-1.00292596

>  <Name>
ligand

>  <RI>
0

>  <Rbt.Current_Directory>
/home/itssahil/PROJECTS/Mol_Feturizer/New_Systems/rnas/4TS2

>  <Rbt.Executable>
rbdock ($Id: //depot/dev/client3/rdock/2013.1/src/exe/rbdock.cxx#4 $)

>  <Rbt.Library>
libRbt.so (2013.1, Build901 2013/11/27)

>  <Rbt.Parameter_File>
/export/apps/rDock/src/rDock_2013.1_src/data/scripts/dock_solv.prm

>  <Rbt.Receptor>
prm/pocket_docking_4.prm

>  <SCORE>
-9.54165

>  <SCORE.INTER>
-3.80487

>  <SCORE.INTER.CONST>
1

>  <SCORE.INTER.POLAR>
0

>  <SCORE.INTER.ROT>
5

>  <SCORE.INTER.SOLV>
7.52855

>  <SCORE.INTER.VDW>
-11.9794

>  <SCORE.INTER.norm>
-0.165429

>  <SCORE.INTRA>
-5.73678

>  <SCORE.INTRA.DIHEDRAL>
-8.42195

>  <SCORE.INTRA.DIHEDRAL.0>
12.4853

>  <SCORE.INTRA.POLAR>
0

>  <SCORE.INTRA.POLAR.0>
0

>  <SCORE.INTRA.REPUL>
0

>  <SCORE.INTRA.REPUL.0>
0

>  <SCORE.INTRA.SOLV>
0.367767

>  <SCORE.INTRA.SOLV.lig_0>
-31.1706

>  <SCORE.INTRA.VDW>
-1.70969

>  <SCORE.INTRA.VDW.0>
-1.16895

>  <SCORE.INTRA.norm>
-0.249425

>  <SCORE.RESTR>
0

>  <SCORE.RESTR.CAVITY>
0

>  <SCORE.RESTR.norm>
0

>  <SCORE.SYSTEM>
0

>  <SCORE.SYSTEM.CONST>
0

>  <SCORE.SYSTEM.DIHEDRAL>
0

>  <SCORE.SYSTEM.SOLV>
0

>  <SCORE.SYSTEM.norm>
0

>  <SCORE.heavy>
23

>  <SCORE.norm>
-0.414854

>  <RMSD>
1.052

$$$$
ligand
 OpenBabel11021811513D
libRbt.so/2013.1/901 2013/11/27
 23 24  0  0  0  0  0  0  0  0999 V2000
   -9.9745  -10.1030    0.2288 C   0  0  0  0  0  0  0  0  0  0  0  0
  -10.7636  -11.1768   -0.3189 O   0  0  0  0  0  0  0  0  0  0  0  0
   -9.3059   -9.3481   -0.9111 C   0  0  2  0  0  0  0  0  0  0  0  0
   -8.2848  -10.1403   -1.7131 C   0  0  1  0  0  0  0  0  0  0  0  0
   -8.9647  -10.9805   -2.6479 O   0  0  0  0  0  0  0  0  0  0  0  0
   -7.4649   -9.0296   -2.3610 C   0  0  2  0  0  0  0  0  0  0  0  0
   -6.1393   -9.3302   -2.8134 O   0  0  0  0  0  0  0  0  0  0  0  0
   -7.4118   -8.0027   -1.2436 C   0  0  2  0  0  0  0  0  0  0  0  0
   -8.5906   -8.2044   -0.4354 O   0  0  0  0  0  0  0  0  0  0  0  0
   -7.3751   -6.6070   -1.8920 C   0  0  0  0  0  0  0  0  0  0  0  0
   -6.1866   -6.3956   -2.6668 O   0  0  0  0  0  0  0  0  0  0  0  0
   -6.3375   -7.6893    0.8954 C   0  0  2  0  0  0  0  0  0  0  0  0
   -6.2680   -8.2748   -0.4163 O   0  0  0  0  0  0  0  0  0  0  0  0
   -4.9134   -7.4766    1.3739 C   0  0  2  0  0  0  0  0  0  0  0  0
   -4.1628   -6.8260    0.3426 O   0  0  0  0  0  0  0  0  0  0  0  0
   -4.2500   -8.8037    1.6700 C   0  0  1  0  0  0  0  0  0  0  0  0
   -3.0146   -8.5549    2.3448 O   0  0  0  0  0  0  0  0  0  0  0  0
   -5.1502   -9.6714    2.5289 C   0  0  2  0  0  0  0  0  0  0  0  0
   -4.5702  -10.9645    2.6321 O   0  0  0  0  0  0  0  0  0  0  0  0
   -6.5477   -9.8035    1.9386 C   0  0  2  0  0  0  0  0  0  0  0  0
   -7.0824   -8.4930    1.8102 O   0  0  0  0  0  0  0  0  0  0  0  0
   -7.4544  -10.6676    2.8230 C   0  0  0  0  0  0  0  0  0  0  0  0
   -7.5859  -10.1585    4.1583 O   0  0  0  0  0  0  0  0  0  0  0  0
  1  2  1  0  0  0  0
  3  1  1  1  0  0  0
  3  9  1  0  0  0  0
  3  4  1  0  0  0  0
  4  5  1  6  0  0  0
  4  6  1  0  0  0  0
  6  7  1  1  0  0  0
  6  8  1  0  0  0  0
  8  9  1  0  0  0  0
  8 10  1  6  0  0  0
  8 13  1  0  0  0  0
 10 11  1  0  0  0  0
 12 13  1  6  0  0  0
 12 14  1  0  0  0  0
 12 21  1  0  0  0  0
 14 15  1  6  0  0  0
 14 16  1  0  0  0  0
 16 17  1  1  0  0  0
 16 18  1  0  0  0  0
 18 19  1  6  0  0  0
 18 20  1  0  0  0  0
 20 21  1  0  0  0  0
 20 22  1  1  0  0  0
 22 23  1  0  0  0  0
M  END
>  <CHROM.1>
-64.92938038,-64.10843014,-153.51191217,-160.22042273,58.18038785,-6.85279923
-8.99573636,0.23247947,2.49110395,-0.52289603,-1.09525352

>  <Name>
ligand

>  <RI>
0

>  <Rbt.Current_Directory>
/home/itssahil/PROJECTS/Mol_Feturizer/New_Systems/rnas/4TS2

>  <Rbt.Executable>
rbdock ($Id: //depot/dev/client3/rdock/2013.1/src/exe/rbdock.cxx#4 $)

>  <Rbt.Library>
libRbt.so (2013.1, Build901 2013/11/27)

>  <Rbt.Parameter_File>
/export/apps/rDock/src/rDock_2013.1_src/data/scripts/dock_solv.prm

>  <Rbt.Receptor>
prm/pocket_docking_4.prm

>  <SCORE>
-9.41673

>  <SCORE.INTER>
-4.12861

>  <SCORE.INTER.CONST>
1

>  <SCORE.INTER.POLAR>
0

>  <SCORE.INTER.ROT>
5

>  <SCORE.INTER.SOLV>
7.39362

>  <SCORE.INTER.VDW>
-12.1503

>  <SCORE.INTER.norm>
-0.179505

>  <SCORE.INTRA>
-5.28811

>  <SCORE.INTRA.DIHEDRAL>
-7.85388

>  <SCORE.INTRA.DIHEDRAL.0>
12.4853

>  <SCORE.INTRA.POLAR>
0

>  <SCORE.INTRA.POLAR.0>
0

>  <SCORE.INTRA.REPUL>
0

>  <SCORE.INTRA.REPUL.0>
0

>  <SCORE.INTRA.SOLV>
0.589672

>  <SCORE.INTRA.SOLV.lig_0>
-31.1706

>  <SCORE.INTRA.VDW>
-1.65601

>  <SCORE.INTRA.VDW.0>
-1.16895

>  <SCORE.INTRA.norm>
-0.229918

>  <SCORE.RESTR>
0

>  <SCORE.RESTR.CAVITY>
0

>  <SCORE.RESTR.norm>
0

>  <SCORE.SYSTEM>
0

>  <SCORE.SYSTEM.CONST>
0

>  <SCORE.SYSTEM.DIHEDRAL>
0

>  <SCORE.SYSTEM.SOLV>
0

>  <SCORE.SYSTEM.norm>
0

>  <SCORE.heavy>
23

>  <SCORE.norm>
-0.409423

>  <RMSD>
1.053

$$$$
ligand
 OpenBabel11021811513D
libRbt.so/2013.1/901 2013/11/27
 23 24  0  0  0  0  0  0  0  0999 V2000
  -10.5381   -9.8196    0.2956 C   0  0  0  0  0  0  0  0  0  0  0  0
   -9.6190  -10.4946    1.1760 O   0  0  0  0  0  0  0  0  0  0  0  0
   -9.7538   -9.1671   -0.8338 C   0  0  2  0  0  0  0  0  0  0  0  0
   -8.8472  -10.0968   -1.6258 C   0  0  1  0  0  0  0  0  0  0  0  0
   -9.6291  -10.8294   -2.5714 O   0  0  0  0  0  0  0  0  0  0  0  0
   -7.8682   -9.1146   -2.2603 C   0  0  2  0  0  0  0  0  0  0  0  0
   -6.5940   -9.6020   -2.6974 O   0  0  0  0  0  0  0  0  0  0  0  0
   -7.6821   -8.1075   -1.1391 C   0  0  2  0  0  0  0  0  0  0  0  0
   -8.8875   -8.1387   -0.3459 O   0  0  0  0  0  0  0  0  0  0  0  0
   -7.4371   -6.7307   -1.7827 C   0  0  0  0  0  0  0  0  0  0  0  0
   -6.2031   -6.6804   -2.5124 O   0  0  0  0  0  0  0  0  0  0  0  0
   -6.5268   -7.8624    0.9663 C   0  0  2  0  0  0  0  0  0  0  0  0
   -6.5996   -8.5422   -0.2988 O   0  0  0  0  0  0  0  0  0  0  0  0
   -5.0627   -7.5777    1.2454 C   0  0  2  0  0  0  0  0  0  0  0  0
   -4.4687   -6.9868    0.0843 O   0  0  0  0  0  0  0  0  0  0  0  0
   -4.3218   -8.8614    1.5490 C   0  0  1  0  0  0  0  0  0  0  0  0
   -3.0219   -8.5311    2.0435 O   0  0  0  0  0  0  0  0  0  0  0  0
   -5.0779   -9.6855    2.5737 C   0  0  2  0  0  0  0  0  0  0  0  0
   -4.4447  -10.9519    2.6945 O   0  0  0  0  0  0  0  0  0  0  0  0
   -6.5322   -9.8974    2.1750 C   0  0  2  0  0  0  0  0  0  0  0  0
   -7.1243   -8.6145    2.0223 O   0  0  0  0  0  0  0  0  0  0  0  0
   -7.2917  -10.7162    3.2255 C   0  0  0  0  0  0  0  0  0  0  0  0
   -7.2620  -10.1200    4.5306 O   0  0  0  0  0  0  0  0  0  0  0  0
  1  2  1  0  0  0  0
  3  1  1  1  0  0  0
  3  9  1  0  0  0  0
  3  4  1  0  0  0  0
  4  5  1  6  0  0  0
  4  6  1  0  0  0  0
  6  7  1  1  0  0  0
  6  8  1  0  0  0  0
  8  9  1  0  0  0  0
  8 10  1  6  0  0  0
  8 13  1  0  0  0  0
 10 11  1  0  0  0  0
 12 13  1  6  0  0  0
 12 14  1  0  0  0  0
 12 21  1  0  0  0  0
 14 15  1  6  0  0  0
 14 16  1  0  0  0  0
 16 17  1  1  0  0  0
 16 18  1  0  0  0  0
 18 19  1  6  0  0  0
 18 20  1  0  0  0  0
 20 21  1  0  0  0  0
 20 22  1  1  0  0  0
 22 23  1  0  0  0  0
M  END
>  <CHROM.1>
55.02646654,-65.68441125,-138.77295171,-165.77964667,57.51967479,-6.97471562
-9.01288208,0.37710446,2.36661361,-0.42181943,-1.12534810

>  <Name>
ligand

>  <RI>
0

>  <Rbt.Current_Directory>
/home/itssahil/PROJECTS/Mol_Feturizer/New_Systems/rnas/4TS2

>  <Rbt.Executable>
rbdock ($Id: //depot/dev/client3/rdock/2013.1/src/exe/rbdock.cxx#4 $)

>  <Rbt.Library>
libRbt.so (2013.1, Build901 2013/11/27)

>  <Rbt.Parameter_File>
/export/apps/rDock/src/rDock_2013.1_src/data/scripts/dock_solv.prm

>  <Rbt.Receptor>
prm/pocket_docking_3.prm

>  <SCORE>
-8.7403

>  <SCORE.INTER>
-4.59422

>  <SCORE.INTER.CONST>
1

>  <SCORE.INTER.POLAR>
0

>  <SCORE.INTER.ROT>
5

>  <SCORE.INTER.SOLV>
7.93873

>  <SCORE.INTER.VDW>
-12.6424

>  <SCORE.INTER.norm>
-0.199749

>  <SCORE.INTRA>
-4.14608

>  <SCORE.INTRA.DIHEDRAL>
-5.92033

>  <SCORE.INTRA.DIHEDRAL.0>
12.4853

>  <SCORE.INTRA.POLAR>
0

>  <SCORE.INTRA.POLAR.0>
0

>  <SCORE.INTRA.REPUL>
0

>  <SCORE.INTRA.REPUL.0>
0

>  <SCORE.INTRA.SOLV>
1.38164

>  <SCORE.INTRA.SOLV.lig_0>
-31.1706

>  <SCORE.INTRA.VDW>
-1.87673

>  <SCORE.INTRA.VDW.0>
-1.16895

>  <SCORE.INTRA.norm>
-0.180264

>  <SCORE.RESTR>
0

>  <SCORE.RESTR.CAVITY>
0

>  <SCORE.RESTR.norm>
0

>  <SCORE.SYSTEM>
0

>  <SCORE.SYSTEM.CONST>
0

>  <SCORE.SYSTEM.DIHEDRAL>
0

>  <SCORE.SYSTEM.SOLV>
0

>  <SCORE.SYSTEM.norm>
0

>  <SCORE.heavy>
23

>  <SCORE.norm>
-0.380013

>  <RMSD>
1.059

$$$$
ligand
 OpenBabel11021811513D
libRbt.so/2013.1/901 2013/11/27
 23 24  0  0  0  0  0  0  0  0999 V2000
   -9.7971  -10.3340    0.0808 C   0  0  0  0  0  0  0  0  0  0  0  0
  -10.8566   -9.5733    0.6925 O   0  0  0  0  0  0  0  0  0  0  0  0
   -9.1606   -9.4995   -1.0215 C   0  0  2  0  0  0  0  0  0  0  0  0
   -8.0837  -10.1996   -1.8360 C   0  0  1  0  0  0  0  0  0  0  0  0
   -8.7000  -11.0443   -2.8101 O   0  0  0  0  0  0  0  0  0  0  0  0
   -7.3239   -9.0192   -2.4317 C   0  0  2  0  0  0  0  0  0  0  0  0
   -5.9770   -9.2235   -2.8748 O   0  0  0  0  0  0  0  0  0  0  0  0
   -7.3468   -8.0324   -1.2777 C   0  0  2  0  0  0  0  0  0  0  0  0
   -8.5214   -8.3333   -0.4947 O   0  0  0  0  0  0  0  0  0  0  0  0
   -7.3857   -6.6143   -1.8753 C   0  0  0  0  0  0  0  0  0  0  0  0
   -6.2098   -6.3104   -2.6385 O   0  0  0  0  0  0  0  0  0  0  0  0
   -6.2823   -7.6564    0.8561 C   0  0  2  0  0  0  0  0  0  0  0  0
   -6.1992   -8.2658   -0.4438 O   0  0  0  0  0  0  0  0  0  0  0  0
   -4.8632   -7.4319    1.3441 C   0  0  2  0  0  0  0  0  0  0  0  0
   -4.1041   -6.7990    0.3081 O   0  0  0  0  0  0  0  0  0  0  0  0
   -4.2003   -8.7519    1.6710 C   0  0  1  0  0  0  0  0  0  0  0  0
   -2.9718   -8.4883    2.3528 O   0  0  0  0  0  0  0  0  0  0  0  0
   -5.1069   -9.6055    2.5372 C   0  0  2  0  0  0  0  0  0  0  0  0
   -4.5255  -10.8953    2.6698 O   0  0  0  0  0  0  0  0  0  0  0  0
   -6.4985   -9.7513    1.9362 C   0  0  2  0  0  0  0  0  0  0  0  0
   -7.0344   -8.4445    1.7785 O   0  0  0  0  0  0  0  0  0  0  0  0
   -7.4119  -10.6008    2.8278 C   0  0  0  0  0  0  0  0  0  0  0  0
   -6.9910  -11.9697    2.9197 O   0  0  0  0  0  0  0  0  0  0  0  0
  1  2  1  0  0  0  0
  3  1  1  1  0  0  0
  3  9  1  0  0  0  0
  3  4  1  0  0  0  0
  4  5  1  6  0  0  0
  4  6  1  0  0  0  0
  6  7  1  1  0  0  0
  6  8  1  0  0  0  0
  8  9  1  0  0  0  0
  8 10  1  6  0  0  0
  8 13  1  0  0  0  0
 10 11  1  0  0  0  0
 12 13  1  6  0  0  0
 12 14  1  0  0  0  0
 12 21  1  0  0  0  0
 14 15  1  6  0  0  0
 14 16  1  0  0  0  0
 16 17  1  1  0  0  0
 16 18  1  0  0  0  0
 18 19  1  6  0  0  0
 18 20  1  0  0  0  0
 20 21  1  0  0  0  0
 20 22  1  1  0  0  0
 22 23  1  0  0  0  0
M  END
>  <CHROM.1>
-175.82792013,-63.36973943,-154.62290265,-164.21904058,-66.16765190,-6.75380284
-9.00161068,0.18632653,2.47142226,-0.50546160,-1.00032155

>  <Name>
ligand

>  <RI>
0

>  <Rbt.Current_Directory>
/home/itssahil/PROJECTS/Mol_Feturizer/New_Systems/rnas/4TS2

>  <Rbt.Executable>
rbdock ($Id: //depot/dev/client3/rdock/2013.1/src/exe/rbdock.cxx#4 $)

>  <Rbt.Library>
libRbt.so (2013.1, Build901 2013/11/27)

>  <Rbt.Parameter_File>
/export/apps/rDock/src/rDock_2013.1_src/data/scripts/dock_solv.prm

>  <Rbt.Receptor>
prm/pocket_docking_4.prm

>  <SCORE>
-9.58198

>  <SCORE.INTER>
-3.83076

>  <SCORE.INTER.CONST>
1

>  <SCORE.INTER.POLAR>
0

>  <SCORE.INTER.ROT>
5

>  <SCORE.INTER.SOLV>
7.53004

>  <SCORE.INTER.VDW>
-11.9972

>  <SCORE.INTER.norm>
-0.166555

>  <SCORE.INTRA>
-5.75122

>  <SCORE.INTRA.DIHEDRAL>
-8.53465

>  <SCORE.INTRA.DIHEDRAL.0>
12.4853

>  <SCORE.INTRA.POLAR>
0

>  <SCORE.INTRA.POLAR.0>
0

>  <SCORE.INTRA.REPUL>
0

>  <SCORE.INTRA.REPUL.0>
0

>  <SCORE.INTRA.SOLV>
0.377884

>  <SCORE.INTRA.SOLV.lig_0>
-31.1706

>  <SCORE.INTRA.VDW>
-1.67284

>  <SCORE.INTRA.VDW.0>
-1.16895

>  <SCORE.INTRA.norm>
-0.250053

>  <SCORE.RESTR>
0

>  <SCORE.RESTR.CAVITY>
0

>  <SCORE.RESTR.norm>
0

>  <SCORE.SYSTEM>
0

>  <SCORE.SYSTEM.CONST>
0

>  <SCORE.SYSTEM.DIHEDRAL>
0

>  <SCORE.SYSTEM.SOLV>
0

>  <SCORE.SYSTEM.norm>
0

>  <SCORE.heavy>
23

>  <SCORE.norm>
-0.416608

>  <RMSD>
1.071

$$$$
ligand
 OpenBabel11021811513D
libRbt.so/2013.1/901 2013/11/27
 23 24  0  0  0  0  0  0  0  0999 V2000
   -9.8008  -10.3227    0.0749 C   0  0  0  0  0  0  0  0  0  0  0  0
  -10.8674   -9.5572    0.6680 O   0  0  0  0  0  0  0  0  0  0  0  0
   -9.1550   -9.4991   -1.0301 C   0  0  2  0  0  0  0  0  0  0  0  0
   -8.0741  -10.2086   -1.8312 C   0  0  1  0  0  0  0  0  0  0  0  0
   -8.6856  -11.0603   -2.8022 O   0  0  0  0  0  0  0  0  0  0  0  0
   -7.3076   -9.0351   -2.4318 C   0  0  2  0  0  0  0  0  0  0  0  0
   -5.9582   -9.2462   -2.8639 O   0  0  0  0  0  0  0  0  0  0  0  0
   -7.3361   -8.0383   -1.2866 C   0  0  2  0  0  0  0  0  0  0  0  0
   -8.5167   -8.3299   -0.5091 O   0  0  0  0  0  0  0  0  0  0  0  0
   -7.3678   -6.6253   -1.8966 C   0  0  0  0  0  0  0  0  0  0  0  0
   -6.1695   -6.3163   -2.6220 O   0  0  0  0  0  0  0  0  0  0  0  0
   -6.2902   -7.6551    0.8551 C   0  0  2  0  0  0  0  0  0  0  0  0
   -6.1948   -8.2670   -0.4428 O   0  0  0  0  0  0  0  0  0  0  0  0
   -4.8757   -7.4201    1.3515 C   0  0  2  0  0  0  0  0  0  0  0  0
   -4.1142   -6.7845    0.3188 O   0  0  0  0  0  0  0  0  0  0  0  0
   -4.2061   -8.7349    1.6857 C   0  0  1  0  0  0  0  0  0  0  0  0
   -2.9837   -8.4615    2.3746 O   0  0  0  0  0  0  0  0  0  0  0  0
   -5.1125   -9.5924    2.5482 C   0  0  2  0  0  0  0  0  0  0  0  0
   -4.5234  -10.8781    2.6875 O   0  0  0  0  0  0  0  0  0  0  0  0
   -6.4992   -9.7489    1.9388 C   0  0  2  0  0  0  0  0  0  0  0  0
   -7.0428   -8.4461    1.7746 O   0  0  0  0  0  0  0  0  0  0  0  0
   -7.4127  -10.6024    2.8266 C   0  0  0  0  0  0  0  0  0  0  0  0
   -6.9695  -11.9623    2.9443 O   0  0  0  0  0  0  0  0  0  0  0  0
  1  2  1  0  0  0  0
  3  1  1  1  0  0  0
  3  9  1  0  0  0  0
  3  4  1  0  0  0  0
  4  5  1  6  0  0  0
  4  6  1  0  0  0  0
  6  7  1  1  0  0  0
  6  8  1  0  0  0  0
  8  9  1  0  0  0  0
  8 10  1  6  0  0  0
  8 13  1  0  0  0  0
 10 11  1  0  0  0  0
 12 13  1  6  0  0  0
 12 14  1  0  0  0  0
 12 21  1  0  0  0  0
 14 15  1  6  0  0  0
 14 16  1  0  0  0  0
 16 17  1  1  0  0  0
 16 18  1  0  0  0  0
 18 19  1  6  0  0  0
 18 20  1  0  0  0  0
 20 21  1  0  0  0  0
 20 22  1  1  0  0  0
 22 23  1  0  0  0  0
M  END
>  <CHROM.1>
-175.52603512,-65.05713785,-154.36828336,-163.74615601,-65.08629326,-6.74977361
-8.99923052,0.18926918,2.47158012,-0.50913737,-1.00400166

>  <Name>
ligand

>  <RI>
0

>  <Rbt.Current_Directory>
/home/itssahil/PROJECTS/Mol_Feturizer/New_Systems/rnas/4TS2

>  <Rbt.Executable>
rbdock ($Id: //depot/dev/client3/rdock/2013.1/src/exe/rbdock.cxx#4 $)

>  <Rbt.Library>
libRbt.so (2013.1, Build901 2013/11/27)

>  <Rbt.Parameter_File>
/export/apps/rDock/src/rDock_2013.1_src/data/scripts/dock_solv.prm

>  <Rbt.Receptor>
prm/pocket_docking_4.prm

>  <SCORE>
-9.58082

>  <SCORE.INTER>
-3.89362

>  <SCORE.INTER.CONST>
1

>  <SCORE.INTER.POLAR>
0

>  <SCORE.INTER.ROT>
5

>  <SCORE.INTER.SOLV>
7.52722

>  <SCORE.INTER.VDW>
-12.0381

>  <SCORE.INTER.norm>
-0.169288

>  <SCORE.INTRA>
-5.68721

>  <SCORE.INTRA.DIHEDRAL>
-8.42444

>  <SCORE.INTRA.DIHEDRAL.0>
12.4853

>  <SCORE.INTRA.POLAR>
0

>  <SCORE.INTRA.POLAR.0>
0

>  <SCORE.INTRA.REPUL>
0

>  <SCORE.INTRA.REPUL.0>
0

>  <SCORE.INTRA.SOLV>
0.383835

>  <SCORE.INTRA.SOLV.lig_0>
-31.1706

>  <SCORE.INTRA.VDW>
-1.6669

>  <SCORE.INTRA.VDW.0>
-1.16895

>  <SCORE.INTRA.norm>
-0.24727

>  <SCORE.RESTR>
0

>  <SCORE.RESTR.CAVITY>
0

>  <SCORE.RESTR.norm>
0

>  <SCORE.SYSTEM>
0

>  <SCORE.SYSTEM.CONST>
0

>  <SCORE.SYSTEM.DIHEDRAL>
0

>  <SCORE.SYSTEM.SOLV>
0

>  <SCORE.SYSTEM.norm>
0

>  <SCORE.heavy>
23

>  <SCORE.norm>
-0.416558

>  <RMSD>
1.073

$$$$
ligand
 OpenBabel11021811513D
libRbt.so/2013.1/901 2013/11/27
 23 24  0  0  0  0  0  0  0  0999 V2000
  -10.1337   -9.7449   -0.2042 C   0  0  0  0  0  0  0  0  0  0  0  0
   -9.3286  -10.3267    0.8393 O   0  0  0  0  0  0  0  0  0  0  0  0
   -9.2174   -9.1351   -1.2553 C   0  0  2  0  0  0  0  0  0  0  0  0
   -8.2052  -10.0863   -1.8751 C   0  0  1  0  0  0  0  0  0  0  0  0
   -8.8496  -10.8790   -2.8745 O   0  0  0  0  0  0  0  0  0  0  0  0
   -7.1637   -9.1193   -2.4281 C   0  0  2  0  0  0  0  0  0  0  0  0
   -5.8381   -9.6046   -2.6719 O   0  0  0  0  0  0  0  0  0  0  0  0
   -7.1359   -8.0546   -1.3457 C   0  0  2  0  0  0  0  0  0  0  0  0
   -8.4335   -8.0683   -0.7136 O   0  0  0  0  0  0  0  0  0  0  0  0
   -6.8256   -6.7072   -2.0224 C   0  0  0  0  0  0  0  0  0  0  0  0
   -7.7891   -6.3666   -3.0290 O   0  0  0  0  0  0  0  0  0  0  0  0
   -6.3263   -7.7535    0.9085 C   0  0  2  0  0  0  0  0  0  0  0  0
   -6.1664   -8.4274   -0.3518 O   0  0  0  0  0  0  0  0  0  0  0  0
   -4.9398   -7.3994    1.4133 C   0  0  2  0  0  0  0  0  0  0  0  0
   -4.2013   -6.7722    0.3590 O   0  0  0  0  0  0  0  0  0  0  0  0
   -4.1930   -8.6472    1.8304 C   0  0  1  0  0  0  0  0  0  0  0  0
   -3.0045   -8.2571    2.5222 O   0  0  0  0  0  0  0  0  0  0  0  0
   -5.0585   -9.5143    2.7248 C   0  0  2  0  0  0  0  0  0  0  0  0
   -4.3902  -10.7490    2.9445 O   0  0  0  0  0  0  0  0  0  0  0  0
   -6.4202   -9.7945    2.1033 C   0  0  2  0  0  0  0  0  0  0  0  0
   -7.0437   -8.5411    1.8585 O   0  0  0  0  0  0  0  0  0  0  0  0
   -7.2934  -10.6567    3.0226 C   0  0  0  0  0  0  0  0  0  0  0  0
   -7.4718  -10.0837    4.3262 O   0  0  0  0  0  0  0  0  0  0  0  0
  1  2  1  0  0  0  0
  3  1  1  1  0  0  0
  3  9  1  0  0  0  0
  3  4  1  0  0  0  0
  4  5  1  6  0  0  0
  4  6  1  0  0  0  0
  6  7  1  1  0  0  0
  6  8  1  0  0  0  0
  8  9  1  0  0  0  0
  8 10  1  6  0  0  0
  8 13  1  0  0  0  0
 10 11  1  0  0  0  0
 12 13  1  6  0  0  0
 12 14  1  0  0  0  0
 12 21  1  0  0  0  0
 14 15  1  6  0  0  0
 14 16  1  0  0  0  0
 16 17  1  1  0  0  0
 16 18  1  0  0  0  0
 18 19  1  6  0  0  0
 18 20  1  0  0  0  0
 20 21  1  0  0  0  0
 20 22  1  1  0  0  0
 22 23  1  0  0  0  0
M  END
>  <CHROM.1>
56.57871113,58.38045273,-139.61735715,-161.52251342,56.13794526,-6.75244601
-8.90491227,0.27193627,2.24677581,-0.51080487,-1.11883773

>  <Name>
ligand

>  <RI>
0

>  <Rbt.Current_Directory>
/home/itssahil/PROJECTS/Mol_Feturizer/New_Systems/rnas/4TS2

>  <Rbt.Executable>
rbdock ($Id: //depot/dev/client3/rdock/2013.1/src/exe/rbdock.cxx#4 $)

>  <Rbt.Library>
libRbt.so (2013.1, Build901 2013/11/27)

>  <Rbt.Parameter_File>
/export/apps/rDock/src/rDock_2013.1_src/data/scripts/dock_solv.prm

>  <Rbt.Receptor>
prm/pocket_docking_3.prm

>  <SCORE>
-8.34778

>  <SCORE.INTER>
-4.54357

>  <SCORE.INTER.CONST>
1

>  <SCORE.INTER.POLAR>
0

>  <SCORE.INTER.ROT>
5

>  <SCORE.INTER.SOLV>
8.48987

>  <SCORE.INTER.VDW>
-12.7923

>  <SCORE.INTER.norm>
-0.197546

>  <SCORE.INTRA>
-3.80422

>  <SCORE.INTRA.DIHEDRAL>
-5.58367

>  <SCORE.INTRA.DIHEDRAL.0>
12.4853

>  <SCORE.INTRA.POLAR>
0

>  <SCORE.INTRA.POLAR.0>
0

>  <SCORE.INTRA.REPUL>
0

>  <SCORE.INTRA.REPUL.0>
0

>  <SCORE.INTRA.SOLV>
1.10666

>  <SCORE.INTRA.SOLV.lig_0>
-31.1706

>  <SCORE.INTRA.VDW>
-1.56572

>  <SCORE.INTRA.VDW.0>
-1.16895

>  <SCORE.INTRA.norm>
-0.165401

>  <SCORE.RESTR>
0

>  <SCORE.RESTR.CAVITY>
0

>  <SCORE.RESTR.norm>
0

>  <SCORE.SYSTEM>
0

>  <SCORE.SYSTEM.CONST>
0

>  <SCORE.SYSTEM.DIHEDRAL>
0

>  <SCORE.SYSTEM.SOLV>
0

>  <SCORE.SYSTEM.norm>
0

>  <SCORE.heavy>
23

>  <SCORE.norm>
-0.362947

>  <RMSD>
1.078

$$$$
ligand
 OpenBabel11021811513D
libRbt.so/2013.1/901 2013/11/27
 23 24  0  0  0  0  0  0  0  0999 V2000
  -10.4892   -9.7550    0.3243 C   0  0  0  0  0  0  0  0  0  0  0  0
  -11.4177  -10.7008   -0.2402 O   0  0  0  0  0  0  0  0  0  0  0  0
   -9.6510   -9.1549   -0.7954 C   0  0  2  0  0  0  0  0  0  0  0  0
   -8.7169  -10.1219   -1.5066 C   0  0  1  0  0  0  0  0  0  0  0  0
   -9.4615  -10.8895   -2.4545 O   0  0  0  0  0  0  0  0  0  0  0  0
   -7.7038   -9.1727   -2.1375 C   0  0  2  0  0  0  0  0  0  0  0  0
   -6.4151   -9.6848   -2.4967 O   0  0  0  0  0  0  0  0  0  0  0  0
   -7.5602   -8.1202   -1.0524 C   0  0  2  0  0  0  0  0  0  0  0  0
   -8.7997   -8.1115   -0.3129 O   0  0  0  0  0  0  0  0  0  0  0  0
   -7.2770   -6.7731   -1.7415 C   0  0  0  0  0  0  0  0  0  0  0  0
   -6.0521   -6.7879   -2.4878 O   0  0  0  0  0  0  0  0  0  0  0  0
   -6.4283   -7.7219    1.0424 C   0  0  2  0  0  0  0  0  0  0  0  0
   -6.5191   -8.5248   -0.1472 O   0  0  0  0  0  0  0  0  0  0  0  0
   -4.9598   -7.4185    1.2745 C   0  0  2  0  0  0  0  0  0  0  0  0
   -4.3773   -6.9503    0.0532 O   0  0  0  0  0  0  0  0  0  0  0  0
   -4.2206   -8.6692    1.6968 C   0  0  1  0  0  0  0  0  0  0  0  0
   -2.9134   -8.2979    2.1407 O   0  0  0  0  0  0  0  0  0  0  0  0
   -4.9677   -9.3823    2.8078 C   0  0  2  0  0  0  0  0  0  0  0  0
   -4.3383  -10.6336    3.0477 O   0  0  0  0  0  0  0  0  0  0  0  0
   -6.4275   -9.6254    2.4491 C   0  0  2  0  0  0  0  0  0  0  0  0
   -7.0161   -8.3611    2.1753 O   0  0  0  0  0  0  0  0  0  0  0  0
   -7.1777  -10.3307    3.5852 C   0  0  0  0  0  0  0  0  0  0  0  0
   -8.4408  -10.8725    3.1720 O   0  0  0  0  0  0  0  0  0  0  0  0
  1  2  1  0  0  0  0
  3  1  1  1  0  0  0
  3  9  1  0  0  0  0
  3  4  1  0  0  0  0
  4  5  1  6  0  0  0
  4  6  1  0  0  0  0
  6  7  1  1  0  0  0
  6  8  1  0  0  0  0
  8  9  1  0  0  0  0
  8 10  1  6  0  0  0
  8 13  1  0  0  0  0
 10 11  1  0  0  0  0
 12 13  1  6  0  0  0
 12 14  1  0  0  0  0
 12 21  1  0  0  0  0
 14 15  1  6  0  0  0
 14 16  1  0  0  0  0
 16 17  1  1  0  0  0
 16 18  1  0  0  0  0
 18 19  1  6  0  0  0
 18 20  1  0  0  0  0
 20 21  1  0  0  0  0
 20 22  1  1  0  0  0
 22 23  1  0  0  0  0
M  END
>  <CHROM.1>
-66.11541516,-61.96633002,-135.25807408,-170.58124862,-165.33194050,-7.01195390
-8.97289498,0.35859516,2.66849383,-0.43797676,-1.13818461

>  <Name>
ligand

>  <RI>
0

>  <Rbt.Current_Directory>
/home/itssahil/PROJECTS/Mol_Feturizer/New_Systems/rnas/4TS2

>  <Rbt.Executable>
rbdock ($Id: //depot/dev/client3/rdock/2013.1/src/exe/rbdock.cxx#4 $)

>  <Rbt.Library>
libRbt.so (2013.1, Build901 2013/11/27)

>  <Rbt.Parameter_File>
/export/apps/rDock/src/rDock_2013.1_src/data/scripts/dock_solv.prm

>  <Rbt.Receptor>
prm/pocket_docking_5.prm

>  <SCORE>
-9.09203

>  <SCORE.INTER>
-5.11613

>  <SCORE.INTER.CONST>
1

>  <SCORE.INTER.POLAR>
0

>  <SCORE.INTER.ROT>
5

>  <SCORE.INTER.SOLV>
7.23392

>  <SCORE.INTER.VDW>
-12.7554

>  <SCORE.INTER.norm>
-0.222441

>  <SCORE.INTRA>
-3.97589

>  <SCORE.INTRA.DIHEDRAL>
-5.18276

>  <SCORE.INTRA.DIHEDRAL.0>
12.4853

>  <SCORE.INTRA.POLAR>
0

>  <SCORE.INTRA.POLAR.0>
0

>  <SCORE.INTRA.REPUL>
0

>  <SCORE.INTRA.REPUL.0>
0

>  <SCORE.INTRA.SOLV>
0.388433

>  <SCORE.INTRA.SOLV.lig_0>
-31.1706

>  <SCORE.INTRA.VDW>
-1.57873

>  <SCORE.INTRA.VDW.0>
-1.16895

>  <SCORE.INTRA.norm>
-0.172865

>  <SCORE.RESTR>
0

>  <SCORE.RESTR.CAVITY>
0

>  <SCORE.RESTR.norm>
0

>  <SCORE.SYSTEM>
0

>  <SCORE.SYSTEM.CONST>
0

>  <SCORE.SYSTEM.DIHEDRAL>
0

>  <SCORE.SYSTEM.SOLV>
0

>  <SCORE.SYSTEM.norm>
0

>  <SCORE.heavy>
23

>  <SCORE.norm>
-0.395305

>  <RMSD>
1.079

$$$$
ligand
 OpenBabel11021811513D
libRbt.so/2013.1/901 2013/11/27
 23 24  0  0  0  0  0  0  0  0999 V2000
  -10.4579   -9.7679    0.3562 C   0  0  0  0  0  0  0  0  0  0  0  0
  -11.3210  -10.7816   -0.1942 O   0  0  0  0  0  0  0  0  0  0  0  0
   -9.6159   -9.1727   -0.7634 C   0  0  2  0  0  0  0  0  0  0  0  0
   -8.6734  -10.1410   -1.4616 C   0  0  1  0  0  0  0  0  0  0  0  0
   -9.4090  -10.9194   -2.4078 O   0  0  0  0  0  0  0  0  0  0  0  0
   -7.6610   -9.1921   -2.0941 C   0  0  2  0  0  0  0  0  0  0  0  0
   -6.3679   -9.7011   -2.4419 O   0  0  0  0  0  0  0  0  0  0  0  0
   -7.5284   -8.1305   -1.0165 C   0  0  2  0  0  0  0  0  0  0  0  0
   -8.7722   -8.1217   -0.2842 O   0  0  0  0  0  0  0  0  0  0  0  0
   -7.2474   -6.7875   -1.7145 C   0  0  0  0  0  0  0  0  0  0  0  0
   -5.9986   -6.7893   -2.4203 O   0  0  0  0  0  0  0  0  0  0  0  0
   -6.4188   -7.7187    1.0876 C   0  0  2  0  0  0  0  0  0  0  0  0
   -6.4907   -8.5233   -0.1022 O   0  0  0  0  0  0  0  0  0  0  0  0
   -4.9562   -7.3946    1.3289 C   0  0  2  0  0  0  0  0  0  0  0  0
   -4.3727   -6.9186    0.1111 O   0  0  0  0  0  0  0  0  0  0  0  0
   -4.2022   -8.6345    1.7565 C   0  0  1  0  0  0  0  0  0  0  0  0
   -2.9033   -8.2447    2.2085 O   0  0  0  0  0  0  0  0  0  0  0  0
   -4.9463   -9.3577    2.8630 C   0  0  2  0  0  0  0  0  0  0  0  0
   -4.3009  -10.5999    3.1074 O   0  0  0  0  0  0  0  0  0  0  0  0
   -6.4002   -9.6215    2.4951 C   0  0  2  0  0  0  0  0  0  0  0  0
   -7.0048   -8.3657    2.2170 O   0  0  0  0  0  0  0  0  0  0  0  0
   -7.1477  -10.3368    3.6268 C   0  0  0  0  0  0  0  0  0  0  0  0
   -8.4137  -10.8712    3.2130 O   0  0  0  0  0  0  0  0  0  0  0  0
  1  2  1  0  0  0  0
  3  1  1  1  0  0  0
  3  9  1  0  0  0  0
  3  4  1  0  0  0  0
  4  5  1  6  0  0  0
  4  6  1  0  0  0  0
  6  7  1  1  0  0  0
  6  8  1  0  0  0  0
  8  9  1  0  0  0  0
  8 10  1  6  0  0  0
  8 13  1  0  0  0  0
 10 11  1  0  0  0  0
 12 13  1  6  0  0  0
 12 14  1  0  0  0  0
 12 21  1  0  0  0  0
 14 15  1  6  0  0  0
 14 16  1  0  0  0  0
 16 17  1  1  0  0  0
 16 18  1  0  0  0  0
 18 19  1  6  0  0  0
 18 20  1  0  0  0  0
 20 21  1  0  0  0  0
 20 22  1  1  0  0  0
 22 23  1  0  0  0  0
M  END
>  <CHROM.1>
-62.60037869,-63.73041663,-135.03651240,-170.01076454,-166.61203894,-6.98017101
-8.97438375,0.40559738,2.67100545,-0.45092817,-1.13986221

>  <Name>
ligand

>  <RI>
0

>  <Rbt.Current_Directory>
/home/itssahil/PROJECTS/Mol_Feturizer/New_Systems/rnas/4TS2

>  <Rbt.Executable>
rbdock ($Id: //depot/dev/client3/rdock/2013.1/src/exe/rbdock.cxx#4 $)

>  <Rbt.Library>
libRbt.so (2013.1, Build901 2013/11/27)

>  <Rbt.Parameter_File>
/export/apps/rDock/src/rDock_2013.1_src/data/scripts/dock_solv.prm

>  <Rbt.Receptor>
prm/pocket_docking_3.prm

>  <SCORE>
-9.15421

>  <SCORE.INTER>
-5.12583

>  <SCORE.INTER.CONST>
1

>  <SCORE.INTER.POLAR>
0

>  <SCORE.INTER.ROT>
5

>  <SCORE.INTER.SOLV>
7.21204

>  <SCORE.INTER.VDW>
-12.7546

>  <SCORE.INTER.norm>
-0.222862

>  <SCORE.INTRA>
-4.02837

>  <SCORE.INTRA.DIHEDRAL>
-5.3149

>  <SCORE.INTRA.DIHEDRAL.0>
12.4853

>  <SCORE.INTRA.POLAR>
0

>  <SCORE.INTRA.POLAR.0>
0

>  <SCORE.INTRA.REPUL>
0

>  <SCORE.INTRA.REPUL.0>
0

>  <SCORE.INTRA.SOLV>
0.418729

>  <SCORE.INTRA.SOLV.lig_0>
-31.1706

>  <SCORE.INTRA.VDW>
-1.58029

>  <SCORE.INTRA.VDW.0>
-1.16895

>  <SCORE.INTRA.norm>
-0.175147

>  <SCORE.RESTR>
0

>  <SCORE.RESTR.CAVITY>
0

>  <SCORE.RESTR.norm>
0

>  <SCORE.SYSTEM>
0

>  <SCORE.SYSTEM.CONST>
0

>  <SCORE.SYSTEM.DIHEDRAL>
0

>  <SCORE.SYSTEM.SOLV>
0

>  <SCORE.SYSTEM.norm>
0

>  <SCORE.heavy>
23

>  <SCORE.norm>
-0.398009

>  <RMSD>
1.092

$$$$
ligand
 OpenBabel11021811513D
libRbt.so/2013.1/901 2013/11/27
 23 24  0  0  0  0  0  0  0  0999 V2000
  -10.3292   -9.9766    0.2475 C   0  0  0  0  0  0  0  0  0  0  0  0
   -9.4230  -10.5331    1.2195 O   0  0  0  0  0  0  0  0  0  0  0  0
   -9.5224   -9.3068   -0.8556 C   0  0  2  0  0  0  0  0  0  0  0  0
   -8.5286  -10.2030   -1.5786 C   0  0  1  0  0  0  0  0  0  0  0  0
   -9.2211  -10.9957   -2.5452 O   0  0  0  0  0  0  0  0  0  0  0  0
   -7.5706   -9.1834   -2.1854 C   0  0  2  0  0  0  0  0  0  0  0  0
   -6.2518   -9.6111   -2.5458 O   0  0  0  0  0  0  0  0  0  0  0  0
   -7.4957   -8.1447   -1.0802 C   0  0  2  0  0  0  0  0  0  0  0  0
   -8.7375   -8.2237   -0.3486 O   0  0  0  0  0  0  0  0  0  0  0  0
   -7.2899   -6.7705   -1.7426 C   0  0  0  0  0  0  0  0  0  0  0  0
   -6.0299   -6.6744   -2.4215 O   0  0  0  0  0  0  0  0  0  0  0  0
   -6.3768   -7.6939    1.0108 C   0  0  2  0  0  0  0  0  0  0  0  0
   -6.4371   -8.5036   -0.1761 O   0  0  0  0  0  0  0  0  0  0  0  0
   -4.9133   -7.4085    1.2921 C   0  0  2  0  0  0  0  0  0  0  0  0
   -4.2825   -6.9563    0.0889 O   0  0  0  0  0  0  0  0  0  0  0  0
   -4.2063   -8.6660    1.7478 C   0  0  1  0  0  0  0  0  0  0  0  0
   -2.9104   -8.3091    2.2346 O   0  0  0  0  0  0  0  0  0  0  0  0
   -5.0011   -9.3615    2.8365 C   0  0  2  0  0  0  0  0  0  0  0  0
   -4.3975  -10.6194    3.1061 O   0  0  0  0  0  0  0  0  0  0  0  0
   -6.4508   -9.5876    2.4288 C   0  0  2  0  0  0  0  0  0  0  0  0
   -7.0123   -8.3175    2.1266 O   0  0  0  0  0  0  0  0  0  0  0  0
   -7.2495  -10.2751    3.5425 C   0  0  0  0  0  0  0  0  0  0  0  0
   -6.7758  -11.5970    3.8387 O   0  0  0  0  0  0  0  0  0  0  0  0
  1  2  1  0  0  0  0
  3  1  1  1  0  0  0
  3  9  1  0  0  0  0
  3  4  1  0  0  0  0
  4  5  1  6  0  0  0
  4  6  1  0  0  0  0
  6  7  1  1  0  0  0
  6  8  1  0  0  0  0
  8  9  1  0  0  0  0
  8 10  1  6  0  0  0
  8 13  1  0  0  0  0
 10 11  1  0  0  0  0
 12 13  1  6  0  0  0
 12 14  1  0  0  0  0
 12 21  1  0  0  0  0
 14 15  1  6  0  0  0
 14 16  1  0  0  0  0
 16 17  1  1  0  0  0
 16 18  1  0  0  0  0
 18 19  1  6  0  0  0
 18 20  1  0  0  0  0
 20 21  1  0  0  0  0
 20 22  1  1  0  0  0
 22 23  1  0  0  0  0
M  END
>  <CHROM.1>
57.49502159,-65.08326241,-139.02976158,-172.28325321,-63.89026054,-6.78225897
-9.01142460,0.44913922,2.39667542,-0.50623101,-1.07438980

>  <Name>
ligand

>  <RI>
0

>  <Rbt.Current_Directory>
/home/itssahil/PROJECTS/Mol_Feturizer/New_Systems/rnas/4TS2

>  <Rbt.Executable>
rbdock ($Id: //depot/dev/client3/rdock/2013.1/src/exe/rbdock.cxx#4 $)

>  <Rbt.Library>
libRbt.so (2013.1, Build901 2013/11/27)

>  <Rbt.Parameter_File>
/export/apps/rDock/src/rDock_2013.1_src/data/scripts/dock_solv.prm

>  <Rbt.Receptor>
prm/pocket_docking_6.prm

>  <SCORE>
-9.21954

>  <SCORE.INTER>
-4.89773

>  <SCORE.INTER.CONST>
1

>  <SCORE.INTER.POLAR>
0

>  <SCORE.INTER.ROT>
5

>  <SCORE.INTER.SOLV>
7.04977

>  <SCORE.INTER.VDW>
-12.5484

>  <SCORE.INTER.norm>
-0.212945

>  <SCORE.INTRA>
-4.32182

>  <SCORE.INTRA.DIHEDRAL>
-6.59043

>  <SCORE.INTRA.DIHEDRAL.0>
12.4853

>  <SCORE.INTRA.POLAR>
0

>  <SCORE.INTRA.POLAR.0>
0

>  <SCORE.INTRA.REPUL>
0

>  <SCORE.INTRA.REPUL.0>
0

>  <SCORE.INTRA.SOLV>
1.38122

>  <SCORE.INTRA.SOLV.lig_0>
-31.1706

>  <SCORE.INTRA.VDW>
-1.71721

>  <SCORE.INTRA.VDW.0>
-1.16895

>  <SCORE.INTRA.norm>
-0.187905

>  <SCORE.RESTR>
0

>  <SCORE.RESTR.CAVITY>
0

>  <SCORE.RESTR.norm>
0

>  <SCORE.SYSTEM>
0

>  <SCORE.SYSTEM.CONST>
0

>  <SCORE.SYSTEM.DIHEDRAL>
0

>  <SCORE.SYSTEM.SOLV>
0

>  <SCORE.SYSTEM.norm>
0

>  <SCORE.heavy>
23

>  <SCORE.norm>
-0.40085

>  <RMSD>
1.097

$$$$
ligand
 OpenBabel11021811513D
libRbt.so/2013.1/901 2013/11/27
 23 24  0  0  0  0  0  0  0  0999 V2000
  -10.9639   -9.5199    0.1306 C   0  0  0  0  0  0  0  0  0  0  0  0
  -11.9778  -10.4842   -0.2121 O   0  0  0  0  0  0  0  0  0  0  0  0
  -10.1135   -9.2365   -1.0995 C   0  0  2  0  0  0  0  0  0  0  0  0
   -9.3195  -10.4182   -1.6349 C   0  0  1  0  0  0  0  0  0  0  0  0
  -10.1814  -11.2585   -2.4052 O   0  0  0  0  0  0  0  0  0  0  0  0
   -8.2375   -9.7234   -2.4545 C   0  0  2  0  0  0  0  0  0  0  0  0
   -7.0274  -10.4361   -2.7376 O   0  0  0  0  0  0  0  0  0  0  0  0
   -7.9362   -8.5114   -1.5907 C   0  0  2  0  0  0  0  0  0  0  0  0
   -9.1356   -8.2253   -0.8404 O   0  0  0  0  0  0  0  0  0  0  0  0
   -7.5388   -7.3562   -2.5273 C   0  0  0  0  0  0  0  0  0  0  0  0
   -7.4188   -6.1066   -1.8332 O   0  0  0  0  0  0  0  0  0  0  0  0
   -6.6919   -7.8702    0.3762 C   0  0  2  0  0  0  0  0  0  0  0  0
   -6.9077   -8.8570   -0.6474 O   0  0  0  0  0  0  0  0  0  0  0  0
   -5.2130   -7.5312    0.3757 C   0  0  2  0  0  0  0  0  0  0  0  0
   -4.7910   -7.2683   -0.9671 O   0  0  0  0  0  0  0  0  0  0  0  0
   -4.4023   -8.6950    0.9021 C   0  0  1  0  0  0  0  0  0  0  0  0
   -3.0595   -8.2546    1.1175 O   0  0  0  0  0  0  0  0  0  0  0  0
   -4.9957   -9.2177    2.1965 C   0  0  2  0  0  0  0  0  0  0  0  0
   -4.3159  -10.4122    2.5579 O   0  0  0  0  0  0  0  0  0  0  0  0
   -6.4826   -9.5180    2.0624 C   0  0  2  0  0  0  0  0  0  0  0  0
   -7.1262   -8.3162    1.6608 O   0  0  0  0  0  0  0  0  0  0  0  0
   -7.0762  -10.0288    3.3805 C   0  0  0  0  0  0  0  0  0  0  0  0
   -6.5028  -11.2725    3.8094 O   0  0  0  0  0  0  0  0  0  0  0  0
  1  2  1  0  0  0  0
  3  1  1  1  0  0  0
  3  9  1  0  0  0  0
  3  4  1  0  0  0  0
  4  5  1  6  0  0  0
  4  6  1  0  0  0  0
  6  7  1  1  0  0  0
  6  8  1  0  0  0  0
  8  9  1  0  0  0  0
  8 10  1  6  0  0  0
  8 13  1  0  0  0  0
 10 11  1  0  0  0  0
 12 13  1  6  0  0  0
 12 14  1  0  0  0  0
 12 21  1  0  0  0  0
 14 15  1  6  0  0  0
 14 16  1  0  0  0  0
 16 17  1  1  0  0  0
 16 18  1  0  0  0  0
 18 19  1  6  0  0  0
 18 20  1  0  0  0  0
 20 21  1  0  0  0  0
 20 22  1  1  0  0  0
 22 23  1  0  0  0  0
M  END
>  <CHROM.1>
-63.77775425,171.57337807,-126.74498477,-169.90452518,-62.93255264,-7.27374069
-9.07718766,-0.01148601,2.70097576,-0.41103518,-1.05644708

>  <Name>
ligand

>  <RI>
0

>  <Rbt.Current_Directory>
/home/itssahil/PROJECTS/Mol_Feturizer/New_Systems/rnas/4TS2

>  <Rbt.Executable>
rbdock ($Id: //depot/dev/client3/rdock/2013.1/src/exe/rbdock.cxx#4 $)

>  <Rbt.Library>
libRbt.so (2013.1, Build901 2013/11/27)

>  <Rbt.Parameter_File>
/export/apps/rDock/src/rDock_2013.1_src/data/scripts/dock_solv.prm

>  <Rbt.Receptor>
prm/pocket_docking_3.prm

>  <SCORE>
-8.3556

>  <SCORE.INTER>
-5.07317

>  <SCORE.INTER.CONST>
1

>  <SCORE.INTER.POLAR>
0

>  <SCORE.INTER.ROT>
5

>  <SCORE.INTER.SOLV>
7.37507

>  <SCORE.INTER.VDW>
-12.7738

>  <SCORE.INTER.norm>
-0.220572

>  <SCORE.INTRA>
-3.28244

>  <SCORE.INTRA.DIHEDRAL>
-4.87582

>  <SCORE.INTRA.DIHEDRAL.0>
12.4853

>  <SCORE.INTRA.POLAR>
0

>  <SCORE.INTRA.POLAR.0>
0

>  <SCORE.INTRA.REPUL>
0

>  <SCORE.INTRA.REPUL.0>
0

>  <SCORE.INTRA.SOLV>
0.523864

>  <SCORE.INTRA.SOLV.lig_0>
-31.1706

>  <SCORE.INTRA.VDW>
-1.10646

>  <SCORE.INTRA.VDW.0>
-1.16895

>  <SCORE.INTRA.norm>
-0.142715

>  <SCORE.RESTR>
0

>  <SCORE.RESTR.CAVITY>
0

>  <SCORE.RESTR.norm>
0

>  <SCORE.SYSTEM>
0

>  <SCORE.SYSTEM.CONST>
0

>  <SCORE.SYSTEM.DIHEDRAL>
0

>  <SCORE.SYSTEM.SOLV>
0

>  <SCORE.SYSTEM.norm>
0

>  <SCORE.heavy>
23

>  <SCORE.norm>
-0.363287

>  <RMSD>
1.105

$$$$
ligand
 OpenBabel11021811513D
libRbt.so/2013.1/901 2013/11/27
 23 24  0  0  0  0  0  0  0  0999 V2000
  -10.9146   -9.4740    0.0840 C   0  0  0  0  0  0  0  0  0  0  0  0
  -11.9401  -10.4235   -0.2660 O   0  0  0  0  0  0  0  0  0  0  0  0
  -10.0549   -9.1990   -1.1414 C   0  0  2  0  0  0  0  0  0  0  0  0
   -9.2639  -10.3866   -1.6681 C   0  0  1  0  0  0  0  0  0  0  0  0
  -10.1253  -11.2246   -2.4414 O   0  0  0  0  0  0  0  0  0  0  0  0
   -8.1728   -9.7002   -2.4829 C   0  0  2  0  0  0  0  0  0  0  0  0
   -6.9649  -10.4203   -2.7560 O   0  0  0  0  0  0  0  0  0  0  0  0
   -7.8705   -8.4872   -1.6208 C   0  0  2  0  0  0  0  0  0  0  0  0
   -9.0731   -8.1924   -0.8791 O   0  0  0  0  0  0  0  0  0  0  0  0
   -7.4609   -7.3370   -2.5583 C   0  0  0  0  0  0  0  0  0  0  0  0
   -7.3244   -6.0889   -1.8646 O   0  0  0  0  0  0  0  0  0  0  0  0
   -6.6313   -7.8441    0.3486 C   0  0  2  0  0  0  0  0  0  0  0  0
   -6.8500   -8.8355   -0.6699 O   0  0  0  0  0  0  0  0  0  0  0  0
   -5.1512   -7.5099    0.3468 C   0  0  2  0  0  0  0  0  0  0  0  0
   -4.7281   -7.2553   -0.9972 O   0  0  0  0  0  0  0  0  0  0  0  0
   -4.3445   -8.6736    0.8796 C   0  0  1  0  0  0  0  0  0  0  0  0
   -3.0003   -8.2364    1.0930 O   0  0  0  0  0  0  0  0  0  0  0  0
   -4.9400   -9.1876    2.1765 C   0  0  2  0  0  0  0  0  0  0  0  0
   -4.2641  -10.3823    2.5442 O   0  0  0  0  0  0  0  0  0  0  0  0
   -6.4277   -9.4837    2.0434 C   0  0  2  0  0  0  0  0  0  0  0  0
   -7.0673   -8.2819    1.6354 O   0  0  0  0  0  0  0  0  0  0  0  0
   -7.0234   -9.9857    3.3641 C   0  0  0  0  0  0  0  0  0  0  0  0
   -6.4971  -11.2578    3.7693 O   0  0  0  0  0  0  0  0  0  0  0  0
  1  2  1  0  0  0  0
  3  1  1  1  0  0  0
  3  9  1  0  0  0  0
  3  4  1  0  0  0  0
  4  5  1  6  0  0  0
  4  6  1  0  0  0  0
  6  7  1  1  0  0  0
  6  8  1  0  0  0  0
  8  9  1  0  0  0  0
  8 10  1  6  0  0  0
  8 13  1  0  0  0  0
 10 11  1  0  0  0  0
 12 13  1  6  0  0  0
 12 14  1  0  0  0  0
 12 21  1  0  0  0  0
 14 15  1  6  0  0  0
 14 16  1  0  0  0  0
 16 17  1  1  0  0  0
 16 18  1  0  0  0  0
 18 19  1  6  0  0  0
 18 20  1  0  0  0  0
 20 21  1  0  0  0  0
 20 22  1  1  0  0  0
 22 23  1  0  0  0  0
M  END
>  <CHROM.1>
-64.36716724,172.20518719,-126.32484713,-170.16864597,-65.53092571,-7.21636139
-9.04898377,-0.04116134,2.69816121,-0.40870369,-1.06196529

>  <Name>
ligand

>  <RI>
0

>  <Rbt.Current_Directory>
/home/itssahil/PROJECTS/Mol_Feturizer/New_Systems/rnas/4TS2

>  <Rbt.Executable>
rbdock ($Id: //depot/dev/client3/rdock/2013.1/src/exe/rbdock.cxx#4 $)

>  <Rbt.Library>
libRbt.so (2013.1, Build901 2013/11/27)

>  <Rbt.Parameter_File>
/export/apps/rDock/src/rDock_2013.1_src/data/scripts/dock_solv.prm

>  <Rbt.Receptor>
prm/pocket_docking_3.prm

>  <SCORE>
-8.40228

>  <SCORE.INTER>
-5.11675

>  <SCORE.INTER.CONST>
1

>  <SCORE.INTER.POLAR>
0

>  <SCORE.INTER.ROT>
5

>  <SCORE.INTER.SOLV>
7.34414

>  <SCORE.INTER.VDW>
-12.7925

>  <SCORE.INTER.norm>
-0.222467

>  <SCORE.INTRA>
-3.28553

>  <SCORE.INTRA.DIHEDRAL>
-4.80436

>  <SCORE.INTRA.DIHEDRAL.0>
12.4853

>  <SCORE.INTRA.POLAR>
0

>  <SCORE.INTRA.POLAR.0>
0

>  <SCORE.INTRA.REPUL>
0

>  <SCORE.INTRA.REPUL.0>
0

>  <SCORE.INTRA.SOLV>
0.514985

>  <SCORE.INTRA.SOLV.lig_0>
-31.1706

>  <SCORE.INTRA.VDW>
-1.14084

>  <SCORE.INTRA.VDW.0>
-1.16895

>  <SCORE.INTRA.norm>
-0.142849

>  <SCORE.RESTR>
0

>  <SCORE.RESTR.CAVITY>
0

>  <SCORE.RESTR.norm>
0

>  <SCORE.SYSTEM>
0

>  <SCORE.SYSTEM.CONST>
0

>  <SCORE.SYSTEM.DIHEDRAL>
0

>  <SCORE.SYSTEM.SOLV>
0

>  <SCORE.SYSTEM.norm>
0

>  <SCORE.heavy>
23

>  <SCORE.norm>
-0.365316

>  <RMSD>
1.113

$$$$
ligand
 OpenBabel11021811513D
libRbt.so/2013.1/901 2013/11/27
 23 24  0  0  0  0  0  0  0  0999 V2000
  -10.3392   -9.9135    0.2947 C   0  0  0  0  0  0  0  0  0  0  0  0
   -9.4237  -10.5155    1.2301 O   0  0  0  0  0  0  0  0  0  0  0  0
   -9.5433   -9.2472   -0.8185 C   0  0  2  0  0  0  0  0  0  0  0  0
   -8.5660  -10.1489   -1.5569 C   0  0  1  0  0  0  0  0  0  0  0  0
   -9.2775  -10.9349   -2.5151 O   0  0  0  0  0  0  0  0  0  0  0  0
   -7.6096   -9.1348   -2.1754 C   0  0  2  0  0  0  0  0  0  0  0  0
   -6.2989   -9.5709   -2.5550 O   0  0  0  0  0  0  0  0  0  0  0  0
   -7.5120   -8.0988   -1.0695 C   0  0  2  0  0  0  0  0  0  0  0  0
   -8.7439   -8.1705   -0.3207 O   0  0  0  0  0  0  0  0  0  0  0  0
   -7.3059   -6.7247   -1.7323 C   0  0  0  0  0  0  0  0  0  0  0  0
   -6.0570   -6.6376   -2.4324 O   0  0  0  0  0  0  0  0  0  0  0  0
   -6.3686   -7.6677    1.0124 C   0  0  2  0  0  0  0  0  0  0  0  0
   -6.4433   -8.4666   -0.1809 O   0  0  0  0  0  0  0  0  0  0  0  0
   -4.9014   -7.3899    1.2819 C   0  0  2  0  0  0  0  0  0  0  0  0
   -4.2807   -6.9292    0.0766 O   0  0  0  0  0  0  0  0  0  0  0  0
   -4.1944   -8.6538    1.7195 C   0  0  1  0  0  0  0  0  0  0  0  0
   -2.8926   -8.3058    2.1967 O   0  0  0  0  0  0  0  0  0  0  0  0
   -4.9810   -9.3562    2.8098 C   0  0  2  0  0  0  0  0  0  0  0  0
   -4.3792  -10.6185    3.0623 O   0  0  0  0  0  0  0  0  0  0  0  0
   -6.4354   -9.5737    2.4142 C   0  0  2  0  0  0  0  0  0  0  0  0
   -6.9953   -8.2989    2.1289 O   0  0  0  0  0  0  0  0  0  0  0  0
   -7.2257  -10.2682    3.5296 C   0  0  0  0  0  0  0  0  0  0  0  0
   -6.7604  -11.5982    3.8024 O   0  0  0  0  0  0  0  0  0  0  0  0
  1  2  1  0  0  0  0
  3  1  1  1  0  0  0
  3  9  1  0  0  0  0
  3  4  1  0  0  0  0
  4  5  1  6  0  0  0
  4  6  1  0  0  0  0
  6  7  1  1  0  0  0
  6  8  1  0  0  0  0
  8  9  1  0  0  0  0
  8 10  1  6  0  0  0
  8 13  1  0  0  0  0
 10 11  1  0  0  0  0
 12 13  1  6  0  0  0
 12 14  1  0  0  0  0
 12 21  1  0  0  0  0
 14 15  1  6  0  0  0
 14 16  1  0  0  0  0
 16 17  1  1  0  0  0
 16 18  1  0  0  0  0
 18 19  1  6  0  0  0
 18 20  1  0  0  0  0
 20 21  1  0  0  0  0
 20 22  1  1  0  0  0
 22 23  1  0  0  0  0
M  END
>  <CHROM.1>
55.65056274,-64.88399190,-139.21272782,-171.72640662,-64.34717113,-6.78763503
-8.98154582,0.44698691,2.40863317,-0.49691669,-1.06146741

>  <Name>
ligand

>  <RI>
0

>  <Rbt.Current_Directory>
/home/itssahil/PROJECTS/Mol_Feturizer/New_Systems/rnas/4TS2

>  <Rbt.Executable>
rbdock ($Id: //depot/dev/client3/rdock/2013.1/src/exe/rbdock.cxx#4 $)

>  <Rbt.Library>
libRbt.so (2013.1, Build901 2013/11/27)

>  <Rbt.Parameter_File>
/export/apps/rDock/src/rDock_2013.1_src/data/scripts/dock_solv.prm

>  <Rbt.Receptor>
prm/pocket_docking_5.prm

>  <SCORE>
-9.25444

>  <SCORE.INTER>
-4.96037

>  <SCORE.INTER.CONST>
1

>  <SCORE.INTER.POLAR>
0

>  <SCORE.INTER.ROT>
5

>  <SCORE.INTER.SOLV>
7.21858

>  <SCORE.INTER.VDW>
-12.6464

>  <SCORE.INTER.norm>
-0.215668

>  <SCORE.INTRA>
-4.29407

>  <SCORE.INTRA.DIHEDRAL>
-6.53043

>  <SCORE.INTRA.DIHEDRAL.0>
12.4853

>  <SCORE.INTRA.POLAR>
0

>  <SCORE.INTRA.POLAR.0>
0

>  <SCORE.INTRA.REPUL>
0

>  <SCORE.INTRA.REPUL.0>
0

>  <SCORE.INTRA.SOLV>
1.37751

>  <SCORE.INTRA.SOLV.lig_0>
-31.1706

>  <SCORE.INTRA.VDW>
-1.7176

>  <SCORE.INTRA.VDW.0>
-1.16895

>  <SCORE.INTRA.norm>
-0.186698

>  <SCORE.RESTR>
0

>  <SCORE.RESTR.CAVITY>
0

>  <SCORE.RESTR.norm>
0

>  <SCORE.SYSTEM>
0

>  <SCORE.SYSTEM.CONST>
0

>  <SCORE.SYSTEM.DIHEDRAL>
0

>  <SCORE.SYSTEM.SOLV>
0

>  <SCORE.SYSTEM.norm>
0

>  <SCORE.heavy>
23

>  <SCORE.norm>
-0.402367

>  <RMSD>
1.118

$$$$
ligand
 OpenBabel11021811513D
libRbt.so/2013.1/901 2013/11/27
 23 24  0  0  0  0  0  0  0  0999 V2000
   -9.2730  -11.1347    0.6743 C   0  0  0  0  0  0  0  0  0  0  0  0
  -10.4285  -10.5756    1.3285 O   0  0  0  0  0  0  0  0  0  0  0  0
   -8.8630  -10.2221   -0.4726 C   0  0  2  0  0  0  0  0  0  0  0  0
   -7.7184  -10.7282   -1.3371 C   0  0  1  0  0  0  0  0  0  0  0  0
   -8.2162  -11.6952   -2.2641 O   0  0  0  0  0  0  0  0  0  0  0  0
   -7.2254   -9.4412   -1.9897 C   0  0  2  0  0  0  0  0  0  0  0  0
   -5.8893   -9.4014   -2.5049 O   0  0  0  0  0  0  0  0  0  0  0  0
   -7.3718   -8.4494   -0.8491 C   0  0  2  0  0  0  0  0  0  0  0  0
   -8.4264   -8.9454    0.0023 O   0  0  0  0  0  0  0  0  0  0  0  0
   -7.7069   -7.0775   -1.4619 C   0  0  0  0  0  0  0  0  0  0  0  0
   -6.6436   -6.5701   -2.2802 O   0  0  0  0  0  0  0  0  0  0  0  0
   -6.2202   -7.6411    1.1126 C   0  0  2  0  0  0  0  0  0  0  0  0
   -6.1585   -8.4456   -0.0778 O   0  0  0  0  0  0  0  0  0  0  0  0
   -4.7937   -7.3198    1.5179 C   0  0  2  0  0  0  0  0  0  0  0  0
   -4.0752   -6.8450    0.3740 O   0  0  0  0  0  0  0  0  0  0  0  0
   -4.0953   -8.5611    2.0279 C   0  0  1  0  0  0  0  0  0  0  0  0
   -2.8551   -8.1738    2.6240 O   0  0  0  0  0  0  0  0  0  0  0  0
   -4.9612   -9.2828    3.0430 C   0  0  2  0  0  0  0  0  0  0  0  0
   -4.3499  -10.5262    3.3588 O   0  0  0  0  0  0  0  0  0  0  0  0
   -6.3646   -9.5438    2.5129 C   0  0  2  0  0  0  0  0  0  0  0  0
   -6.9314   -8.2869    2.1684 O   0  0  0  0  0  0  0  0  0  0  0  0
   -7.2367  -10.2576    3.5526 C   0  0  0  0  0  0  0  0  0  0  0  0
   -6.7921  -11.5923    3.8367 O   0  0  0  0  0  0  0  0  0  0  0  0
  1  2  1  0  0  0  0
  3  1  1  1  0  0  0
  3  9  1  0  0  0  0
  3  4  1  0  0  0  0
  4  5  1  6  0  0  0
  4  6  1  0  0  0  0
  6  7  1  1  0  0  0
  6  8  1  0  0  0  0
  8  9  1  0  0  0  0
  8 10  1  6  0  0  0
  8 13  1  0  0  0  0
 10 11  1  0  0  0  0
 12 13  1  6  0  0  0
 12 14  1  0  0  0  0
 12 21  1  0  0  0  0
 14 15  1  6  0  0  0
 14 16  1  0  0  0  0
 16 17  1  1  0  0  0
 16 18  1  0  0  0  0
 18 19  1  6  0  0  0
 18 20  1  0  0  0  0
 20 21  1  0  0  0  0
 20 22  1  1  0  0  0
 22 23  1  0  0  0  0
M  END
>  <CHROM.1>
-175.41237045,-64.10540934,-159.36524182,-174.15838636,-66.67677886,-6.62565924
-9.16921602,0.64969729,2.51196690,-0.61705074,-1.09912523

>  <Name>
ligand

>  <RI>
0

>  <Rbt.Current_Directory>
/home/itssahil/PROJECTS/Mol_Feturizer/New_Systems/rnas/4TS2

>  <Rbt.Executable>
rbdock ($Id: //depot/dev/client3/rdock/2013.1/src/exe/rbdock.cxx#4 $)

>  <Rbt.Library>
libRbt.so (2013.1, Build901 2013/11/27)

>  <Rbt.Parameter_File>
/export/apps/rDock/src/rDock_2013.1_src/data/scripts/dock_solv.prm

>  <Rbt.Receptor>
prm/pocket_docking_3.prm

>  <SCORE>
-9.18051

>  <SCORE.INTER>
-2.58348

>  <SCORE.INTER.CONST>
1

>  <SCORE.INTER.POLAR>
0

>  <SCORE.INTER.ROT>
5

>  <SCORE.INTER.SOLV>
6.60268

>  <SCORE.INTER.VDW>
-10.8565

>  <SCORE.INTER.norm>
-0.112325

>  <SCORE.INTRA>
-6.59703

>  <SCORE.INTRA.DIHEDRAL>
-10.1744

>  <SCORE.INTRA.DIHEDRAL.0>
12.4853

>  <SCORE.INTRA.POLAR>
0

>  <SCORE.INTRA.POLAR.0>
0

>  <SCORE.INTRA.REPUL>
0

>  <SCORE.INTRA.REPUL.0>
0

>  <SCORE.INTRA.SOLV>
0.435663

>  <SCORE.INTRA.SOLV.lig_0>
-31.1706

>  <SCORE.INTRA.VDW>
-1.72764

>  <SCORE.INTRA.VDW.0>
-1.16895

>  <SCORE.INTRA.norm>
-0.286827

>  <SCORE.RESTR>
0

>  <SCORE.RESTR.CAVITY>
0

>  <SCORE.RESTR.norm>
0

>  <SCORE.SYSTEM>
0

>  <SCORE.SYSTEM.CONST>
0

>  <SCORE.SYSTEM.DIHEDRAL>
0

>  <SCORE.SYSTEM.SOLV>
0

>  <SCORE.SYSTEM.norm>
0

>  <SCORE.heavy>
23

>  <SCORE.norm>
-0.399153

>  <RMSD>
1.121

$$$$
ligand
 OpenBabel11021811513D
libRbt.so/2013.1/901 2013/11/27
 23 24  0  0  0  0  0  0  0  0999 V2000
  -10.7655   -9.5376    0.1012 C   0  0  0  0  0  0  0  0  0  0  0  0
  -11.7953  -10.4895   -0.2291 O   0  0  0  0  0  0  0  0  0  0  0  0
   -9.9663   -9.2169   -1.1537 C   0  0  2  0  0  0  0  0  0  0  0  0
   -9.1627  -10.3711   -1.7329 C   0  0  1  0  0  0  0  0  0  0  0  0
  -10.0301  -11.2227   -2.4844 O   0  0  0  0  0  0  0  0  0  0  0  0
   -8.1276   -9.6387   -2.5800 C   0  0  2  0  0  0  0  0  0  0  0  0
   -6.9111  -10.3170   -2.9150 O   0  0  0  0  0  0  0  0  0  0  0  0
   -7.8260   -8.4310   -1.7103 C   0  0  2  0  0  0  0  0  0  0  0  0
   -9.0050   -8.1849   -0.9148 O   0  0  0  0  0  0  0  0  0  0  0  0
   -7.4905   -7.2539   -2.6440 C   0  0  0  0  0  0  0  0  0  0  0  0
   -7.3215   -6.0213   -1.9302 O   0  0  0  0  0  0  0  0  0  0  0  0
   -6.5713   -7.8166    0.2584 C   0  0  2  0  0  0  0  0  0  0  0  0
   -6.7568   -8.7629   -0.8084 O   0  0  0  0  0  0  0  0  0  0  0  0
   -5.0922   -7.4836    0.3180 C   0  0  2  0  0  0  0  0  0  0  0  0
   -4.6267   -7.1715   -0.9996 O   0  0  0  0  0  0  0  0  0  0  0  0
   -4.3019   -8.6698    0.8253 C   0  0  1  0  0  0  0  0  0  0  0  0
   -2.9655   -8.2430    1.1001 O   0  0  0  0  0  0  0  0  0  0  0  0
   -4.9379   -9.2390    2.0793 C   0  0  2  0  0  0  0  0  0  0  0  0
   -4.2732  -10.4489    2.4163 O   0  0  0  0  0  0  0  0  0  0  0  0
   -6.4205   -9.5281    1.8864 C   0  0  2  0  0  0  0  0  0  0  0  0
   -7.0477   -8.3094    1.5106 O   0  0  0  0  0  0  0  0  0  0  0  0
   -7.0574  -10.0863    3.1645 C   0  0  0  0  0  0  0  0  0  0  0  0
   -6.5326  -11.3685    3.5391 O   0  0  0  0  0  0  0  0  0  0  0  0
  1  2  1  0  0  0  0
  3  1  1  1  0  0  0
  3  9  1  0  0  0  0
  3  4  1  0  0  0  0
  4  5  1  6  0  0  0
  4  6  1  0  0  0  0
  6  7  1  1  0  0  0
  6  8  1  0  0  0  0
  8  9  1  0  0  0  0
  8 10  1  6  0  0  0
  8 13  1  0  0  0  0
 10 11  1  0  0  0  0
 12 13  1  6  0  0  0
 12 14  1  0  0  0  0
 12 21  1  0  0  0  0
 14 15  1  6  0  0  0
 14 16  1  0  0  0  0
 16 17  1  1  0  0  0
 16 18  1  0  0  0  0
 18 19  1  6  0  0  0
 18 20  1  0  0  0  0
 20 21  1  0  0  0  0
 20 22  1  1  0  0  0
 22 23  1  0  0  0  0
M  END
>  <CHROM.1>
-65.66002599,174.03041186,-131.46223687,-167.07671925,-64.87765508,-7.16810880
-9.04671391,-0.12135612,2.72122083,-0.42014717,-1.02645634

>  <Name>
ligand

>  <RI>
0

>  <Rbt.Current_Directory>
/home/itssahil/PROJECTS/Mol_Feturizer/New_Systems/rnas/4TS2

>  <Rbt.Executable>
rbdock ($Id: //depot/dev/client3/rdock/2013.1/src/exe/rbdock.cxx#4 $)

>  <Rbt.Library>
libRbt.so (2013.1, Build901 2013/11/27)

>  <Rbt.Parameter_File>
/export/apps/rDock/src/rDock_2013.1_src/data/scripts/dock_solv.prm

>  <Rbt.Receptor>
prm/pocket_docking_4.prm

>  <SCORE>
-8.38838

>  <SCORE.INTER>
-4.86606

>  <SCORE.INTER.CONST>
1

>  <SCORE.INTER.POLAR>
0

>  <SCORE.INTER.ROT>
5

>  <SCORE.INTER.SOLV>
7.44543

>  <SCORE.INTER.VDW>
-12.6592

>  <SCORE.INTER.norm>
-0.211568

>  <SCORE.INTRA>
-3.52232

>  <SCORE.INTRA.DIHEDRAL>
-4.9983

>  <SCORE.INTRA.DIHEDRAL.0>
12.4853

>  <SCORE.INTRA.POLAR>
0

>  <SCORE.INTRA.POLAR.0>
0

>  <SCORE.INTRA.REPUL>
0

>  <SCORE.INTRA.REPUL.0>
0

>  <SCORE.INTRA.SOLV>
0.503244

>  <SCORE.INTRA.SOLV.lig_0>
-31.1706

>  <SCORE.INTRA.VDW>
-1.2748

>  <SCORE.INTRA.VDW.0>
-1.16895

>  <SCORE.INTRA.norm>
-0.153144

>  <SCORE.RESTR>
0

>  <SCORE.RESTR.CAVITY>
0

>  <SCORE.RESTR.norm>
0

>  <SCORE.SYSTEM>
0

>  <SCORE.SYSTEM.CONST>
0

>  <SCORE.SYSTEM.DIHEDRAL>
0

>  <SCORE.SYSTEM.SOLV>
0

>  <SCORE.SYSTEM.norm>
0

>  <SCORE.heavy>
23

>  <SCORE.norm>
-0.364712

>  <RMSD>
1.125

$$$$
ligand
 OpenBabel11021811513D
libRbt.so/2013.1/901 2013/11/27
 23 24  0  0  0  0  0  0  0  0999 V2000
  -10.8798   -9.4982    0.1065 C   0  0  0  0  0  0  0  0  0  0  0  0
  -11.8835  -10.4793   -0.2185 O   0  0  0  0  0  0  0  0  0  0  0  0
  -10.0385   -9.2213   -1.1312 C   0  0  2  0  0  0  0  0  0  0  0  0
   -9.2421  -10.4037   -1.6615 C   0  0  1  0  0  0  0  0  0  0  0  0
  -10.1047  -11.2546   -2.4193 O   0  0  0  0  0  0  0  0  0  0  0  0
   -8.1685   -9.7108   -2.4937 C   0  0  2  0  0  0  0  0  0  0  0  0
   -6.9568  -10.4202   -2.7782 O   0  0  0  0  0  0  0  0  0  0  0  0
   -7.8677   -8.4901   -1.6420 C   0  0  2  0  0  0  0  0  0  0  0  0
   -9.0638   -8.2033   -0.8868 O   0  0  0  0  0  0  0  0  0  0  0  0
   -7.4816   -7.3410   -2.5909 C   0  0  0  0  0  0  0  0  0  0  0  0
   -7.3121   -6.0954   -1.8999 O   0  0  0  0  0  0  0  0  0  0  0  0
   -6.6037   -7.8193    0.3022 C   0  0  2  0  0  0  0  0  0  0  0  0
   -6.8318   -8.8228   -0.7023 O   0  0  0  0  0  0  0  0  0  0  0  0
   -5.1232   -7.4874    0.2847 C   0  0  2  0  0  0  0  0  0  0  0  0
   -4.7102   -7.2500   -1.0656 O   0  0  0  0  0  0  0  0  0  0  0  0
   -4.3140   -8.6457    0.8254 C   0  0  1  0  0  0  0  0  0  0  0  0
   -2.9675   -8.2080    1.0229 O   0  0  0  0  0  0  0  0  0  0  0  0
   -4.9000   -9.1429    2.1332 C   0  0  2  0  0  0  0  0  0  0  0  0
   -4.2230  -10.3340    2.5102 O   0  0  0  0  0  0  0  0  0  0  0  0
   -6.3892   -9.4383    2.0154 C   0  0  2  0  0  0  0  0  0  0  0  0
   -7.0302   -8.2407    1.5976 O   0  0  0  0  0  0  0  0  0  0  0  0
   -6.9752   -9.9232    3.3467 C   0  0  0  0  0  0  0  0  0  0  0  0
   -6.4867  -11.2148    3.7375 O   0  0  0  0  0  0  0  0  0  0  0  0
  1  2  1  0  0  0  0
  3  1  1  1  0  0  0
  3  9  1  0  0  0  0
  3  4  1  0  0  0  0
  4  5  1  6  0  0  0
  4  6  1  0  0  0  0
  6  7  1  1  0  0  0
  6  8  1  0  0  0  0
  8  9  1  0  0  0  0
  8 10  1  6  0  0  0
  8 13  1  0  0  0  0
 10 11  1  0  0  0  0
 12 13  1  6  0  0  0
 12 14  1  0  0  0  0
 12 21  1  0  0  0  0
 14 15  1  6  0  0  0
 14 16  1  0  0  0  0
 16 17  1  1  0  0  0
 16 18  1  0  0  0  0
 18 19  1  6  0  0  0
 18 20  1  0  0  0  0
 20 21  1  0  0  0  0
 20 22  1  1  0  0  0
 22 23  1  0  0  0  0
M  END
>  <CHROM.1>
-63.25965439,173.85784702,-126.86972432,-170.59738912,-67.81438765,-7.19292031
-9.03952836,-0.06489733,2.71395095,-0.41065568,-1.06895353

>  <Name>
ligand

>  <RI>
0

>  <Rbt.Current_Directory>
/home/itssahil/PROJECTS/Mol_Feturizer/New_Systems/rnas/4TS2

>  <Rbt.Executable>
rbdock ($Id: //depot/dev/client3/rdock/2013.1/src/exe/rbdock.cxx#4 $)

>  <Rbt.Library>
libRbt.so (2013.1, Build901 2013/11/27)

>  <Rbt.Parameter_File>
/export/apps/rDock/src/rDock_2013.1_src/data/scripts/dock_solv.prm

>  <Rbt.Receptor>
prm/pocket_docking_5.prm

>  <SCORE>
-8.32674

>  <SCORE.INTER>
-5.01694

>  <SCORE.INTER.CONST>
1

>  <SCORE.INTER.POLAR>
0

>  <SCORE.INTER.ROT>
5

>  <SCORE.INTER.SOLV>
7.30037

>  <SCORE.INTER.VDW>
-12.7114

>  <SCORE.INTER.norm>
-0.218128

>  <SCORE.INTRA>
-3.3098

>  <SCORE.INTRA.DIHEDRAL>
-4.861

>  <SCORE.INTRA.DIHEDRAL.0>
12.4853

>  <SCORE.INTRA.POLAR>
0

>  <SCORE.INTRA.POLAR.0>
0

>  <SCORE.INTRA.REPUL>
0

>  <SCORE.INTRA.REPUL.0>
0

>  <SCORE.INTRA.SOLV>
0.515526

>  <SCORE.INTRA.SOLV.lig_0>
-31.1706

>  <SCORE.INTRA.VDW>
-1.13706

>  <SCORE.INTRA.VDW.0>
-1.16895

>  <SCORE.INTRA.norm>
-0.143904

>  <SCORE.RESTR>
0

>  <SCORE.RESTR.CAVITY>
0

>  <SCORE.RESTR.norm>
0

>  <SCORE.SYSTEM>
0

>  <SCORE.SYSTEM.CONST>
0

>  <SCORE.SYSTEM.DIHEDRAL>
0

>  <SCORE.SYSTEM.SOLV>
0

>  <SCORE.SYSTEM.norm>
0

>  <SCORE.heavy>
23

>  <SCORE.norm>
-0.362032

>  <RMSD>
1.137

$$$$
ligand
 OpenBabel11021811513D
libRbt.so/2013.1/901 2013/11/27
 23 24  0  0  0  0  0  0  0  0999 V2000
  -10.6958   -9.5652    0.1032 C   0  0  0  0  0  0  0  0  0  0  0  0
  -11.6528  -10.5992   -0.1976 O   0  0  0  0  0  0  0  0  0  0  0  0
   -9.9229   -9.2221   -1.1622 C   0  0  2  0  0  0  0  0  0  0  0  0
   -9.1082  -10.3578   -1.7620 C   0  0  1  0  0  0  0  0  0  0  0  0
   -9.9723  -11.2200   -2.5051 O   0  0  0  0  0  0  0  0  0  0  0  0
   -8.1003   -9.6013   -2.6207 C   0  0  2  0  0  0  0  0  0  0  0  0
   -6.8774  -10.2554   -2.9798 O   0  0  0  0  0  0  0  0  0  0  0  0
   -7.8065   -8.3940   -1.7479 C   0  0  2  0  0  0  0  0  0  0  0  0
   -8.9766   -8.1744   -0.9318 O   0  0  0  0  0  0  0  0  0  0  0  0
   -7.5073   -7.2051   -2.6789 C   0  0  0  0  0  0  0  0  0  0  0  0
   -7.3041   -5.9828   -1.9562 O   0  0  0  0  0  0  0  0  0  0  0  0
   -6.5396   -7.7770    0.2123 C   0  0  2  0  0  0  0  0  0  0  0  0
   -6.7170   -8.7124   -0.8655 O   0  0  0  0  0  0  0  0  0  0  0  0
   -5.0583   -7.4598    0.2992 C   0  0  2  0  0  0  0  0  0  0  0  0
   -4.5679   -7.1415   -1.0078 O   0  0  0  0  0  0  0  0  0  0  0  0
   -4.2888   -8.6583    0.8094 C   0  0  1  0  0  0  0  0  0  0  0  0
   -2.9529   -8.2477    1.1099 O   0  0  0  0  0  0  0  0  0  0  0  0
   -4.9513   -9.2314    2.0477 C   0  0  2  0  0  0  0  0  0  0  0  0
   -4.3047  -10.4509    2.3854 O   0  0  0  0  0  0  0  0  0  0  0  0
   -6.4334   -9.5035    1.8278 C   0  0  2  0  0  0  0  0  0  0  0  0
   -7.0418   -8.2753    1.4521 O   0  0  0  0  0  0  0  0  0  0  0  0
   -7.0972  -10.0659    3.0904 C   0  0  0  0  0  0  0  0  0  0  0  0
   -6.6107  -11.3679    3.4476 O   0  0  0  0  0  0  0  0  0  0  0  0
  1  2  1  0  0  0  0
  3  1  1  1  0  0  0
  3  9  1  0  0  0  0
  3  4  1  0  0  0  0
  4  5  1  6  0  0  0
  4  6  1  0  0  0  0
  6  7  1  1  0  0  0
  6  8  1  0  0  0  0
  8  9  1  0  0  0  0
  8 10  1  6  0  0  0
  8 13  1  0  0  0  0
 10 11  1  0  0  0  0
 12 13  1  6  0  0  0
 12 14  1  0  0  0  0
 12 21  1  0  0  0  0
 14 15  1  6  0  0  0
 14 16  1  0  0  0  0
 16 17  1  1  0  0  0
 16 18  1  0  0  0  0
 18 19  1  6  0  0  0
 18 20  1  0  0  0  0
 20 21  1  0  0  0  0
 20 22  1  1  0  0  0
 22 23  1  0  0  0  0
M  END
>  <CHROM.1>
-61.80731865,176.00433038,-134.12829512,-166.48506484,-66.03830043,-7.14618601
-9.03232303,-0.15284613,2.73089530,-0.43108069,-1.02045357

>  <Name>
ligand

>  <RI>
0

>  <Rbt.Current_Directory>
/home/itssahil/PROJECTS/Mol_Feturizer/New_Systems/rnas/4TS2

>  <Rbt.Executable>
rbdock ($Id: //depot/dev/client3/rdock/2013.1/src/exe/rbdock.cxx#4 $)

>  <Rbt.Library>
libRbt.so (2013.1, Build901 2013/11/27)

>  <Rbt.Parameter_File>
/export/apps/rDock/src/rDock_2013.1_src/data/scripts/dock_solv.prm

>  <Rbt.Receptor>
prm/pocket_docking_3.prm

>  <SCORE>
-8.29057

>  <SCORE.INTER>
-4.58098

>  <SCORE.INTER.CONST>
1

>  <SCORE.INTER.POLAR>
0

>  <SCORE.INTER.ROT>
5

>  <SCORE.INTER.SOLV>
7.57532

>  <SCORE.INTER.VDW>
-12.5124

>  <SCORE.INTER.norm>
-0.199173

>  <SCORE.INTRA>
-3.70958

>  <SCORE.INTRA.DIHEDRAL>
-5.35562

>  <SCORE.INTRA.DIHEDRAL.0>
12.4853

>  <SCORE.INTRA.POLAR>
0

>  <SCORE.INTRA.POLAR.0>
0

>  <SCORE.INTRA.REPUL>
0

>  <SCORE.INTRA.REPUL.0>
0

>  <SCORE.INTRA.SOLV>
0.521684

>  <SCORE.INTRA.SOLV.lig_0>
-31.1706

>  <SCORE.INTRA.VDW>
-1.29261

>  <SCORE.INTRA.VDW.0>
-1.16895

>  <SCORE.INTRA.norm>
-0.161286

>  <SCORE.RESTR>
0

>  <SCORE.RESTR.CAVITY>
0

>  <SCORE.RESTR.norm>
0

>  <SCORE.SYSTEM>
0

>  <SCORE.SYSTEM.CONST>
0

>  <SCORE.SYSTEM.DIHEDRAL>
0

>  <SCORE.SYSTEM.SOLV>
0

>  <SCORE.SYSTEM.norm>
0

>  <SCORE.heavy>
23

>  <SCORE.norm>
-0.360459

>  <RMSD>
1.141

$$$$
ligand
 OpenBabel11021811513D
libRbt.so/2013.1/901 2013/11/27
 23 24  0  0  0  0  0  0  0  0999 V2000
  -10.7260   -9.5613    0.0833 C   0  0  0  0  0  0  0  0  0  0  0  0
  -11.7197  -10.5515   -0.2446 O   0  0  0  0  0  0  0  0  0  0  0  0
   -9.9254   -9.2295   -1.1679 C   0  0  2  0  0  0  0  0  0  0  0  0
   -9.1094  -10.3746   -1.7478 C   0  0  1  0  0  0  0  0  0  0  0  0
   -9.9664  -11.2317   -2.5048 O   0  0  0  0  0  0  0  0  0  0  0  0
   -8.0781   -9.6301   -2.5892 C   0  0  2  0  0  0  0  0  0  0  0  0
   -6.8544  -10.2963   -2.9220 O   0  0  0  0  0  0  0  0  0  0  0  0
   -7.7906   -8.4223   -1.7148 C   0  0  2  0  0  0  0  0  0  0  0  0
   -8.9744   -8.1895   -0.9226 O   0  0  0  0  0  0  0  0  0  0  0  0
   -7.4627   -7.2395   -2.6438 C   0  0  0  0  0  0  0  0  0  0  0  0
   -7.2689   -6.0152   -1.9220 O   0  0  0  0  0  0  0  0  0  0  0  0
   -6.6613   -7.9079    0.3558 C   0  0  2  0  0  0  0  0  0  0  0  0
   -6.7214   -8.7473   -0.8103 O   0  0  0  0  0  0  0  0  0  0  0  0
   -5.2106   -7.5096    0.5544 C   0  0  2  0  0  0  0  0  0  0  0  0
   -4.6770   -7.0407   -0.6888 O   0  0  0  0  0  0  0  0  0  0  0  0
   -4.3899   -8.7010    0.9970 C   0  0  1  0  0  0  0  0  0  0  0  0
   -3.1011   -8.2390    1.4081 O   0  0  0  0  0  0  0  0  0  0  0  0
   -5.0745   -9.4273    2.1392 C   0  0  2  0  0  0  0  0  0  0  0  0
   -4.3662  -10.6310    2.4013 O   0  0  0  0  0  0  0  0  0  0  0  0
   -6.5222   -9.7683    1.8124 C   0  0  2  0  0  0  0  0  0  0  0  0
   -7.1911   -8.5500    1.5153 O   0  0  0  0  0  0  0  0  0  0  0  0
   -7.2101  -10.4862    2.9796 C   0  0  0  0  0  0  0  0  0  0  0  0
   -8.5171  -10.9757    2.6454 O   0  0  0  0  0  0  0  0  0  0  0  0
  1  2  1  0  0  0  0
  3  1  1  1  0  0  0
  3  9  1  0  0  0  0
  3  4  1  0  0  0  0
  4  5  1  6  0  0  0
  4  6  1  0  0  0  0
  6  7  1  1  0  0  0
  6  8  1  0  0  0  0
  8  9  1  0  0  0  0
  8 10  1  6  0  0  0
  8 13  1  0  0  0  0
 10 11  1  0  0  0  0
 12 13  1  6  0  0  0
 12 14  1  0  0  0  0
 12 21  1  0  0  0  0
 14 15  1  6  0  0  0
 14 16  1  0  0  0  0
 16 17  1  1  0  0  0
 16 18  1  0  0  0  0
 18 19  1  6  0  0  0
 18 20  1  0  0  0  0
 20 21  1  0  0  0  0
 20 22  1  1  0  0  0
 22 23  1  0  0  0  0
M  END
>  <CHROM.1>
-63.94428860,175.72939177,-134.62027582,-159.13079195,-172.39817477,-7.28580218
-9.08290472,-0.12812859,2.80903841,-0.43545868,-1.04056266

>  <Name>
ligand

>  <RI>
0

>  <Rbt.Current_Directory>
/home/itssahil/PROJECTS/Mol_Feturizer/New_Systems/rnas/4TS2

>  <Rbt.Executable>
rbdock ($Id: //depot/dev/client3/rdock/2013.1/src/exe/rbdock.cxx#4 $)

>  <Rbt.Library>
libRbt.so (2013.1, Build901 2013/11/27)

>  <Rbt.Parameter_File>
/export/apps/rDock/src/rDock_2013.1_src/data/scripts/dock_solv.prm

>  <Rbt.Receptor>
prm/pocket_docking_3.prm

>  <SCORE>
-8.09529

>  <SCORE.INTER>
-4.48635

>  <SCORE.INTER.CONST>
1

>  <SCORE.INTER.POLAR>
0

>  <SCORE.INTER.ROT>
5

>  <SCORE.INTER.SOLV>
7.72804

>  <SCORE.INTER.VDW>
-12.5002

>  <SCORE.INTER.norm>
-0.195059

>  <SCORE.INTRA>
-3.60894

>  <SCORE.INTRA.DIHEDRAL>
-4.29153

>  <SCORE.INTRA.DIHEDRAL.0>
12.4853

>  <SCORE.INTRA.POLAR>
0

>  <SCORE.INTRA.POLAR.0>
0

>  <SCORE.INTRA.REPUL>
0

>  <SCORE.INTRA.REPUL.0>
0

>  <SCORE.INTRA.SOLV>
0.365885

>  <SCORE.INTRA.SOLV.lig_0>
-31.1706

>  <SCORE.INTRA.VDW>
-1.64611

>  <SCORE.INTRA.VDW.0>
-1.16895

>  <SCORE.INTRA.norm>
-0.15691

>  <SCORE.RESTR>
0

>  <SCORE.RESTR.CAVITY>
0

>  <SCORE.RESTR.norm>
0

>  <SCORE.SYSTEM>
0

>  <SCORE.SYSTEM.CONST>
0

>  <SCORE.SYSTEM.DIHEDRAL>
0

>  <SCORE.SYSTEM.SOLV>
0

>  <SCORE.SYSTEM.norm>
0

>  <SCORE.heavy>
23

>  <SCORE.norm>
-0.351969

>  <RMSD>
1.156

$$$$
ligand
 OpenBabel11021811513D
libRbt.so/2013.1/901 2013/11/27
 23 24  0  0  0  0  0  0  0  0999 V2000
  -10.7396   -9.5781    0.1173 C   0  0  0  0  0  0  0  0  0  0  0  0
  -11.7172  -10.5924   -0.1845 O   0  0  0  0  0  0  0  0  0  0  0  0
   -9.9696   -9.2390   -1.1509 C   0  0  2  0  0  0  0  0  0  0  0  0
   -9.1590  -10.3776   -1.7509 C   0  0  1  0  0  0  0  0  0  0  0  0
  -10.0270  -11.2394   -2.4899 O   0  0  0  0  0  0  0  0  0  0  0  0
   -8.1521   -9.6248   -2.6140 C   0  0  2  0  0  0  0  0  0  0  0  0
   -6.9315  -10.2821   -2.9753 O   0  0  0  0  0  0  0  0  0  0  0  0
   -7.8532   -8.4164   -1.7444 C   0  0  2  0  0  0  0  0  0  0  0  0
   -9.0205   -8.1929   -0.9254 O   0  0  0  0  0  0  0  0  0  0  0  0
   -7.5543   -7.2299   -2.6785 C   0  0  0  0  0  0  0  0  0  0  0  0
   -7.3171   -6.0129   -1.9573 O   0  0  0  0  0  0  0  0  0  0  0  0
   -6.6959   -7.9134    0.3136 C   0  0  2  0  0  0  0  0  0  0  0  0
   -6.7618   -8.7353   -0.8646 O   0  0  0  0  0  0  0  0  0  0  0  0
   -5.2407   -7.5396    0.5258 C   0  0  2  0  0  0  0  0  0  0  0  0
   -4.6931   -7.0613   -0.7077 O   0  0  0  0  0  0  0  0  0  0  0  0
   -4.4402   -8.7492    0.9559 C   0  0  1  0  0  0  0  0  0  0  0  0
   -3.1470   -8.3123    1.3807 O   0  0  0  0  0  0  0  0  0  0  0  0
   -5.1420   -9.4812    2.0840 C   0  0  2  0  0  0  0  0  0  0  0  0
   -4.4531  -10.6989    2.3329 O   0  0  0  0  0  0  0  0  0  0  0  0
   -6.5927   -9.7960    1.7444 C   0  0  2  0  0  0  0  0  0  0  0  0
   -7.2418   -8.5639    1.4610 O   0  0  0  0  0  0  0  0  0  0  0  0
   -7.2978  -10.5200    2.8976 C   0  0  0  0  0  0  0  0  0  0  0  0
   -8.5893  -11.0293    2.5342 O   0  0  0  0  0  0  0  0  0  0  0  0
  1  2  1  0  0  0  0
  3  1  1  1  0  0  0
  3  9  1  0  0  0  0
  3  4  1  0  0  0  0
  4  5  1  6  0  0  0
  4  6  1  0  0  0  0
  6  7  1  1  0  0  0
  6  8  1  0  0  0  0
  8  9  1  0  0  0  0
  8 10  1  6  0  0  0
  8 13  1  0  0  0  0
 10 11  1  0  0  0  0
 12 13  1  6  0  0  0
 12 14  1  0  0  0  0
 12 21  1  0  0  0  0
 14 15  1  6  0  0  0
 14 16  1  0  0  0  0
 16 17  1  1  0  0  0
 16 18  1  0  0  0  0
 18 19  1  6  0  0  0
 18 20  1  0  0  0  0
 20 21  1  0  0  0  0
 20 22  1  1  0  0  0
 22 23  1  0  0  0  0
M  END
>  <CHROM.1>
-62.90212328,177.30529179,-136.97864931,-158.03465991,-170.19254117,-7.33847961
-9.10323604,-0.15905728,2.82755197,-0.43159423,-1.02590759

>  <Name>
ligand

>  <RI>
0

>  <Rbt.Current_Directory>
/home/itssahil/PROJECTS/Mol_Feturizer/New_Systems/rnas/4TS2

>  <Rbt.Executable>
rbdock ($Id: //depot/dev/client3/rdock/2013.1/src/exe/rbdock.cxx#4 $)

>  <Rbt.Library>
libRbt.so (2013.1, Build901 2013/11/27)

>  <Rbt.Parameter_File>
/export/apps/rDock/src/rDock_2013.1_src/data/scripts/dock_solv.prm

>  <Rbt.Receptor>
prm/pocket_docking_5.prm

>  <SCORE>
-8.07212

>  <SCORE.INTER>
-4.43905

>  <SCORE.INTER.CONST>
1

>  <SCORE.INTER.POLAR>
0

>  <SCORE.INTER.ROT>
5

>  <SCORE.INTER.SOLV>
7.77807

>  <SCORE.INTER.VDW>
-12.4854

>  <SCORE.INTER.norm>
-0.193002

>  <SCORE.INTRA>
-3.63307

>  <SCORE.INTRA.DIHEDRAL>
-4.35729

>  <SCORE.INTRA.DIHEDRAL.0>
12.4853

>  <SCORE.INTRA.POLAR>
0

>  <SCORE.INTRA.POLAR.0>
0

>  <SCORE.INTRA.REPUL>
0

>  <SCORE.INTRA.REPUL.0>
0

>  <SCORE.INTRA.SOLV>
0.442212

>  <SCORE.INTRA.SOLV.lig_0>
-31.1706

>  <SCORE.INTRA.VDW>
-1.67553

>  <SCORE.INTRA.VDW.0>
-1.16895

>  <SCORE.INTRA.norm>
-0.157959

>  <SCORE.RESTR>
0

>  <SCORE.RESTR.CAVITY>
0

>  <SCORE.RESTR.norm>
0

>  <SCORE.SYSTEM>
0

>  <SCORE.SYSTEM.CONST>
0

>  <SCORE.SYSTEM.DIHEDRAL>
0

>  <SCORE.SYSTEM.SOLV>
0

>  <SCORE.SYSTEM.norm>
0

>  <SCORE.heavy>
23

>  <SCORE.norm>
-0.350962

>  <RMSD>
1.180

$$$$
ligand
 OpenBabel11021811513D
libRbt.so/2013.1/901 2013/11/27
 23 24  0  0  0  0  0  0  0  0999 V2000
   -9.2055  -10.9189   -0.3758 C   0  0  0  0  0  0  0  0  0  0  0  0
  -10.4064  -10.2864    0.1073 O   0  0  0  0  0  0  0  0  0  0  0  0
   -8.5336  -10.0001   -1.3861 C   0  0  2  0  0  0  0  0  0  0  0  0
   -7.2554  -10.5362   -2.0124 C   0  0  1  0  0  0  0  0  0  0  0  0
   -7.5875  -11.4603   -3.0506 O   0  0  0  0  0  0  0  0  0  0  0  0
   -6.5902   -9.2576   -2.5108 C   0  0  2  0  0  0  0  0  0  0  0  0
   -5.1760   -9.2644   -2.7396 O   0  0  0  0  0  0  0  0  0  0  0  0
   -6.9309   -8.2856   -1.3950 C   0  0  2  0  0  0  0  0  0  0  0  0
   -8.1565   -8.7541   -0.7934 O   0  0  0  0  0  0  0  0  0  0  0  0
   -7.0804   -6.8875   -2.0217 C   0  0  0  0  0  0  0  0  0  0  0  0
   -8.0724   -6.8562   -3.0573 O   0  0  0  0  0  0  0  0  0  0  0  0
   -6.2475   -7.7051    0.8464 C   0  0  2  0  0  0  0  0  0  0  0  0
   -5.9035   -8.3511   -0.3915 O   0  0  0  0  0  0  0  0  0  0  0  0
   -4.9507   -7.3656    1.5572 C   0  0  2  0  0  0  0  0  0  0  0  0
   -4.0659   -6.7167    0.6373 O   0  0  0  0  0  0  0  0  0  0  0  0
   -4.2721   -8.6242    2.0515 C   0  0  1  0  0  0  0  0  0  0  0  0
   -3.1985   -8.2523    2.9191 O   0  0  0  0  0  0  0  0  0  0  0  0
   -5.2588   -9.5090    2.7893 C   0  0  2  0  0  0  0  0  0  0  0  0
   -4.6287  -10.7498    3.0771 O   0  0  0  0  0  0  0  0  0  0  0  0
   -6.5140   -9.7721    1.9683 C   0  0  2  0  0  0  0  0  0  0  0  0
   -7.0961   -8.5121    1.6627 O   0  0  0  0  0  0  0  0  0  0  0  0
   -7.5120  -10.6526    2.7297 C   0  0  0  0  0  0  0  0  0  0  0  0
   -7.0451  -11.9966    2.9172 O   0  0  0  0  0  0  0  0  0  0  0  0
  1  2  1  0  0  0  0
  3  1  1  1  0  0  0
  3  9  1  0  0  0  0
  3  4  1  0  0  0  0
  4  5  1  6  0  0  0
  4  6  1  0  0  0  0
  6  7  1  1  0  0  0
  6  8  1  0  0  0  0
  8  9  1  0  0  0  0
  8 10  1  6  0  0  0
  8 13  1  0  0  0  0
 10 11  1  0  0  0  0
 12 13  1  6  0  0  0
 12 14  1  0  0  0  0
 12 21  1  0  0  0  0
 14 15  1  6  0  0  0
 14 16  1  0  0  0  0
 16 17  1  1  0  0  0
 16 18  1  0  0  0  0
 18 19  1  6  0  0  0
 18 20  1  0  0  0  0
 20 21  1  0  0  0  0
 20 22  1  1  0  0  0
 22 23  1  0  0  0  0
M  END
>  <CHROM.1>
-179.00697189,57.20158628,-157.63478623,-167.03918737,-67.99697798,-6.59542119
-9.17085718,0.15415472,2.35061186,-0.68343050,-1.04618207

>  <Name>
ligand

>  <RI>
0

>  <Rbt.Current_Directory>
/home/itssahil/PROJECTS/Mol_Feturizer/New_Systems/rnas/4TS2

>  <Rbt.Executable>
rbdock ($Id: //depot/dev/client3/rdock/2013.1/src/exe/rbdock.cxx#4 $)

>  <Rbt.Library>
libRbt.so (2013.1, Build901 2013/11/27)

>  <Rbt.Parameter_File>
/export/apps/rDock/src/rDock_2013.1_src/data/scripts/dock_solv.prm

>  <Rbt.Receptor>
prm/pocket_docking_5.prm

>  <SCORE>
-8.90075

>  <SCORE.INTER>
-2.72374

>  <SCORE.INTER.CONST>
1

>  <SCORE.INTER.POLAR>
0

>  <SCORE.INTER.ROT>
5

>  <SCORE.INTER.SOLV>
6.79769

>  <SCORE.INTER.VDW>
-11.0151

>  <SCORE.INTER.norm>
-0.118423

>  <SCORE.INTRA>
-6.17701

>  <SCORE.INTRA.DIHEDRAL>
-9.37322

>  <SCORE.INTRA.DIHEDRAL.0>
12.4853

>  <SCORE.INTRA.POLAR>
0

>  <SCORE.INTRA.POLAR.0>
0

>  <SCORE.INTRA.REPUL>
0

>  <SCORE.INTRA.REPUL.0>
0

>  <SCORE.INTRA.SOLV>
0.252587

>  <SCORE.INTRA.SOLV.lig_0>
-31.1706

>  <SCORE.INTRA.VDW>
-1.6167

>  <SCORE.INTRA.VDW.0>
-1.16895

>  <SCORE.INTRA.norm>
-0.268566

>  <SCORE.RESTR>
0

>  <SCORE.RESTR.CAVITY>
0

>  <SCORE.RESTR.norm>
0

>  <SCORE.SYSTEM>
0

>  <SCORE.SYSTEM.CONST>
0

>  <SCORE.SYSTEM.DIHEDRAL>
0

>  <SCORE.SYSTEM.SOLV>
0

>  <SCORE.SYSTEM.norm>
0

>  <SCORE.heavy>
23

>  <SCORE.norm>
-0.386989

>  <RMSD>
1.183

$$$$
ligand
 OpenBabel11021811513D
libRbt.so/2013.1/901 2013/11/27
 23 24  0  0  0  0  0  0  0  0999 V2000
  -11.0960  -10.1300   -0.1047 C   0  0  0  0  0  0  0  0  0  0  0  0
  -11.8835   -8.9438    0.1149 O   0  0  0  0  0  0  0  0  0  0  0  0
  -10.2681   -9.9481   -1.3688 C   0  0  2  0  0  0  0  0  0  0  0  0
   -9.4232  -11.1448   -1.7780 C   0  0  1  0  0  0  0  0  0  0  0  0
  -10.2499  -12.1049   -2.4390 O   0  0  0  0  0  0  0  0  0  0  0  0
   -8.3804  -10.4977   -2.6831 C   0  0  2  0  0  0  0  0  0  0  0  0
   -7.1403  -11.1816   -2.8989 O   0  0  0  0  0  0  0  0  0  0  0  0
   -8.1304   -9.1838   -1.9640 C   0  0  2  0  0  0  0  0  0  0  0  0
   -9.3368   -8.8704   -1.2363 O   0  0  0  0  0  0  0  0  0  0  0  0
   -7.7939   -8.1243   -3.0288 C   0  0  0  0  0  0  0  0  0  0  0  0
   -7.7509   -6.7976   -2.4850 O   0  0  0  0  0  0  0  0  0  0  0  0
   -7.1022   -8.4328    0.0869 C   0  0  2  0  0  0  0  0  0  0  0  0
   -7.0806   -9.3738   -1.0003 O   0  0  0  0  0  0  0  0  0  0  0  0
   -5.7089   -7.8436    0.2054 C   0  0  2  0  0  0  0  0  0  0  0  0
   -5.2632   -7.4255   -1.0895 O   0  0  0  0  0  0  0  0  0  0  0  0
   -4.7371   -8.8812    0.7229 C   0  0  1  0  0  0  0  0  0  0  0  0
   -3.5080   -8.2299    1.0526 O   0  0  0  0  0  0  0  0  0  0  0  0
   -5.3025   -9.5812    1.9441 C   0  0  2  0  0  0  0  0  0  0  0  0
   -4.4443  -10.6608    2.2865 O   0  0  0  0  0  0  0  0  0  0  0  0
   -6.7026  -10.1249    1.6929 C   0  0  2  0  0  0  0  0  0  0  0  0
   -7.5242   -9.0292    1.3132 O   0  0  0  0  0  0  0  0  0  0  0  0
   -7.2717  -10.8148    2.9383 C   0  0  0  0  0  0  0  0  0  0  0  0
   -7.4327   -9.9217    4.0502 O   0  0  0  0  0  0  0  0  0  0  0  0
  1  2  1  0  0  0  0
  3  1  1  1  0  0  0
  3  9  1  0  0  0  0
  3  4  1  0  0  0  0
  4  5  1  6  0  0  0
  4  6  1  0  0  0  0
  6  7  1  1  0  0  0
  6  8  1  0  0  0  0
  8  9  1  0  0  0  0
  8 10  1  6  0  0  0
  8 13  1  0  0  0  0
 10 11  1  0  0  0  0
 12 13  1  6  0  0  0
 12 14  1  0  0  0  0
 12 21  1  0  0  0  0
 14 15  1  6  0  0  0
 14 16  1  0  0  0  0
 16 17  1  1  0  0  0
 16 18  1  0  0  0  0
 18 19  1  6  0  0  0
 18 20  1  0  0  0  0
 20 21  1  0  0  0  0
 20 22  1  1  0  0  0
 22 23  1  0  0  0  0
M  END
>  <CHROM.1>
-177.30875523,170.54861273,-129.09816760,-156.10585306,62.84128658,-7.54142280
-9.43635122,-0.23625903,2.57456922,-0.37401040,-1.26684520

>  <Name>
ligand

>  <RI>
0

>  <Rbt.Current_Directory>
/home/itssahil/PROJECTS/Mol_Feturizer/New_Systems/rnas/4TS2

>  <Rbt.Executable>
rbdock ($Id: //depot/dev/client3/rdock/2013.1/src/exe/rbdock.cxx#4 $)

>  <Rbt.Library>
libRbt.so (2013.1, Build901 2013/11/27)

>  <Rbt.Parameter_File>
/export/apps/rDock/src/rDock_2013.1_src/data/scripts/dock_solv.prm

>  <Rbt.Receptor>
prm/pocket_docking_2.prm

>  <SCORE>
-5.49689

>  <SCORE.INTER>
-2.67057

>  <SCORE.INTER.CONST>
1

>  <SCORE.INTER.POLAR>
0

>  <SCORE.INTER.ROT>
5

>  <SCORE.INTER.SOLV>
7.28715

>  <SCORE.INTER.VDW>
-11.1428

>  <SCORE.INTER.norm>
-0.116112

>  <SCORE.INTRA>
-2.83021

>  <SCORE.INTRA.DIHEDRAL>
-3.1923

>  <SCORE.INTRA.DIHEDRAL.0>
12.4853

>  <SCORE.INTRA.POLAR>
0

>  <SCORE.INTRA.POLAR.0>
0

>  <SCORE.INTRA.REPUL>
0

>  <SCORE.INTRA.REPUL.0>
0

>  <SCORE.INTRA.SOLV>
0.216382

>  <SCORE.INTRA.SOLV.lig_0>
-31.1706

>  <SCORE.INTRA.VDW>
-1.34225

>  <SCORE.INTRA.VDW.0>
-1.16895

>  <SCORE.INTRA.norm>
-0.123053

>  <SCORE.RESTR>
0.00388037

>  <SCORE.RESTR.CAVITY>
0.00388037

>  <SCORE.RESTR.norm>
0.000168712

>  <SCORE.SYSTEM>
0

>  <SCORE.SYSTEM.CONST>
0

>  <SCORE.SYSTEM.DIHEDRAL>
0

>  <SCORE.SYSTEM.SOLV>
0

>  <SCORE.SYSTEM.norm>
0

>  <SCORE.heavy>
23

>  <SCORE.norm>
-0.238995

>  <RMSD>
1.194

$$$$
ligand
 OpenBabel11021811513D
libRbt.so/2013.1/901 2013/11/27
 23 24  0  0  0  0  0  0  0  0999 V2000
  -10.4391   -9.5994   -0.0823 C   0  0  0  0  0  0  0  0  0  0  0  0
  -11.3234  -10.6886   -0.4096 O   0  0  0  0  0  0  0  0  0  0  0  0
   -9.6658   -9.1969   -1.3299 C   0  0  2  0  0  0  0  0  0  0  0  0
   -8.7548  -10.2673   -1.9112 C   0  0  1  0  0  0  0  0  0  0  0  0
   -9.5347  -11.1906   -2.6737 O   0  0  0  0  0  0  0  0  0  0  0  0
   -7.7874   -9.4357   -2.7468 C   0  0  2  0  0  0  0  0  0  0  0  0
   -6.5111   -9.9955   -3.0782 O   0  0  0  0  0  0  0  0  0  0  0  0
   -7.6049   -8.2113   -1.8675 C   0  0  2  0  0  0  0  0  0  0  0  0
   -8.8063   -8.0816   -1.0781 O   0  0  0  0  0  0  0  0  0  0  0  0
   -7.3749   -7.0016   -2.7915 C   0  0  0  0  0  0  0  0  0  0  0  0
   -7.2246   -5.7766   -2.0606 O   0  0  0  0  0  0  0  0  0  0  0  0
   -6.7074   -7.8902    0.3504 C   0  0  2  0  0  0  0  0  0  0  0  0
   -6.5147   -8.4485   -0.9608 O   0  0  0  0  0  0  0  0  0  0  0  0
   -5.3365   -7.7229    0.9788 C   0  0  2  0  0  0  0  0  0  0  0  0
   -4.4685   -7.0685    0.0468 O   0  0  0  0  0  0  0  0  0  0  0  0
   -4.7370   -9.0719    1.3098 C   0  0  1  0  0  0  0  0  0  0  0  0
   -3.5733   -8.8682    2.1147 O   0  0  0  0  0  0  0  0  0  0  0  0
   -5.7405   -9.9359    2.0496 C   0  0  2  0  0  0  0  0  0  0  0  0
   -5.2030  -11.2448    2.1809 O   0  0  0  0  0  0  0  0  0  0  0  0
   -7.0716  -10.0209    1.3148 C   0  0  2  0  0  0  0  0  0  0  0  0
   -7.5610   -8.6952    1.1634 O   0  0  0  0  0  0  0  0  0  0  0  0
   -8.0842  -10.8817    2.0794 C   0  0  0  0  0  0  0  0  0  0  0  0
   -7.6972  -12.2611    2.1641 O   0  0  0  0  0  0  0  0  0  0  0  0
  1  2  1  0  0  0  0
  3  1  1  1  0  0  0
  3  9  1  0  0  0  0
  3  4  1  0  0  0  0
  4  5  1  6  0  0  0
  4  6  1  0  0  0  0
  6  7  1  1  0  0  0
  6  8  1  0  0  0  0
  8  9  1  0  0  0  0
  8 10  1  6  0  0  0
  8 13  1  0  0  0  0
 10 11  1  0  0  0  0
 12 13  1  6  0  0  0
 12 14  1  0  0  0  0
 12 21  1  0  0  0  0
 14 15  1  6  0  0  0
 14 16  1  0  0  0  0
 16 17  1  1  0  0  0
 16 18  1  0  0  0  0
 18 19  1  6  0  0  0
 18 20  1  0  0  0  0
 20 21  1  0  0  0  0
 20 22  1  1  0  0  0
 22 23  1  0  0  0  0
M  END
>  <CHROM.1>
-62.65805999,178.44530531,-157.72232144,-143.33459619,-65.53923805,-7.28742467
-9.21085001,-0.22387892,2.68659609,-0.53386707,-0.84621944

>  <Name>
ligand

>  <RI>
0

>  <Rbt.Current_Directory>
/home/itssahil/PROJECTS/Mol_Feturizer/New_Systems/rnas/4TS2

>  <Rbt.Executable>
rbdock ($Id: //depot/dev/client3/rdock/2013.1/src/exe/rbdock.cxx#4 $)

>  <Rbt.Library>
libRbt.so (2013.1, Build901 2013/11/27)

>  <Rbt.Parameter_File>
/export/apps/rDock/src/rDock_2013.1_src/data/scripts/dock_solv.prm

>  <Rbt.Receptor>
prm/pocket_docking_3.prm

>  <SCORE>
-8.22284

>  <SCORE.INTER>
-4.54368

>  <SCORE.INTER.CONST>
1

>  <SCORE.INTER.POLAR>
0

>  <SCORE.INTER.ROT>
5

>  <SCORE.INTER.SOLV>
7.71648

>  <SCORE.INTER.VDW>
-12.5346

>  <SCORE.INTER.norm>
-0.197551

>  <SCORE.INTRA>
-3.67916

>  <SCORE.INTRA.DIHEDRAL>
-5.58617

>  <SCORE.INTRA.DIHEDRAL.0>
12.4853

>  <SCORE.INTRA.POLAR>
0

>  <SCORE.INTRA.POLAR.0>
0

>  <SCORE.INTRA.REPUL>
0

>  <SCORE.INTRA.REPUL.0>
0

>  <SCORE.INTRA.SOLV>
0.682061

>  <SCORE.INTRA.SOLV.lig_0>
-31.1706

>  <SCORE.INTRA.VDW>
-1.2271

>  <SCORE.INTRA.VDW.0>
-1.16895

>  <SCORE.INTRA.norm>
-0.159964

>  <SCORE.RESTR>
0

>  <SCORE.RESTR.CAVITY>
0

>  <SCORE.RESTR.norm>
0

>  <SCORE.SYSTEM>
0

>  <SCORE.SYSTEM.CONST>
0

>  <SCORE.SYSTEM.DIHEDRAL>
0

>  <SCORE.SYSTEM.SOLV>
0

>  <SCORE.SYSTEM.norm>
0

>  <SCORE.heavy>
23

>  <SCORE.norm>
-0.357515

>  <RMSD>
1.194

$$$$
ligand
 OpenBabel11021811513D
libRbt.so/2013.1/901 2013/11/27
 23 24  0  0  0  0  0  0  0  0999 V2000
  -10.4238   -9.6082   -0.0552 C   0  0  0  0  0  0  0  0  0  0  0  0
  -11.2797  -10.7242   -0.3677 O   0  0  0  0  0  0  0  0  0  0  0  0
   -9.6633   -9.2007   -1.3090 C   0  0  2  0  0  0  0  0  0  0  0  0
   -8.7544  -10.2669   -1.9009 C   0  0  1  0  0  0  0  0  0  0  0  0
   -9.5384  -11.1911   -2.6582 O   0  0  0  0  0  0  0  0  0  0  0  0
   -7.7974   -9.4306   -2.7437 C   0  0  2  0  0  0  0  0  0  0  0  0
   -6.5224   -9.9856   -3.0880 O   0  0  0  0  0  0  0  0  0  0  0  0
   -7.6105   -8.2074   -1.8635 C   0  0  2  0  0  0  0  0  0  0  0  0
   -8.8050   -8.0832   -1.0627 O   0  0  0  0  0  0  0  0  0  0  0  0
   -7.3929   -6.9951   -2.7869 C   0  0  0  0  0  0  0  0  0  0  0  0
   -7.2487   -5.7698   -2.0552 O   0  0  0  0  0  0  0  0  0  0  0  0
   -6.6959   -7.8927    0.3484 C   0  0  2  0  0  0  0  0  0  0  0  0
   -6.5113   -8.4431   -0.9673 O   0  0  0  0  0  0  0  0  0  0  0  0
   -5.3220   -7.7421    0.9746 C   0  0  2  0  0  0  0  0  0  0  0  0
   -4.4505   -7.0887    0.0452 O   0  0  0  0  0  0  0  0  0  0  0  0
   -4.7338   -9.0988    1.2943 C   0  0  1  0  0  0  0  0  0  0  0  0
   -3.5664   -8.9114    2.0978 O   0  0  0  0  0  0  0  0  0  0  0  0
   -5.7432   -9.9592    2.0303 C   0  0  2  0  0  0  0  0  0  0  0  0
   -5.2171  -11.2737    2.1508 O   0  0  0  0  0  0  0  0  0  0  0  0
   -7.0767  -10.0270    1.2981 C   0  0  2  0  0  0  0  0  0  0  0  0
   -7.5547   -8.6960    1.1576 O   0  0  0  0  0  0  0  0  0  0  0  0
   -8.0951  -10.8843    2.0589 C   0  0  0  0  0  0  0  0  0  0  0  0
   -7.7456  -12.2759    2.0894 O   0  0  0  0  0  0  0  0  0  0  0  0
  1  2  1  0  0  0  0
  3  1  1  1  0  0  0
  3  9  1  0  0  0  0
  3  4  1  0  0  0  0
  4  5  1  6  0  0  0
  4  6  1  0  0  0  0
  6  7  1  1  0  0  0
  6  8  1  0  0  0  0
  8  9  1  0  0  0  0
  8 10  1  6  0  0  0
  8 13  1  0  0  0  0
 10 11  1  0  0  0  0
 12 13  1  6  0  0  0
 12 14  1  0  0  0  0
 12 21  1  0  0  0  0
 14 15  1  6  0  0  0
 14 16  1  0  0  0  0
 16 17  1  1  0  0  0
 16 18  1  0  0  0  0
 18 19  1  6  0  0  0
 18 20  1  0  0  0  0
 20 21  1  0  0  0  0
 20 22  1  1  0  0  0
 22 23  1  0  0  0  0
M  END
>  <CHROM.1>
-61.04827742,178.05323817,-158.63557952,-143.10534154,-67.74695264,-7.28867809
-9.21979820,-0.22739014,2.69862695,-0.53105804,-0.83896342

>  <Name>
ligand

>  <RI>
0

>  <Rbt.Current_Directory>
/home/itssahil/PROJECTS/Mol_Feturizer/New_Systems/rnas/4TS2

>  <Rbt.Executable>
rbdock ($Id: //depot/dev/client3/rdock/2013.1/src/exe/rbdock.cxx#4 $)

>  <Rbt.Library>
libRbt.so (2013.1, Build901 2013/11/27)

>  <Rbt.Parameter_File>
/export/apps/rDock/src/rDock_2013.1_src/data/scripts/dock_solv.prm

>  <Rbt.Receptor>
prm/pocket_docking_3.prm

>  <SCORE>
-8.19731

>  <SCORE.INTER>
-4.51154

>  <SCORE.INTER.CONST>
1

>  <SCORE.INTER.POLAR>
0

>  <SCORE.INTER.ROT>
5

>  <SCORE.INTER.SOLV>
7.70338

>  <SCORE.INTER.VDW>
-12.5088

>  <SCORE.INTER.norm>
-0.196154

>  <SCORE.INTRA>
-3.68577

>  <SCORE.INTRA.DIHEDRAL>
-5.61568

>  <SCORE.INTRA.DIHEDRAL.0>
12.4853

>  <SCORE.INTRA.POLAR>
0

>  <SCORE.INTRA.POLAR.0>
0

>  <SCORE.INTRA.REPUL>
0

>  <SCORE.INTRA.REPUL.0>
0

>  <SCORE.INTRA.SOLV>
0.70162

>  <SCORE.INTRA.SOLV.lig_0>
-31.1706

>  <SCORE.INTRA.VDW>
-1.22874

>  <SCORE.INTRA.VDW.0>
-1.16895

>  <SCORE.INTRA.norm>
-0.160251

>  <SCORE.RESTR>
0

>  <SCORE.RESTR.CAVITY>
0

>  <SCORE.RESTR.norm>
0

>  <SCORE.SYSTEM>
0

>  <SCORE.SYSTEM.CONST>
0

>  <SCORE.SYSTEM.DIHEDRAL>
0

>  <SCORE.SYSTEM.SOLV>
0

>  <SCORE.SYSTEM.norm>
0

>  <SCORE.heavy>
23

>  <SCORE.norm>
-0.356405

>  <RMSD>
1.202

$$$$
ligand
 OpenBabel11021811513D
libRbt.so/2013.1/901 2013/11/27
 23 24  0  0  0  0  0  0  0  0999 V2000
   -9.0481  -11.3091    0.7001 C   0  0  0  0  0  0  0  0  0  0  0  0
  -10.2226  -10.8006    1.3615 O   0  0  0  0  0  0  0  0  0  0  0  0
   -8.6834  -10.3780   -0.4473 C   0  0  2  0  0  0  0  0  0  0  0  0
   -7.5112  -10.8245   -1.3076 C   0  0  1  0  0  0  0  0  0  0  0  0
   -7.9545  -11.8179   -2.2343 O   0  0  0  0  0  0  0  0  0  0  0  0
   -7.0849   -9.5143   -1.9611 C   0  0  2  0  0  0  0  0  0  0  0  0
   -5.7512   -9.4049   -2.4726 O   0  0  0  0  0  0  0  0  0  0  0  0
   -7.2867   -8.5297   -0.8228 C   0  0  2  0  0  0  0  0  0  0  0  0
   -8.3162   -9.0793    0.0265 O   0  0  0  0  0  0  0  0  0  0  0  0
   -7.6919   -7.1785   -1.4390 C   0  0  0  0  0  0  0  0  0  0  0  0
   -6.6474   -6.6079   -2.2397 O   0  0  0  0  0  0  0  0  0  0  0  0
   -6.1813   -7.6481    1.1339 C   0  0  2  0  0  0  0  0  0  0  0  0
   -6.0776   -8.4606   -0.0481 O   0  0  0  0  0  0  0  0  0  0  0  0
   -4.7711   -7.2885    1.5630 C   0  0  2  0  0  0  0  0  0  0  0  0
   -4.0428   -6.8056    0.4287 O   0  0  0  0  0  0  0  0  0  0  0  0
   -4.0523   -8.5081    2.0968 C   0  0  1  0  0  0  0  0  0  0  0  0
   -2.8334   -8.0854    2.7126 O   0  0  0  0  0  0  0  0  0  0  0  0
   -4.9193   -9.2424    3.1017 C   0  0  2  0  0  0  0  0  0  0  0  0
   -4.2840  -10.4678    3.4396 O   0  0  0  0  0  0  0  0  0  0  0  0
   -6.3058   -9.5422    2.5478 C   0  0  2  0  0  0  0  0  0  0  0  0
   -6.8964   -8.3024    2.1818 O   0  0  0  0  0  0  0  0  0  0  0  0
   -7.1796  -10.2686    3.5772 C   0  0  0  0  0  0  0  0  0  0  0  0
   -6.7106  -11.5913    3.8777 O   0  0  0  0  0  0  0  0  0  0  0  0
  1  2  1  0  0  0  0
  3  1  1  1  0  0  0
  3  9  1  0  0  0  0
  3  4  1  0  0  0  0
  4  5  1  6  0  0  0
  4  6  1  0  0  0  0
  6  7  1  1  0  0  0
  6  8  1  0  0  0  0
  8  9  1  0  0  0  0
  8 10  1  6  0  0  0
  8 13  1  0  0  0  0
 10 11  1  0  0  0  0
 12 13  1  6  0  0  0
 12 14  1  0  0  0  0
 12 21  1  0  0  0  0
 14 15  1  6  0  0  0
 14 16  1  0  0  0  0
 16 17  1  1  0  0  0
 16 18  1  0  0  0  0
 18 19  1  6  0  0  0
 18 20  1  0  0  0  0
 20 21  1  0  0  0  0
 20 22  1  1  0  0  0
 22 23  1  0  0  0  0
M  END
>  <CHROM.1>
-176.20055574,-64.94144826,-160.96113028,-174.72446436,-66.87645066,-6.53232834
-9.20967123,0.68827565,2.51022101,-0.66344893,-1.10482374

>  <Name>
ligand

>  <RI>
0

>  <Rbt.Current_Directory>
/home/itssahil/PROJECTS/Mol_Feturizer/New_Systems/rnas/4TS2

>  <Rbt.Executable>
rbdock ($Id: //depot/dev/client3/rdock/2013.1/src/exe/rbdock.cxx#4 $)

>  <Rbt.Library>
libRbt.so (2013.1, Build901 2013/11/27)

>  <Rbt.Parameter_File>
/export/apps/rDock/src/rDock_2013.1_src/data/scripts/dock_solv.prm

>  <Rbt.Receptor>
prm/pocket_docking_3.prm

>  <SCORE>
-9.18811

>  <SCORE.INTER>
-2.46067

>  <SCORE.INTER.CONST>
1

>  <SCORE.INTER.POLAR>
0

>  <SCORE.INTER.ROT>
5

>  <SCORE.INTER.SOLV>
6.23538

>  <SCORE.INTER.VDW>
-10.6522

>  <SCORE.INTER.norm>
-0.106986

>  <SCORE.INTRA>
-6.72744

>  <SCORE.INTRA.DIHEDRAL>
-10.4479

>  <SCORE.INTRA.DIHEDRAL.0>
12.4853

>  <SCORE.INTRA.POLAR>
0

>  <SCORE.INTRA.POLAR.0>
0

>  <SCORE.INTRA.REPUL>
0

>  <SCORE.INTRA.REPUL.0>
0

>  <SCORE.INTRA.SOLV>
0.479443

>  <SCORE.INTRA.SOLV.lig_0>
-31.1706

>  <SCORE.INTRA.VDW>
-1.74324

>  <SCORE.INTRA.VDW.0>
-1.16895

>  <SCORE.INTRA.norm>
-0.292497

>  <SCORE.RESTR>
0

>  <SCORE.RESTR.CAVITY>
0

>  <SCORE.RESTR.norm>
0

>  <SCORE.SYSTEM>
0

>  <SCORE.SYSTEM.CONST>
0

>  <SCORE.SYSTEM.DIHEDRAL>
0

>  <SCORE.SYSTEM.SOLV>
0

>  <SCORE.SYSTEM.norm>
0

>  <SCORE.heavy>
23

>  <SCORE.norm>
-0.399483

>  <RMSD>
1.210

$$$$
ligand
 OpenBabel11021811513D
libRbt.so/2013.1/901 2013/11/27
 23 24  0  0  0  0  0  0  0  0999 V2000
   -9.3298  -11.0689    1.0567 C   0  0  0  0  0  0  0  0  0  0  0  0
   -9.8626  -12.3348    0.6219 O   0  0  0  0  0  0  0  0  0  0  0  0
   -8.9632  -10.2395   -0.1657 C   0  0  2  0  0  0  0  0  0  0  0  0
   -7.8718  -10.8218   -1.0507 C   0  0  1  0  0  0  0  0  0  0  0  0
   -8.4310  -11.8362   -1.8876 O   0  0  0  0  0  0  0  0  0  0  0  0
   -7.3915   -9.5888   -1.8087 C   0  0  2  0  0  0  0  0  0  0  0  0
   -6.0825   -9.6078   -2.3903 O   0  0  0  0  0  0  0  0  0  0  0  0
   -7.4645   -8.5235   -0.7290 C   0  0  2  0  0  0  0  0  0  0  0  0
   -8.4829   -8.9437    0.2035 O   0  0  0  0  0  0  0  0  0  0  0  0
   -7.8078   -7.1874   -1.4121 C   0  0  0  0  0  0  0  0  0  0  0  0
   -6.7603   -6.7325   -2.2801 O   0  0  0  0  0  0  0  0  0  0  0  0
   -6.2309   -7.6863    1.1697 C   0  0  2  0  0  0  0  0  0  0  0  0
   -6.2141   -8.4939   -0.0200 O   0  0  0  0  0  0  0  0  0  0  0  0
   -4.7913   -7.3478    1.5093 C   0  0  2  0  0  0  0  0  0  0  0  0
   -4.1305   -6.8688    0.3328 O   0  0  0  0  0  0  0  0  0  0  0  0
   -4.0567   -8.5797    1.9906 C   0  0  1  0  0  0  0  0  0  0  0  0
   -2.7952   -8.1767    2.5290 O   0  0  0  0  0  0  0  0  0  0  0  0
   -4.8677   -9.3076    3.0458 C   0  0  2  0  0  0  0  0  0  0  0  0
   -4.2289  -10.5431    3.3370 O   0  0  0  0  0  0  0  0  0  0  0  0
   -6.2906   -9.5859    2.5805 C   0  0  2  0  0  0  0  0  0  0  0  0
   -6.8865   -8.3364    2.2584 O   0  0  0  0  0  0  0  0  0  0  0  0
   -7.1068  -10.3059    3.6605 C   0  0  0  0  0  0  0  0  0  0  0  0
   -6.6363  -11.6354    3.9261 O   0  0  0  0  0  0  0  0  0  0  0  0
  1  2  1  0  0  0  0
  3  1  1  1  0  0  0
  3  9  1  0  0  0  0
  3  4  1  0  0  0  0
  4  5  1  6  0  0  0
  4  6  1  0  0  0  0
  6  7  1  1  0  0  0
  6  8  1  0  0  0  0
  8  9  1  0  0  0  0
  8 10  1  6  0  0  0
  8 13  1  0  0  0  0
 10 11  1  0  0  0  0
 12 13  1  6  0  0  0
 12 14  1  0  0  0  0
 12 21  1  0  0  0  0
 14 15  1  6  0  0  0
 14 16  1  0  0  0  0
 16 17  1  1  0  0  0
 16 18  1  0  0  0  0
 18 19  1  6  0  0  0
 18 20  1  0  0  0  0
 20 21  1  0  0  0  0
 20 22  1  1  0  0  0
 22 23  1  0  0  0  0
M  END
>  <CHROM.1>
-63.00795146,-65.97337570,-159.90992882,-170.07196288,-66.77732914,-6.62657218
-9.30937473,0.71311828,2.74139007,-0.68172563,-0.99973142

>  <Name>
ligand

>  <RI>
0

>  <Rbt.Current_Directory>
/home/itssahil/PROJECTS/Mol_Feturizer/New_Systems/rnas/4TS2

>  <Rbt.Executable>
rbdock ($Id: //depot/dev/client3/rdock/2013.1/src/exe/rbdock.cxx#4 $)

>  <Rbt.Library>
libRbt.so (2013.1, Build901 2013/11/27)

>  <Rbt.Parameter_File>
/export/apps/rDock/src/rDock_2013.1_src/data/scripts/dock_solv.prm

>  <Rbt.Receptor>
prm/pocket_docking_3.prm

>  <SCORE>
-8.91547

>  <SCORE.INTER>
-2.58106

>  <SCORE.INTER.CONST>
1

>  <SCORE.INTER.POLAR>
0

>  <SCORE.INTER.ROT>
5

>  <SCORE.INTER.SOLV>
5.72924

>  <SCORE.INTER.VDW>
-10.5638

>  <SCORE.INTER.norm>
-0.11222

>  <SCORE.INTRA>
-6.3344

>  <SCORE.INTRA.DIHEDRAL>
-9.99785

>  <SCORE.INTRA.DIHEDRAL.0>
12.4853

>  <SCORE.INTRA.POLAR>
0

>  <SCORE.INTRA.POLAR.0>
0

>  <SCORE.INTRA.REPUL>
0

>  <SCORE.INTRA.REPUL.0>
0

>  <SCORE.INTRA.SOLV>
0.673435

>  <SCORE.INTRA.SOLV.lig_0>
-31.1706

>  <SCORE.INTRA.VDW>
-1.6722

>  <SCORE.INTRA.VDW.0>
-1.16895

>  <SCORE.INTRA.norm>
-0.275409

>  <SCORE.RESTR>
0

>  <SCORE.RESTR.CAVITY>
0

>  <SCORE.RESTR.norm>
0

>  <SCORE.SYSTEM>
0

>  <SCORE.SYSTEM.CONST>
0

>  <SCORE.SYSTEM.DIHEDRAL>
0

>  <SCORE.SYSTEM.SOLV>
0

>  <SCORE.SYSTEM.norm>
0

>  <SCORE.heavy>
23

>  <SCORE.norm>
-0.387629

>  <RMSD>
1.245

$$$$
ligand
 OpenBabel11021811513D
libRbt.so/2013.1/901 2013/11/27
 23 24  0  0  0  0  0  0  0  0999 V2000
  -10.4196   -9.5545    0.2058 C   0  0  0  0  0  0  0  0  0  0  0  0
  -11.4152  -10.5654   -0.0438 O   0  0  0  0  0  0  0  0  0  0  0  0
   -9.7516   -9.1814   -1.1099 C   0  0  2  0  0  0  0  0  0  0  0  0
   -8.9659  -10.2946   -1.7859 C   0  0  1  0  0  0  0  0  0  0  0  0
   -9.8694  -11.1628   -2.4730 O   0  0  0  0  0  0  0  0  0  0  0  0
   -8.0396   -9.5092   -2.7082 C   0  0  2  0  0  0  0  0  0  0  0  0
   -6.8368  -10.1364   -3.1685 O   0  0  0  0  0  0  0  0  0  0  0  0
   -7.7005   -8.3079   -1.8435 C   0  0  2  0  0  0  0  0  0  0  0  0
   -8.8085   -8.1199   -0.9376 O   0  0  0  0  0  0  0  0  0  0  0  0
   -7.4937   -7.1021   -2.7778 C   0  0  0  0  0  0  0  0  0  0  0  0
   -7.2731   -5.8826   -2.0555 O   0  0  0  0  0  0  0  0  0  0  0  0
   -6.2555   -7.6528   -0.0240 C   0  0  2  0  0  0  0  0  0  0  0  0
   -6.5415   -8.6177   -1.0513 O   0  0  0  0  0  0  0  0  0  0  0  0
   -4.7516   -7.4537    0.0060 C   0  0  2  0  0  0  0  0  0  0  0  0
   -4.2792   -7.2350   -1.3278 O   0  0  0  0  0  0  0  0  0  0  0  0
   -4.0646   -8.6870    0.5500 C   0  0  1  0  0  0  0  0  0  0  0  0
   -2.6911   -8.3737    0.7931 O   0  0  0  0  0  0  0  0  0  0  0  0
   -4.7310   -9.1485    1.8321 C   0  0  2  0  0  0  0  0  0  0  0  0
   -4.1737  -10.4004    2.2083 O   0  0  0  0  0  0  0  0  0  0  0  0
   -6.2363   -9.3086    1.6672 C   0  0  2  0  0  0  0  0  0  0  0  0
   -6.7561   -8.0528    1.2515 O   0  0  0  0  0  0  0  0  0  0  0  0
   -6.9024   -9.7581    2.9730 C   0  0  0  0  0  0  0  0  0  0  0  0
   -6.5042  -11.0751    3.3815 O   0  0  0  0  0  0  0  0  0  0  0  0
  1  2  1  0  0  0  0
  3  1  1  1  0  0  0
  3  9  1  0  0  0  0
  3  4  1  0  0  0  0
  4  5  1  6  0  0  0
  4  6  1  0  0  0  0
  6  7  1  1  0  0  0
  6  8  1  0  0  0  0
  8  9  1  0  0  0  0
  8 10  1  6  0  0  0
  8 13  1  0  0  0  0
 10 11  1  0  0  0  0
 12 13  1  6  0  0  0
 12 14  1  0  0  0  0
 12 21  1  0  0  0  0
 14 15  1  6  0  0  0
 14 16  1  0  0  0  0
 16 17  1  1  0  0  0
 16 18  1  0  0  0  0
 18 19  1  6  0  0  0
 18 20  1  0  0  0  0
 20 21  1  0  0  0  0
 20 22  1  1  0  0  0
 22 23  1  0  0  0  0
M  END
>  <CHROM.1>
-63.98889331,175.28930002,-139.21756625,-169.76770616,-65.67852798,-6.97189662
-8.95056540,-0.27454194,2.76084897,-0.39207908,-1.05475475

>  <Name>
ligand

>  <RI>
0

>  <Rbt.Current_Directory>
/home/itssahil/PROJECTS/Mol_Feturizer/New_Systems/rnas/4TS2

>  <Rbt.Executable>
rbdock ($Id: //depot/dev/client3/rdock/2013.1/src/exe/rbdock.cxx#4 $)

>  <Rbt.Library>
libRbt.so (2013.1, Build901 2013/11/27)

>  <Rbt.Parameter_File>
/export/apps/rDock/src/rDock_2013.1_src/data/scripts/dock_solv.prm

>  <Rbt.Receptor>
prm/pocket_docking_6.prm

>  <SCORE>
-8.30312

>  <SCORE.INTER>
-4.12357

>  <SCORE.INTER.CONST>
1

>  <SCORE.INTER.POLAR>
0

>  <SCORE.INTER.ROT>
5

>  <SCORE.INTER.SOLV>
7.6904

>  <SCORE.INTER.VDW>
-12.2458

>  <SCORE.INTER.norm>
-0.179286

>  <SCORE.INTRA>
-4.17956

>  <SCORE.INTRA.DIHEDRAL>
-6.35335

>  <SCORE.INTRA.DIHEDRAL.0>
12.4853

>  <SCORE.INTRA.POLAR>
0

>  <SCORE.INTRA.POLAR.0>
0

>  <SCORE.INTRA.REPUL>
0

>  <SCORE.INTRA.REPUL.0>
0

>  <SCORE.INTRA.SOLV>
0.469896

>  <SCORE.INTRA.SOLV.lig_0>
-31.1706

>  <SCORE.INTRA.VDW>
-1.23783

>  <SCORE.INTRA.VDW.0>
-1.16895

>  <SCORE.INTRA.norm>
-0.18172

>  <SCORE.RESTR>
0

>  <SCORE.RESTR.CAVITY>
0

>  <SCORE.RESTR.norm>
0

>  <SCORE.SYSTEM>
0

>  <SCORE.SYSTEM.CONST>
0

>  <SCORE.SYSTEM.DIHEDRAL>
0

>  <SCORE.SYSTEM.SOLV>
0

>  <SCORE.SYSTEM.norm>
0

>  <SCORE.heavy>
23

>  <SCORE.norm>
-0.361005

>  <RMSD>
1.256

$$$$
ligand
 OpenBabel11021811513D
libRbt.so/2013.1/901 2013/11/27
 23 24  0  0  0  0  0  0  0  0999 V2000
  -10.4986  -11.4006   -1.0241 C   0  0  0  0  0  0  0  0  0  0  0  0
   -9.8490  -11.5930    0.2473 O   0  0  0  0  0  0  0  0  0  0  0  0
   -9.5167  -10.7515   -1.9890 C   0  0  2  0  0  0  0  0  0  0  0  0
   -8.2915  -11.5829   -2.3368 C   0  0  1  0  0  0  0  0  0  0  0  0
   -8.6427  -12.5549   -3.3237 O   0  0  0  0  0  0  0  0  0  0  0  0
   -7.3206  -10.5176   -2.8347 C   0  0  2  0  0  0  0  0  0  0  0  0
   -5.9177  -10.8072   -2.8198 O   0  0  0  0  0  0  0  0  0  0  0  0
   -7.6234   -9.3681   -1.8898 C   0  0  2  0  0  0  0  0  0  0  0  0
   -8.9925   -9.5294   -1.4620 O   0  0  0  0  0  0  0  0  0  0  0  0
   -7.3995   -8.0557   -2.6624 C   0  0  0  0  0  0  0  0  0  0  0  0
   -7.7535   -6.8998   -1.8903 O   0  0  0  0  0  0  0  0  0  0  0  0
   -7.2282   -8.7099    0.3990 C   0  0  2  0  0  0  0  0  0  0  0  0
   -6.7889   -9.4911   -0.7256 O   0  0  0  0  0  0  0  0  0  0  0  0
   -6.0007   -8.0553    1.0046 C   0  0  2  0  0  0  0  0  0  0  0  0
   -5.2352   -7.4376   -0.0359 O   0  0  0  0  0  0  0  0  0  0  0  0
   -5.1264   -9.0899    1.6785 C   0  0  1  0  0  0  0  0  0  0  0  0
   -4.1238   -8.4130    2.4401 O   0  0  0  0  0  0  0  0  0  0  0  0
   -5.9550   -9.9838    2.5813 C   0  0  2  0  0  0  0  0  0  0  0  0
   -5.1322  -11.0434    3.0501 O   0  0  0  0  0  0  0  0  0  0  0  0
   -7.1542  -10.5759    1.8532 C   0  0  2  0  0  0  0  0  0  0  0  0
   -7.9328   -9.4930    1.3623 O   0  0  0  0  0  0  0  0  0  0  0  0
   -7.9946  -11.4634    2.7790 C   0  0  0  0  0  0  0  0  0  0  0  0
   -8.4533  -10.7750    3.9518 O   0  0  0  0  0  0  0  0  0  0  0  0
  1  2  1  0  0  0  0
  3  1  1  1  0  0  0
  3  9  1  0  0  0  0
  3  4  1  0  0  0  0
  4  5  1  6  0  0  0
  4  6  1  0  0  0  0
  6  7  1  1  0  0  0
  6  8  1  0  0  0  0
  8  9  1  0  0  0  0
  8 10  1  6  0  0  0
  8 13  1  0  0  0  0
 10 11  1  0  0  0  0
 12 13  1  6  0  0  0
 12 14  1  0  0  0  0
 12 21  1  0  0  0  0
 14 15  1  6  0  0  0
 14 16  1  0  0  0  0
 16 17  1  1  0  0  0
 16 18  1  0  0  0  0
 18 19  1  6  0  0  0
 18 20  1  0  0  0  0
 20 21  1  0  0  0  0
 20 22  1  1  0  0  0
 22 23  1  0  0  0  0
M  END
>  <CHROM.1>
63.92669746,175.69612345,-136.68695794,-163.17629907,56.73681940,-7.33802494
-9.89339177,-0.05410100,2.25480966,-0.75654985,-1.27016022

>  <Name>
ligand

>  <RI>
0

>  <Rbt.Current_Directory>
/home/itssahil/PROJECTS/Mol_Feturizer/New_Systems/rnas/4TS2

>  <Rbt.Executable>
rbdock ($Id: //depot/dev/client3/rdock/2013.1/src/exe/rbdock.cxx#4 $)

>  <Rbt.Library>
libRbt.so (2013.1, Build901 2013/11/27)

>  <Rbt.Parameter_File>
/export/apps/rDock/src/rDock_2013.1_src/data/scripts/dock_solv.prm

>  <Rbt.Receptor>
prm/pocket_docking_2.prm

>  <SCORE>
-5.06206

>  <SCORE.INTER>
-1.09288

>  <SCORE.INTER.CONST>
1

>  <SCORE.INTER.POLAR>
0

>  <SCORE.INTER.ROT>
5

>  <SCORE.INTER.SOLV>
6.0675

>  <SCORE.INTER.VDW>
-9.68442

>  <SCORE.INTER.norm>
-0.0475165

>  <SCORE.INTRA>
-3.96939

>  <SCORE.INTRA.DIHEDRAL>
-5.33731

>  <SCORE.INTRA.DIHEDRAL.0>
12.4853

>  <SCORE.INTRA.POLAR>
0

>  <SCORE.INTRA.POLAR.0>
0

>  <SCORE.INTRA.REPUL>
0

>  <SCORE.INTRA.REPUL.0>
0

>  <SCORE.INTRA.SOLV>
1.33651

>  <SCORE.INTRA.SOLV.lig_0>
-31.1706

>  <SCORE.INTRA.VDW>
-1.96899

>  <SCORE.INTRA.VDW.0>
-1.16895

>  <SCORE.INTRA.norm>
-0.172582

>  <SCORE.RESTR>
0.000209882

>  <SCORE.RESTR.CAVITY>
0.000209882

>  <SCORE.RESTR.norm>
9.12531e-06

>  <SCORE.SYSTEM>
0

>  <SCORE.SYSTEM.CONST>
0

>  <SCORE.SYSTEM.DIHEDRAL>
0

>  <SCORE.SYSTEM.SOLV>
0

>  <SCORE.SYSTEM.norm>
0

>  <SCORE.heavy>
23

>  <SCORE.norm>
-0.22009

>  <RMSD>
1.264

$$$$
ligand
 OpenBabel11021811513D
libRbt.so/2013.1/901 2013/11/27
 23 24  0  0  0  0  0  0  0  0999 V2000
  -11.1433  -10.2334    0.2131 C   0  0  0  0  0  0  0  0  0  0  0  0
  -12.0736   -9.1646    0.4732 O   0  0  0  0  0  0  0  0  0  0  0  0
  -10.3620   -9.9130   -1.0532 C   0  0  2  0  0  0  0  0  0  0  0  0
   -9.4617  -11.0255   -1.5681 C   0  0  1  0  0  0  0  0  0  0  0  0
  -10.2499  -11.9830   -2.2782 O   0  0  0  0  0  0  0  0  0  0  0  0
   -8.4827  -10.2550   -2.4475 C   0  0  2  0  0  0  0  0  0  0  0  0
   -7.2118  -10.8474   -2.7413 O   0  0  0  0  0  0  0  0  0  0  0  0
   -8.2886   -8.9834   -1.6404 C   0  0  2  0  0  0  0  0  0  0  0  0
   -9.4906   -8.7946   -0.8639 O   0  0  0  0  0  0  0  0  0  0  0  0
   -8.0424   -7.8324   -2.6324 C   0  0  0  0  0  0  0  0  0  0  0  0
   -6.9043   -8.0694   -3.4728 O   0  0  0  0  0  0  0  0  0  0  0  0
   -7.0802   -8.1458    0.2743 C   0  0  2  0  0  0  0  0  0  0  0  0
   -7.2037   -9.1796   -0.7177 O   0  0  0  0  0  0  0  0  0  0  0  0
   -5.6583   -7.6203    0.2081 C   0  0  2  0  0  0  0  0  0  0  0  0
   -5.3224   -7.3423   -1.1558 O   0  0  0  0  0  0  0  0  0  0  0  0
   -4.6859   -8.6560    0.7284 C   0  0  1  0  0  0  0  0  0  0  0  0
   -3.4042   -8.0416    0.8809 O   0  0  0  0  0  0  0  0  0  0  0  0
   -5.1599   -9.2148    2.0565 C   0  0  2  0  0  0  0  0  0  0  0  0
   -4.3191  -10.3021    2.4175 O   0  0  0  0  0  0  0  0  0  0  0  0
   -6.5995   -9.7065    1.9875 C   0  0  2  0  0  0  0  0  0  0  0  0
   -7.4067   -8.6084    1.5846 O   0  0  0  0  0  0  0  0  0  0  0  0
   -7.0744  -10.2529    3.3391 C   0  0  0  0  0  0  0  0  0  0  0  0
   -8.3395  -10.9259    3.2590 O   0  0  0  0  0  0  0  0  0  0  0  0
  1  2  1  0  0  0  0
  3  1  1  1  0  0  0
  3  9  1  0  0  0  0
  3  4  1  0  0  0  0
  4  5  1  6  0  0  0
  4  6  1  0  0  0  0
  6  7  1  1  0  0  0
  6  8  1  0  0  0  0
  8  9  1  0  0  0  0
  8 10  1  6  0  0  0
  8 13  1  0  0  0  0
 10 11  1  0  0  0  0
 12 13  1  6  0  0  0
 12 14  1  0  0  0  0
 12 21  1  0  0  0  0
 14 15  1  6  0  0  0
 14 16  1  0  0  0  0
 16 17  1  1  0  0  0
 16 18  1  0  0  0  0
 18 19  1  6  0  0  0
 18 20  1  0  0  0  0
 20 21  1  0  0  0  0
 20 22  1  1  0  0  0
 22 23  1  0  0  0  0
M  END
>  <CHROM.1>
-172.43743152,-58.20293760,-125.81355329,-168.90445418,-170.21535566,-7.56088380
-9.35741521,-0.13825908,2.70380290,-0.35237159,-1.33821188

>  <Name>
ligand

>  <RI>
0

>  <Rbt.Current_Directory>
/home/itssahil/PROJECTS/Mol_Feturizer/New_Systems/rnas/4TS2

>  <Rbt.Executable>
rbdock ($Id: //depot/dev/client3/rdock/2013.1/src/exe/rbdock.cxx#4 $)

>  <Rbt.Library>
libRbt.so (2013.1, Build901 2013/11/27)

>  <Rbt.Parameter_File>
/export/apps/rDock/src/rDock_2013.1_src/data/scripts/dock_solv.prm

>  <Rbt.Receptor>
prm/pocket_docking_2.prm

>  <SCORE>
-7.18786

>  <SCORE.INTER>
-3.70929

>  <SCORE.INTER.CONST>
1

>  <SCORE.INTER.POLAR>
0

>  <SCORE.INTER.ROT>
5

>  <SCORE.INTER.SOLV>
7.07279

>  <SCORE.INTER.VDW>
-11.7638

>  <SCORE.INTER.norm>
-0.161274

>  <SCORE.INTRA>
-3.47857

>  <SCORE.INTRA.DIHEDRAL>
-4.43646

>  <SCORE.INTRA.DIHEDRAL.0>
12.4853

>  <SCORE.INTRA.POLAR>
0

>  <SCORE.INTRA.POLAR.0>
0

>  <SCORE.INTRA.REPUL>
0

>  <SCORE.INTRA.REPUL.0>
0

>  <SCORE.INTRA.SOLV>
0.000221028

>  <SCORE.INTRA.SOLV.lig_0>
-31.1706

>  <SCORE.INTRA.VDW>
-1.26045

>  <SCORE.INTRA.VDW.0>
-1.16895

>  <SCORE.INTRA.norm>
-0.151242

>  <SCORE.RESTR>
0

>  <SCORE.RESTR.CAVITY>
0

>  <SCORE.RESTR.norm>
0

>  <SCORE.SYSTEM>
0

>  <SCORE.SYSTEM.CONST>
0

>  <SCORE.SYSTEM.DIHEDRAL>
0

>  <SCORE.SYSTEM.SOLV>
0

>  <SCORE.SYSTEM.norm>
0

>  <SCORE.heavy>
23

>  <SCORE.norm>
-0.312516

>  <RMSD>
1.285

$$$$
ligand
 OpenBabel11021811513D
libRbt.so/2013.1/901 2013/11/27
 23 24  0  0  0  0  0  0  0  0999 V2000
  -11.1904  -10.0760    0.0465 C   0  0  0  0  0  0  0  0  0  0  0  0
  -12.0258   -8.9085    0.1681 O   0  0  0  0  0  0  0  0  0  0  0  0
  -10.3296   -9.9415   -1.2014 C   0  0  2  0  0  0  0  0  0  0  0  0
   -9.4669  -11.1485   -1.5369 C   0  0  1  0  0  0  0  0  0  0  0  0
  -10.2697  -12.1413   -2.1788 O   0  0  0  0  0  0  0  0  0  0  0  0
   -8.4037  -10.5327   -2.4401 C   0  0  2  0  0  0  0  0  0  0  0  0
   -7.1542  -11.2164   -2.5935 O   0  0  0  0  0  0  0  0  0  0  0  0
   -8.1810   -9.1881   -1.7706 C   0  0  2  0  0  0  0  0  0  0  0  0
   -9.4086   -8.8528   -1.0894 O   0  0  0  0  0  0  0  0  0  0  0  0
   -7.8219   -8.1718   -2.8697 C   0  0  0  0  0  0  0  0  0  0  0  0
   -7.7988   -6.8235   -2.3807 O   0  0  0  0  0  0  0  0  0  0  0  0
   -7.0969   -8.2438    0.1687 C   0  0  2  0  0  0  0  0  0  0  0  0
   -7.1567   -9.3301   -0.7719 O   0  0  0  0  0  0  0  0  0  0  0  0
   -5.6937   -7.6695    0.1106 C   0  0  2  0  0  0  0  0  0  0  0  0
   -5.3322   -7.4479   -1.2570 O   0  0  0  0  0  0  0  0  0  0  0  0
   -4.6985   -8.6406    0.7068 C   0  0  1  0  0  0  0  0  0  0  0  0
   -3.4443   -7.9717    0.8591 O   0  0  0  0  0  0  0  0  0  0  0  0
   -5.1869   -9.1495    2.0497 C   0  0  2  0  0  0  0  0  0  0  0  0
   -4.3172  -10.1850    2.4864 O   0  0  0  0  0  0  0  0  0  0  0  0
   -6.6054   -9.6976    1.9707 C   0  0  2  0  0  0  0  0  0  0  0  0
   -7.4410   -8.6521    1.4925 O   0  0  0  0  0  0  0  0  0  0  0  0
   -7.0958  -10.1929    3.3364 C   0  0  0  0  0  0  0  0  0  0  0  0
   -8.3450  -10.8955    3.2629 O   0  0  0  0  0  0  0  0  0  0  0  0
  1  2  1  0  0  0  0
  3  1  1  1  0  0  0
  3  9  1  0  0  0  0
  3  4  1  0  0  0  0
  4  5  1  6  0  0  0
  4  6  1  0  0  0  0
  6  7  1  1  0  0  0
  6  8  1  0  0  0  0
  8  9  1  0  0  0  0
  8 10  1  6  0  0  0
  8 13  1  0  0  0  0
 10 11  1  0  0  0  0
 12 13  1  6  0  0  0
 12 14  1  0  0  0  0
 12 21  1  0  0  0  0
 14 15  1  6  0  0  0
 14 16  1  0  0  0  0
 16 17  1  1  0  0  0
 16 18  1  0  0  0  0
 18 19  1  6  0  0  0
 18 20  1  0  0  0  0
 20 21  1  0  0  0  0
 20 22  1  1  0  0  0
 22 23  1  0  0  0  0
M  END
>  <CHROM.1>
-175.24592426,170.67181939,-122.86576748,-164.24671419,-171.25194433,-7.58706106
-9.34894084,-0.14463697,2.73030358,-0.39590352,-1.25091203

>  <Name>
ligand

>  <RI>
0

>  <Rbt.Current_Directory>
/home/itssahil/PROJECTS/Mol_Feturizer/New_Systems/rnas/4TS2

>  <Rbt.Executable>
rbdock ($Id: //depot/dev/client3/rdock/2013.1/src/exe/rbdock.cxx#4 $)

>  <Rbt.Library>
libRbt.so (2013.1, Build901 2013/11/27)

>  <Rbt.Parameter_File>
/export/apps/rDock/src/rDock_2013.1_src/data/scripts/dock_solv.prm

>  <Rbt.Receptor>
prm/pocket_docking_2.prm

>  <SCORE>
-6.87341

>  <SCORE.INTER>
-3.68502

>  <SCORE.INTER.CONST>
1

>  <SCORE.INTER.POLAR>
0

>  <SCORE.INTER.ROT>
5

>  <SCORE.INTER.SOLV>
6.98201

>  <SCORE.INTER.VDW>
-11.7174

>  <SCORE.INTER.norm>
-0.160218

>  <SCORE.INTRA>
-3.18838

>  <SCORE.INTRA.DIHEDRAL>
-3.78462

>  <SCORE.INTRA.DIHEDRAL.0>
12.4853

>  <SCORE.INTRA.POLAR>
0

>  <SCORE.INTRA.POLAR.0>
0

>  <SCORE.INTRA.REPUL>
0

>  <SCORE.INTRA.REPUL.0>
0

>  <SCORE.INTRA.SOLV>
-0.0725505

>  <SCORE.INTRA.SOLV.lig_0>
-31.1706

>  <SCORE.INTRA.VDW>
-1.2598

>  <SCORE.INTRA.VDW.0>
-1.16895

>  <SCORE.INTRA.norm>
-0.138625

>  <SCORE.RESTR>
0

>  <SCORE.RESTR.CAVITY>
0

>  <SCORE.RESTR.norm>
0

>  <SCORE.SYSTEM>
0

>  <SCORE.SYSTEM.CONST>
0

>  <SCORE.SYSTEM.DIHEDRAL>
0

>  <SCORE.SYSTEM.SOLV>
0

>  <SCORE.SYSTEM.norm>
0

>  <SCORE.heavy>
23

>  <SCORE.norm>
-0.298844

>  <RMSD>
1.288

$$$$
ligand
 OpenBabel11021811513D
libRbt.so/2013.1/901 2013/11/27
 23 24  0  0  0  0  0  0  0  0999 V2000
  -11.2513  -10.1503    0.1389 C   0  0  0  0  0  0  0  0  0  0  0  0
  -12.1301   -9.0427    0.4154 O   0  0  0  0  0  0  0  0  0  0  0  0
  -10.4290   -9.8326   -1.1018 C   0  0  2  0  0  0  0  0  0  0  0  0
   -9.5483  -10.9626   -1.6126 C   0  0  1  0  0  0  0  0  0  0  0  0
  -10.3454  -11.8850   -2.3583 O   0  0  0  0  0  0  0  0  0  0  0  0
   -8.5252  -10.2070   -2.4540 C   0  0  2  0  0  0  0  0  0  0  0  0
   -7.2650  -10.8316   -2.7258 O   0  0  0  0  0  0  0  0  0  0  0  0
   -8.3152   -8.9549   -1.6210 C   0  0  2  0  0  0  0  0  0  0  0  0
   -9.5307   -8.7434   -0.8719 O   0  0  0  0  0  0  0  0  0  0  0  0
   -8.0105   -7.7957   -2.5871 C   0  0  0  0  0  0  0  0  0  0  0  0
   -6.8895   -8.0737   -3.4378 O   0  0  0  0  0  0  0  0  0  0  0  0
   -7.0995   -8.1590    0.3068 C   0  0  2  0  0  0  0  0  0  0  0  0
   -7.2604   -9.1976   -0.6748 O   0  0  0  0  0  0  0  0  0  0  0  0
   -5.6832   -7.6295    0.1797 C   0  0  2  0  0  0  0  0  0  0  0  0
   -5.4049   -7.3564   -1.1980 O   0  0  0  0  0  0  0  0  0  0  0  0
   -4.6868   -8.6598    0.6638 C   0  0  1  0  0  0  0  0  0  0  0  0
   -3.4019   -8.0407    0.7607 O   0  0  0  0  0  0  0  0  0  0  0  0
   -5.1038   -9.2143    2.0127 C   0  0  2  0  0  0  0  0  0  0  0  0
   -4.2453  -10.2974    2.3434 O   0  0  0  0  0  0  0  0  0  0  0  0
   -6.5433   -9.7107    2.0053 C   0  0  2  0  0  0  0  0  0  0  0  0
   -7.3702   -8.6169    1.6314 O   0  0  0  0  0  0  0  0  0  0  0  0
   -6.9603  -10.2527    3.3777 C   0  0  0  0  0  0  0  0  0  0  0  0
   -8.2475  -10.8872    3.3629 O   0  0  0  0  0  0  0  0  0  0  0  0
  1  2  1  0  0  0  0
  3  1  1  1  0  0  0
  3  9  1  0  0  0  0
  3  4  1  0  0  0  0
  4  5  1  6  0  0  0
  4  6  1  0  0  0  0
  6  7  1  1  0  0  0
  6  8  1  0  0  0  0
  8  9  1  0  0  0  0
  8 10  1  6  0  0  0
  8 13  1  0  0  0  0
 10 11  1  0  0  0  0
 12 13  1  6  0  0  0
 12 14  1  0  0  0  0
 12 21  1  0  0  0  0
 14 15  1  6  0  0  0
 14 16  1  0  0  0  0
 16 17  1  1  0  0  0
 16 18  1  0  0  0  0
 18 19  1  6  0  0  0
 18 20  1  0  0  0  0
 20 21  1  0  0  0  0
 20 22  1  1  0  0  0
 22 23  1  0  0  0  0
M  END
>  <CHROM.1>
-174.03887710,-55.98008935,-120.99248526,-171.14557642,-172.35026618,-7.57317659
-9.33138622,-0.15101929,2.69453905,-0.33004732,-1.33600365

>  <Name>
ligand

>  <RI>
0

>  <Rbt.Current_Directory>
/home/itssahil/PROJECTS/Mol_Feturizer/New_Systems/rnas/4TS2

>  <Rbt.Executable>
rbdock ($Id: //depot/dev/client3/rdock/2013.1/src/exe/rbdock.cxx#4 $)

>  <Rbt.Library>
libRbt.so (2013.1, Build901 2013/11/27)

>  <Rbt.Parameter_File>
/export/apps/rDock/src/rDock_2013.1_src/data/scripts/dock_solv.prm

>  <Rbt.Receptor>
prm/pocket_docking_2.prm

>  <SCORE>
-7.16894

>  <SCORE.INTER>
-3.96896

>  <SCORE.INTER.CONST>
1

>  <SCORE.INTER.POLAR>
0

>  <SCORE.INTER.ROT>
5

>  <SCORE.INTER.SOLV>
7.24899

>  <SCORE.INTER.VDW>
-11.9956

>  <SCORE.INTER.norm>
-0.172563

>  <SCORE.INTRA>
-3.19998

>  <SCORE.INTRA.DIHEDRAL>
-4.60423

>  <SCORE.INTRA.DIHEDRAL.0>
12.4853

>  <SCORE.INTRA.POLAR>
0

>  <SCORE.INTRA.POLAR.0>
0

>  <SCORE.INTRA.REPUL>
0

>  <SCORE.INTRA.REPUL.0>
0

>  <SCORE.INTRA.SOLV>
0.0090769

>  <SCORE.INTRA.SOLV.lig_0>
-31.1706

>  <SCORE.INTRA.VDW>
-0.902407

>  <SCORE.INTRA.VDW.0>
-1.16895

>  <SCORE.INTRA.norm>
-0.13913

>  <SCORE.RESTR>
0

>  <SCORE.RESTR.CAVITY>
0

>  <SCORE.RESTR.norm>
0

>  <SCORE.SYSTEM>
0

>  <SCORE.SYSTEM.CONST>
0

>  <SCORE.SYSTEM.DIHEDRAL>
0

>  <SCORE.SYSTEM.SOLV>
0

>  <SCORE.SYSTEM.norm>
0

>  <SCORE.heavy>
23

>  <SCORE.norm>
-0.311693

>  <RMSD>
1.313

$$$$
ligand
 OpenBabel11021811513D
libRbt.so/2013.1/901 2013/11/27
 23 24  0  0  0  0  0  0  0  0999 V2000
  -11.3523   -9.8349   -0.0743 C   0  0  0  0  0  0  0  0  0  0  0  0
  -10.5472  -10.1316    1.0830 O   0  0  0  0  0  0  0  0  0  0  0  0
  -10.4514   -9.7597   -1.2986 C   0  0  2  0  0  0  0  0  0  0  0  0
   -9.6541  -11.0182   -1.6051 C   0  0  1  0  0  0  0  0  0  0  0  0
  -10.4974  -11.9647   -2.2647 O   0  0  0  0  0  0  0  0  0  0  0  0
   -8.5316  -10.4726   -2.4814 C   0  0  2  0  0  0  0  0  0  0  0  0
   -7.3217  -11.2309   -2.5975 O   0  0  0  0  0  0  0  0  0  0  0  0
   -8.2467   -9.1398   -1.8118 C   0  0  2  0  0  0  0  0  0  0  0  0
   -9.4700   -8.7275   -1.1660 O   0  0  0  0  0  0  0  0  0  0  0  0
   -7.7974   -8.1534   -2.9049 C   0  0  0  0  0  0  0  0  0  0  0  0
   -7.7933   -6.7943   -2.4462 O   0  0  0  0  0  0  0  0  0  0  0  0
   -7.1124   -8.2222    0.1115 C   0  0  2  0  0  0  0  0  0  0  0  0
   -7.2603   -9.3371   -0.7847 O   0  0  0  0  0  0  0  0  0  0  0  0
   -5.6830   -7.7280   -0.0104 C   0  0  2  0  0  0  0  0  0  0  0  0
   -5.3542   -7.5765   -1.3958 O   0  0  0  0  0  0  0  0  0  0  0  0
   -4.7227   -8.7297    0.5923 C   0  0  1  0  0  0  0  0  0  0  0  0
   -3.4303   -8.1252    0.6813 O   0  0  0  0  0  0  0  0  0  0  0  0
   -5.1944   -9.1617    1.9676 C   0  0  2  0  0  0  0  0  0  0  0  0
   -4.3678  -10.2267    2.4172 O   0  0  0  0  0  0  0  0  0  0  0  0
   -6.6420   -9.6340    1.9521 C   0  0  2  0  0  0  0  0  0  0  0  0
   -7.4353   -8.5625    1.4597 O   0  0  0  0  0  0  0  0  0  0  0  0
   -7.1143  -10.0516    3.3498 C   0  0  0  0  0  0  0  0  0  0  0  0
   -6.4409  -11.2186    3.8441 O   0  0  0  0  0  0  0  0  0  0  0  0
  1  2  1  0  0  0  0
  3  1  1  1  0  0  0
  3  9  1  0  0  0  0
  3  4  1  0  0  0  0
  4  5  1  6  0  0  0
  4  6  1  0  0  0  0
  6  7  1  1  0  0  0
  6  8  1  0  0  0  0
  8  9  1  0  0  0  0
  8 10  1  6  0  0  0
  8 13  1  0  0  0  0
 10 11  1  0  0  0  0
 12 13  1  6  0  0  0
 12 14  1  0  0  0  0
 12 21  1  0  0  0  0
 14 15  1  6  0  0  0
 14 16  1  0  0  0  0
 16 17  1  1  0  0  0
 16 18  1  0  0  0  0
 18 19  1  6  0  0  0
 18 20  1  0  0  0  0
 20 21  1  0  0  0  0
 20 22  1  1  0  0  0
 22 23  1  0  0  0  0
M  END
>  <CHROM.1>
58.78971946,166.73307916,-118.97398893,-167.28942649,-66.50235763,-7.48297893
-9.38920152,-0.13560580,2.62744060,-0.44335663,-1.16447829

>  <Name>
ligand

>  <RI>
0

>  <Rbt.Current_Directory>
/home/itssahil/PROJECTS/Mol_Feturizer/New_Systems/rnas/4TS2

>  <Rbt.Executable>
rbdock ($Id: //depot/dev/client3/rdock/2013.1/src/exe/rbdock.cxx#4 $)

>  <Rbt.Library>
libRbt.so (2013.1, Build901 2013/11/27)

>  <Rbt.Parameter_File>
/export/apps/rDock/src/rDock_2013.1_src/data/scripts/dock_solv.prm

>  <Rbt.Receptor>
prm/pocket_docking_2.prm

>  <SCORE>
-6.503

>  <SCORE.INTER>
-3.84034

>  <SCORE.INTER.CONST>
1

>  <SCORE.INTER.POLAR>
0

>  <SCORE.INTER.ROT>
5

>  <SCORE.INTER.SOLV>
6.32381

>  <SCORE.INTER.VDW>
-11.6015

>  <SCORE.INTER.norm>
-0.166971

>  <SCORE.INTRA>
-2.66265

>  <SCORE.INTRA.DIHEDRAL>
-4.02991

>  <SCORE.INTRA.DIHEDRAL.0>
12.4853

>  <SCORE.INTRA.POLAR>
0

>  <SCORE.INTRA.POLAR.0>
0

>  <SCORE.INTRA.REPUL>
0

>  <SCORE.INTRA.REPUL.0>
0

>  <SCORE.INTRA.SOLV>
1.0252

>  <SCORE.INTRA.SOLV.lig_0>
-31.1706

>  <SCORE.INTRA.VDW>
-1.16029

>  <SCORE.INTRA.VDW.0>
-1.16895

>  <SCORE.INTRA.norm>
-0.115767

>  <SCORE.RESTR>
0

>  <SCORE.RESTR.CAVITY>
0

>  <SCORE.RESTR.norm>
0

>  <SCORE.SYSTEM>
0

>  <SCORE.SYSTEM.CONST>
0

>  <SCORE.SYSTEM.DIHEDRAL>
0

>  <SCORE.SYSTEM.SOLV>
0

>  <SCORE.SYSTEM.norm>
0

>  <SCORE.heavy>
23

>  <SCORE.norm>
-0.282739

>  <RMSD>
1.320

$$$$
ligand
 OpenBabel11021811513D
libRbt.so/2013.1/901 2013/11/27
 23 24  0  0  0  0  0  0  0  0999 V2000
  -11.2948   -9.8838   -0.1555 C   0  0  0  0  0  0  0  0  0  0  0  0
  -12.0576   -8.6664   -0.0489 O   0  0  0  0  0  0  0  0  0  0  0  0
  -10.3792   -9.7904   -1.3677 C   0  0  2  0  0  0  0  0  0  0  0  0
   -9.5734  -11.0421   -1.6797 C   0  0  1  0  0  0  0  0  0  0  0  0
  -10.4050  -11.9837   -2.3610 O   0  0  0  0  0  0  0  0  0  0  0  0
   -8.4424  -10.4818   -2.5355 C   0  0  2  0  0  0  0  0  0  0  0  0
   -7.2283  -11.2341   -2.6459 O   0  0  0  0  0  0  0  0  0  0  0  0
   -8.1709   -9.1562   -1.8462 C   0  0  2  0  0  0  0  0  0  0  0  0
   -9.4035   -8.7563   -1.2105 O   0  0  0  0  0  0  0  0  0  0  0  0
   -7.7120   -8.1549   -2.9216 C   0  0  0  0  0  0  0  0  0  0  0  0
   -7.7727   -6.7965   -2.4649 O   0  0  0  0  0  0  0  0  0  0  0  0
   -7.0960   -8.2770    0.1285 C   0  0  2  0  0  0  0  0  0  0  0  0
   -7.1963   -9.3624   -0.8096 O   0  0  0  0  0  0  0  0  0  0  0  0
   -5.6871   -7.7221    0.0321 C   0  0  2  0  0  0  0  0  0  0  0  0
   -5.3599   -7.5057   -1.3450 O   0  0  0  0  0  0  0  0  0  0  0  0
   -4.6896   -8.7069    0.6015 C   0  0  1  0  0  0  0  0  0  0  0  0
   -3.4227   -8.0554    0.7194 O   0  0  0  0  0  0  0  0  0  0  0  0
   -5.1483   -9.2088    1.9574 C   0  0  2  0  0  0  0  0  0  0  0  0
   -4.2815  -10.2562    2.3708 O   0  0  0  0  0  0  0  0  0  0  0  0
   -6.5759   -9.7372    1.9172 C   0  0  2  0  0  0  0  0  0  0  0  0
   -7.4096   -8.6804    1.4614 O   0  0  0  0  0  0  0  0  0  0  0  0
   -7.0358  -10.2257    3.2959 C   0  0  0  0  0  0  0  0  0  0  0  0
   -8.2988  -10.9060    3.2575 O   0  0  0  0  0  0  0  0  0  0  0  0
  1  2  1  0  0  0  0
  3  1  1  1  0  0  0
  3  9  1  0  0  0  0
  3  4  1  0  0  0  0
  4  5  1  6  0  0  0
  4  6  1  0  0  0  0
  6  7  1  1  0  0  0
  6  8  1  0  0  0  0
  8  9  1  0  0  0  0
  8 10  1  6  0  0  0
  8 13  1  0  0  0  0
 10 11  1  0  0  0  0
 12 13  1  6  0  0  0
 12 14  1  0  0  0  0
 12 21  1  0  0  0  0
 14 15  1  6  0  0  0
 14 16  1  0  0  0  0
 16 17  1  1  0  0  0
 16 18  1  0  0  0  0
 18 19  1  6  0  0  0
 18 20  1  0  0  0  0
 20 21  1  0  0  0  0
 20 22  1  1  0  0  0
 22 23  1  0  0  0  0
M  END
>  <CHROM.1>
-175.80672108,164.26086741,-117.99741417,-165.27885369,-171.49550913,-7.59506107
-9.32753815,-0.24130347,2.69788438,-0.36143177,-1.23951279

>  <Name>
ligand

>  <RI>
0

>  <Rbt.Current_Directory>
/home/itssahil/PROJECTS/Mol_Feturizer/New_Systems/rnas/4TS2

>  <Rbt.Executable>
rbdock ($Id: //depot/dev/client3/rdock/2013.1/src/exe/rbdock.cxx#4 $)

>  <Rbt.Library>
libRbt.so (2013.1, Build901 2013/11/27)

>  <Rbt.Parameter_File>
/export/apps/rDock/src/rDock_2013.1_src/data/scripts/dock_solv.prm

>  <Rbt.Receptor>
prm/pocket_docking_2.prm

>  <SCORE>
-6.83926

>  <SCORE.INTER>
-4.10795

>  <SCORE.INTER.CONST>
1

>  <SCORE.INTER.POLAR>
0

>  <SCORE.INTER.ROT>
5

>  <SCORE.INTER.SOLV>
7.23423

>  <SCORE.INTER.VDW>
-12.0834

>  <SCORE.INTER.norm>
-0.178607

>  <SCORE.INTRA>
-2.73162

>  <SCORE.INTRA.DIHEDRAL>
-3.44737

>  <SCORE.INTRA.DIHEDRAL.0>
12.4853

>  <SCORE.INTRA.POLAR>
0

>  <SCORE.INTRA.POLAR.0>
0

>  <SCORE.INTRA.REPUL>
0

>  <SCORE.INTRA.REPUL.0>
0

>  <SCORE.INTRA.SOLV>
-0.10161

>  <SCORE.INTRA.SOLV.lig_0>
-31.1706

>  <SCORE.INTRA.VDW>
-0.957132

>  <SCORE.INTRA.VDW.0>
-1.16895

>  <SCORE.INTRA.norm>
-0.118766

>  <SCORE.RESTR>
0.000313826

>  <SCORE.RESTR.CAVITY>
0.000313826

>  <SCORE.RESTR.norm>
1.36446e-05

>  <SCORE.SYSTEM>
0

>  <SCORE.SYSTEM.CONST>
0

>  <SCORE.SYSTEM.DIHEDRAL>
0

>  <SCORE.SYSTEM.SOLV>
0

>  <SCORE.SYSTEM.norm>
0

>  <SCORE.heavy>
23

>  <SCORE.norm>
-0.297359

>  <RMSD>
1.324

$$$$
ligand
 OpenBabel11021811513D
libRbt.so/2013.1/901 2013/11/27
 23 24  0  0  0  0  0  0  0  0999 V2000
  -11.3318   -9.5841    0.1313 C   0  0  0  0  0  0  0  0  0  0  0  0
  -12.3592  -10.5835   -0.0143 O   0  0  0  0  0  0  0  0  0  0  0  0
  -10.4545   -9.5905   -1.1123 C   0  0  2  0  0  0  0  0  0  0  0  0
   -9.7097  -10.8887   -1.3835 C   0  0  1  0  0  0  0  0  0  0  0  0
  -10.6001  -11.8288   -1.9880 O   0  0  0  0  0  0  0  0  0  0  0  0
   -8.5867  -10.4199   -2.3026 C   0  0  2  0  0  0  0  0  0  0  0  0
   -7.4077  -11.2262   -2.4115 O   0  0  0  0  0  0  0  0  0  0  0  0
   -8.2401   -9.0731   -1.6927 C   0  0  2  0  0  0  0  0  0  0  0  0
   -9.4339   -8.5908   -1.0404 O   0  0  0  0  0  0  0  0  0  0  0  0
   -7.7784   -8.1478   -2.8330 C   0  0  0  0  0  0  0  0  0  0  0  0
   -7.7911   -6.7646   -2.4534 O   0  0  0  0  0  0  0  0  0  0  0  0
   -7.0906   -8.1529    0.2203 C   0  0  2  0  0  0  0  0  0  0  0  0
   -7.2402   -9.2660   -0.6778 O   0  0  0  0  0  0  0  0  0  0  0  0
   -5.6703   -7.6392    0.0744 C   0  0  2  0  0  0  0  0  0  0  0  0
   -5.3689   -7.4778   -1.3160 O   0  0  0  0  0  0  0  0  0  0  0  0
   -4.6860   -8.6306    0.6551 C   0  0  1  0  0  0  0  0  0  0  0  0
   -3.4002   -8.0095    0.7231 O   0  0  0  0  0  0  0  0  0  0  0  0
   -5.1267   -9.0744    2.0370 C   0  0  2  0  0  0  0  0  0  0  0  0
   -4.2781  -10.1301    2.4668 O   0  0  0  0  0  0  0  0  0  0  0  0
   -6.5680   -9.5657    2.0460 C   0  0  2  0  0  0  0  0  0  0  0  0
   -7.3842   -8.5028    1.5727 O   0  0  0  0  0  0  0  0  0  0  0  0
   -7.0090   -9.9952    3.4502 C   0  0  0  0  0  0  0  0  0  0  0  0
   -6.2795  -11.1276    3.9456 O   0  0  0  0  0  0  0  0  0  0  0  0
  1  2  1  0  0  0  0
  3  1  1  1  0  0  0
  3  9  1  0  0  0  0
  3  4  1  0  0  0  0
  4  5  1  6  0  0  0
  4  6  1  0  0  0  0
  6  7  1  1  0  0  0
  6  8  1  0  0  0  0
  8  9  1  0  0  0  0
  8 10  1  6  0  0  0
  8 13  1  0  0  0  0
 10 11  1  0  0  0  0
 12 13  1  6  0  0  0
 12 14  1  0  0  0  0
 12 21  1  0  0  0  0
 14 15  1  6  0  0  0
 14 16  1  0  0  0  0
 16 17  1  1  0  0  0
 16 18  1  0  0  0  0
 18 19  1  6  0  0  0
 18 20  1  0  0  0  0
 20 21  1  0  0  0  0
 20 22  1  1  0  0  0
 22 23  1  0  0  0  0
M  END
>  <CHROM.1>
-61.93020145,163.29964484,-118.48264816,-163.71267623,-64.50494939,-7.55058047
-9.32534494,-0.07739590,2.74507176,-0.41561533,-1.13528614

>  <Name>
ligand

>  <RI>
0

>  <Rbt.Current_Directory>
/home/itssahil/PROJECTS/Mol_Feturizer/New_Systems/rnas/4TS2

>  <Rbt.Executable>
rbdock ($Id: //depot/dev/client3/rdock/2013.1/src/exe/rbdock.cxx#4 $)

>  <Rbt.Library>
libRbt.so (2013.1, Build901 2013/11/27)

>  <Rbt.Parameter_File>
/export/apps/rDock/src/rDock_2013.1_src/data/scripts/dock_solv.prm

>  <Rbt.Receptor>
prm/pocket_docking_2.prm

>  <SCORE>
-6.53558

>  <SCORE.INTER>
-4.35561

>  <SCORE.INTER.CONST>
1

>  <SCORE.INTER.POLAR>
0

>  <SCORE.INTER.ROT>
5

>  <SCORE.INTER.SOLV>
5.8803

>  <SCORE.INTER.VDW>
-11.7972

>  <SCORE.INTER.norm>
-0.189374

>  <SCORE.INTRA>
-2.19583

>  <SCORE.INTRA.DIHEDRAL>
-3.38332

>  <SCORE.INTRA.DIHEDRAL.0>
12.4853

>  <SCORE.INTRA.POLAR>
0

>  <SCORE.INTRA.POLAR.0>
0

>  <SCORE.INTRA.REPUL>
0

>  <SCORE.INTRA.REPUL.0>
0

>  <SCORE.INTRA.SOLV>
0.5836

>  <SCORE.INTRA.SOLV.lig_0>
-31.1706

>  <SCORE.INTRA.VDW>
-0.795967

>  <SCORE.INTRA.VDW.0>
-1.16895

>  <SCORE.INTRA.norm>
-0.0954708

>  <SCORE.RESTR>
0.0158559

>  <SCORE.RESTR.CAVITY>
0.0158559

>  <SCORE.RESTR.norm>
0.000689388

>  <SCORE.SYSTEM>
0

>  <SCORE.SYSTEM.CONST>
0

>  <SCORE.SYSTEM.DIHEDRAL>
0

>  <SCORE.SYSTEM.SOLV>
0

>  <SCORE.SYSTEM.norm>
0

>  <SCORE.heavy>
23

>  <SCORE.norm>
-0.284156

>  <RMSD>
1.326

$$$$
ligand
 OpenBabel11021811513D
libRbt.so/2013.1/901 2013/11/27
 23 24  0  0  0  0  0  0  0  0999 V2000
  -10.4129  -10.3446   -0.6653 C   0  0  0  0  0  0  0  0  0  0  0  0
  -11.0692  -11.5377   -1.1357 O   0  0  0  0  0  0  0  0  0  0  0  0
   -9.5108   -9.8080   -1.7674 C   0  0  2  0  0  0  0  0  0  0  0  0
   -8.3791  -10.7294   -2.1962 C   0  0  1  0  0  0  0  0  0  0  0  0
   -8.8907  -11.7289   -3.0802 O   0  0  0  0  0  0  0  0  0  0  0  0
   -7.4132   -9.7527   -2.8583 C   0  0  2  0  0  0  0  0  0  0  0  0
   -6.0353  -10.1257   -2.9783 O   0  0  0  0  0  0  0  0  0  0  0  0
   -7.5457   -8.5388   -1.9556 C   0  0  2  0  0  0  0  0  0  0  0  0
   -8.8652   -8.5939   -1.3733 O   0  0  0  0  0  0  0  0  0  0  0  0
   -7.3381   -7.2848   -2.8241 C   0  0  0  0  0  0  0  0  0  0  0  0
   -7.4249   -6.0723   -2.0626 O   0  0  0  0  0  0  0  0  0  0  0  0
   -7.0277   -8.0565    0.3524 C   0  0  2  0  0  0  0  0  0  0  0  0
   -6.5944   -8.6507   -0.8835 O   0  0  0  0  0  0  0  0  0  0  0  0
   -5.7891   -7.7931    1.1884 C   0  0  2  0  0  0  0  0  0  0  0  0
   -4.8105   -7.1273    0.3827 O   0  0  0  0  0  0  0  0  0  0  0  0
   -5.1899   -9.0952    1.6728 C   0  0  1  0  0  0  0  0  0  0  0  0
   -4.1865   -8.8003    2.6473 O   0  0  0  0  0  0  0  0  0  0  0  0
   -6.2604   -9.9844    2.2762 C   0  0  2  0  0  0  0  0  0  0  0  0
   -5.6912  -11.2570    2.5519 O   0  0  0  0  0  0  0  0  0  0  0  0
   -7.4459  -10.1673    1.3381 C   0  0  2  0  0  0  0  0  0  0  0  0
   -7.9653   -8.8762    1.0499 O   0  0  0  0  0  0  0  0  0  0  0  0
   -8.5295  -11.0530    1.9644 C   0  0  0  0  0  0  0  0  0  0  0  0
   -8.1134  -12.4165    2.1299 O   0  0  0  0  0  0  0  0  0  0  0  0
  1  2  1  0  0  0  0
  3  1  1  1  0  0  0
  3  9  1  0  0  0  0
  3  4  1  0  0  0  0
  4  5  1  6  0  0  0
  4  6  1  0  0  0  0
  6  7  1  1  0  0  0
  6  8  1  0  0  0  0
  8  9  1  0  0  0  0
  8 10  1  6  0  0  0
  8 13  1  0  0  0  0
 10 11  1  0  0  0  0
 12 13  1  6  0  0  0
 12 14  1  0  0  0  0
 12 21  1  0  0  0  0
 14 15  1  6  0  0  0
 14 16  1  0  0  0  0
 16 17  1  1  0  0  0
 16 18  1  0  0  0  0
 18 19  1  6  0  0  0
 18 20  1  0  0  0  0
 20 21  1  0  0  0  0
 20 22  1  1  0  0  0
 22 23  1  0  0  0  0
M  END
>  <CHROM.1>
-62.39560149,-179.20722913,-159.40934282,-148.36450960,-67.57267372,-7.40747513
-9.48209052,-0.26577043,2.59792936,-0.73064397,-0.95703322

>  <Name>
ligand

>  <RI>
0

>  <Rbt.Current_Directory>
/home/itssahil/PROJECTS/Mol_Feturizer/New_Systems/rnas/4TS2

>  <Rbt.Executable>
rbdock ($Id: //depot/dev/client3/rdock/2013.1/src/exe/rbdock.cxx#4 $)

>  <Rbt.Library>
libRbt.so (2013.1, Build901 2013/11/27)

>  <Rbt.Parameter_File>
/export/apps/rDock/src/rDock_2013.1_src/data/scripts/dock_solv.prm

>  <Rbt.Receptor>
prm/pocket_docking_4.prm

>  <SCORE>
-8.08357

>  <SCORE.INTER>
-3.77449

>  <SCORE.INTER.CONST>
1

>  <SCORE.INTER.POLAR>
0

>  <SCORE.INTER.ROT>
5

>  <SCORE.INTER.SOLV>
7.28847

>  <SCORE.INTER.VDW>
-11.8792

>  <SCORE.INTER.norm>
-0.164108

>  <SCORE.INTRA>
-4.30908

>  <SCORE.INTRA.DIHEDRAL>
-6.69966

>  <SCORE.INTRA.DIHEDRAL.0>
12.4853

>  <SCORE.INTRA.POLAR>
0

>  <SCORE.INTRA.POLAR.0>
0

>  <SCORE.INTRA.REPUL>
0

>  <SCORE.INTRA.REPUL.0>
0

>  <SCORE.INTRA.SOLV>
0.71049

>  <SCORE.INTRA.SOLV.lig_0>
-31.1706

>  <SCORE.INTRA.VDW>
-1.3145

>  <SCORE.INTRA.VDW.0>
-1.16895

>  <SCORE.INTRA.norm>
-0.187351

>  <SCORE.RESTR>
0

>  <SCORE.RESTR.CAVITY>
0

>  <SCORE.RESTR.norm>
0

>  <SCORE.SYSTEM>
0

>  <SCORE.SYSTEM.CONST>
0

>  <SCORE.SYSTEM.DIHEDRAL>
0

>  <SCORE.SYSTEM.SOLV>
0

>  <SCORE.SYSTEM.norm>
0

>  <SCORE.heavy>
23

>  <SCORE.norm>
-0.35146

>  <RMSD>
1.342

$$$$
ligand
 OpenBabel11021811513D
libRbt.so/2013.1/901 2013/11/27
 23 24  0  0  0  0  0  0  0  0999 V2000
  -11.3630   -9.7931   -0.1597 C   0  0  0  0  0  0  0  0  0  0  0  0
  -10.5628  -10.1020    0.9978 O   0  0  0  0  0  0  0  0  0  0  0  0
  -10.4561   -9.6999   -1.3785 C   0  0  2  0  0  0  0  0  0  0  0  0
   -9.6398  -10.9459   -1.6861 C   0  0  1  0  0  0  0  0  0  0  0  0
  -10.4662  -11.9009   -2.3548 O   0  0  0  0  0  0  0  0  0  0  0  0
   -8.5199  -10.3810   -2.5533 C   0  0  2  0  0  0  0  0  0  0  0  0
   -7.2991  -11.1221   -2.6658 O   0  0  0  0  0  0  0  0  0  0  0  0
   -8.2572   -9.0475   -1.8760 C   0  0  2  0  0  0  0  0  0  0  0  0
   -9.4897   -8.6550   -1.2355 O   0  0  0  0  0  0  0  0  0  0  0  0
   -7.8152   -8.0500   -2.9619 C   0  0  0  0  0  0  0  0  0  0  0  0
   -7.8423   -6.6922   -2.5002 O   0  0  0  0  0  0  0  0  0  0  0  0
   -7.1017   -8.0991    0.0196 C   0  0  2  0  0  0  0  0  0  0  0  0
   -7.2741   -9.2360   -0.8440 O   0  0  0  0  0  0  0  0  0  0  0  0
   -5.6814   -7.5986   -0.1665 C   0  0  2  0  0  0  0  0  0  0  0  0
   -5.4047   -7.4781   -1.5662 O   0  0  0  0  0  0  0  0  0  0  0  0
   -4.6923   -8.5794    0.4239 C   0  0  1  0  0  0  0  0  0  0  0  0
   -3.4020   -7.9647    0.4510 O   0  0  0  0  0  0  0  0  0  0  0  0
   -5.1101   -8.9817    1.8255 C   0  0  2  0  0  0  0  0  0  0  0  0
   -4.2598  -10.0302    2.2693 O   0  0  0  0  0  0  0  0  0  0  0  0
   -6.5538   -9.4635    1.8744 C   0  0  2  0  0  0  0  0  0  0  0  0
   -7.3725   -8.4093    1.3864 O   0  0  0  0  0  0  0  0  0  0  0  0
   -6.9714   -9.8508    3.2980 C   0  0  0  0  0  0  0  0  0  0  0  0
   -6.3240  -11.0423    3.7681 O   0  0  0  0  0  0  0  0  0  0  0  0
  1  2  1  0  0  0  0
  3  1  1  1  0  0  0
  3  9  1  0  0  0  0
  3  4  1  0  0  0  0
  4  5  1  6  0  0  0
  4  6  1  0  0  0  0
  6  7  1  1  0  0  0
  6  8  1  0  0  0  0
  8  9  1  0  0  0  0
  8 10  1  6  0  0  0
  8 13  1  0  0  0  0
 10 11  1  0  0  0  0
 12 13  1  6  0  0  0
 12 14  1  0  0  0  0
 12 21  1  0  0  0  0
 14 15  1  6  0  0  0
 14 16  1  0  0  0  0
 16 17  1  1  0  0  0
 16 18  1  0  0  0  0
 18 19  1  6  0  0  0
 18 20  1  0  0  0  0
 20 21  1  0  0  0  0
 20 22  1  1  0  0  0
 22 23  1  0  0  0  0
M  END
>  <CHROM.1>
58.02109435,166.28536077,-116.33973926,-170.08432560,-69.60054297,-7.45877897
-9.27285290,-0.23374585,2.65180768,-0.44634435,-1.16927047

>  <Name>
ligand

>  <RI>
0

>  <Rbt.Current_Directory>
/home/itssahil/PROJECTS/Mol_Feturizer/New_Systems/rnas/4TS2

>  <Rbt.Executable>
rbdock ($Id: //depot/dev/client3/rdock/2013.1/src/exe/rbdock.cxx#4 $)

>  <Rbt.Library>
libRbt.so (2013.1, Build901 2013/11/27)

>  <Rbt.Parameter_File>
/export/apps/rDock/src/rDock_2013.1_src/data/scripts/dock_solv.prm

>  <Rbt.Receptor>
prm/pocket_docking_2.prm

>  <SCORE>
-6.60662

>  <SCORE.INTER>
-4.13952

>  <SCORE.INTER.CONST>
1

>  <SCORE.INTER.POLAR>
0

>  <SCORE.INTER.ROT>
5

>  <SCORE.INTER.SOLV>
6.79314

>  <SCORE.INTER.VDW>
-11.9574

>  <SCORE.INTER.norm>
-0.179979

>  <SCORE.INTRA>
-2.4671

>  <SCORE.INTRA.DIHEDRAL>
-4.12744

>  <SCORE.INTRA.DIHEDRAL.0>
12.4853

>  <SCORE.INTRA.POLAR>
0

>  <SCORE.INTRA.POLAR.0>
0

>  <SCORE.INTRA.REPUL>
0

>  <SCORE.INTRA.REPUL.0>
0

>  <SCORE.INTRA.SOLV>
0.962017

>  <SCORE.INTRA.SOLV.lig_0>
-31.1706

>  <SCORE.INTRA.VDW>
-0.884385

>  <SCORE.INTRA.VDW.0>
-1.16895

>  <SCORE.INTRA.norm>
-0.107265

>  <SCORE.RESTR>
0

>  <SCORE.RESTR.CAVITY>
0

>  <SCORE.RESTR.norm>
0

>  <SCORE.SYSTEM>
0

>  <SCORE.SYSTEM.CONST>
0

>  <SCORE.SYSTEM.DIHEDRAL>
0

>  <SCORE.SYSTEM.SOLV>
0

>  <SCORE.SYSTEM.norm>
0

>  <SCORE.heavy>
23

>  <SCORE.norm>
-0.287244

>  <RMSD>
1.420

$$$$
ligand
 OpenBabel11021811513D
libRbt.so/2013.1/901 2013/11/27
 23 24  0  0  0  0  0  0  0  0999 V2000
   -8.7190  -11.4567   -1.0796 C   0  0  0  0  0  0  0  0  0  0  0  0
   -8.8328  -12.6522   -1.8754 O   0  0  0  0  0  0  0  0  0  0  0  0
   -8.0865  -10.3586   -1.9226 C   0  0  2  0  0  0  0  0  0  0  0  0
   -6.6696  -10.6335   -2.4026 C   0  0  1  0  0  0  0  0  0  0  0  0
   -6.7135  -11.5009   -3.5375 O   0  0  0  0  0  0  0  0  0  0  0  0
   -6.1666   -9.2285   -2.7160 C   0  0  2  0  0  0  0  0  0  0  0  0
   -4.7532   -8.9972   -2.7483 O   0  0  0  0  0  0  0  0  0  0  0  0
   -6.7987   -8.4243   -1.5937 C   0  0  2  0  0  0  0  0  0  0  0  0
   -7.9960   -9.1277   -1.1997 O   0  0  0  0  0  0  0  0  0  0  0  0
   -7.0965   -7.0154   -2.1377 C   0  0  0  0  0  0  0  0  0  0  0  0
   -8.0223   -7.0370   -3.2331 O   0  0  0  0  0  0  0  0  0  0  0  0
   -6.4655   -7.8348    0.7234 C   0  0  2  0  0  0  0  0  0  0  0  0
   -5.9077   -8.4208   -0.4654 O   0  0  0  0  0  0  0  0  0  0  0  0
   -5.3128   -7.5206    1.6588 C   0  0  2  0  0  0  0  0  0  0  0  0
   -4.2939   -6.8245    0.9325 O   0  0  0  0  0  0  0  0  0  0  0  0
   -4.7105   -8.7965    2.2048 C   0  0  1  0  0  0  0  0  0  0  0  0
   -3.8048   -8.4586    3.2579 O   0  0  0  0  0  0  0  0  0  0  0  0
   -5.7956   -9.7205    2.7240 C   0  0  2  0  0  0  0  0  0  0  0  0
   -5.2064  -10.9694    3.0592 O   0  0  0  0  0  0  0  0  0  0  0  0
   -6.8897   -9.9530    1.6906 C   0  0  2  0  0  0  0  0  0  0  0  0
   -7.4289   -8.6837    1.3469 O   0  0  0  0  0  0  0  0  0  0  0  0
   -7.9901  -10.8737    2.2314 C   0  0  0  0  0  0  0  0  0  0  0  0
   -7.5376  -12.2171    2.4557 O   0  0  0  0  0  0  0  0  0  0  0  0
  1  2  1  0  0  0  0
  3  1  1  1  0  0  0
  3  9  1  0  0  0  0
  3  4  1  0  0  0  0
  4  5  1  6  0  0  0
  4  6  1  0  0  0  0
  6  7  1  1  0  0  0
  6  8  1  0  0  0  0
  8  9  1  0  0  0  0
  8 10  1  6  0  0  0
  8 13  1  0  0  0  0
 10 11  1  0  0  0  0
 12 13  1  6  0  0  0
 12 14  1  0  0  0  0
 12 21  1  0  0  0  0
 14 15  1  6  0  0  0
 14 16  1  0  0  0  0
 16 17  1  1  0  0  0
 16 18  1  0  0  0  0
 18 19  1  6  0  0  0
 18 20  1  0  0  0  0
 20 21  1  0  0  0  0
 20 22  1  1  0  0  0
 22 23  1  0  0  0  0
M  END
>  <CHROM.1>
-62.70016579,61.55589409,-163.01658602,-172.48843629,-67.06297128,-6.56928728
-9.43935768,-0.11836743,2.29963162,-0.97758464,-1.07136531

>  <Name>
ligand

>  <RI>
0

>  <Rbt.Current_Directory>
/home/itssahil/PROJECTS/Mol_Feturizer/New_Systems/rnas/4TS2

>  <Rbt.Executable>
rbdock ($Id: //depot/dev/client3/rdock/2013.1/src/exe/rbdock.cxx#4 $)

>  <Rbt.Library>
libRbt.so (2013.1, Build901 2013/11/27)

>  <Rbt.Parameter_File>
/export/apps/rDock/src/rDock_2013.1_src/data/scripts/dock_solv.prm

>  <Rbt.Receptor>
prm/pocket_docking_4.prm

>  <SCORE>
-8.80274

>  <SCORE.INTER>
-2.19344

>  <SCORE.INTER.CONST>
1

>  <SCORE.INTER.POLAR>
0

>  <SCORE.INTER.ROT>
5

>  <SCORE.INTER.SOLV>
6.86589

>  <SCORE.INTER.VDW>
-10.6843

>  <SCORE.INTER.norm>
-0.0953667

>  <SCORE.INTRA>
-6.6093

>  <SCORE.INTRA.DIHEDRAL>
-10.6981

>  <SCORE.INTRA.DIHEDRAL.0>
12.4853

>  <SCORE.INTRA.POLAR>
0

>  <SCORE.INTRA.POLAR.0>
0

>  <SCORE.INTRA.REPUL>
0

>  <SCORE.INTRA.REPUL.0>
0

>  <SCORE.INTRA.SOLV>
0.458054

>  <SCORE.INTRA.SOLV.lig_0>
-31.1706

>  <SCORE.INTRA.VDW>
-1.48929

>  <SCORE.INTRA.VDW.0>
-1.16895

>  <SCORE.INTRA.norm>
-0.287361

>  <SCORE.RESTR>
0

>  <SCORE.RESTR.CAVITY>
0

>  <SCORE.RESTR.norm>
0

>  <SCORE.SYSTEM>
0

>  <SCORE.SYSTEM.CONST>
0

>  <SCORE.SYSTEM.DIHEDRAL>
0

>  <SCORE.SYSTEM.SOLV>
0

>  <SCORE.SYSTEM.norm>
0

>  <SCORE.heavy>
23

>  <SCORE.norm>
-0.382728

>  <RMSD>
1.763

$$$$
ligand
 OpenBabel11021811513D
libRbt.so/2013.1/901 2013/11/27
 23 24  0  0  0  0  0  0  0  0999 V2000
   -8.6676  -11.4184   -1.0430 C   0  0  0  0  0  0  0  0  0  0  0  0
   -8.8416  -12.5987   -1.8505 O   0  0  0  0  0  0  0  0  0  0  0  0
   -8.0383  -10.3244   -1.8936 C   0  0  2  0  0  0  0  0  0  0  0  0
   -6.6239  -10.6023   -2.3790 C   0  0  1  0  0  0  0  0  0  0  0  0
   -6.6735  -11.4745   -3.5099 O   0  0  0  0  0  0  0  0  0  0  0  0
   -6.1214   -9.1990   -2.7008 C   0  0  2  0  0  0  0  0  0  0  0  0
   -4.7080   -8.9688   -2.7406 O   0  0  0  0  0  0  0  0  0  0  0  0
   -6.7478   -8.3896   -1.5790 C   0  0  2  0  0  0  0  0  0  0  0  0
   -7.9437   -9.0905   -1.1764 O   0  0  0  0  0  0  0  0  0  0  0  0
   -7.0472   -6.9828   -2.1277 C   0  0  0  0  0  0  0  0  0  0  0  0
   -7.9825   -7.0080   -3.2150 O   0  0  0  0  0  0  0  0  0  0  0  0
   -6.4113   -7.8108    0.7403 C   0  0  2  0  0  0  0  0  0  0  0  0
   -5.8516   -8.3818   -0.4549 O   0  0  0  0  0  0  0  0  0  0  0  0
   -5.2592   -7.4977    1.6768 C   0  0  2  0  0  0  0  0  0  0  0  0
   -4.2461   -6.7880    0.9554 O   0  0  0  0  0  0  0  0  0  0  0  0
   -4.6474   -8.7747    2.2097 C   0  0  1  0  0  0  0  0  0  0  0  0
   -3.7422   -8.4407    3.2644 O   0  0  0  0  0  0  0  0  0  0  0  0
   -5.7255   -9.7108    2.7218 C   0  0  2  0  0  0  0  0  0  0  0  0
   -5.1274  -10.9588    3.0442 O   0  0  0  0  0  0  0  0  0  0  0  0
   -6.8197   -9.9408    1.6881 C   0  0  2  0  0  0  0  0  0  0  0  0
   -7.3680   -8.6720    1.3573 O   0  0  0  0  0  0  0  0  0  0  0  0
   -7.9130  -10.8740    2.2219 C   0  0  0  0  0  0  0  0  0  0  0  0
   -7.4518  -12.2169    2.4305 O   0  0  0  0  0  0  0  0  0  0  0  0
  1  2  1  0  0  0  0
  3  1  1  1  0  0  0
  3  9  1  0  0  0  0
  3  4  1  0  0  0  0
  4  5  1  6  0  0  0
  4  6  1  0  0  0  0
  6  7  1  1  0  0  0
  6  8  1  0  0  0  0
  8  9  1  0  0  0  0
  8 10  1  6  0  0  0
  8 13  1  0  0  0  0
 10 11  1  0  0  0  0
 12 13  1  6  0  0  0
 12 14  1  0  0  0  0
 12 21  1  0  0  0  0
 14 15  1  6  0  0  0
 14 16  1  0  0  0  0
 16 17  1  1  0  0  0
 16 18  1  0  0  0  0
 18 19  1  6  0  0  0
 18 20  1  0  0  0  0
 20 21  1  0  0  0  0
 20 22  1  1  0  0  0
 22 23  1  0  0  0  0
M  END
>  <CHROM.1>
-65.28029704,61.80759444,-163.45248754,-171.49117992,-67.17009744,-6.51562577
-9.41401691,-0.10692759,2.31666808,-0.97438820,-1.05565704

>  <Name>
ligand

>  <RI>
0

>  <Rbt.Current_Directory>
/home/itssahil/PROJECTS/Mol_Feturizer/New_Systems/rnas/4TS2

>  <Rbt.Executable>
rbdock ($Id: //depot/dev/client3/rdock/2013.1/src/exe/rbdock.cxx#4 $)

>  <Rbt.Library>
libRbt.so (2013.1, Build901 2013/11/27)

>  <Rbt.Parameter_File>
/export/apps/rDock/src/rDock_2013.1_src/data/scripts/dock_solv.prm

>  <Rbt.Receptor>
prm/pocket_docking_4.prm

>  <SCORE>
-8.79475

>  <SCORE.INTER>
-2.23743

>  <SCORE.INTER.CONST>
1

>  <SCORE.INTER.POLAR>
0

>  <SCORE.INTER.ROT>
5

>  <SCORE.INTER.SOLV>
6.74717

>  <SCORE.INTER.VDW>
-10.674

>  <SCORE.INTER.norm>
-0.0972797

>  <SCORE.INTRA>
-6.55731

>  <SCORE.INTRA.DIHEDRAL>
-10.6138

>  <SCORE.INTRA.DIHEDRAL.0>
12.4853

>  <SCORE.INTRA.POLAR>
0

>  <SCORE.INTRA.POLAR.0>
0

>  <SCORE.INTRA.REPUL>
0

>  <SCORE.INTRA.REPUL.0>
0

>  <SCORE.INTRA.SOLV>
0.467313

>  <SCORE.INTRA.SOLV.lig_0>
-31.1706

>  <SCORE.INTRA.VDW>
-1.48406

>  <SCORE.INTRA.VDW.0>
-1.16895

>  <SCORE.INTRA.norm>
-0.285101

>  <SCORE.RESTR>
0

>  <SCORE.RESTR.CAVITY>
0

>  <SCORE.RESTR.norm>
0

>  <SCORE.SYSTEM>
0

>  <SCORE.SYSTEM.CONST>
0

>  <SCORE.SYSTEM.DIHEDRAL>
0

>  <SCORE.SYSTEM.SOLV>
0

>  <SCORE.SYSTEM.norm>
0

>  <SCORE.heavy>
23

>  <SCORE.norm>
-0.38238

>  <RMSD>
1.769

$$$$
ligand
 OpenBabel11021811513D
libRbt.so/2013.1/901 2013/11/27
 23 24  0  0  0  0  0  0  0  0999 V2000
   -9.2592  -11.3527   -1.5784 C   0  0  0  0  0  0  0  0  0  0  0  0
  -10.5762  -10.7744   -1.4956 O   0  0  0  0  0  0  0  0  0  0  0  0
   -8.3512  -10.4083   -2.3530 C   0  0  2  0  0  0  0  0  0  0  0  0
   -6.9242  -10.8923   -2.5600 C   0  0  1  0  0  0  0  0  0  0  0  0
   -6.8934  -11.8305   -3.6375 O   0  0  0  0  0  0  0  0  0  0  0  0
   -6.1901   -9.5882   -2.8532 C   0  0  2  0  0  0  0  0  0  0  0  0
   -4.7733   -9.5373   -2.6474 O   0  0  0  0  0  0  0  0  0  0  0  0
   -6.8874   -8.6296   -1.9041 C   0  0  2  0  0  0  0  0  0  0  0  0
   -8.2179   -9.1472   -1.6913 O   0  0  0  0  0  0  0  0  0  0  0  0
   -6.8959   -7.2396   -2.5656 C   0  0  0  0  0  0  0  0  0  0  0  0
   -7.5838   -6.2616   -1.7731 O   0  0  0  0  0  0  0  0  0  0  0  0
   -6.9502   -8.0584    0.4406 C   0  0  2  0  0  0  0  0  0  0  0  0
   -6.2067   -8.6517   -0.6380 O   0  0  0  0  0  0  0  0  0  0  0  0
   -5.9723   -7.7794    1.5668 C   0  0  2  0  0  0  0  0  0  0  0  0
   -4.8251   -7.1057    1.0375 O   0  0  0  0  0  0  0  0  0  0  0  0
   -5.5064   -9.0736    2.1968 C   0  0  1  0  0  0  0  0  0  0  0  0
   -4.7918   -8.7652    3.3959 O   0  0  0  0  0  0  0  0  0  0  0  0
   -6.6881   -9.9723    2.5082 C   0  0  2  0  0  0  0  0  0  0  0  0
   -6.1974  -11.2379    2.9288 O   0  0  0  0  0  0  0  0  0  0  0  0
   -7.5890  -10.1705    1.2967 C   0  0  2  0  0  0  0  0  0  0  0  0
   -8.0285   -8.8859    0.8767 O   0  0  0  0  0  0  0  0  0  0  0  0
   -8.7893  -11.0657    1.6267 C   0  0  0  0  0  0  0  0  0  0  0  0
   -8.4160  -12.4213    1.9144 O   0  0  0  0  0  0  0  0  0  0  0  0
  1  2  1  0  0  0  0
  3  1  1  1  0  0  0
  3  9  1  0  0  0  0
  3  4  1  0  0  0  0
  4  5  1  6  0  0  0
  4  6  1  0  0  0  0
  6  7  1  1  0  0  0
  6  8  1  0  0  0  0
  8  9  1  0  0  0  0
  8 10  1  6  0  0  0
  8 13  1  0  0  0  0
 10 11  1  0  0  0  0
 12 13  1  6  0  0  0
 12 14  1  0  0  0  0
 12 21  1  0  0  0  0
 14 15  1  6  0  0  0
 14 16  1  0  0  0  0
 16 17  1  1  0  0  0
 16 18  1  0  0  0  0
 18 19  1  6  0  0  0
 18 20  1  0  0  0  0
 20 21  1  0  0  0  0
 20 22  1  1  0  0  0
 22 23  1  0  0  0  0
M  END
>  <CHROM.1>
-178.53319374,177.60906291,-163.20371751,-165.07565608,-67.00485488,-7.06681896
-9.52077635,-0.24738715,2.07103676,-0.89411126,-1.28996913

>  <Name>
ligand

>  <RI>
0

>  <Rbt.Current_Directory>
/home/itssahil/PROJECTS/Mol_Feturizer/New_Systems/rnas/4TS2

>  <Rbt.Executable>
rbdock ($Id: //depot/dev/client3/rdock/2013.1/src/exe/rbdock.cxx#4 $)

>  <Rbt.Library>
libRbt.so (2013.1, Build901 2013/11/27)

>  <Rbt.Parameter_File>
/export/apps/rDock/src/rDock_2013.1_src/data/scripts/dock_solv.prm

>  <Rbt.Receptor>
prm/pocket_docking_5.prm

>  <SCORE>
-9.26622

>  <SCORE.INTER>
-2.90707

>  <SCORE.INTER.CONST>
1

>  <SCORE.INTER.POLAR>
0

>  <SCORE.INTER.ROT>
5

>  <SCORE.INTER.SOLV>
7.69618

>  <SCORE.INTER.VDW>
-11.4368

>  <SCORE.INTER.norm>
-0.126394

>  <SCORE.INTRA>
-6.35915

>  <SCORE.INTRA.DIHEDRAL>
-10.0898

>  <SCORE.INTRA.DIHEDRAL.0>
12.4853

>  <SCORE.INTRA.POLAR>
0

>  <SCORE.INTRA.POLAR.0>
0

>  <SCORE.INTRA.REPUL>
0

>  <SCORE.INTRA.REPUL.0>
0

>  <SCORE.INTRA.SOLV>
0.591549

>  <SCORE.INTRA.SOLV.lig_0>
-31.1706

>  <SCORE.INTRA.VDW>
-1.61005

>  <SCORE.INTRA.VDW.0>
-1.16895

>  <SCORE.INTRA.norm>
-0.276485

>  <SCORE.RESTR>
0

>  <SCORE.RESTR.CAVITY>
0

>  <SCORE.RESTR.norm>
0

>  <SCORE.SYSTEM>
0

>  <SCORE.SYSTEM.CONST>
0

>  <SCORE.SYSTEM.DIHEDRAL>
0

>  <SCORE.SYSTEM.SOLV>
0

>  <SCORE.SYSTEM.norm>
0

>  <SCORE.heavy>
23

>  <SCORE.norm>
-0.402879

>  <RMSD>
1.792

$$$$
ligand
 OpenBabel11021811513D
libRbt.so/2013.1/901 2013/11/27
 23 24  0  0  0  0  0  0  0  0999 V2000
   -8.9477  -11.7107   -1.5817 C   0  0  0  0  0  0  0  0  0  0  0  0
  -10.3035  -11.2402   -1.4562 O   0  0  0  0  0  0  0  0  0  0  0  0
   -8.1277  -10.6664   -2.3256 C   0  0  2  0  0  0  0  0  0  0  0  0
   -6.6731  -11.0322   -2.5785 C   0  0  1  0  0  0  0  0  0  0  0  0
   -6.5943  -11.9151   -3.6995 O   0  0  0  0  0  0  0  0  0  0  0  0
   -6.0436   -9.6647   -2.8218 C   0  0  2  0  0  0  0  0  0  0  0  0
   -4.6307   -9.5172   -2.6370 O   0  0  0  0  0  0  0  0  0  0  0  0
   -6.7910   -8.8055   -1.8173 C   0  0  2  0  0  0  0  0  0  0  0  0
   -8.0750   -9.4306   -1.6074 O   0  0  0  0  0  0  0  0  0  0  0  0
   -6.9157   -7.3912   -2.4121 C   0  0  0  0  0  0  0  0  0  0  0  0
   -7.7216   -6.5260   -1.6001 O   0  0  0  0  0  0  0  0  0  0  0  0
   -6.7579   -8.1488    0.5055 C   0  0  2  0  0  0  0  0  0  0  0  0
   -6.0856   -8.8346   -0.5649 O   0  0  0  0  0  0  0  0  0  0  0  0
   -5.6955   -7.6780    1.4813 C   0  0  2  0  0  0  0  0  0  0  0  0
   -4.6514   -7.0178    0.7574 O   0  0  0  0  0  0  0  0  0  0  0  0
   -5.0875   -8.8553    2.2114 C   0  0  1  0  0  0  0  0  0  0  0  0
   -4.2813   -8.3599    3.2829 O   0  0  0  0  0  0  0  0  0  0  0  0
   -6.1723   -9.7678    2.7511 C   0  0  2  0  0  0  0  0  0  0  0  0
   -5.5618  -10.9422    3.2683 O   0  0  0  0  0  0  0  0  0  0  0  0
   -7.1718  -10.1655    1.6733 C   0  0  2  0  0  0  0  0  0  0  0  0
   -7.7326   -8.9695    1.1490 O   0  0  0  0  0  0  0  0  0  0  0  0
   -8.2736  -11.0733    2.2328 C   0  0  0  0  0  0  0  0  0  0  0  0
   -9.3112  -11.3486    1.2804 O   0  0  0  0  0  0  0  0  0  0  0  0
  1  2  1  0  0  0  0
  3  1  1  1  0  0  0
  3  9  1  0  0  0  0
  3  4  1  0  0  0  0
  4  5  1  6  0  0  0
  4  6  1  0  0  0  0
  6  7  1  1  0  0  0
  6  8  1  0  0  0  0
  8  9  1  0  0  0  0
  8 10  1  6  0  0  0
  8 13  1  0  0  0  0
 10 11  1  0  0  0  0
 12 13  1  6  0  0  0
 12 14  1  0  0  0  0
 12 21  1  0  0  0  0
 14 15  1  6  0  0  0
 14 16  1  0  0  0  0
 16 17  1  1  0  0  0
 16 18  1  0  0  0  0
 18 19  1  6  0  0  0
 18 20  1  0  0  0  0
 20 21  1  0  0  0  0
 20 22  1  1  0  0  0
 22 23  1  0  0  0  0
M  END
>  <CHROM.1>
-178.24381365,174.31552845,-152.88867156,-174.90833736,173.62732332,-6.85961074
-9.52545432,-0.19174151,2.16380720,-0.80497493,-1.42880400

>  <Name>
ligand

>  <RI>
0

>  <Rbt.Current_Directory>
/home/itssahil/PROJECTS/Mol_Feturizer/New_Systems/rnas/4TS2

>  <Rbt.Executable>
rbdock ($Id: //depot/dev/client3/rdock/2013.1/src/exe/rbdock.cxx#4 $)

>  <Rbt.Library>
libRbt.so (2013.1, Build901 2013/11/27)

>  <Rbt.Parameter_File>
/export/apps/rDock/src/rDock_2013.1_src/data/scripts/dock_solv.prm

>  <Rbt.Receptor>
prm/pocket_docking_6.prm

>  <SCORE>
-7.88573

>  <SCORE.INTER>
-2.11137

>  <SCORE.INTER.CONST>
1

>  <SCORE.INTER.POLAR>
0

>  <SCORE.INTER.ROT>
5

>  <SCORE.INTER.SOLV>
7.22738

>  <SCORE.INTER.VDW>
-10.75

>  <SCORE.INTER.norm>
-0.0917986

>  <SCORE.INTRA>
-5.77436

>  <SCORE.INTRA.DIHEDRAL>
-9.09649

>  <SCORE.INTRA.DIHEDRAL.0>
12.4853

>  <SCORE.INTRA.POLAR>
0

>  <SCORE.INTRA.POLAR.0>
0

>  <SCORE.INTRA.REPUL>
0

>  <SCORE.INTRA.REPUL.0>
0

>  <SCORE.INTRA.SOLV>
0.666397

>  <SCORE.INTRA.SOLV.lig_0>
-31.1706

>  <SCORE.INTRA.VDW>
-1.55932

>  <SCORE.INTRA.VDW.0>
-1.16895

>  <SCORE.INTRA.norm>
-0.251059

>  <SCORE.RESTR>
0

>  <SCORE.RESTR.CAVITY>
0

>  <SCORE.RESTR.norm>
0

>  <SCORE.SYSTEM>
0

>  <SCORE.SYSTEM.CONST>
0

>  <SCORE.SYSTEM.DIHEDRAL>
0

>  <SCORE.SYSTEM.SOLV>
0

>  <SCORE.SYSTEM.norm>
0

>  <SCORE.heavy>
23

>  <SCORE.norm>
-0.342858

>  <RMSD>
1.821

$$$$
ligand
 OpenBabel11021811513D
libRbt.so/2013.1/901 2013/11/27
 23 24  0  0  0  0  0  0  0  0999 V2000
   -7.8934  -12.1460   -0.5628 C   0  0  0  0  0  0  0  0  0  0  0  0
   -7.8937  -13.3105   -1.4111 O   0  0  0  0  0  0  0  0  0  0  0  0
   -7.7986  -10.9000   -1.4317 C   0  0  2  0  0  0  0  0  0  0  0  0
   -6.5208  -10.7630   -2.2454 C   0  0  1  0  0  0  0  0  0  0  0  0
   -6.6096  -11.5870   -3.4097 O   0  0  0  0  0  0  0  0  0  0  0  0
   -6.4986   -9.2680   -2.5450 C   0  0  2  0  0  0  0  0  0  0  0  0
   -5.2486   -8.6541   -2.8807 O   0  0  0  0  0  0  0  0  0  0  0  0
   -7.0271   -8.6916   -1.2434 C   0  0  2  0  0  0  0  0  0  0  0  0
   -7.8626   -9.7060   -0.6467 O   0  0  0  0  0  0  0  0  0  0  0  0
   -7.8095   -7.4100   -1.5825 C   0  0  0  0  0  0  0  0  0  0  0  0
   -6.9674   -6.3830   -2.1246 O   0  0  0  0  0  0  0  0  0  0  0  0
   -6.2774   -7.7924    0.8679 C   0  0  2  0  0  0  0  0  0  0  0  0
   -5.9214   -8.4630   -0.3534 O   0  0  0  0  0  0  0  0  0  0  0  0
   -4.9872   -7.4020    1.5645 C   0  0  2  0  0  0  0  0  0  0  0  0
   -4.1215   -6.7567    0.6241 O   0  0  0  0  0  0  0  0  0  0  0  0
   -4.2762   -8.6297    2.0900 C   0  0  1  0  0  0  0  0  0  0  0  0
   -3.2095   -8.2081    2.9432 O   0  0  0  0  0  0  0  0  0  0  0  0
   -5.2385   -9.5182    2.8551 C   0  0  2  0  0  0  0  0  0  0  0  0
   -4.5771  -10.7349    3.1738 O   0  0  0  0  0  0  0  0  0  0  0  0
   -6.4893   -9.8343    2.0461 C   0  0  2  0  0  0  0  0  0  0  0  0
   -7.1033   -8.5977    1.7088 O   0  0  0  0  0  0  0  0  0  0  0  0
   -7.4629  -10.7181    2.8347 C   0  0  0  0  0  0  0  0  0  0  0  0
   -8.6621  -11.0202    2.1065 O   0  0  0  0  0  0  0  0  0  0  0  0
  1  2  1  0  0  0  0
  3  1  1  1  0  0  0
  3  9  1  0  0  0  0
  3  4  1  0  0  0  0
  4  5  1  6  0  0  0
  4  6  1  0  0  0  0
  6  7  1  1  0  0  0
  6  8  1  0  0  0  0
  8  9  1  0  0  0  0
  8 10  1  6  0  0  0
  8 13  1  0  0  0  0
 10 11  1  0  0  0  0
 12 13  1  6  0  0  0
 12 14  1  0  0  0  0
 12 21  1  0  0  0  0
 14 15  1  6  0  0  0
 14 16  1  0  0  0  0
 16 17  1  1  0  0  0
 16 18  1  0  0  0  0
 18 19  1  6  0  0  0
 18 20  1  0  0  0  0
 20 21  1  0  0  0  0
 20 22  1  1  0  0  0
 22 23  1  0  0  0  0
M  END
>  <CHROM.1>
-63.35445189,-64.99731888,-169.71251058,174.11454431,179.21575536,-6.36127234
-9.42005144,0.09604129,2.57508668,-1.01841729,-1.07985277

>  <Name>
ligand

>  <RI>
0

>  <Rbt.Current_Directory>
/home/itssahil/PROJECTS/Mol_Feturizer/New_Systems/rnas/4TS2

>  <Rbt.Executable>
rbdock ($Id: //depot/dev/client3/rdock/2013.1/src/exe/rbdock.cxx#4 $)

>  <Rbt.Library>
libRbt.so (2013.1, Build901 2013/11/27)

>  <Rbt.Parameter_File>
/export/apps/rDock/src/rDock_2013.1_src/data/scripts/dock_solv.prm

>  <Rbt.Receptor>
prm/pocket_docking_4.prm

>  <SCORE>
-8.4792

>  <SCORE.INTER>
-1.57474

>  <SCORE.INTER.CONST>
1

>  <SCORE.INTER.POLAR>
0

>  <SCORE.INTER.ROT>
5

>  <SCORE.INTER.SOLV>
6.4156

>  <SCORE.INTER.VDW>
-10.1217

>  <SCORE.INTER.norm>
-0.068467

>  <SCORE.INTRA>
-6.90446

>  <SCORE.INTRA.DIHEDRAL>
-11.56

>  <SCORE.INTRA.DIHEDRAL.0>
12.4853

>  <SCORE.INTRA.POLAR>
0

>  <SCORE.INTRA.POLAR.0>
0

>  <SCORE.INTRA.REPUL>
0

>  <SCORE.INTRA.REPUL.0>
0

>  <SCORE.INTRA.SOLV>
0.757028

>  <SCORE.INTRA.SOLV.lig_0>
-31.1706

>  <SCORE.INTRA.VDW>
-1.503

>  <SCORE.INTRA.VDW.0>
-1.16895

>  <SCORE.INTRA.norm>
-0.300194

>  <SCORE.RESTR>
0

>  <SCORE.RESTR.CAVITY>
0

>  <SCORE.RESTR.norm>
0

>  <SCORE.SYSTEM>
0

>  <SCORE.SYSTEM.CONST>
0

>  <SCORE.SYSTEM.DIHEDRAL>
0

>  <SCORE.SYSTEM.SOLV>
0

>  <SCORE.SYSTEM.norm>
0

>  <SCORE.heavy>
23

>  <SCORE.norm>
-0.368661

>  <RMSD>
1.953

$$$$
ligand
 OpenBabel11021811513D
libRbt.so/2013.1/901 2013/11/27
 23 24  0  0  0  0  0  0  0  0999 V2000
   -7.6805  -12.1289    0.2785 C   0  0  0  0  0  0  0  0  0  0  0  0
   -7.7211  -13.3579   -0.4721 O   0  0  0  0  0  0  0  0  0  0  0  0
   -7.7361  -10.9554   -0.6891 C   0  0  2  0  0  0  0  0  0  0  0  0
   -6.5730  -10.8527   -1.6638 C   0  0  1  0  0  0  0  0  0  0  0  0
   -6.7746  -11.7702   -2.7408 O   0  0  0  0  0  0  0  0  0  0  0  0
   -6.6397   -9.3867   -2.0784 C   0  0  2  0  0  0  0  0  0  0  0  0
   -5.4622   -8.7710   -2.6137 O   0  0  0  0  0  0  0  0  0  0  0  0
   -7.0248   -8.7202   -0.7695 C   0  0  2  0  0  0  0  0  0  0  0  0
   -7.7453   -9.7037    0.0032 O   0  0  0  0  0  0  0  0  0  0  0  0
   -7.8870   -7.4903   -1.1065 C   0  0  0  0  0  0  0  0  0  0  0  0
   -7.1735   -6.5196   -1.8852 O   0  0  0  0  0  0  0  0  0  0  0  0
   -6.0508   -7.6002    1.1343 C   0  0  2  0  0  0  0  0  0  0  0  0
   -5.8272   -8.3928   -0.0446 O   0  0  0  0  0  0  0  0  0  0  0  0
   -4.6963   -7.1227    1.6242 C   0  0  2  0  0  0  0  0  0  0  0  0
   -3.9656   -6.5712    0.5233 O   0  0  0  0  0  0  0  0  0  0  0  0
   -3.8976   -8.2791    2.1844 C   0  0  1  0  0  0  0  0  0  0  0  0
   -2.7470   -7.7567    2.8527 O   0  0  0  0  0  0  0  0  0  0  0  0
   -4.7393   -9.0923    3.1493 C   0  0  2  0  0  0  0  0  0  0  0  0
   -4.0149  -10.2604    3.5104 O   0  0  0  0  0  0  0  0  0  0  0  0
   -6.0699   -9.5073    2.5360 C   0  0  2  0  0  0  0  0  0  0  0  0
   -6.7499   -8.3209    2.1489 O   0  0  0  0  0  0  0  0  0  0  0  0
   -6.9201  -10.3134    3.5251 C   0  0  0  0  0  0  0  0  0  0  0  0
   -8.1391  -10.8035    2.9477 O   0  0  0  0  0  0  0  0  0  0  0  0
  1  2  1  0  0  0  0
  3  1  1  1  0  0  0
  3  9  1  0  0  0  0
  3  4  1  0  0  0  0
  4  5  1  6  0  0  0
  4  6  1  0  0  0  0
  6  7  1  1  0  0  0
  6  8  1  0  0  0  0
  8  9  1  0  0  0  0
  8 10  1  6  0  0  0
  8 13  1  0  0  0  0
 10 11  1  0  0  0  0
 12 13  1  6  0  0  0
 12 14  1  0  0  0  0
 12 21  1  0  0  0  0
 14 15  1  6  0  0  0
 14 16  1  0  0  0  0
 16 17  1  1  0  0  0
 16 18  1  0  0  0  0
 18 19  1  6  0  0  0
 18 20  1  0  0  0  0
 20 21  1  0  0  0  0
 20 22  1  1  0  0  0
 22 23  1  0  0  0  0
M  END
>  <CHROM.1>
-62.39510333,-62.04381626,-169.32158208,172.32539717,-175.73790719,-6.17828240
-9.29854844,0.52938972,2.77698783,-0.98333712,-0.99454212

>  <Name>
ligand

>  <RI>
0

>  <Rbt.Current_Directory>
/home/itssahil/PROJECTS/Mol_Feturizer/New_Systems/rnas/4TS2

>  <Rbt.Executable>
rbdock ($Id: //depot/dev/client3/rdock/2013.1/src/exe/rbdock.cxx#4 $)

>  <Rbt.Library>
libRbt.so (2013.1, Build901 2013/11/27)

>  <Rbt.Parameter_File>
/export/apps/rDock/src/rDock_2013.1_src/data/scripts/dock_solv.prm

>  <Rbt.Receptor>
prm/pocket_docking_4.prm

>  <SCORE>
-8.433

>  <SCORE.INTER>
-1.70201

>  <SCORE.INTER.CONST>
1

>  <SCORE.INTER.POLAR>
0

>  <SCORE.INTER.ROT>
5

>  <SCORE.INTER.SOLV>
6.32809

>  <SCORE.INTER.VDW>
-10.1774

>  <SCORE.INTER.norm>
-0.0740003

>  <SCORE.INTRA>
-6.73099

>  <SCORE.INTRA.DIHEDRAL>
-11.3901

>  <SCORE.INTRA.DIHEDRAL.0>
12.4853

>  <SCORE.INTRA.POLAR>
0

>  <SCORE.INTRA.POLAR.0>
0

>  <SCORE.INTRA.REPUL>
0

>  <SCORE.INTRA.REPUL.0>
0

>  <SCORE.INTRA.SOLV>
0.729958

>  <SCORE.INTRA.SOLV.lig_0>
-31.1706

>  <SCORE.INTRA.VDW>
-1.4009

>  <SCORE.INTRA.VDW.0>
-1.16895

>  <SCORE.INTRA.norm>
-0.292652

>  <SCORE.RESTR>
0

>  <SCORE.RESTR.CAVITY>
0

>  <SCORE.RESTR.norm>
0

>  <SCORE.SYSTEM>
0

>  <SCORE.SYSTEM.CONST>
0

>  <SCORE.SYSTEM.DIHEDRAL>
0

>  <SCORE.SYSTEM.SOLV>
0

>  <SCORE.SYSTEM.norm>
0

>  <SCORE.heavy>
23

>  <SCORE.norm>
-0.366652

>  <RMSD>
1.969

$$$$
ligand
 OpenBabel11021811513D
libRbt.so/2013.1/901 2013/11/27
 23 24  0  0  0  0  0  0  0  0999 V2000
   -7.6961  -12.0970    0.0629 C   0  0  0  0  0  0  0  0  0  0  0  0
   -6.4821  -12.0728    0.8383 O   0  0  0  0  0  0  0  0  0  0  0  0
   -7.7079  -10.8995   -0.8765 C   0  0  2  0  0  0  0  0  0  0  0  0
   -6.5147  -10.7883   -1.8131 C   0  0  1  0  0  0  0  0  0  0  0  0
   -6.6950  -11.6765   -2.9181 O   0  0  0  0  0  0  0  0  0  0  0  0
   -6.5507   -9.3119   -2.1930 C   0  0  2  0  0  0  0  0  0  0  0  0
   -5.3501   -8.6987   -2.6774 O   0  0  0  0  0  0  0  0  0  0  0  0
   -6.9670   -8.6726   -0.8800 C   0  0  2  0  0  0  0  0  0  0  0  0
   -7.7225   -9.6652   -0.1538 O   0  0  0  0  0  0  0  0  0  0  0  0
   -7.8033   -7.4236   -1.2120 C   0  0  0  0  0  0  0  0  0  0  0  0
   -7.0493   -6.4355   -1.9279 O   0  0  0  0  0  0  0  0  0  0  0  0
   -6.0340   -7.5923    1.0668 C   0  0  2  0  0  0  0  0  0  0  0  0
   -5.7879   -8.3787   -0.1118 O   0  0  0  0  0  0  0  0  0  0  0  0
   -4.6891   -7.1188    1.5859 C   0  0  2  0  0  0  0  0  0  0  0  0
   -3.9363   -6.5619    0.5027 O   0  0  0  0  0  0  0  0  0  0  0  0
   -3.9026   -8.2789    2.1555 C   0  0  1  0  0  0  0  0  0  0  0  0
   -2.7650   -7.7613    2.8493 O   0  0  0  0  0  0  0  0  0  0  0  0
   -4.7639   -9.0966    3.0991 C   0  0  2  0  0  0  0  0  0  0  0  0
   -4.0477  -10.2673    3.4680 O   0  0  0  0  0  0  0  0  0  0  0  0
   -6.0825   -9.5070    2.4574 C   0  0  2  0  0  0  0  0  0  0  0  0
   -6.7537   -8.3179    2.0634 O   0  0  0  0  0  0  0  0  0  0  0  0
   -6.9527  -10.3177    3.4251 C   0  0  0  0  0  0  0  0  0  0  0  0
   -8.1751  -10.7772    2.8299 O   0  0  0  0  0  0  0  0  0  0  0  0
  1  2  1  0  0  0  0
  3  1  1  1  0  0  0
  3  9  1  0  0  0  0
  3  4  1  0  0  0  0
  4  5  1  6  0  0  0
  4  6  1  0  0  0  0
  6  7  1  1  0  0  0
  6  8  1  0  0  0  0
  8  9  1  0  0  0  0
  8 10  1  6  0  0  0
  8 13  1  0  0  0  0
 10 11  1  0  0  0  0
 12 13  1  6  0  0  0
 12 14  1  0  0  0  0
 12 21  1  0  0  0  0
 14 15  1  6  0  0  0
 14 16  1  0  0  0  0
 16 17  1  1  0  0  0
 16 18  1  0  0  0  0
 18 19  1  6  0  0  0
 18 20  1  0  0  0  0
 20 21  1  0  0  0  0
 20 22  1  1  0  0  0
 22 23  1  0  0  0  0
M  END
>  <CHROM.1>
56.45820878,-62.88480876,-167.83939407,171.28964220,-177.09595817,-6.09411175
-9.20766216,0.50540969,2.51230271,-0.95998639,-1.02126423

>  <Name>
ligand

>  <RI>
0

>  <Rbt.Current_Directory>
/home/itssahil/PROJECTS/Mol_Feturizer/New_Systems/rnas/4TS2

>  <Rbt.Executable>
rbdock ($Id: //depot/dev/client3/rdock/2013.1/src/exe/rbdock.cxx#4 $)

>  <Rbt.Library>
libRbt.so (2013.1, Build901 2013/11/27)

>  <Rbt.Parameter_File>
/export/apps/rDock/src/rDock_2013.1_src/data/scripts/dock_solv.prm

>  <Rbt.Receptor>
prm/pocket_docking_3.prm

>  <SCORE>
-8.23924

>  <SCORE.INTER>
-1.63774

>  <SCORE.INTER.CONST>
1

>  <SCORE.INTER.POLAR>
0

>  <SCORE.INTER.ROT>
5

>  <SCORE.INTER.SOLV>
6.34501

>  <SCORE.INTER.VDW>
-10.1402

>  <SCORE.INTER.norm>
-0.0712061

>  <SCORE.INTRA>
-6.6015

>  <SCORE.INTRA.DIHEDRAL>
-11.1419

>  <SCORE.INTRA.DIHEDRAL.0>
12.4853

>  <SCORE.INTRA.POLAR>
0

>  <SCORE.INTRA.POLAR.0>
0

>  <SCORE.INTRA.REPUL>
0

>  <SCORE.INTRA.REPUL.0>
0

>  <SCORE.INTRA.SOLV>
1.68834

>  <SCORE.INTRA.SOLV.lig_0>
-31.1706

>  <SCORE.INTRA.VDW>
-1.87471

>  <SCORE.INTRA.VDW.0>
-1.16895

>  <SCORE.INTRA.norm>
-0.287022

>  <SCORE.RESTR>
0

>  <SCORE.RESTR.CAVITY>
0

>  <SCORE.RESTR.norm>
0

>  <SCORE.SYSTEM>
0

>  <SCORE.SYSTEM.CONST>
0

>  <SCORE.SYSTEM.DIHEDRAL>
0

>  <SCORE.SYSTEM.SOLV>
0

>  <SCORE.SYSTEM.norm>
0

>  <SCORE.heavy>
23

>  <SCORE.norm>
-0.358228

>  <RMSD>
2.018

$$$$
ligand
 OpenBabel11021811513D
libRbt.so/2013.1/901 2013/11/27
 23 24  0  0  0  0  0  0  0  0999 V2000
   -9.1353  -11.5222   -1.9211 C   0  0  0  0  0  0  0  0  0  0  0  0
  -10.4888  -11.0317   -1.9740 O   0  0  0  0  0  0  0  0  0  0  0  0
   -8.2068  -10.4810   -2.5297 C   0  0  2  0  0  0  0  0  0  0  0  0
   -6.7446  -10.8866   -2.6344 C   0  0  1  0  0  0  0  0  0  0  0  0
   -6.5675  -11.7324   -3.7725 O   0  0  0  0  0  0  0  0  0  0  0  0
   -6.0517   -9.5335   -2.7545 C   0  0  2  0  0  0  0  0  0  0  0  0
   -4.6644   -9.4402   -2.4095 O   0  0  0  0  0  0  0  0  0  0  0  0
   -6.8806   -8.6848   -1.8065 C   0  0  2  0  0  0  0  0  0  0  0  0
   -8.1980   -9.2731   -1.7636 O   0  0  0  0  0  0  0  0  0  0  0  0
   -6.8962   -7.2474   -2.3573 C   0  0  0  0  0  0  0  0  0  0  0  0
   -7.4697   -7.1714   -3.6699 O   0  0  0  0  0  0  0  0  0  0  0  0
   -7.1439   -8.2106    0.5458 C   0  0  2  0  0  0  0  0  0  0  0  0
   -6.3204   -8.7809   -0.4860 O   0  0  0  0  0  0  0  0  0  0  0  0
   -6.2783   -8.0516    1.7818 C   0  0  2  0  0  0  0  0  0  0  0  0
   -5.0498   -7.4131    1.4169 O   0  0  0  0  0  0  0  0  0  0  0  0
   -5.9458   -9.4039    2.3734 C   0  0  1  0  0  0  0  0  0  0  0  0
   -5.3479   -9.2053    3.6566 O   0  0  0  0  0  0  0  0  0  0  0  0
   -7.1965  -10.2522    2.5043 C   0  0  2  0  0  0  0  0  0  0  0  0
   -6.8158  -11.5652    2.8922 O   0  0  0  0  0  0  0  0  0  0  0  0
   -7.9727  -10.3299    1.1966 C   0  0  2  0  0  0  0  0  0  0  0  0
   -8.3016   -9.0008    0.8157 O   0  0  0  0  0  0  0  0  0  0  0  0
   -9.2437  -11.1748    1.3442 C   0  0  0  0  0  0  0  0  0  0  0  0
   -8.9699  -12.5605    1.5982 O   0  0  0  0  0  0  0  0  0  0  0  0
  1  2  1  0  0  0  0
  3  1  1  1  0  0  0
  3  9  1  0  0  0  0
  3  4  1  0  0  0  0
  4  5  1  6  0  0  0
  4  6  1  0  0  0  0
  6  7  1  1  0  0  0
  6  8  1  0  0  0  0
  8  9  1  0  0  0  0
  8 10  1  6  0  0  0
  8 13  1  0  0  0  0
 10 11  1  0  0  0  0
 12 13  1  6  0  0  0
 12 14  1  0  0  0  0
 12 21  1  0  0  0  0
 14 15  1  6  0  0  0
 14 16  1  0  0  0  0
 16 17  1  1  0  0  0
 16 18  1  0  0  0  0
 18 19  1  6  0  0  0
 18 20  1  0  0  0  0
 20 21  1  0  0  0  0
 20 22  1  1  0  0  0
 22 23  1  0  0  0  0
M  END
>  <CHROM.1>
-176.10580625,60.09414288,-165.03264819,-169.82116064,-66.31682136,-7.21437069
-9.70410998,-0.34614441,1.75386481,-0.83622332,-1.40234368

>  <Name>
ligand

>  <RI>
0

>  <Rbt.Current_Directory>
/home/itssahil/PROJECTS/Mol_Feturizer/New_Systems/rnas/4TS2

>  <Rbt.Executable>
rbdock ($Id: //depot/dev/client3/rdock/2013.1/src/exe/rbdock.cxx#4 $)

>  <Rbt.Library>
libRbt.so (2013.1, Build901 2013/11/27)

>  <Rbt.Parameter_File>
/export/apps/rDock/src/rDock_2013.1_src/data/scripts/dock_solv.prm

>  <Rbt.Receptor>
prm/pocket_docking_3.prm

>  <SCORE>
-9.45396

>  <SCORE.INTER>
-2.81579

>  <SCORE.INTER.CONST>
1

>  <SCORE.INTER.POLAR>
0

>  <SCORE.INTER.ROT>
5

>  <SCORE.INTER.SOLV>
7.4132

>  <SCORE.INTER.VDW>
-11.2816

>  <SCORE.INTER.norm>
-0.122426

>  <SCORE.INTRA>
-6.63817

>  <SCORE.INTRA.DIHEDRAL>
-10.8164

>  <SCORE.INTRA.DIHEDRAL.0>
12.4853

>  <SCORE.INTRA.POLAR>
0

>  <SCORE.INTRA.POLAR.0>
0

>  <SCORE.INTRA.REPUL>
0

>  <SCORE.INTRA.REPUL.0>
0

>  <SCORE.INTRA.SOLV>
0.46173

>  <SCORE.INTRA.SOLV.lig_0>
-31.1706

>  <SCORE.INTRA.VDW>
-1.46085

>  <SCORE.INTRA.VDW.0>
-1.16895

>  <SCORE.INTRA.norm>
-0.288616

>  <SCORE.RESTR>
0

>  <SCORE.RESTR.CAVITY>
0

>  <SCORE.RESTR.norm>
0

>  <SCORE.SYSTEM>
0

>  <SCORE.SYSTEM.CONST>
0

>  <SCORE.SYSTEM.DIHEDRAL>
0

>  <SCORE.SYSTEM.SOLV>
0

>  <SCORE.SYSTEM.norm>
0

>  <SCORE.heavy>
23

>  <SCORE.norm>
-0.411042

>  <RMSD>
2.075

$$$$
ligand
 OpenBabel11021811513D
libRbt.so/2013.1/901 2013/11/27
 23 24  0  0  0  0  0  0  0  0999 V2000
   -8.0139  -12.1480   -0.9796 C   0  0  0  0  0  0  0  0  0  0  0  0
   -7.8771  -13.3360   -1.7829 O   0  0  0  0  0  0  0  0  0  0  0  0
   -7.7027  -10.9306   -1.8384 C   0  0  2  0  0  0  0  0  0  0  0  0
   -6.2932  -10.8717   -2.4072 C   0  0  1  0  0  0  0  0  0  0  0  0
   -6.2087  -11.7211   -3.5533 O   0  0  0  0  0  0  0  0  0  0  0  0
   -6.1447   -9.3874   -2.7241 C   0  0  2  0  0  0  0  0  0  0  0  0
   -4.8263   -8.8385   -2.8365 O   0  0  0  0  0  0  0  0  0  0  0  0
   -6.8724   -8.7543   -1.5512 C   0  0  2  0  0  0  0  0  0  0  0  0
   -7.8505   -9.7148   -1.0994 O   0  0  0  0  0  0  0  0  0  0  0  0
   -7.5173   -7.4486   -2.0502 C   0  0  0  0  0  0  0  0  0  0  0  0
   -8.5024   -7.6795   -3.0670 O   0  0  0  0  0  0  0  0  0  0  0  0
   -6.4930   -7.8884    0.6701 C   0  0  2  0  0  0  0  0  0  0  0  0
   -5.9371   -8.5518   -0.4784 O   0  0  0  0  0  0  0  0  0  0  0  0
   -5.3354   -7.4663    1.5554 C   0  0  2  0  0  0  0  0  0  0  0  0
   -4.3503   -6.8015    0.7567 O   0  0  0  0  0  0  0  0  0  0  0  0
   -4.6853   -8.6759    2.1903 C   0  0  1  0  0  0  0  0  0  0  0  0
   -3.7732   -8.2279    3.1958 O   0  0  0  0  0  0  0  0  0  0  0  0
   -5.7329   -9.5864    2.8021 C   0  0  2  0  0  0  0  0  0  0  0  0
   -5.1002  -10.7865    3.2250 O   0  0  0  0  0  0  0  0  0  0  0  0
   -6.8361   -9.9333    1.8115 C   0  0  2  0  0  0  0  0  0  0  0  0
   -7.4196   -8.7123    1.3775 O   0  0  0  0  0  0  0  0  0  0  0  0
   -7.8987  -10.8394    2.4448 C   0  0  0  0  0  0  0  0  0  0  0  0
   -9.0428  -11.0368    1.6012 O   0  0  0  0  0  0  0  0  0  0  0  0
  1  2  1  0  0  0  0
  3  1  1  1  0  0  0
  3  9  1  0  0  0  0
  3  4  1  0  0  0  0
  4  5  1  6  0  0  0
  4  6  1  0  0  0  0
  6  7  1  1  0  0  0
  6  8  1  0  0  0  0
  8  9  1  0  0  0  0
  8 10  1  6  0  0  0
  8 13  1  0  0  0  0
 10 11  1  0  0  0  0
 12 13  1  6  0  0  0
 12 14  1  0  0  0  0
 12 21  1  0  0  0  0
 14 15  1  6  0  0  0
 14 16  1  0  0  0  0
 16 17  1  1  0  0  0
 16 18  1  0  0  0  0
 18 19  1  6  0  0  0
 18 20  1  0  0  0  0
 20 21  1  0  0  0  0
 20 22  1  1  0  0  0
 22 23  1  0  0  0  0
M  END
>  <CHROM.1>
-61.64872200,62.89623418,-167.07405194,176.81545061,171.97838366,-6.54086441
-9.54876741,-0.12746168,2.31677303,-1.02157471,-1.25227423

>  <Name>
ligand

>  <RI>
0

>  <Rbt.Current_Directory>
/home/itssahil/PROJECTS/Mol_Feturizer/New_Systems/rnas/4TS2

>  <Rbt.Executable>
rbdock ($Id: //depot/dev/client3/rdock/2013.1/src/exe/rbdock.cxx#4 $)

>  <Rbt.Library>
libRbt.so (2013.1, Build901 2013/11/27)

>  <Rbt.Parameter_File>
/export/apps/rDock/src/rDock_2013.1_src/data/scripts/dock_solv.prm

>  <Rbt.Receptor>
prm/pocket_docking_5.prm

>  <SCORE>
-8.41145

>  <SCORE.INTER>
-1.61591

>  <SCORE.INTER.CONST>
1

>  <SCORE.INTER.POLAR>
0

>  <SCORE.INTER.ROT>
5

>  <SCORE.INTER.SOLV>
7.05563

>  <SCORE.INTER.VDW>
-10.3625

>  <SCORE.INTER.norm>
-0.0702567

>  <SCORE.INTRA>
-6.79555

>  <SCORE.INTRA.DIHEDRAL>
-11.2395

>  <SCORE.INTRA.DIHEDRAL.0>
12.4853

>  <SCORE.INTRA.POLAR>
0

>  <SCORE.INTRA.POLAR.0>
0

>  <SCORE.INTRA.REPUL>
0

>  <SCORE.INTRA.REPUL.0>
0

>  <SCORE.INTRA.SOLV>
0.534012

>  <SCORE.INTRA.SOLV.lig_0>
-31.1706

>  <SCORE.INTRA.VDW>
-1.4428

>  <SCORE.INTRA.VDW.0>
-1.16895

>  <SCORE.INTRA.norm>
-0.295459

>  <SCORE.RESTR>
0

>  <SCORE.RESTR.CAVITY>
0

>  <SCORE.RESTR.norm>
0

>  <SCORE.SYSTEM>
0

>  <SCORE.SYSTEM.CONST>
0

>  <SCORE.SYSTEM.DIHEDRAL>
0

>  <SCORE.SYSTEM.SOLV>
0

>  <SCORE.SYSTEM.norm>
0

>  <SCORE.heavy>
23

>  <SCORE.norm>
-0.365715

>  <RMSD>
2.092

$$$$
ligand
 OpenBabel11021811513D
libRbt.so/2013.1/901 2013/11/27
 23 24  0  0  0  0  0  0  0  0999 V2000
   -9.1685  -11.7487   -2.0639 C   0  0  0  0  0  0  0  0  0  0  0  0
  -10.5360  -11.3025   -2.1432 O   0  0  0  0  0  0  0  0  0  0  0  0
   -8.2589  -10.6578   -2.6107 C   0  0  2  0  0  0  0  0  0  0  0  0
   -6.7776  -11.0001   -2.6563 C   0  0  1  0  0  0  0  0  0  0  0  0
   -6.5143  -11.8147   -3.8006 O   0  0  0  0  0  0  0  0  0  0  0  0
   -6.1380   -9.6173   -2.7201 C   0  0  2  0  0  0  0  0  0  0  0  0
   -4.7726   -9.4734   -2.3109 O   0  0  0  0  0  0  0  0  0  0  0  0
   -7.0435   -8.8231   -1.7954 C   0  0  2  0  0  0  0  0  0  0  0  0
   -8.3353   -9.4663   -1.8229 O   0  0  0  0  0  0  0  0  0  0  0  0
   -7.0955   -7.3767   -2.3199 C   0  0  0  0  0  0  0  0  0  0  0  0
   -7.5904   -7.3004   -3.6641 O   0  0  0  0  0  0  0  0  0  0  0  0
   -7.4417   -8.4311    0.5531 C   0  0  2  0  0  0  0  0  0  0  0  0
   -6.5391   -8.9224   -0.4528 O   0  0  0  0  0  0  0  0  0  0  0  0
   -6.6366   -8.2201    1.8218 C   0  0  2  0  0  0  0  0  0  0  0  0
   -5.4498   -7.4828    1.5087 O   0  0  0  0  0  0  0  0  0  0  0  0
   -6.2203   -9.5493    2.4125 C   0  0  1  0  0  0  0  0  0  0  0  0
   -5.6867   -9.3202    3.7188 O   0  0  0  0  0  0  0  0  0  0  0  0
   -7.4041  -10.4945    2.4890 C   0  0  2  0  0  0  0  0  0  0  0  0
   -6.9355  -11.7784    2.8783 O   0  0  0  0  0  0  0  0  0  0  0  0
   -8.1240  -10.6168    1.1527 C   0  0  2  0  0  0  0  0  0  0  0  0
   -8.5426   -9.3130    0.7725 O   0  0  0  0  0  0  0  0  0  0  0  0
   -9.3289  -11.5605    1.2452 C   0  0  0  0  0  0  0  0  0  0  0  0
  -10.3282  -11.1056    2.1695 O   0  0  0  0  0  0  0  0  0  0  0  0
  1  2  1  0  0  0  0
  3  1  1  1  0  0  0
  3  9  1  0  0  0  0
  3  4  1  0  0  0  0
  4  5  1  6  0  0  0
  4  6  1  0  0  0  0
  6  7  1  1  0  0  0
  6  8  1  0  0  0  0
  8  9  1  0  0  0  0
  8 10  1  6  0  0  0
  8 13  1  0  0  0  0
 10 11  1  0  0  0  0
 12 13  1  6  0  0  0
 12 14  1  0  0  0  0
 12 21  1  0  0  0  0
 14 15  1  6  0  0  0
 14 16  1  0  0  0  0
 16 17  1  1  0  0  0
 16 18  1  0  0  0  0
 18 19  1  6  0  0  0
 18 20  1  0  0  0  0
 20 21  1  0  0  0  0
 20 22  1  1  0  0  0
 22 23  1  0  0  0  0
M  END
>  <CHROM.1>
-177.30204119,59.05863319,-163.54089739,-168.69293580,61.73316588,-7.43581745
-9.80123243,-0.32965118,1.62123452,-0.74626455,-1.51444167

>  <Name>
ligand

>  <RI>
0

>  <Rbt.Current_Directory>
/home/itssahil/PROJECTS/Mol_Feturizer/New_Systems/rnas/4TS2

>  <Rbt.Executable>
rbdock ($Id: //depot/dev/client3/rdock/2013.1/src/exe/rbdock.cxx#4 $)

>  <Rbt.Library>
libRbt.so (2013.1, Build901 2013/11/27)

>  <Rbt.Parameter_File>
/export/apps/rDock/src/rDock_2013.1_src/data/scripts/dock_solv.prm

>  <Rbt.Receptor>
prm/pocket_docking_6.prm

>  <SCORE>
-9.72753

>  <SCORE.INTER>
-2.97532

>  <SCORE.INTER.CONST>
1

>  <SCORE.INTER.POLAR>
0

>  <SCORE.INTER.ROT>
5

>  <SCORE.INTER.SOLV>
7.80782

>  <SCORE.INTER.VDW>
-11.5195

>  <SCORE.INTER.norm>
-0.129362

>  <SCORE.INTRA>
-6.7522

>  <SCORE.INTRA.DIHEDRAL>
-10.6794

>  <SCORE.INTRA.DIHEDRAL.0>
12.4853

>  <SCORE.INTRA.POLAR>
0

>  <SCORE.INTRA.POLAR.0>
0

>  <SCORE.INTRA.REPUL>
0

>  <SCORE.INTRA.REPUL.0>
0

>  <SCORE.INTRA.SOLV>
0.312978

>  <SCORE.INTRA.SOLV.lig_0>
-31.1706

>  <SCORE.INTRA.VDW>
-1.56898

>  <SCORE.INTRA.VDW.0>
-1.16895

>  <SCORE.INTRA.norm>
-0.293574

>  <SCORE.RESTR>
0

>  <SCORE.RESTR.CAVITY>
0

>  <SCORE.RESTR.norm>
0

>  <SCORE.SYSTEM>
0

>  <SCORE.SYSTEM.CONST>
0

>  <SCORE.SYSTEM.DIHEDRAL>
0

>  <SCORE.SYSTEM.SOLV>
0

>  <SCORE.SYSTEM.norm>
0

>  <SCORE.heavy>
23

>  <SCORE.norm>
-0.422936

>  <RMSD>
2.225

$$$$
ligand
 OpenBabel11021811513D
libRbt.so/2013.1/901 2013/11/27
 23 24  0  0  0  0  0  0  0  0999 V2000
   -9.0258  -12.5395   -1.7149 C   0  0  0  0  0  0  0  0  0  0  0  0
  -10.4611  -12.4349   -1.6487 O   0  0  0  0  0  0  0  0  0  0  0  0
   -8.4762  -11.3415   -2.4759 C   0  0  2  0  0  0  0  0  0  0  0  0
   -6.9755  -11.3531   -2.7230 C   0  0  1  0  0  0  0  0  0  0  0  0
   -6.6839  -12.2093   -3.8295 O   0  0  0  0  0  0  0  0  0  0  0  0
   -6.6899   -9.8789   -2.9886 C   0  0  2  0  0  0  0  0  0  0  0  0
   -5.3538   -9.3953   -2.8065 O   0  0  0  0  0  0  0  0  0  0  0  0
   -7.6246   -9.2073   -1.9980 C   0  0  2  0  0  0  0  0  0  0  0  0
   -8.7230  -10.1176   -1.7778 O   0  0  0  0  0  0  0  0  0  0  0  0
   -8.0813   -7.8734   -2.6158 C   0  0  0  0  0  0  0  0  0  0  0  0
   -6.9889   -6.9695   -2.8331 O   0  0  0  0  0  0  0  0  0  0  0  0
   -7.7501   -8.4977    0.3059 C   0  0  2  0  0  0  0  0  0  0  0  0
   -6.9374   -9.0473   -0.7455 O   0  0  0  0  0  0  0  0  0  0  0  0
   -6.8273   -8.1522    1.4598 C   0  0  2  0  0  0  0  0  0  0  0  0
   -5.7091   -7.4092    0.9618 O   0  0  0  0  0  0  0  0  0  0  0  0
   -6.3001   -9.4114    2.1121 C   0  0  1  0  0  0  0  0  0  0  0  0
   -5.6440   -9.0529    3.3305 O   0  0  0  0  0  0  0  0  0  0  0  0
   -7.4315  -10.3819    2.3927 C   0  0  2  0  0  0  0  0  0  0  0  0
   -6.8749  -11.6120    2.8362 O   0  0  0  0  0  0  0  0  0  0  0  0
   -8.2801  -10.6424    1.1554 C   0  0  2  0  0  0  0  0  0  0  0  0
   -8.7868   -9.3901    0.7140 O   0  0  0  0  0  0  0  0  0  0  0  0
   -9.4309  -11.6106    1.4540 C   0  0  0  0  0  0  0  0  0  0  0  0
   -8.9823  -12.9422    1.7458 O   0  0  0  0  0  0  0  0  0  0  0  0
  1  2  1  0  0  0  0
  3  1  1  1  0  0  0
  3  9  1  0  0  0  0
  3  4  1  0  0  0  0
  4  5  1  6  0  0  0
  4  6  1  0  0  0  0
  6  7  1  1  0  0  0
  6  8  1  0  0  0  0
  8  9  1  0  0  0  0
  8 10  1  6  0  0  0
  8 13  1  0  0  0  0
 10 11  1  0  0  0  0
 12 13  1  6  0  0  0
 12 14  1  0  0  0  0
 12 21  1  0  0  0  0
 14 15  1  6  0  0  0
 14 16  1  0  0  0  0
 16 17  1  1  0  0  0
 16 18  1  0  0  0  0
 18 19  1  6  0  0  0
 18 20  1  0  0  0  0
 20 21  1  0  0  0  0
 20 22  1  1  0  0  0
 22 23  1  0  0  0  0
M  END
>  <CHROM.1>
-175.70330375,-62.64593578,-169.55011136,-176.19852108,-67.71461081,-7.55963561
-10.07092960,-0.41618788,1.75089104,-1.01720680,-1.49743375

>  <Name>
ligand

>  <RI>
0

>  <Rbt.Current_Directory>
/home/itssahil/PROJECTS/Mol_Feturizer/New_Systems/rnas/4TS2

>  <Rbt.Executable>
rbdock ($Id: //depot/dev/client3/rdock/2013.1/src/exe/rbdock.cxx#4 $)

>  <Rbt.Library>
libRbt.so (2013.1, Build901 2013/11/27)

>  <Rbt.Parameter_File>
/export/apps/rDock/src/rDock_2013.1_src/data/scripts/dock_solv.prm

>  <Rbt.Receptor>
prm/pocket_docking_5.prm

>  <SCORE>
-9.86787

>  <SCORE.INTER>
-2.87946

>  <SCORE.INTER.CONST>
1

>  <SCORE.INTER.POLAR>
0

>  <SCORE.INTER.ROT>
5

>  <SCORE.INTER.SOLV>
6.56207

>  <SCORE.INTER.VDW>
-11.0403

>  <SCORE.INTER.norm>
-0.125194

>  <SCORE.INTRA>
-6.98842

>  <SCORE.INTRA.DIHEDRAL>
-11.5888

>  <SCORE.INTRA.DIHEDRAL.0>
12.4853

>  <SCORE.INTRA.POLAR>
0

>  <SCORE.INTRA.POLAR.0>
0

>  <SCORE.INTRA.REPUL>
0

>  <SCORE.INTRA.REPUL.0>
0

>  <SCORE.INTRA.SOLV>
0.775306

>  <SCORE.INTRA.SOLV.lig_0>
-31.1706

>  <SCORE.INTRA.VDW>
-1.58166

>  <SCORE.INTRA.VDW.0>
-1.16895

>  <SCORE.INTRA.norm>
-0.303844

>  <SCORE.RESTR>
0

>  <SCORE.RESTR.CAVITY>
0

>  <SCORE.RESTR.norm>
0

>  <SCORE.SYSTEM>
0

>  <SCORE.SYSTEM.CONST>
0

>  <SCORE.SYSTEM.DIHEDRAL>
0

>  <SCORE.SYSTEM.SOLV>
0

>  <SCORE.SYSTEM.norm>
0

>  <SCORE.heavy>
23

>  <SCORE.norm>
-0.429038

>  <RMSD>
2.276

$$$$
ligand
 OpenBabel11021811513D
libRbt.so/2013.1/901 2013/11/27
 23 24  0  0  0  0  0  0  0  0999 V2000
   -8.8899  -12.4812   -1.7549 C   0  0  0  0  0  0  0  0  0  0  0  0
  -10.3278  -12.4078   -1.7033 O   0  0  0  0  0  0  0  0  0  0  0  0
   -8.3574  -11.2581   -2.4876 C   0  0  2  0  0  0  0  0  0  0  0  0
   -6.8543  -11.2348   -2.7196 C   0  0  1  0  0  0  0  0  0  0  0  0
   -6.5345  -12.0638   -3.8389 O   0  0  0  0  0  0  0  0  0  0  0  0
   -6.5962   -9.7503   -2.9546 C   0  0  2  0  0  0  0  0  0  0  0  0
   -5.2721   -9.2434   -2.7498 O   0  0  0  0  0  0  0  0  0  0  0  0
   -7.5541   -9.1166   -1.9613 C   0  0  2  0  0  0  0  0  0  0  0  0
   -8.6358  -10.0529   -1.7694 O   0  0  0  0  0  0  0  0  0  0  0  0
   -8.0317   -7.7807   -2.5586 C   0  0  0  0  0  0  0  0  0  0  0  0
   -6.9460   -6.8814   -2.8236 O   0  0  0  0  0  0  0  0  0  0  0  0
   -7.7179   -8.4577    0.3553 C   0  0  2  0  0  0  0  0  0  0  0  0
   -6.8826   -8.9665   -0.6990 O   0  0  0  0  0  0  0  0  0  0  0  0
   -6.8164   -8.1309    1.5313 C   0  0  2  0  0  0  0  0  0  0  0  0
   -5.7025   -7.3586    1.0698 O   0  0  0  0  0  0  0  0  0  0  0  0
   -6.2799   -9.3998    2.1565 C   0  0  1  0  0  0  0  0  0  0  0  0
   -5.6461   -9.0657    3.3935 O   0  0  0  0  0  0  0  0  0  0  0  0
   -7.4007  -10.3938    2.3943 C   0  0  2  0  0  0  0  0  0  0  0  0
   -6.8324  -11.6275    2.8119 O   0  0  0  0  0  0  0  0  0  0  0  0
   -8.2281  -10.6322    1.1383 C   0  0  2  0  0  0  0  0  0  0  0  0
   -8.7469   -9.3757    0.7240 O   0  0  0  0  0  0  0  0  0  0  0  0
   -9.3686  -11.6246    1.3939 C   0  0  0  0  0  0  0  0  0  0  0  0
  -10.3512  -11.1255    2.3131 O   0  0  0  0  0  0  0  0  0  0  0  0
  1  2  1  0  0  0  0
  3  1  1  1  0  0  0
  3  9  1  0  0  0  0
  3  4  1  0  0  0  0
  4  5  1  6  0  0  0
  4  6  1  0  0  0  0
  6  7  1  1  0  0  0
  6  8  1  0  0  0  0
  8  9  1  0  0  0  0
  8 10  1  6  0  0  0
  8 13  1  0  0  0  0
 10 11  1  0  0  0  0
 12 13  1  6  0  0  0
 12 14  1  0  0  0  0
 12 21  1  0  0  0  0
 14 15  1  6  0  0  0
 14 16  1  0  0  0  0
 16 17  1  1  0  0  0
 16 18  1  0  0  0  0
 18 19  1  6  0  0  0
 18 20  1  0  0  0  0
 20 21  1  0  0  0  0
 20 22  1  1  0  0  0
 22 23  1  0  0  0  0
M  END
>  <CHROM.1>
-175.61394245,-59.08582501,-170.24060776,-175.99809961,65.52171213,-7.56309848
-9.93084965,-0.37244369,1.57933600,-0.91730059,-1.62808333

>  <Name>
ligand

>  <RI>
0

>  <Rbt.Current_Directory>
/home/itssahil/PROJECTS/Mol_Feturizer/New_Systems/rnas/4TS2

>  <Rbt.Executable>
rbdock ($Id: //depot/dev/client3/rdock/2013.1/src/exe/rbdock.cxx#4 $)

>  <Rbt.Library>
libRbt.so (2013.1, Build901 2013/11/27)

>  <Rbt.Parameter_File>
/export/apps/rDock/src/rDock_2013.1_src/data/scripts/dock_solv.prm

>  <Rbt.Receptor>
prm/pocket_docking_5.prm

>  <SCORE>
-10.1847

>  <SCORE.INTER>
-3.08315

>  <SCORE.INTER.CONST>
1

>  <SCORE.INTER.POLAR>
0

>  <SCORE.INTER.ROT>
5

>  <SCORE.INTER.SOLV>
7.07758

>  <SCORE.INTER.VDW>
-11.348

>  <SCORE.INTER.norm>
-0.13405

>  <SCORE.INTRA>
-7.10154

>  <SCORE.INTRA.DIHEDRAL>
-11.7479

>  <SCORE.INTRA.DIHEDRAL.0>
12.4853

>  <SCORE.INTRA.POLAR>
0

>  <SCORE.INTRA.POLAR.0>
0

>  <SCORE.INTRA.REPUL>
0

>  <SCORE.INTRA.REPUL.0>
0

>  <SCORE.INTRA.SOLV>
0.474756

>  <SCORE.INTRA.SOLV.lig_0>
-31.1706

>  <SCORE.INTRA.VDW>
-1.46497

>  <SCORE.INTRA.VDW.0>
-1.16895

>  <SCORE.INTRA.norm>
-0.308763

>  <SCORE.RESTR>
0

>  <SCORE.RESTR.CAVITY>
0

>  <SCORE.RESTR.norm>
0

>  <SCORE.SYSTEM>
0

>  <SCORE.SYSTEM.CONST>
0

>  <SCORE.SYSTEM.DIHEDRAL>
0

>  <SCORE.SYSTEM.SOLV>
0

>  <SCORE.SYSTEM.norm>
0

>  <SCORE.heavy>
23

>  <SCORE.norm>
-0.442813

>  <RMSD>
2.304

$$$$
ligand
 OpenBabel11021811513D
libRbt.so/2013.1/901 2013/11/27
 23 24  0  0  0  0  0  0  0  0999 V2000
   -9.0998  -11.6372   -1.9911 C   0  0  0  0  0  0  0  0  0  0  0  0
   -9.0520  -12.7997   -2.8406 O   0  0  0  0  0  0  0  0  0  0  0  0
   -8.1866  -10.5645   -2.5673 C   0  0  2  0  0  0  0  0  0  0  0  0
   -6.7119  -10.9292   -2.6426 C   0  0  1  0  0  0  0  0  0  0  0  0
   -6.4860  -11.7571   -3.7853 O   0  0  0  0  0  0  0  0  0  0  0  0
   -6.0536   -9.5566   -2.7324 C   0  0  2  0  0  0  0  0  0  0  0  0
   -4.6776   -9.4297   -2.3547 O   0  0  0  0  0  0  0  0  0  0  0  0
   -6.9267   -8.7414   -1.7949 C   0  0  2  0  0  0  0  0  0  0  0  0
   -8.2281   -9.3655   -1.7883 O   0  0  0  0  0  0  0  0  0  0  0  0
   -6.9690   -7.2988   -2.3306 C   0  0  0  0  0  0  0  0  0  0  0  0
   -7.5203   -7.2229   -3.6526 O   0  0  0  0  0  0  0  0  0  0  0  0
   -7.2469   -8.2821    0.5534 C   0  0  2  0  0  0  0  0  0  0  0  0
   -6.3941   -8.8370   -0.4629 O   0  0  0  0  0  0  0  0  0  0  0  0
   -6.4142   -8.1323    1.8130 C   0  0  2  0  0  0  0  0  0  0  0  0
   -5.1801   -7.4837    1.4868 O   0  0  0  0  0  0  0  0  0  0  0  0
   -6.0900   -9.4892    2.3983 C   0  0  1  0  0  0  0  0  0  0  0  0
   -5.5263   -9.3016    3.6986 O   0  0  0  0  0  0  0  0  0  0  0  0
   -7.3391  -10.3451    2.4878 C   0  0  2  0  0  0  0  0  0  0  0  0
   -6.9616  -11.6604    2.8712 O   0  0  0  0  0  0  0  0  0  0  0  0
   -8.0810  -10.4125    1.1597 C   0  0  2  0  0  0  0  0  0  0  0  0
   -8.4070   -9.0809    0.7848 O   0  0  0  0  0  0  0  0  0  0  0  0
   -9.3509  -11.2652    1.2654 C   0  0  0  0  0  0  0  0  0  0  0  0
   -9.0768  -12.6506    1.5206 O   0  0  0  0  0  0  0  0  0  0  0  0
  1  2  1  0  0  0  0
  3  1  1  1  0  0  0
  3  9  1  0  0  0  0
  3  4  1  0  0  0  0
  4  5  1  6  0  0  0
  4  6  1  0  0  0  0
  6  7  1  1  0  0  0
  6  8  1  0  0  0  0
  8  9  1  0  0  0  0
  8 10  1  6  0  0  0
  8 13  1  0  0  0  0
 10 11  1  0  0  0  0
 12 13  1  6  0  0  0
 12 14  1  0  0  0  0
 12 21  1  0  0  0  0
 14 15  1  6  0  0  0
 14 16  1  0  0  0  0
 16 17  1  1  0  0  0
 16 18  1  0  0  0  0
 18 19  1  6  0  0  0
 18 20  1  0  0  0  0
 20 21  1  0  0  0  0
 20 22  1  1  0  0  0
 22 23  1  0  0  0  0
M  END
>  <CHROM.1>
-62.38427322,60.37126569,-165.62355353,-170.73542259,-65.91146422,-7.21204963
-9.85441654,-0.39094399,1.74264380,-0.99636110,-1.47740671

>  <Name>
ligand

>  <RI>
0

>  <Rbt.Current_Directory>
/home/itssahil/PROJECTS/Mol_Feturizer/New_Systems/rnas/4TS2

>  <Rbt.Executable>
rbdock ($Id: //depot/dev/client3/rdock/2013.1/src/exe/rbdock.cxx#4 $)

>  <Rbt.Library>
libRbt.so (2013.1, Build901 2013/11/27)

>  <Rbt.Parameter_File>
/export/apps/rDock/src/rDock_2013.1_src/data/scripts/dock_solv.prm

>  <Rbt.Receptor>
prm/pocket_docking_4.prm

>  <SCORE>
-9.16426

>  <SCORE.INTER>
-2.63975

>  <SCORE.INTER.CONST>
1

>  <SCORE.INTER.POLAR>
0

>  <SCORE.INTER.ROT>
5

>  <SCORE.INTER.SOLV>
7.20824

>  <SCORE.INTER.VDW>
-11.0959

>  <SCORE.INTER.norm>
-0.114772

>  <SCORE.INTRA>
-6.52451

>  <SCORE.INTRA.DIHEDRAL>
-11.0134

>  <SCORE.INTRA.DIHEDRAL.0>
12.4853

>  <SCORE.INTRA.POLAR>
0

>  <SCORE.INTRA.POLAR.0>
0

>  <SCORE.INTRA.REPUL>
0

>  <SCORE.INTRA.REPUL.0>
0

>  <SCORE.INTRA.SOLV>
0.556065

>  <SCORE.INTRA.SOLV.lig_0>
-31.1706

>  <SCORE.INTRA.VDW>
-1.29584

>  <SCORE.INTRA.VDW.0>
-1.16895

>  <SCORE.INTRA.norm>
-0.283675

>  <SCORE.RESTR>
0

>  <SCORE.RESTR.CAVITY>
0

>  <SCORE.RESTR.norm>
0

>  <SCORE.SYSTEM>
0

>  <SCORE.SYSTEM.CONST>
0

>  <SCORE.SYSTEM.DIHEDRAL>
0

>  <SCORE.SYSTEM.SOLV>
0

>  <SCORE.SYSTEM.norm>
0

>  <SCORE.heavy>
23

>  <SCORE.norm>
-0.398446

>  <RMSD>
2.326

$$$$
ligand
 OpenBabel11021811513D
libRbt.so/2013.1/901 2013/11/27
 23 24  0  0  0  0  0  0  0  0999 V2000
   -8.8832  -12.5917   -1.7999 C   0  0  0  0  0  0  0  0  0  0  0  0
  -10.3188  -12.5240   -1.7000 O   0  0  0  0  0  0  0  0  0  0  0  0
   -8.3791  -11.3587   -2.5360 C   0  0  2  0  0  0  0  0  0  0  0  0
   -6.8765  -11.2992   -2.7643 C   0  0  1  0  0  0  0  0  0  0  0  0
   -6.5334  -12.1242   -3.8796 O   0  0  0  0  0  0  0  0  0  0  0  0
   -6.6545   -9.8097   -3.0043 C   0  0  2  0  0  0  0  0  0  0  0  0
   -5.3438   -9.2695   -2.7982 O   0  0  0  0  0  0  0  0  0  0  0  0
   -7.6302   -9.1961   -2.0158 C   0  0  2  0  0  0  0  0  0  0  0  0
   -8.6890  -10.1580   -1.8230 O   0  0  0  0  0  0  0  0  0  0  0  0
   -8.1391   -7.8746   -2.6194 C   0  0  0  0  0  0  0  0  0  0  0  0
   -7.0799   -6.9344   -2.8474 O   0  0  0  0  0  0  0  0  0  0  0  0
   -7.8096   -8.5075    0.2910 C   0  0  2  0  0  0  0  0  0  0  0  0
   -6.9659   -9.0247   -0.7524 O   0  0  0  0  0  0  0  0  0  0  0  0
   -6.9196   -8.1851    1.4769 C   0  0  2  0  0  0  0  0  0  0  0  0
   -5.7945   -7.4221    1.0270 O   0  0  0  0  0  0  0  0  0  0  0  0
   -6.4000   -9.4568    2.1107 C   0  0  1  0  0  0  0  0  0  0  0  0
   -5.7783   -9.1249    3.3545 O   0  0  0  0  0  0  0  0  0  0  0  0
   -7.5310  -10.4419    2.3373 C   0  0  2  0  0  0  0  0  0  0  0  0
   -6.9768  -11.6789    2.7640 O   0  0  0  0  0  0  0  0  0  0  0  0
   -8.3453  -10.6766    1.0721 C   0  0  2  0  0  0  0  0  0  0  0  0
   -8.8498   -9.4170    0.6494 O   0  0  0  0  0  0  0  0  0  0  0  0
   -9.4961  -11.6600    1.3162 C   0  0  0  0  0  0  0  0  0  0  0  0
  -10.4299  -11.1970    2.3028 O   0  0  0  0  0  0  0  0  0  0  0  0
  1  2  1  0  0  0  0
  3  1  1  1  0  0  0
  3  9  1  0  0  0  0
  3  4  1  0  0  0  0
  4  5  1  6  0  0  0
  4  6  1  0  0  0  0
  6  7  1  1  0  0  0
  6  8  1  0  0  0  0
  8  9  1  0  0  0  0
  8 10  1  6  0  0  0
  8 13  1  0  0  0  0
 10 11  1  0  0  0  0
 12 13  1  6  0  0  0
 12 14  1  0  0  0  0
 12 21  1  0  0  0  0
 14 15  1  6  0  0  0
 14 16  1  0  0  0  0
 16 17  1  1  0  0  0
 16 18  1  0  0  0  0
 18 19  1  6  0  0  0
 18 20  1  0  0  0  0
 20 21  1  0  0  0  0
 20 22  1  1  0  0  0
 22 23  1  0  0  0  0
M  END
>  <CHROM.1>
-178.14430243,-60.85929828,-171.35250276,-177.17194973,60.85573553,-7.64353009
-9.99618180,-0.41951533,1.53317316,-0.93181668,-1.65815139

>  <Name>
ligand

>  <RI>
0

>  <Rbt.Current_Directory>
/home/itssahil/PROJECTS/Mol_Feturizer/New_Systems/rnas/4TS2

>  <Rbt.Executable>
rbdock ($Id: //depot/dev/client3/rdock/2013.1/src/exe/rbdock.cxx#4 $)

>  <Rbt.Library>
libRbt.so (2013.1, Build901 2013/11/27)

>  <Rbt.Parameter_File>
/export/apps/rDock/src/rDock_2013.1_src/data/scripts/dock_solv.prm

>  <Rbt.Receptor>
prm/pocket_docking_4.prm

>  <SCORE>
-10.2413

>  <SCORE.INTER>
-3.04693

>  <SCORE.INTER.CONST>
1

>  <SCORE.INTER.POLAR>
0

>  <SCORE.INTER.ROT>
5

>  <SCORE.INTER.SOLV>
7.06095

>  <SCORE.INTER.VDW>
-11.3183

>  <SCORE.INTER.norm>
-0.132475

>  <SCORE.INTRA>
-7.19433

>  <SCORE.INTRA.DIHEDRAL>
-12.0419

>  <SCORE.INTRA.DIHEDRAL.0>
12.4853

>  <SCORE.INTRA.POLAR>
0

>  <SCORE.INTRA.POLAR.0>
0

>  <SCORE.INTRA.REPUL>
0

>  <SCORE.INTRA.REPUL.0>
0

>  <SCORE.INTRA.SOLV>
0.525054

>  <SCORE.INTRA.SOLV.lig_0>
-31.1706

>  <SCORE.INTRA.VDW>
-1.43591

>  <SCORE.INTRA.VDW.0>
-1.16895

>  <SCORE.INTRA.norm>
-0.312797

>  <SCORE.RESTR>
0

>  <SCORE.RESTR.CAVITY>
0

>  <SCORE.RESTR.norm>
0

>  <SCORE.SYSTEM>
0

>  <SCORE.SYSTEM.CONST>
0

>  <SCORE.SYSTEM.DIHEDRAL>
0

>  <SCORE.SYSTEM.SOLV>
0

>  <SCORE.SYSTEM.norm>
0

>  <SCORE.heavy>
23

>  <SCORE.norm>
-0.445272

>  <RMSD>
2.380

$$$$
ligand
 OpenBabel11021811513D
libRbt.so/2013.1/901 2013/11/27
 23 24  0  0  0  0  0  0  0  0999 V2000
   -9.1058  -11.8563   -2.0308 C   0  0  0  0  0  0  0  0  0  0  0  0
   -8.9840  -13.0179   -2.8743 O   0  0  0  0  0  0  0  0  0  0  0  0
   -8.2321  -10.7432   -2.5912 C   0  0  2  0  0  0  0  0  0  0  0  0
   -6.7407  -11.0383   -2.6347 C   0  0  1  0  0  0  0  0  0  0  0  0
   -6.4523  -11.8572   -3.7699 O   0  0  0  0  0  0  0  0  0  0  0  0
   -6.1458   -9.6365   -2.7152 C   0  0  2  0  0  0  0  0  0  0  0  0
   -4.7855   -9.4442   -2.3093 O   0  0  0  0  0  0  0  0  0  0  0  0
   -7.0756   -8.8612   -1.7985 C   0  0  2  0  0  0  0  0  0  0  0  0
   -8.3461   -9.5458   -1.8171 O   0  0  0  0  0  0  0  0  0  0  0  0
   -7.1744   -7.4234   -2.3395 C   0  0  0  0  0  0  0  0  0  0  0  0
   -7.6863   -7.3774   -3.6787 O   0  0  0  0  0  0  0  0  0  0  0  0
   -7.4755   -8.4343    0.5436 C   0  0  2  0  0  0  0  0  0  0  0  0
   -6.5671   -8.9288   -0.4555 O   0  0  0  0  0  0  0  0  0  0  0  0
   -6.6773   -8.2170    1.8156 C   0  0  2  0  0  0  0  0  0  0  0  0
   -5.4897   -7.4797    1.5056 O   0  0  0  0  0  0  0  0  0  0  0  0
   -6.2627   -9.5432    2.4141 C   0  0  1  0  0  0  0  0  0  0  0  0
   -5.7361   -9.3080    3.7221 O   0  0  0  0  0  0  0  0  0  0  0  0
   -7.4458  -10.4894    2.4884 C   0  0  2  0  0  0  0  0  0  0  0  0
   -6.9779  -11.7711    2.8856 O   0  0  0  0  0  0  0  0  0  0  0  0
   -8.1586  -10.6182    1.1489 C   0  0  2  0  0  0  0  0  0  0  0  0
   -8.5766   -9.3164    0.7610 O   0  0  0  0  0  0  0  0  0  0  0  0
   -9.3630  -11.5627    1.2391 C   0  0  0  0  0  0  0  0  0  0  0  0
  -10.3808  -11.0903    2.1338 O   0  0  0  0  0  0  0  0  0  0  0  0
  1  2  1  0  0  0  0
  3  1  1  1  0  0  0
  3  9  1  0  0  0  0
  3  4  1  0  0  0  0
  4  5  1  6  0  0  0
  4  6  1  0  0  0  0
  6  7  1  1  0  0  0
  6  8  1  0  0  0  0
  8  9  1  0  0  0  0
  8 10  1  6  0  0  0
  8 13  1  0  0  0  0
 10 11  1  0  0  0  0
 12 13  1  6  0  0  0
 12 14  1  0  0  0  0
 12 21  1  0  0  0  0
 14 15  1  6  0  0  0
 14 16  1  0  0  0  0
 16 17  1  1  0  0  0
 16 18  1  0  0  0  0
 18 19  1  6  0  0  0
 18 20  1  0  0  0  0
 20 21  1  0  0  0  0
 20 22  1  1  0  0  0
 22 23  1  0  0  0  0
M  END
>  <CHROM.1>
-62.29278886,59.69291441,-164.75717250,-169.68689522,63.03201855,-7.38469135
-9.90325280,-0.36427599,1.61396562,-0.93006053,-1.60766191

>  <Name>
ligand

>  <RI>
0

>  <Rbt.Current_Directory>
/home/itssahil/PROJECTS/Mol_Feturizer/New_Systems/rnas/4TS2

>  <Rbt.Executable>
rbdock ($Id: //depot/dev/client3/rdock/2013.1/src/exe/rbdock.cxx#4 $)

>  <Rbt.Library>
libRbt.so (2013.1, Build901 2013/11/27)

>  <Rbt.Parameter_File>
/export/apps/rDock/src/rDock_2013.1_src/data/scripts/dock_solv.prm

>  <Rbt.Receptor>
prm/pocket_docking_4.prm

>  <SCORE>
-9.34642

>  <SCORE.INTER>
-2.72202

>  <SCORE.INTER.CONST>
1

>  <SCORE.INTER.POLAR>
0

>  <SCORE.INTER.ROT>
5

>  <SCORE.INTER.SOLV>
7.64068

>  <SCORE.INTER.VDW>
-11.2949

>  <SCORE.INTER.norm>
-0.118349

>  <SCORE.INTRA>
-6.62439

>  <SCORE.INTRA.DIHEDRAL>
-10.9174

>  <SCORE.INTRA.DIHEDRAL.0>
12.4853

>  <SCORE.INTRA.POLAR>
0

>  <SCORE.INTRA.POLAR.0>
0

>  <SCORE.INTRA.REPUL>
0

>  <SCORE.INTRA.REPUL.0>
0

>  <SCORE.INTRA.SOLV>
0.429234

>  <SCORE.INTRA.SOLV.lig_0>
-31.1706

>  <SCORE.INTRA.VDW>
-1.38031

>  <SCORE.INTRA.VDW.0>
-1.16895

>  <SCORE.INTRA.norm>
-0.288017

>  <SCORE.RESTR>
0

>  <SCORE.RESTR.CAVITY>
0

>  <SCORE.RESTR.norm>
0

>  <SCORE.SYSTEM>
0

>  <SCORE.SYSTEM.CONST>
0

>  <SCORE.SYSTEM.DIHEDRAL>
0

>  <SCORE.SYSTEM.SOLV>
0

>  <SCORE.SYSTEM.norm>
0

>  <SCORE.heavy>
23

>  <SCORE.norm>
-0.406366

>  <RMSD>
2.423

$$$$
ligand
 OpenBabel11021811513D
libRbt.so/2013.1/901 2013/11/27
 23 24  0  0  0  0  0  0  0  0999 V2000
   -9.0490  -12.5350   -1.7495 C   0  0  0  0  0  0  0  0  0  0  0  0
   -8.8352  -13.7220   -2.5375 O   0  0  0  0  0  0  0  0  0  0  0  0
   -8.5119  -11.3315   -2.5108 C   0  0  2  0  0  0  0  0  0  0  0  0
   -7.0119  -11.3300   -2.7625 C   0  0  1  0  0  0  0  0  0  0  0  0
   -6.7162  -12.1824   -3.8707 O   0  0  0  0  0  0  0  0  0  0  0  0
   -6.7398   -9.8531   -3.0273 C   0  0  2  0  0  0  0  0  0  0  0  0
   -5.4074   -9.3582   -2.8487 O   0  0  0  0  0  0  0  0  0  0  0  0
   -7.6773   -9.1906   -2.0332 C   0  0  2  0  0  0  0  0  0  0  0  0
   -8.7671  -10.1105   -1.8107 O   0  0  0  0  0  0  0  0  0  0  0  0
   -8.1472   -7.8599   -2.6482 C   0  0  0  0  0  0  0  0  0  0  0  0
   -7.0600   -6.9564   -2.8917 O   0  0  0  0  0  0  0  0  0  0  0  0
   -7.8011   -8.4815    0.2710 C   0  0  2  0  0  0  0  0  0  0  0  0
   -6.9877   -9.0259   -0.7826 O   0  0  0  0  0  0  0  0  0  0  0  0
   -6.8806   -8.1525    1.4316 C   0  0  2  0  0  0  0  0  0  0  0  0
   -5.7562   -7.4116    0.9449 O   0  0  0  0  0  0  0  0  0  0  0  0
   -6.3635   -9.4210    2.0738 C   0  0  1  0  0  0  0  0  0  0  0  0
   -5.7099   -9.0781    3.2980 O   0  0  0  0  0  0  0  0  0  0  0  0
   -7.5018  -10.3874    2.3409 C   0  0  2  0  0  0  0  0  0  0  0  0
   -6.9542  -11.6249    2.7747 O   0  0  0  0  0  0  0  0  0  0  0  0
   -8.3471  -10.6309    1.0980 C   0  0  2  0  0  0  0  0  0  0  0  0
   -8.8447   -9.3714    0.6667 O   0  0  0  0  0  0  0  0  0  0  0  0
   -9.5049  -11.5950    1.3831 C   0  0  0  0  0  0  0  0  0  0  0  0
   -9.0643  -12.9265    1.6870 O   0  0  0  0  0  0  0  0  0  0  0  0
  1  2  1  0  0  0  0
  3  1  1  1  0  0  0
  3  9  1  0  0  0  0
  3  4  1  0  0  0  0
  4  5  1  6  0  0  0
  4  6  1  0  0  0  0
  6  7  1  1  0  0  0
  6  8  1  0  0  0  0
  8  9  1  0  0  0  0
  8 10  1  6  0  0  0
  8 13  1  0  0  0  0
 10 11  1  0  0  0  0
 12 13  1  6  0  0  0
 12 14  1  0  0  0  0
 12 21  1  0  0  0  0
 14 15  1  6  0  0  0
 14 16  1  0  0  0  0
 16 17  1  1  0  0  0
 16 18  1  0  0  0  0
 18 19  1  6  0  0  0
 18 20  1  0  0  0  0
 20 21  1  0  0  0  0
 20 22  1  1  0  0  0
 22 23  1  0  0  0  0
M  END
>  <CHROM.1>
-63.80916167,-61.51587626,-170.52546286,-176.33898306,-66.68138986,-7.53511587
-10.12300865,-0.49893979,1.81343056,-1.14534990,-1.55813644

>  <Name>
ligand

>  <RI>
0

>  <Rbt.Current_Directory>
/home/itssahil/PROJECTS/Mol_Feturizer/New_Systems/rnas/4TS2

>  <Rbt.Executable>
rbdock ($Id: //depot/dev/client3/rdock/2013.1/src/exe/rbdock.cxx#4 $)

>  <Rbt.Library>
libRbt.so (2013.1, Build901 2013/11/27)

>  <Rbt.Parameter_File>
/export/apps/rDock/src/rDock_2013.1_src/data/scripts/dock_solv.prm

>  <Rbt.Receptor>
prm/pocket_docking_4.prm

>  <SCORE>
-9.75104

>  <SCORE.INTER>
-2.90909

>  <SCORE.INTER.CONST>
1

>  <SCORE.INTER.POLAR>
0

>  <SCORE.INTER.ROT>
5

>  <SCORE.INTER.SOLV>
6.77962

>  <SCORE.INTER.VDW>
-11.1326

>  <SCORE.INTER.norm>
-0.126482

>  <SCORE.INTRA>
-6.84194

>  <SCORE.INTRA.DIHEDRAL>
-11.7569

>  <SCORE.INTRA.DIHEDRAL.0>
12.4853

>  <SCORE.INTRA.POLAR>
0

>  <SCORE.INTRA.POLAR.0>
0

>  <SCORE.INTRA.REPUL>
0

>  <SCORE.INTRA.REPUL.0>
0

>  <SCORE.INTRA.SOLV>
0.709439

>  <SCORE.INTRA.SOLV.lig_0>
-31.1706

>  <SCORE.INTRA.VDW>
-1.31819

>  <SCORE.INTRA.VDW.0>
-1.16895

>  <SCORE.INTRA.norm>
-0.297476

>  <SCORE.RESTR>
0

>  <SCORE.RESTR.CAVITY>
0

>  <SCORE.RESTR.norm>
0

>  <SCORE.SYSTEM>
0

>  <SCORE.SYSTEM.CONST>
0

>  <SCORE.SYSTEM.DIHEDRAL>
0

>  <SCORE.SYSTEM.SOLV>
0

>  <SCORE.SYSTEM.norm>
0

>  <SCORE.heavy>
23

>  <SCORE.norm>
-0.423958

>  <RMSD>
2.486

$$$$
ligand
 OpenBabel11021811513D
libRbt.so/2013.1/901 2013/11/27
 23 24  0  0  0  0  0  0  0  0999 V2000
   -8.8519  -12.6232   -1.7648 C   0  0  0  0  0  0  0  0  0  0  0  0
   -8.5701  -13.7952   -2.5538 O   0  0  0  0  0  0  0  0  0  0  0  0
   -8.3569  -11.3926   -2.5113 C   0  0  2  0  0  0  0  0  0  0  0  0
   -6.8559  -11.3287   -2.7489 C   0  0  1  0  0  0  0  0  0  0  0  0
   -6.5162  -12.1591   -3.8612 O   0  0  0  0  0  0  0  0  0  0  0  0
   -6.6412   -9.8398   -2.9992 C   0  0  2  0  0  0  0  0  0  0  0  0
   -5.3314   -9.2933   -2.8041 O   0  0  0  0  0  0  0  0  0  0  0  0
   -7.6135   -9.2240   -2.0086 C   0  0  2  0  0  0  0  0  0  0  0  0
   -8.6673  -10.1889   -1.8037 O   0  0  0  0  0  0  0  0  0  0  0  0
   -8.1311   -7.9082   -2.6171 C   0  0  0  0  0  0  0  0  0  0  0  0
   -7.0765   -6.9667   -2.8604 O   0  0  0  0  0  0  0  0  0  0  0  0
   -7.7820   -8.5225    0.2951 C   0  0  2  0  0  0  0  0  0  0  0  0
   -6.9424   -9.0424   -0.7502 O   0  0  0  0  0  0  0  0  0  0  0  0
   -6.8915   -8.2249    1.4872 C   0  0  2  0  0  0  0  0  0  0  0  0
   -5.7534   -7.4749    1.0486 O   0  0  0  0  0  0  0  0  0  0  0  0
   -6.3936   -9.5103    2.1106 C   0  0  1  0  0  0  0  0  0  0  0  0
   -5.7715   -9.1998    3.3597 O   0  0  0  0  0  0  0  0  0  0  0  0
   -7.5402  -10.4802    2.3238 C   0  0  2  0  0  0  0  0  0  0  0  0
   -7.0065  -11.7296    2.7405 O   0  0  0  0  0  0  0  0  0  0  0  0
   -8.3534  -10.6905    1.0535 C   0  0  2  0  0  0  0  0  0  0  0  0
   -8.8372   -9.4194    0.6411 O   0  0  0  0  0  0  0  0  0  0  0  0
   -9.5199  -11.6585    1.2842 C   0  0  0  0  0  0  0  0  0  0  0  0
  -10.4526  -11.1887    2.2686 O   0  0  0  0  0  0  0  0  0  0  0  0
  1  2  1  0  0  0  0
  3  1  1  1  0  0  0
  3  9  1  0  0  0  0
  3  4  1  0  0  0  0
  4  5  1  6  0  0  0
  4  6  1  0  0  0  0
  6  7  1  1  0  0  0
  6  8  1  0  0  0  0
  8  9  1  0  0  0  0
  8 10  1  6  0  0  0
  8 13  1  0  0  0  0
 10 11  1  0  0  0  0
 12 13  1  6  0  0  0
 12 14  1  0  0  0  0
 12 21  1  0  0  0  0
 14 15  1  6  0  0  0
 14 16  1  0  0  0  0
 16 17  1  1  0  0  0
 16 18  1  0  0  0  0
 18 19  1  6  0  0  0
 18 20  1  0  0  0  0
 20 21  1  0  0  0  0
 20 22  1  1  0  0  0
 22 23  1  0  0  0  0
M  END
>  <CHROM.1>
-63.17870670,-60.69911562,-172.86961303,-177.16263038,61.05458968,-7.55050995
-10.08553148,-0.45971398,1.54607316,-1.07400972,-1.76512852

>  <Name>
ligand

>  <RI>
0

>  <Rbt.Current_Directory>
/home/itssahil/PROJECTS/Mol_Feturizer/New_Systems/rnas/4TS2

>  <Rbt.Executable>
rbdock ($Id: //depot/dev/client3/rdock/2013.1/src/exe/rbdock.cxx#4 $)

>  <Rbt.Library>
libRbt.so (2013.1, Build901 2013/11/27)

>  <Rbt.Parameter_File>
/export/apps/rDock/src/rDock_2013.1_src/data/scripts/dock_solv.prm

>  <Rbt.Receptor>
prm/pocket_docking_7.prm

>  <SCORE>
-10.0278

>  <SCORE.INTER>
-3.05299

>  <SCORE.INTER.CONST>
1

>  <SCORE.INTER.POLAR>
0

>  <SCORE.INTER.ROT>
5

>  <SCORE.INTER.SOLV>
6.82088

>  <SCORE.INTER.VDW>
-11.2423

>  <SCORE.INTER.norm>
-0.132739

>  <SCORE.INTRA>
-6.97481

>  <SCORE.INTRA.DIHEDRAL>
-12.1293

>  <SCORE.INTRA.DIHEDRAL.0>
12.4853

>  <SCORE.INTRA.POLAR>
0

>  <SCORE.INTRA.POLAR.0>
0

>  <SCORE.INTRA.REPUL>
0

>  <SCORE.INTRA.REPUL.0>
0

>  <SCORE.INTRA.SOLV>
0.538547

>  <SCORE.INTRA.SOLV.lig_0>
-31.1706

>  <SCORE.INTRA.VDW>
-1.17942

>  <SCORE.INTRA.VDW.0>
-1.16895

>  <SCORE.INTRA.norm>
-0.303252

>  <SCORE.RESTR>
0

>  <SCORE.RESTR.CAVITY>
0

>  <SCORE.RESTR.norm>
0

>  <SCORE.SYSTEM>
0

>  <SCORE.SYSTEM.CONST>
0

>  <SCORE.SYSTEM.DIHEDRAL>
0

>  <SCORE.SYSTEM.SOLV>
0

>  <SCORE.SYSTEM.norm>
0

>  <SCORE.heavy>
23

>  <SCORE.norm>
-0.435991

>  <RMSD>
2.563

$$$$
ligand
 OpenBabel11021811513D
libRbt.so/2013.1/901 2013/11/27
 23 24  0  0  0  0  0  0  0  0999 V2000
   -8.8970  -12.5944   -1.7897 C   0  0  0  0  0  0  0  0  0  0  0  0
   -8.5949  -13.7656   -2.5723 O   0  0  0  0  0  0  0  0  0  0  0  0
   -8.3905  -11.3623   -2.5257 C   0  0  2  0  0  0  0  0  0  0  0  0
   -6.8877  -11.3051   -2.7530 C   0  0  1  0  0  0  0  0  0  0  0  0
   -6.5451  -12.1310   -3.8678 O   0  0  0  0  0  0  0  0  0  0  0  0
   -6.6633   -9.8160   -2.9933 C   0  0  2  0  0  0  0  0  0  0  0  0
   -5.3520   -9.2777   -2.7864 O   0  0  0  0  0  0  0  0  0  0  0  0
   -7.6389   -9.2007   -2.0056 C   0  0  2  0  0  0  0  0  0  0  0  0
   -8.6992  -10.1610   -1.8133 O   0  0  0  0  0  0  0  0  0  0  0  0
   -8.1453   -7.8786   -2.6099 C   0  0  0  0  0  0  0  0  0  0  0  0
   -7.0840   -6.9420   -2.8422 O   0  0  0  0  0  0  0  0  0  0  0  0
   -7.8209   -8.5190    0.3030 C   0  0  2  0  0  0  0  0  0  0  0  0
   -6.9752   -9.0299   -0.7418 O   0  0  0  0  0  0  0  0  0  0  0  0
   -6.9340   -8.2088    1.4944 C   0  0  2  0  0  0  0  0  0  0  0  0
   -5.8053   -7.4453    1.0546 O   0  0  0  0  0  0  0  0  0  0  0  0
   -6.4201   -9.4871    2.1195 C   0  0  1  0  0  0  0  0  0  0  0  0
   -5.8016   -9.1672    3.3680 O   0  0  0  0  0  0  0  0  0  0  0  0
   -7.5545  -10.4709    2.3342 C   0  0  2  0  0  0  0  0  0  0  0  0
   -7.0053  -11.7129    2.7525 O   0  0  0  0  0  0  0  0  0  0  0  0
   -8.3653  -10.6929    1.0645 C   0  0  2  0  0  0  0  0  0  0  0  0
   -8.8649   -9.4285    0.6504 O   0  0  0  0  0  0  0  0  0  0  0  0
   -9.5197  -11.6750    1.2967 C   0  0  0  0  0  0  0  0  0  0  0  0
  -10.4895  -11.1888    2.2361 O   0  0  0  0  0  0  0  0  0  0  0  0
  1  2  1  0  0  0  0
  3  1  1  1  0  0  0
  3  9  1  0  0  0  0
  3  4  1  0  0  0  0
  4  5  1  6  0  0  0
  4  6  1  0  0  0  0
  6  7  1  1  0  0  0
  6  8  1  0  0  0  0
  8  9  1  0  0  0  0
  8 10  1  6  0  0  0
  8 13  1  0  0  0  0
 10 11  1  0  0  0  0
 12 13  1  6  0  0  0
 12 14  1  0  0  0  0
 12 21  1  0  0  0  0
 14 15  1  6  0  0  0
 14 16  1  0  0  0  0
 16 17  1  1  0  0  0
 16 18  1  0  0  0  0
 18 19  1  6  0  0  0
 18 20  1  0  0  0  0
 20 21  1  0  0  0  0
 20 22  1  1  0  0  0
 22 23  1  0  0  0  0
M  END
>  <CHROM.1>
-62.15994727,-60.63903792,-171.89591260,-176.80889021,63.69226259,-7.57650450
-10.06801508,-0.45793181,1.55441100,-1.07396990,-1.75941318

>  <Name>
ligand

>  <RI>
0

>  <Rbt.Current_Directory>
/home/itssahil/PROJECTS/Mol_Feturizer/New_Systems/rnas/4TS2

>  <Rbt.Executable>
rbdock ($Id: //depot/dev/client3/rdock/2013.1/src/exe/rbdock.cxx#4 $)

>  <Rbt.Library>
libRbt.so (2013.1, Build901 2013/11/27)

>  <Rbt.Parameter_File>
/export/apps/rDock/src/rDock_2013.1_src/data/scripts/dock_solv.prm

>  <Rbt.Receptor>
prm/pocket_docking_6.prm

>  <SCORE>
-10.0616

>  <SCORE.INTER>
-3.08388

>  <SCORE.INTER.CONST>
1

>  <SCORE.INTER.POLAR>
0

>  <SCORE.INTER.ROT>
5

>  <SCORE.INTER.SOLV>
6.99023

>  <SCORE.INTER.VDW>
-11.3193

>  <SCORE.INTER.norm>
-0.134082

>  <SCORE.INTRA>
-6.97772

>  <SCORE.INTRA.DIHEDRAL>
-12.0282

>  <SCORE.INTRA.DIHEDRAL.0>
12.4853

>  <SCORE.INTRA.POLAR>
0

>  <SCORE.INTRA.POLAR.0>
0

>  <SCORE.INTRA.REPUL>
0

>  <SCORE.INTRA.REPUL.0>
0

>  <SCORE.INTRA.SOLV>
0.535174

>  <SCORE.INTRA.SOLV.lig_0>
-31.1706

>  <SCORE.INTRA.VDW>
-1.23122

>  <SCORE.INTRA.VDW.0>
-1.16895

>  <SCORE.INTRA.norm>
-0.303379

>  <SCORE.RESTR>
0

>  <SCORE.RESTR.CAVITY>
0

>  <SCORE.RESTR.norm>
0

>  <SCORE.SYSTEM>
0

>  <SCORE.SYSTEM.CONST>
0

>  <SCORE.SYSTEM.DIHEDRAL>
0

>  <SCORE.SYSTEM.SOLV>
0

>  <SCORE.SYSTEM.norm>
0

>  <SCORE.heavy>
23

>  <SCORE.norm>
-0.437461

>  <RMSD>
2.568

$$$$
ligand
 OpenBabel11021811513D
libRbt.so/2013.1/901 2013/11/27
 23 24  0  0  0  0  0  0  0  0999 V2000
   -8.9691  -12.5230   -1.8337 C   0  0  0  0  0  0  0  0  0  0  0  0
   -8.7330  -13.6916   -2.6425 O   0  0  0  0  0  0  0  0  0  0  0  0
   -8.4423  -11.2979   -2.5673 C   0  0  2  0  0  0  0  0  0  0  0  0
   -6.9384  -11.2636   -2.7916 C   0  0  1  0  0  0  0  0  0  0  0  0
   -6.6064  -12.0932   -3.9068 O   0  0  0  0  0  0  0  0  0  0  0  0
   -6.6906   -9.7778   -3.0296 C   0  0  2  0  0  0  0  0  0  0  0  0
   -5.3715   -9.2601   -2.8195 O   0  0  0  0  0  0  0  0  0  0  0  0
   -7.6585   -9.1488   -2.0430 C   0  0  2  0  0  0  0  0  0  0  0  0
   -8.7338  -10.0928   -1.8539 O   0  0  0  0  0  0  0  0  0  0  0  0
   -8.1434   -7.8183   -2.6466 C   0  0  0  0  0  0  0  0  0  0  0  0
   -7.0648   -6.9060   -2.8956 O   0  0  0  0  0  0  0  0  0  0  0  0
   -7.8395   -8.4858    0.2712 C   0  0  2  0  0  0  0  0  0  0  0  0
   -6.9946   -8.9898   -0.7777 O   0  0  0  0  0  0  0  0  0  0  0  0
   -6.9544   -8.2021    1.4706 C   0  0  2  0  0  0  0  0  0  0  0  0
   -5.8164   -7.4437    1.0465 O   0  0  0  0  0  0  0  0  0  0  0  0
   -6.4559   -9.4946    2.0788 C   0  0  1  0  0  0  0  0  0  0  0  0
   -5.8394   -9.1994    3.3343 O   0  0  0  0  0  0  0  0  0  0  0  0
   -7.6011  -10.4699    2.2744 C   0  0  2  0  0  0  0  0  0  0  0  0
   -7.0660  -11.7235    2.6765 O   0  0  0  0  0  0  0  0  0  0  0  0
   -8.4087  -10.6651    0.9983 C   0  0  2  0  0  0  0  0  0  0  0  0
   -8.8939   -9.3897    0.6010 O   0  0  0  0  0  0  0  0  0  0  0  0
   -9.5739  -11.6388    1.2114 C   0  0  0  0  0  0  0  0  0  0  0  0
  -10.5769  -11.1273    2.1012 O   0  0  0  0  0  0  0  0  0  0  0  0
  1  2  1  0  0  0  0
  3  1  1  1  0  0  0
  3  9  1  0  0  0  0
  3  4  1  0  0  0  0
  4  5  1  6  0  0  0
  4  6  1  0  0  0  0
  6  7  1  1  0  0  0
  6  8  1  0  0  0  0
  8  9  1  0  0  0  0
  8 10  1  6  0  0  0
  8 13  1  0  0  0  0
 10 11  1  0  0  0  0
 12 13  1  6  0  0  0
 12 14  1  0  0  0  0
 12 21  1  0  0  0  0
 14 15  1  6  0  0  0
 14 16  1  0  0  0  0
 16 17  1  1  0  0  0
 16 18  1  0  0  0  0
 18 19  1  6  0  0  0
 18 20  1  0  0  0  0
 20 21  1  0  0  0  0
 20 22  1  1  0  0  0
 22 23  1  0  0  0  0
M  END
>  <CHROM.1>
-64.50723431,-59.69912904,-172.52748445,-175.93847708,66.70678242,-7.61687560
-10.03517710,-0.50693802,1.56487146,-1.05677439,-1.74364688

>  <Name>
ligand

>  <RI>
0

>  <Rbt.Current_Directory>
/home/itssahil/PROJECTS/Mol_Feturizer/New_Systems/rnas/4TS2

>  <Rbt.Executable>
rbdock ($Id: //depot/dev/client3/rdock/2013.1/src/exe/rbdock.cxx#4 $)

>  <Rbt.Library>
libRbt.so (2013.1, Build901 2013/11/27)

>  <Rbt.Parameter_File>
/export/apps/rDock/src/rDock_2013.1_src/data/scripts/dock_solv.prm

>  <Rbt.Receptor>
prm/pocket_docking_3.prm

>  <SCORE>
-9.95296

>  <SCORE.INTER>
-3.14401

>  <SCORE.INTER.CONST>
1

>  <SCORE.INTER.POLAR>
0

>  <SCORE.INTER.ROT>
5

>  <SCORE.INTER.SOLV>
7.20045

>  <SCORE.INTER.VDW>
-11.4295

>  <SCORE.INTER.norm>
-0.136696

>  <SCORE.INTRA>
-6.81019

>  <SCORE.INTRA.DIHEDRAL>
-11.8832

>  <SCORE.INTRA.DIHEDRAL.0>
12.4853

>  <SCORE.INTRA.POLAR>
0

>  <SCORE.INTRA.POLAR.0>
0

>  <SCORE.INTRA.REPUL>
0

>  <SCORE.INTRA.REPUL.0>
0

>  <SCORE.INTRA.SOLV>
0.536118

>  <SCORE.INTRA.SOLV.lig_0>
-31.1706

>  <SCORE.INTRA.VDW>
-1.13666

>  <SCORE.INTRA.VDW.0>
-1.16895

>  <SCORE.INTRA.norm>
-0.296095

>  <SCORE.RESTR>
0.00124279

>  <SCORE.RESTR.CAVITY>
0.00124279

>  <SCORE.RESTR.norm>
5.40342e-05

>  <SCORE.SYSTEM>
0

>  <SCORE.SYSTEM.CONST>
0

>  <SCORE.SYSTEM.DIHEDRAL>
0

>  <SCORE.SYSTEM.SOLV>
0

>  <SCORE.SYSTEM.norm>
0

>  <SCORE.heavy>
23

>  <SCORE.norm>
-0.432737

>  <RMSD>
2.581

$$$$
ligand
 OpenBabel11021811513D
libRbt.so/2013.1/901 2013/11/27
 23 24  0  0  0  0  0  0  0  0999 V2000
   -7.8963  -11.2301   -2.2938 C   0  0  0  0  0  0  0  0  0  0  0  0
   -8.0683  -12.5358   -2.8778 O   0  0  0  0  0  0  0  0  0  0  0  0
   -6.6998  -10.5503   -2.9440 C   0  0  2  0  0  0  0  0  0  0  0  0
   -5.3590  -11.2357   -2.7297 C   0  0  1  0  0  0  0  0  0  0  0  0
   -5.2411  -12.3388   -3.6304 O   0  0  0  0  0  0  0  0  0  0  0  0
   -4.3787  -10.1012   -3.0084 C   0  0  2  0  0  0  0  0  0  0  0  0
   -3.0534  -10.1926   -2.4723 O   0  0  0  0  0  0  0  0  0  0  0  0
   -5.1059   -8.9170   -2.3961 C   0  0  2  0  0  0  0  0  0  0  0  0
   -6.5158   -9.2220   -2.4461 O   0  0  0  0  0  0  0  0  0  0  0  0
   -4.7447   -7.6685   -3.2211 C   0  0  0  0  0  0  0  0  0  0  0  0
   -5.5765   -6.5440   -2.9030 O   0  0  0  0  0  0  0  0  0  0  0  0
   -5.2941   -7.6674   -0.3393 C   0  0  2  0  0  0  0  0  0  0  0  0
   -4.7352   -8.8093   -1.0113 O   0  0  0  0  0  0  0  0  0  0  0  0
   -4.7562   -7.6670    1.0795 C   0  0  2  0  0  0  0  0  0  0  0  0
   -3.3363   -7.8480    1.0443 O   0  0  0  0  0  0  0  0  0  0  0  0
   -5.3544   -8.8075    1.8734 C   0  0  1  0  0  0  0  0  0  0  0  0
   -5.0204   -8.6277    3.2517 O   0  0  0  0  0  0  0  0  0  0  0  0
   -6.8609   -8.8467    1.7006 C   0  0  2  0  0  0  0  0  0  0  0  0
   -7.3573  -10.0294    2.3123 O   0  0  0  0  0  0  0  0  0  0  0  0
   -7.2672   -8.8427    0.2331 C   0  0  2  0  0  0  0  0  0  0  0  0
   -6.7215   -7.6710   -0.3578 O   0  0  0  0  0  0  0  0  0  0  0  0
   -8.7916   -8.8647    0.0697 C   0  0  0  0  0  0  0  0  0  0  0  0
   -9.2114   -8.7351   -1.2965 O   0  0  0  0  0  0  0  0  0  0  0  0
  1  2  1  0  0  0  0
  3  1  1  1  0  0  0
  3  9  1  0  0  0  0
  3  4  1  0  0  0  0
  4  5  1  6  0  0  0
  4  6  1  0  0  0  0
  6  7  1  1  0  0  0
  6  8  1  0  0  0  0
  8  9  1  0  0  0  0
  8 10  1  6  0  0  0
  8 13  1  0  0  0  0
 10 11  1  0  0  0  0
 12 13  1  6  0  0  0
 12 14  1  0  0  0  0
 12 21  1  0  0  0  0
 14 15  1  6  0  0  0
 14 16  1  0  0  0  0
 16 17  1  1  0  0  0
 16 18  1  0  0  0  0
 18 19  1  6  0  0  0
 18 20  1  0  0  0  0
 20 21  1  0  0  0  0
 20 22  1  1  0  0  0
 22 23  1  0  0  0  0
M  END
>  <CHROM.1>
-63.05170334,168.32382157,-177.34851533,176.15319914,174.50681155,-5.97720183
-9.26608964,-0.97288841,1.64322099,-0.43759798,-2.02432073

>  <Name>
ligand

>  <RI>
0

>  <Rbt.Current_Directory>
/home/itssahil/PROJECTS/Mol_Feturizer/New_Systems/rnas/4TS2

>  <Rbt.Executable>
rbdock ($Id: //depot/dev/client3/rdock/2013.1/src/exe/rbdock.cxx#4 $)

>  <Rbt.Library>
libRbt.so (2013.1, Build901 2013/11/27)

>  <Rbt.Parameter_File>
/export/apps/rDock/src/rDock_2013.1_src/data/scripts/dock_solv.prm

>  <Rbt.Receptor>
prm/pocket_docking_4.prm

>  <SCORE>
-7.70817

>  <SCORE.INTER>
-1.08842

>  <SCORE.INTER.CONST>
1

>  <SCORE.INTER.POLAR>
0

>  <SCORE.INTER.ROT>
5

>  <SCORE.INTER.SOLV>
5.97747

>  <SCORE.INTER.VDW>
-9.65143

>  <SCORE.INTER.norm>
-0.0473224

>  <SCORE.INTRA>
-6.61975

>  <SCORE.INTRA.DIHEDRAL>
-11.728

>  <SCORE.INTRA.DIHEDRAL.0>
12.4853

>  <SCORE.INTRA.POLAR>
0

>  <SCORE.INTRA.POLAR.0>
0

>  <SCORE.INTRA.REPUL>
0

>  <SCORE.INTRA.REPUL.0>
0

>  <SCORE.INTRA.SOLV>
0.9087

>  <SCORE.INTRA.SOLV.lig_0>
-31.1706

>  <SCORE.INTRA.VDW>
-1.2101

>  <SCORE.INTRA.VDW.0>
-1.16895

>  <SCORE.INTRA.norm>
-0.287815

>  <SCORE.RESTR>
0

>  <SCORE.RESTR.CAVITY>
0

>  <SCORE.RESTR.norm>
0

>  <SCORE.SYSTEM>
0

>  <SCORE.SYSTEM.CONST>
0

>  <SCORE.SYSTEM.DIHEDRAL>
0

>  <SCORE.SYSTEM.SOLV>
0

>  <SCORE.SYSTEM.norm>
0

>  <SCORE.heavy>
23

>  <SCORE.norm>
-0.335138

>  <RMSD>
3.228

$$$$
ligand
 OpenBabel11021811513D
libRbt.so/2013.1/901 2013/11/27
 23 24  0  0  0  0  0  0  0  0999 V2000
   -7.8510   -7.2461   -1.4018 C   0  0  0  0  0  0  0  0  0  0  0  0
   -6.7608   -6.5490   -2.0351 O   0  0  0  0  0  0  0  0  0  0  0  0
   -8.0634   -8.5782   -2.1065 C   0  0  2  0  0  0  0  0  0  0  0  0
   -9.2210   -9.4177   -1.5882 C   0  0  1  0  0  0  0  0  0  0  0  0
  -10.4469   -8.9193   -2.1277 O   0  0  0  0  0  0  0  0  0  0  0  0
   -8.8462  -10.8098   -2.0855 C   0  0  2  0  0  0  0  0  0  0  0  0
   -9.4142  -11.9489   -1.4283 O   0  0  0  0  0  0  0  0  0  0  0  0
   -7.3392  -10.8010   -1.8993 C   0  0  2  0  0  0  0  0  0  0  0  0
   -6.9158   -9.4239   -1.9881 O   0  0  0  0  0  0  0  0  0  0  0  0
   -6.7257  -11.6774   -3.0062 C   0  0  0  0  0  0  0  0  0  0  0  0
   -5.2925  -11.6187   -3.0182 O   0  0  0  0  0  0  0  0  0  0  0  0
   -5.6600  -11.0732   -0.1864 C   0  0  2  0  0  0  0  0  0  0  0  0
   -7.0319  -11.2635   -0.5732 O   0  0  0  0  0  0  0  0  0  0  0  0
   -5.3968  -11.9692    1.0096 C   0  0  2  0  0  0  0  0  0  0  0  0
   -5.8805  -13.2866    0.7260 O   0  0  0  0  0  0  0  0  0  0  0  0
   -6.1289  -11.4537    2.2292 C   0  0  1  0  0  0  0  0  0  0  0  0
   -5.6643  -12.1697    3.3759 O   0  0  0  0  0  0  0  0  0  0  0  0
   -5.8891   -9.9667    2.4078 C   0  0  2  0  0  0  0  0  0  0  0  0
   -6.7312   -9.4930    3.4499 O   0  0  0  0  0  0  0  0  0  0  0  0
   -6.1893   -9.1835    1.1368 C   0  0  2  0  0  0  0  0  0  0  0  0
   -5.3626   -9.7082    0.1068 O   0  0  0  0  0  0  0  0  0  0  0  0
   -5.9269   -7.6843    1.3227 C   0  0  0  0  0  0  0  0  0  0  0  0
   -4.5594   -7.3895    1.6430 O   0  0  0  0  0  0  0  0  0  0  0  0
  1  2  1  0  0  0  0
  3  1  1  1  0  0  0
  3  9  1  0  0  0  0
  3  4  1  0  0  0  0
  4  5  1  6  0  0  0
  4  6  1  0  0  0  0
  6  7  1  1  0  0  0
  6  8  1  0  0  0  0
  8  9  1  0  0  0  0
  8 10  1  6  0  0  0
  8 13  1  0  0  0  0
 10 11  1  0  0  0  0
 12 13  1  1  0  0  0
 12 14  1  0  0  0  0
 12 21  1  0  0  0  0
 14 15  1  6  0  0  0
 14 16  1  0  0  0  0
 16 17  1  1  0  0  0
 16 18  1  0  0  0  0
 18 19  1  1  0  0  0
 18 20  1  0  0  0  0
 20 21  1  0  0  0  0
 20 22  1  1  0  0  0
 22 23  1  0  0  0  0
M  END
>  <CHROM.1>
-177.75555431,173.37984013,-162.78396195,-169.24267058,61.19650562,-6.82705564
-10.06668402,-0.25538799,-2.99308616,1.04591459,-3.05535613

>  <Name>
ligand

>  <RI>
0

>  <Rbt.Current_Directory>
/home/itssahil/PROJECTS/Mol_Feturizer/New_Systems/rnas/4TS2

>  <Rbt.Executable>
rbdock ($Id: //depot/dev/client3/rdock/2013.1/src/exe/rbdock.cxx#4 $)

>  <Rbt.Library>
libRbt.so (2013.1, Build901 2013/11/27)

>  <Rbt.Parameter_File>
/export/apps/rDock/src/rDock_2013.1_src/data/scripts/dock_solv.prm

>  <Rbt.Receptor>
prm/pocket_docking_4.prm

>  <SCORE>
-7.97551

>  <SCORE.INTER>
-1.14277

>  <SCORE.INTER.CONST>
1

>  <SCORE.INTER.POLAR>
0

>  <SCORE.INTER.ROT>
5

>  <SCORE.INTER.SOLV>
6.25083

>  <SCORE.INTER.VDW>
-9.77879

>  <SCORE.INTER.norm>
-0.0496855

>  <SCORE.INTRA>
-6.83274

>  <SCORE.INTRA.DIHEDRAL>
-10.5256

>  <SCORE.INTRA.DIHEDRAL.0>
12.4853

>  <SCORE.INTRA.POLAR>
0

>  <SCORE.INTRA.POLAR.0>
0

>  <SCORE.INTRA.REPUL>
0

>  <SCORE.INTRA.REPUL.0>
0

>  <SCORE.INTRA.SOLV>
0.398836

>  <SCORE.INTRA.SOLV.lig_0>
-31.1706

>  <SCORE.INTRA.VDW>
-1.76937

>  <SCORE.INTRA.VDW.0>
-1.16895

>  <SCORE.INTRA.norm>
-0.297076

>  <SCORE.RESTR>
0

>  <SCORE.RESTR.CAVITY>
0

>  <SCORE.RESTR.norm>
0

>  <SCORE.SYSTEM>
0

>  <SCORE.SYSTEM.CONST>
0

>  <SCORE.SYSTEM.DIHEDRAL>
0

>  <SCORE.SYSTEM.SOLV>
0

>  <SCORE.SYSTEM.norm>
0

>  <SCORE.heavy>
23

>  <SCORE.norm>
-0.346761

>  <RMSD>
3.497

$$$$
ligand
 OpenBabel11021811513D
libRbt.so/2013.1/901 2013/11/27
 23 24  0  0  0  0  0  0  0  0999 V2000
   -8.1790   -8.1816   -1.8995 C   0  0  0  0  0  0  0  0  0  0  0  0
   -7.1529   -7.5003   -2.6467 O   0  0  0  0  0  0  0  0  0  0  0  0
   -8.2084   -9.6446   -2.3184 C   0  0  2  0  0  0  0  0  0  0  0  0
   -9.2835  -10.4947   -1.6590 C   0  0  1  0  0  0  0  0  0  0  0  0
  -10.5344  -10.2668   -2.3112 O   0  0  0  0  0  0  0  0  0  0  0  0
   -8.7319  -11.9032   -1.8521 C   0  0  2  0  0  0  0  0  0  0  0  0
   -9.1935  -12.9456   -0.9846 O   0  0  0  0  0  0  0  0  0  0  0  0
   -7.2448  -11.6759   -1.6449 C   0  0  2  0  0  0  0  0  0  0  0  0
   -6.9779  -10.3046   -2.0080 O   0  0  0  0  0  0  0  0  0  0  0  0
   -6.4895  -12.6780   -2.5365 C   0  0  0  0  0  0  0  0  0  0  0  0
   -6.7594  -12.4798   -3.9313 O   0  0  0  0  0  0  0  0  0  0  0  0
   -5.6063  -11.4276    0.1104 C   0  0  2  0  0  0  0  0  0  0  0  0
   -6.9429  -11.8200   -0.2467 O   0  0  0  0  0  0  0  0  0  0  0  0
   -5.2884  -12.0652    1.4502 C   0  0  2  0  0  0  0  0  0  0  0  0
   -5.6347  -13.4538    1.4043 O   0  0  0  0  0  0  0  0  0  0  0  0
   -6.0983  -11.4165    2.5512 C   0  0  1  0  0  0  0  0  0  0  0  0
   -5.5961  -11.8664    3.8117 O   0  0  0  0  0  0  0  0  0  0  0  0
   -6.0084   -9.9050    2.4613 C   0  0  2  0  0  0  0  0  0  0  0  0
   -6.9190   -9.3397    3.3944 O   0  0  0  0  0  0  0  0  0  0  0  0
   -6.3502   -9.3948    1.0678 C   0  0  2  0  0  0  0  0  0  0  0  0
   -5.4503  -10.0094    0.1556 O   0  0  0  0  0  0  0  0  0  0  0  0
   -6.2393   -7.8679    0.9830 C   0  0  0  0  0  0  0  0  0  0  0  0
   -4.9143   -7.3859    1.2510 O   0  0  0  0  0  0  0  0  0  0  0  0
  1  2  1  0  0  0  0
  3  1  1  1  0  0  0
  3  9  1  0  0  0  0
  3  4  1  0  0  0  0
  4  5  1  6  0  0  0
  4  6  1  0  0  0  0
  6  7  1  1  0  0  0
  6  8  1  0  0  0  0
  8  9  1  0  0  0  0
  8 10  1  6  0  0  0
  8 13  1  0  0  0  0
 10 11  1  0  0  0  0
 12 13  1  1  0  0  0
 12 14  1  0  0  0  0
 12 21  1  0  0  0  0
 14 15  1  6  0  0  0
 14 16  1  0  0  0  0
 16 17  1  1  0  0  0
 16 18  1  0  0  0  0
 18 19  1  1  0  0  0
 18 20  1  0  0  0  0
 20 21  1  0  0  0  0
 20 22  1  1  0  0  0
 22 23  1  0  0  0  0
M  END
>  <CHROM.1>
-177.55679500,62.10825048,-160.83246197,-170.92401247,61.41470590,-6.94413091
-10.60323435,-0.23454659,3.07755209,1.09243972,3.12854091

>  <Name>
ligand

>  <RI>
0

>  <Rbt.Current_Directory>
/home/itssahil/PROJECTS/Mol_Feturizer/New_Systems/rnas/4TS2

>  <Rbt.Executable>
rbdock ($Id: //depot/dev/client3/rdock/2013.1/src/exe/rbdock.cxx#4 $)

>  <Rbt.Library>
libRbt.so (2013.1, Build901 2013/11/27)

>  <Rbt.Parameter_File>
/export/apps/rDock/src/rDock_2013.1_src/data/scripts/dock_solv.prm

>  <Rbt.Receptor>
prm/pocket_docking_3.prm

>  <SCORE>
-6.0953

>  <SCORE.INTER>
0.738404

>  <SCORE.INTER.CONST>
1

>  <SCORE.INTER.POLAR>
0

>  <SCORE.INTER.ROT>
5

>  <SCORE.INTER.SOLV>
5.02612

>  <SCORE.INTER.VDW>
-8.11644

>  <SCORE.INTER.norm>
0.0321045

>  <SCORE.INTRA>
-6.8337

>  <SCORE.INTRA.DIHEDRAL>
-10.4318

>  <SCORE.INTRA.DIHEDRAL.0>
12.4853

>  <SCORE.INTRA.POLAR>
0

>  <SCORE.INTRA.POLAR.0>
0

>  <SCORE.INTRA.REPUL>
0

>  <SCORE.INTRA.REPUL.0>
0

>  <SCORE.INTRA.SOLV>
0.18702

>  <SCORE.INTRA.SOLV.lig_0>
-31.1706

>  <SCORE.INTRA.VDW>
-1.71129

>  <SCORE.INTRA.VDW.0>
-1.16895

>  <SCORE.INTRA.norm>
-0.297117

>  <SCORE.RESTR>
0

>  <SCORE.RESTR.CAVITY>
0

>  <SCORE.RESTR.norm>
0

>  <SCORE.SYSTEM>
0

>  <SCORE.SYSTEM.CONST>
0

>  <SCORE.SYSTEM.DIHEDRAL>
0

>  <SCORE.SYSTEM.SOLV>
0

>  <SCORE.SYSTEM.norm>
0

>  <SCORE.heavy>
23

>  <SCORE.norm>
-0.265013

>  <RMSD>
3.577

$$$$
ligand
 OpenBabel11021811513D
libRbt.so/2013.1/901 2013/11/27
 23 24  0  0  0  0  0  0  0  0999 V2000
   -7.9344  -11.7650    1.9764 C   0  0  0  0  0  0  0  0  0  0  0  0
   -8.5417  -11.3064    3.1996 O   0  0  0  0  0  0  0  0  0  0  0  0
   -8.9633  -11.6980    0.8569 C   0  0  2  0  0  0  0  0  0  0  0  0
   -8.5023  -12.2310   -0.4910 C   0  0  1  0  0  0  0  0  0  0  0  0
   -8.5769  -13.6582   -0.4871 O   0  0  0  0  0  0  0  0  0  0  0  0
   -9.4856  -11.5622   -1.4457 C   0  0  2  0  0  0  0  0  0  0  0  0
   -9.1192  -11.4268   -2.8240 O   0  0  0  0  0  0  0  0  0  0  0  0
   -9.6363  -10.1907   -0.8115 C   0  0  2  0  0  0  0  0  0  0  0  0
   -9.3711  -10.3516    0.5982 O   0  0  0  0  0  0  0  0  0  0  0  0
  -11.0695   -9.7020   -1.0882 C   0  0  0  0  0  0  0  0  0  0  0  0
  -11.4368   -8.5893   -0.2609 O   0  0  0  0  0  0  0  0  0  0  0  0
   -8.6098   -8.0065   -0.7560 C   0  0  2  0  0  0  0  0  0  0  0  0
   -8.6259   -9.3182   -1.3451 O   0  0  0  0  0  0  0  0  0  0  0  0
   -7.6861   -7.1431   -1.5949 C   0  0  2  0  0  0  0  0  0  0  0  0
   -8.0238   -7.2986   -2.9777 O   0  0  0  0  0  0  0  0  0  0  0  0
   -6.2473   -7.5740   -1.4126 C   0  0  1  0  0  0  0  0  0  0  0  0
   -5.3984   -6.5938   -2.0145 O   0  0  0  0  0  0  0  0  0  0  0  0
   -5.9156   -7.7203    0.0602 C   0  0  2  0  0  0  0  0  0  0  0  0
   -4.6211   -8.2943    0.1792 O   0  0  0  0  0  0  0  0  0  0  0  0
   -6.9175   -8.6087    0.7853 C   0  0  2  0  0  0  0  0  0  0  0  0
   -8.2042   -8.0305    0.6124 O   0  0  0  0  0  0  0  0  0  0  0  0
   -6.5834   -8.7357    2.2763 C   0  0  0  0  0  0  0  0  0  0  0  0
   -5.3584   -9.4430    2.5185 O   0  0  0  0  0  0  0  0  0  0  0  0
  1  2  1  0  0  0  0
  3  1  1  1  0  0  0
  3  9  1  0  0  0  0
  3  4  1  0  0  0  0
  4  5  1  1  0  0  0
  4  6  1  0  0  0  0
  6  7  1  6  0  0  0
  6  8  1  0  0  0  0
  8  9  1  0  0  0  0
  8 10  1  6  0  0  0
  8 13  1  0  0  0  0
 10 11  1  0  0  0  0
 12 13  1  6  0  0  0
 12 14  1  0  0  0  0
 12 21  1  0  0  0  0
 14 15  1  6  0  0  0
 14 16  1  0  0  0  0
 16 17  1  1  0  0  0
 16 18  1  0  0  0  0
 18 19  1  6  0  0  0
 18 20  1  0  0  0  0
 20 21  1  0  0  0  0
 20 22  1  1  0  0  0
 22 23  1  0  0  0  0
M  END
>  <CHROM.1>
-176.41859000,165.07511599,-169.44935447,-176.20596320,-66.76719643,-8.02568224
-9.53049405,-0.18617799,-2.43763924,-0.66773849,-0.79990538

>  <Name>
ligand

>  <RI>
0

>  <Rbt.Current_Directory>
/home/itssahil/PROJECTS/Mol_Feturizer/New_Systems/rnas/4TS2

>  <Rbt.Executable>
rbdock ($Id: //depot/dev/client3/rdock/2013.1/src/exe/rbdock.cxx#4 $)

>  <Rbt.Library>
libRbt.so (2013.1, Build901 2013/11/27)

>  <Rbt.Parameter_File>
/export/apps/rDock/src/rDock_2013.1_src/data/scripts/dock_solv.prm

>  <Rbt.Receptor>
prm/pocket_docking_4.prm

>  <SCORE>
-9.68423

>  <SCORE.INTER>
-2.91332

>  <SCORE.INTER.CONST>
1

>  <SCORE.INTER.POLAR>
0

>  <SCORE.INTER.ROT>
5

>  <SCORE.INTER.SOLV>
8.30167

>  <SCORE.INTER.VDW>
-11.6428

>  <SCORE.INTER.norm>
-0.126666

>  <SCORE.INTRA>
-6.77091

>  <SCORE.INTRA.DIHEDRAL>
-11.0187

>  <SCORE.INTRA.DIHEDRAL.0>
12.4853

>  <SCORE.INTRA.POLAR>
0

>  <SCORE.INTRA.POLAR.0>
0

>  <SCORE.INTRA.REPUL>
0

>  <SCORE.INTRA.REPUL.0>
0

>  <SCORE.INTRA.SOLV>
0.724758

>  <SCORE.INTRA.SOLV.lig_0>
-31.1706

>  <SCORE.INTRA.VDW>
-1.62396

>  <SCORE.INTRA.VDW.0>
-1.16895

>  <SCORE.INTRA.norm>
-0.294388

>  <SCORE.RESTR>
0

>  <SCORE.RESTR.CAVITY>
0

>  <SCORE.RESTR.norm>
0

>  <SCORE.SYSTEM>
0

>  <SCORE.SYSTEM.CONST>
0

>  <SCORE.SYSTEM.DIHEDRAL>
0

>  <SCORE.SYSTEM.SOLV>
0

>  <SCORE.SYSTEM.norm>
0

>  <SCORE.heavy>
23

>  <SCORE.norm>
-0.421054

>  <RMSD>
3.578

$$$$
ligand
 OpenBabel11021811513D
libRbt.so/2013.1/901 2013/11/27
 23 24  0  0  0  0  0  0  0  0999 V2000
   -7.9683  -11.7777    2.0575 C   0  0  0  0  0  0  0  0  0  0  0  0
   -8.2858  -11.2442    3.3575 O   0  0  0  0  0  0  0  0  0  0  0  0
   -9.1516  -11.5529    1.1271 C   0  0  2  0  0  0  0  0  0  0  0  0
   -9.0114  -12.1433   -0.2676 C   0  0  1  0  0  0  0  0  0  0  0  0
   -9.2947  -13.5433   -0.2204 O   0  0  0  0  0  0  0  0  0  0  0  0
  -10.0330  -11.3310   -1.0562 C   0  0  2  0  0  0  0  0  0  0  0  0
   -9.8911  -11.2463   -2.4792 O   0  0  0  0  0  0  0  0  0  0  0  0
   -9.8685   -9.9550   -0.4352 C   0  0  2  0  0  0  0  0  0  0  0  0
   -9.3936  -10.1596    0.9124 O   0  0  0  0  0  0  0  0  0  0  0  0
  -11.2395   -9.2563   -0.4759 C   0  0  0  0  0  0  0  0  0  0  0  0
  -11.7185   -9.0702   -1.8151 O   0  0  0  0  0  0  0  0  0  0  0  0
   -8.5956   -7.9155   -0.6533 C   0  0  2  0  0  0  0  0  0  0  0  0
   -8.8460   -9.2413   -1.1508 O   0  0  0  0  0  0  0  0  0  0  0  0
   -7.6575   -7.2331   -1.6314 C   0  0  2  0  0  0  0  0  0  0  0  0
   -8.1539   -7.4122   -2.9624 O   0  0  0  0  0  0  0  0  0  0  0  0
   -6.2773   -7.8487   -1.5593 C   0  0  1  0  0  0  0  0  0  0  0  0
   -5.3730   -7.0281   -2.3025 O   0  0  0  0  0  0  0  0  0  0  0  0
   -5.8174   -7.9625   -0.1184 C   0  0  2  0  0  0  0  0  0  0  0  0
   -4.6050   -8.7031   -0.0860 O   0  0  0  0  0  0  0  0  0  0  0  0
   -6.8477   -8.6648    0.7557 C   0  0  2  0  0  0  0  0  0  0  0  0
   -8.0574   -7.9240    0.6688 O   0  0  0  0  0  0  0  0  0  0  0  0
   -6.3809   -8.7590    2.2132 C   0  0  0  0  0  0  0  0  0  0  0  0
   -5.2328   -9.6035    2.3812 O   0  0  0  0  0  0  0  0  0  0  0  0
  1  2  1  0  0  0  0
  3  1  1  1  0  0  0
  3  9  1  0  0  0  0
  3  4  1  0  0  0  0
  4  5  1  1  0  0  0
  4  6  1  0  0  0  0
  6  7  1  6  0  0  0
  6  8  1  0  0  0  0
  8  9  1  0  0  0  0
  8 10  1  6  0  0  0
  8 13  1  0  0  0  0
 10 11  1  0  0  0  0
 12 13  1  6  0  0  0
 12 14  1  0  0  0  0
 12 21  1  0  0  0  0
 14 15  1  6  0  0  0
 14 16  1  0  0  0  0
 16 17  1  6  0  0  0
 16 18  1  0  0  0  0
 18 19  1  6  0  0  0
 18 20  1  0  0  0  0
 20 21  1  0  0  0  0
 20 22  1  1  0  0  0
 22 23  1  0  0  0  0
M  END
>  <CHROM.1>
-176.14842211,-61.80294574,-171.63227472,-179.97428432,-66.11710061,-8.15087741
-9.55044327,-0.16589624,-2.60404151,-0.54103351,-0.83570779

>  <Name>
ligand

>  <RI>
0

>  <Rbt.Current_Directory>
/home/itssahil/PROJECTS/Mol_Feturizer/New_Systems/rnas/4TS2

>  <Rbt.Executable>
rbdock ($Id: //depot/dev/client3/rdock/2013.1/src/exe/rbdock.cxx#4 $)

>  <Rbt.Library>
libRbt.so (2013.1, Build901 2013/11/27)

>  <Rbt.Parameter_File>
/export/apps/rDock/src/rDock_2013.1_src/data/scripts/dock_solv.prm

>  <Rbt.Receptor>
prm/pocket_docking_4.prm

>  <SCORE>
-10.4473

>  <SCORE.INTER>
-3.37202

>  <SCORE.INTER.CONST>
1

>  <SCORE.INTER.POLAR>
0

>  <SCORE.INTER.ROT>
5

>  <SCORE.INTER.SOLV>
7.64898

>  <SCORE.INTER.VDW>
-11.731

>  <SCORE.INTER.norm>
-0.14661

>  <SCORE.INTRA>
-7.07528

>  <SCORE.INTRA.DIHEDRAL>
-11.8876

>  <SCORE.INTRA.DIHEDRAL.0>
12.4853

>  <SCORE.INTRA.POLAR>
0

>  <SCORE.INTRA.POLAR.0>
0

>  <SCORE.INTRA.REPUL>
0

>  <SCORE.INTRA.REPUL.0>
0

>  <SCORE.INTRA.SOLV>
0.797626

>  <SCORE.INTRA.SOLV.lig_0>
-31.1706

>  <SCORE.INTRA.VDW>
-1.53029

>  <SCORE.INTRA.VDW.0>
-1.16895

>  <SCORE.INTRA.norm>
-0.307621

>  <SCORE.RESTR>
0

>  <SCORE.RESTR.CAVITY>
0

>  <SCORE.RESTR.norm>
0

>  <SCORE.SYSTEM>
0

>  <SCORE.SYSTEM.CONST>
0

>  <SCORE.SYSTEM.DIHEDRAL>
0

>  <SCORE.SYSTEM.SOLV>
0

>  <SCORE.SYSTEM.norm>
0

>  <SCORE.heavy>
23

>  <SCORE.norm>
-0.45423

>  <RMSD>
3.651

$$$$
ligand
 OpenBabel11021811513D
libRbt.so/2013.1/901 2013/11/27
 23 24  0  0  0  0  0  0  0  0999 V2000
   -7.9970  -11.7708    2.0171 C   0  0  0  0  0  0  0  0  0  0  0  0
   -7.8439  -13.1838    2.2527 O   0  0  0  0  0  0  0  0  0  0  0  0
   -9.1771  -11.5494    1.0819 C   0  0  2  0  0  0  0  0  0  0  0  0
   -9.0271  -12.1343   -0.3142 C   0  0  1  0  0  0  0  0  0  0  0  0
   -9.3027  -13.5359   -0.2731 O   0  0  0  0  0  0  0  0  0  0  0  0
  -10.0495  -11.3250   -1.1048 C   0  0  2  0  0  0  0  0  0  0  0  0
   -9.9014  -11.2346   -2.5268 O   0  0  0  0  0  0  0  0  0  0  0  0
   -9.8957   -9.9503   -0.4784 C   0  0  2  0  0  0  0  0  0  0  0  0
   -9.4260  -10.1568    0.8707 O   0  0  0  0  0  0  0  0  0  0  0  0
  -11.2704   -9.2591   -0.5231 C   0  0  0  0  0  0  0  0  0  0  0  0
  -11.7352   -9.0534   -1.8645 O   0  0  0  0  0  0  0  0  0  0  0  0
   -8.6299   -7.9046   -0.6805 C   0  0  2  0  0  0  0  0  0  0  0  0
   -8.8739   -9.2284   -1.1867 O   0  0  0  0  0  0  0  0  0  0  0  0
   -7.6762   -7.2195   -1.6415 C   0  0  2  0  0  0  0  0  0  0  0  0
   -8.1524   -7.3932   -2.9806 O   0  0  0  0  0  0  0  0  0  0  0  0
   -6.2979   -7.8367   -1.5505 C   0  0  1  0  0  0  0  0  0  0  0  0
   -5.3815   -7.0142   -2.2766 O   0  0  0  0  0  0  0  0  0  0  0  0
   -5.8603   -7.9564   -0.1031 C   0  0  2  0  0  0  0  0  0  0  0  0
   -4.6492   -8.6983   -0.0549 O   0  0  0  0  0  0  0  0  0  0  0  0
   -6.9045   -8.6610    0.7524 C   0  0  2  0  0  0  0  0  0  0  0  0
   -8.1121   -7.9187    0.6497 O   0  0  0  0  0  0  0  0  0  0  0  0
   -6.4602   -8.7611    2.2165 C   0  0  0  0  0  0  0  0  0  0  0  0
   -5.3251   -9.6195    2.4010 O   0  0  0  0  0  0  0  0  0  0  0  0
  1  2  1  0  0  0  0
  3  1  1  1  0  0  0
  3  9  1  0  0  0  0
  3  4  1  0  0  0  0
  4  5  1  1  0  0  0
  4  6  1  0  0  0  0
  6  7  1  6  0  0  0
  6  8  1  0  0  0  0
  8  9  1  0  0  0  0
  8 10  1  6  0  0  0
  8 13  1  0  0  0  0
 10 11  1  0  0  0  0
 12 13  1  6  0  0  0
 12 14  1  0  0  0  0
 12 21  1  0  0  0  0
 14 15  1  6  0  0  0
 14 16  1  0  0  0  0
 16 17  1  6  0  0  0
 16 18  1  0  0  0  0
 18 19  1  6  0  0  0
 18 20  1  0  0  0  0
 20 21  1  0  0  0  0
 20 22  1  1  0  0  0
 22 23  1  0  0  0  0
M  END
>  <CHROM.1>
-63.69363024,-62.65806715,-172.40992568,-179.75950558,-66.79012667,-8.15957677
-9.63675307,-0.23898116,-2.39855559,-0.51878242,-0.68439948

>  <Name>
ligand

>  <RI>
0

>  <Rbt.Current_Directory>
/home/itssahil/PROJECTS/Mol_Feturizer/New_Systems/rnas/4TS2

>  <Rbt.Executable>
rbdock ($Id: //depot/dev/client3/rdock/2013.1/src/exe/rbdock.cxx#4 $)

>  <Rbt.Library>
libRbt.so (2013.1, Build901 2013/11/27)

>  <Rbt.Parameter_File>
/export/apps/rDock/src/rDock_2013.1_src/data/scripts/dock_solv.prm

>  <Rbt.Receptor>
prm/pocket_docking_5.prm

>  <SCORE>
-10.2535

>  <SCORE.INTER>
-3.27716

>  <SCORE.INTER.CONST>
1

>  <SCORE.INTER.POLAR>
0

>  <SCORE.INTER.ROT>
5

>  <SCORE.INTER.SOLV>
7.51308

>  <SCORE.INTER.VDW>
-11.6225

>  <SCORE.INTER.norm>
-0.142485

>  <SCORE.INTRA>
-6.97632

>  <SCORE.INTRA.DIHEDRAL>
-11.9146

>  <SCORE.INTRA.DIHEDRAL.0>
12.4853

>  <SCORE.INTRA.POLAR>
0

>  <SCORE.INTRA.POLAR.0>
0

>  <SCORE.INTRA.REPUL>
0

>  <SCORE.INTRA.REPUL.0>
0

>  <SCORE.INTRA.SOLV>
0.684043

>  <SCORE.INTRA.SOLV.lig_0>
-31.1706

>  <SCORE.INTRA.VDW>
-1.36104

>  <SCORE.INTRA.VDW.0>
-1.16895

>  <SCORE.INTRA.norm>
-0.303318

>  <SCORE.RESTR>
0

>  <SCORE.RESTR.CAVITY>
0

>  <SCORE.RESTR.norm>
0

>  <SCORE.SYSTEM>
0

>  <SCORE.SYSTEM.CONST>
0

>  <SCORE.SYSTEM.DIHEDRAL>
0

>  <SCORE.SYSTEM.SOLV>
0

>  <SCORE.SYSTEM.norm>
0

>  <SCORE.heavy>
23

>  <SCORE.norm>
-0.445803

>  <RMSD>
3.689

$$$$
ligand
 OpenBabel11021811513D
libRbt.so/2013.1/901 2013/11/27
 23 24  0  0  0  0  0  0  0  0999 V2000
   -8.1461  -11.7324    2.1149 C   0  0  0  0  0  0  0  0  0  0  0  0
   -8.4762  -11.1702    3.3996 O   0  0  0  0  0  0  0  0  0  0  0  0
   -9.3033  -11.4912    1.1563 C   0  0  2  0  0  0  0  0  0  0  0  0
   -9.1438  -12.0954   -0.2304 C   0  0  1  0  0  0  0  0  0  0  0  0
   -9.4565  -13.4889   -0.1791 O   0  0  0  0  0  0  0  0  0  0  0  0
  -10.1307  -11.2689   -1.0480 C   0  0  2  0  0  0  0  0  0  0  0  0
   -9.9551  -11.1984   -2.4680 O   0  0  0  0  0  0  0  0  0  0  0  0
   -9.9522   -9.8917   -0.4338 C   0  0  2  0  0  0  0  0  0  0  0  0
   -9.5120  -10.0950    0.9257 O   0  0  0  0  0  0  0  0  0  0  0  0
  -11.3075   -9.1657   -0.5108 C   0  0  0  0  0  0  0  0  0  0  0  0
  -12.3151   -9.8036    0.2865 O   0  0  0  0  0  0  0  0  0  0  0  0
   -8.6187   -7.8884   -0.6243 C   0  0  2  0  0  0  0  0  0  0  0  0
   -8.8996   -9.2044   -1.1314 O   0  0  0  0  0  0  0  0  0  0  0  0
   -7.6699   -7.2184   -1.6006 C   0  0  2  0  0  0  0  0  0  0  0  0
   -8.1754   -7.3759   -2.9310 O   0  0  0  0  0  0  0  0  0  0  0  0
   -6.3031   -7.8642   -1.5392 C   0  0  1  0  0  0  0  0  0  0  0  0
   -5.3842   -7.0572   -2.2794 O   0  0  0  0  0  0  0  0  0  0  0  0
   -5.8400   -7.9996   -0.1012 C   0  0  2  0  0  0  0  0  0  0  0  0
   -4.6438   -8.7664   -0.0798 O   0  0  0  0  0  0  0  0  0  0  0  0
   -6.8818   -8.6868    0.7715 C   0  0  2  0  0  0  0  0  0  0  0  0
   -8.0756   -7.9194    0.6955 O   0  0  0  0  0  0  0  0  0  0  0  0
   -6.4114   -8.8029    2.2262 C   0  0  0  0  0  0  0  0  0  0  0  0
   -5.2772   -9.6684    2.3817 O   0  0  0  0  0  0  0  0  0  0  0  0
  1  2  1  0  0  0  0
  3  1  1  1  0  0  0
  3  9  1  0  0  0  0
  3  4  1  0  0  0  0
  4  5  1  1  0  0  0
  4  6  1  0  0  0  0
  6  7  1  6  0  0  0
  6  8  1  0  0  0  0
  8  9  1  0  0  0  0
  8 10  1  6  0  0  0
  8 13  1  0  0  0  0
 10 11  1  0  0  0  0
 12 13  1  6  0  0  0
 12 14  1  0  0  0  0
 12 21  1  0  0  0  0
 14 15  1  6  0  0  0
 14 16  1  0  0  0  0
 16 17  1  6  0  0  0
 16 18  1  0  0  0  0
 18 19  1  6  0  0  0
 18 20  1  0  0  0  0
 20 21  1  0  0  0  0
 20 22  1  1  0  0  0
 22 23  1  0  0  0  0
M  END
>  <CHROM.1>
-176.72841049,64.66961528,-170.48511297,-179.00727236,-65.84109539,-8.24810260
-9.56628061,-0.04615244,-2.58486266,-0.48426425,-0.89744142

>  <Name>
ligand

>  <RI>
0

>  <Rbt.Current_Directory>
/home/itssahil/PROJECTS/Mol_Feturizer/New_Systems/rnas/4TS2

>  <Rbt.Executable>
rbdock ($Id: //depot/dev/client3/rdock/2013.1/src/exe/rbdock.cxx#4 $)

>  <Rbt.Library>
libRbt.so (2013.1, Build901 2013/11/27)

>  <Rbt.Parameter_File>
/export/apps/rDock/src/rDock_2013.1_src/data/scripts/dock_solv.prm

>  <Rbt.Receptor>
prm/pocket_docking_5.prm

>  <SCORE>
-10.1746

>  <SCORE.INTER>
-3.10196

>  <SCORE.INTER.CONST>
1

>  <SCORE.INTER.POLAR>
0

>  <SCORE.INTER.ROT>
5

>  <SCORE.INTER.SOLV>
7.20882

>  <SCORE.INTER.VDW>
-11.4042

>  <SCORE.INTER.norm>
-0.134868

>  <SCORE.INTRA>
-7.07262

>  <SCORE.INTRA.DIHEDRAL>
-11.7182

>  <SCORE.INTRA.DIHEDRAL.0>
12.4853

>  <SCORE.INTRA.POLAR>
0

>  <SCORE.INTRA.POLAR.0>
0

>  <SCORE.INTRA.REPUL>
0

>  <SCORE.INTRA.REPUL.0>
0

>  <SCORE.INTRA.SOLV>
0.597887

>  <SCORE.INTRA.SOLV.lig_0>
-31.1706

>  <SCORE.INTRA.VDW>
-1.51247

>  <SCORE.INTRA.VDW.0>
-1.16895

>  <SCORE.INTRA.norm>
-0.307505

>  <SCORE.RESTR>
0

>  <SCORE.RESTR.CAVITY>
0

>  <SCORE.RESTR.norm>
0

>  <SCORE.SYSTEM>
0

>  <SCORE.SYSTEM.CONST>
0

>  <SCORE.SYSTEM.DIHEDRAL>
0

>  <SCORE.SYSTEM.SOLV>
0

>  <SCORE.SYSTEM.norm>
0

>  <SCORE.heavy>
23

>  <SCORE.norm>
-0.442373

>  <RMSD>
3.737

$$$$
ligand
 OpenBabel11021811513D
libRbt.so/2013.1/901 2013/11/27
 23 24  0  0  0  0  0  0  0  0999 V2000
   -8.0874  -11.7889    2.0514 C   0  0  0  0  0  0  0  0  0  0  0  0
   -8.3997  -11.2426    3.3474 O   0  0  0  0  0  0  0  0  0  0  0  0
   -9.2571  -11.5344    1.1115 C   0  0  2  0  0  0  0  0  0  0  0  0
   -9.1170  -12.1214   -0.2847 C   0  0  1  0  0  0  0  0  0  0  0  0
   -9.4308  -13.5150   -0.2467 O   0  0  0  0  0  0  0  0  0  0  0  0
  -10.1136  -11.2836   -1.0786 C   0  0  2  0  0  0  0  0  0  0  0  0
   -9.9570  -11.1955   -2.4999 O   0  0  0  0  0  0  0  0  0  0  0  0
   -9.9252   -9.9143   -0.4497 C   0  0  2  0  0  0  0  0  0  0  0  0
   -9.4671  -10.1352    0.9011 O   0  0  0  0  0  0  0  0  0  0  0  0
  -11.2804   -9.1860   -0.4994 C   0  0  0  0  0  0  0  0  0  0  0  0
  -12.2772   -9.8309    0.3057 O   0  0  0  0  0  0  0  0  0  0  0  0
   -8.6092   -7.9004   -0.6491 C   0  0  2  0  0  0  0  0  0  0  0  0
   -8.8811   -9.2196   -1.1527 O   0  0  0  0  0  0  0  0  0  0  0  0
   -7.6643   -7.2268   -1.6268 C   0  0  2  0  0  0  0  0  0  0  0  0
   -8.1680   -7.3914   -2.9570 O   0  0  0  0  0  0  0  0  0  0  0  0
   -6.2933   -7.8633   -1.5628 C   0  0  1  0  0  0  0  0  0  0  0  0
   -5.3794   -7.0523   -2.3047 O   0  0  0  0  0  0  0  0  0  0  0  0
   -5.8302   -7.9916   -0.1241 C   0  0  2  0  0  0  0  0  0  0  0  0
   -4.6289   -8.7504   -0.0998 O   0  0  0  0  0  0  0  0  0  0  0  0
   -6.8679   -8.6832    0.7499 C   0  0  2  0  0  0  0  0  0  0  0  0
   -8.0667   -7.9240    0.6711 O   0  0  0  0  0  0  0  0  0  0  0  0
   -6.3976   -8.7921    2.2052 C   0  0  0  0  0  0  0  0  0  0  0  0
   -5.2725   -9.6682    2.3672 O   0  0  0  0  0  0  0  0  0  0  0  0
  1  2  1  0  0  0  0
  3  1  1  1  0  0  0
  3  9  1  0  0  0  0
  3  4  1  0  0  0  0
  4  5  1  1  0  0  0
  4  6  1  0  0  0  0
  6  7  1  6  0  0  0
  6  8  1  0  0  0  0
  8  9  1  0  0  0  0
  8 10  1  6  0  0  0
  8 13  1  0  0  0  0
 10 11  1  0  0  0  0
 12 13  1  6  0  0  0
 12 14  1  0  0  0  0
 12 21  1  0  0  0  0
 14 15  1  6  0  0  0
 14 16  1  0  0  0  0
 16 17  1  6  0  0  0
 16 18  1  0  0  0  0
 18 19  1  6  0  0  0
 18 20  1  0  0  0  0
 20 21  1  0  0  0  0
 20 22  1  1  0  0  0
 22 23  1  0  0  0  0
M  END
>  <CHROM.1>
-176.71813797,64.80437982,-170.76747217,179.86291052,-66.87907094,-8.22593764
-9.58192140,-0.07328815,-2.57627027,-0.49066413,-0.88814227

>  <Name>
ligand

>  <RI>
0

>  <Rbt.Current_Directory>
/home/itssahil/PROJECTS/Mol_Feturizer/New_Systems/rnas/4TS2

>  <Rbt.Executable>
rbdock ($Id: //depot/dev/client3/rdock/2013.1/src/exe/rbdock.cxx#4 $)

>  <Rbt.Library>
libRbt.so (2013.1, Build901 2013/11/27)

>  <Rbt.Parameter_File>
/export/apps/rDock/src/rDock_2013.1_src/data/scripts/dock_solv.prm

>  <Rbt.Receptor>
prm/pocket_docking_4.prm

>  <SCORE>
-10.1389

>  <SCORE.INTER>
-3.0602

>  <SCORE.INTER.CONST>
1

>  <SCORE.INTER.POLAR>
0

>  <SCORE.INTER.ROT>
5

>  <SCORE.INTER.SOLV>
7.11979

>  <SCORE.INTER.VDW>
-11.3467

>  <SCORE.INTER.norm>
-0.133052

>  <SCORE.INTRA>
-7.07875

>  <SCORE.INTRA.DIHEDRAL>
-11.679

>  <SCORE.INTRA.DIHEDRAL.0>
12.4853

>  <SCORE.INTRA.POLAR>
0

>  <SCORE.INTRA.POLAR.0>
0

>  <SCORE.INTRA.REPUL>
0

>  <SCORE.INTRA.REPUL.0>
0

>  <SCORE.INTRA.SOLV>
0.596096

>  <SCORE.INTRA.SOLV.lig_0>
-31.1706

>  <SCORE.INTRA.VDW>
-1.53732

>  <SCORE.INTRA.VDW.0>
-1.16895

>  <SCORE.INTRA.norm>
-0.307772

>  <SCORE.RESTR>
0

>  <SCORE.RESTR.CAVITY>
0

>  <SCORE.RESTR.norm>
0

>  <SCORE.SYSTEM>
0

>  <SCORE.SYSTEM.CONST>
0

>  <SCORE.SYSTEM.DIHEDRAL>
0

>  <SCORE.SYSTEM.SOLV>
0

>  <SCORE.SYSTEM.norm>
0

>  <SCORE.heavy>
23

>  <SCORE.norm>
-0.440824

>  <RMSD>
3.742

$$$$
ligand
 OpenBabel11021811513D
libRbt.so/2013.1/901 2013/11/27
 23 24  0  0  0  0  0  0  0  0999 V2000
   -7.9680  -11.8350    2.0648 C   0  0  0  0  0  0  0  0  0  0  0  0
   -8.2869  -11.3763    3.3927 O   0  0  0  0  0  0  0  0  0  0  0  0
   -9.1601  -11.5814    1.1533 C   0  0  2  0  0  0  0  0  0  0  0  0
   -9.0731  -12.2067   -0.2305 C   0  0  1  0  0  0  0  0  0  0  0  0
   -9.4123  -13.5924   -0.1467 O   0  0  0  0  0  0  0  0  0  0  0  0
  -10.0768  -11.3699   -1.0165 C   0  0  2  0  0  0  0  0  0  0  0  0
   -9.9611  -11.3214   -2.4435 O   0  0  0  0  0  0  0  0  0  0  0  0
   -9.8434   -9.9890   -0.4295 C   0  0  2  0  0  0  0  0  0  0  0  0
   -9.3494  -10.1842    0.9126 O   0  0  0  0  0  0  0  0  0  0  0  0
  -11.1853   -9.2352   -0.4584 C   0  0  0  0  0  0  0  0  0  0  0  0
  -11.7040   -9.0938   -1.7883 O   0  0  0  0  0  0  0  0  0  0  0  0
   -8.5744   -7.9681   -0.7946 C   0  0  2  0  0  0  0  0  0  0  0  0
   -8.8076   -9.3335   -1.1809 O   0  0  0  0  0  0  0  0  0  0  0  0
   -7.7631   -7.3160   -1.8988 C   0  0  2  0  0  0  0  0  0  0  0  0
   -8.3712   -7.6046   -3.1625 O   0  0  0  0  0  0  0  0  0  0  0  0
   -6.3551   -7.8691   -1.9191 C   0  0  1  0  0  0  0  0  0  0  0  0
   -5.5622   -7.0647   -2.7954 O   0  0  0  0  0  0  0  0  0  0  0  0
   -5.7595   -7.8666   -0.5241 C   0  0  2  0  0  0  0  0  0  0  0  0
   -4.5162   -8.5537   -0.5600 O   0  0  0  0  0  0  0  0  0  0  0  0
   -6.6711   -8.5493    0.4868 C   0  0  2  0  0  0  0  0  0  0  0  0
   -7.9169   -7.8655    0.4682 O   0  0  0  0  0  0  0  0  0  0  0  0
   -6.0682   -8.5258    1.8963 C   0  0  0  0  0  0  0  0  0  0  0  0
   -6.9301   -9.1082    2.8850 O   0  0  0  0  0  0  0  0  0  0  0  0
  1  2  1  0  0  0  0
  3  1  1  1  0  0  0
  3  9  1  0  0  0  0
  3  4  1  0  0  0  0
  4  5  1  1  0  0  0
  4  6  1  0  0  0  0
  6  7  1  6  0  0  0
  6  8  1  0  0  0  0
  8  9  1  0  0  0  0
  8 10  1  1  0  0  0
  8 13  1  0  0  0  0
 10 11  1  0  0  0  0
 12 13  1  6  0  0  0
 12 14  1  0  0  0  0
 12 21  1  0  0  0  0
 14 15  1  6  0  0  0
 14 16  1  0  0  0  0
 16 17  1  6  0  0  0
 16 18  1  0  0  0  0
 18 19  1  6  0  0  0
 18 20  1  0  0  0  0
 20 21  1  0  0  0  0
 20 22  1  1  0  0  0
 22 23  1  0  0  0  0
M  END
>  <CHROM.1>
-170.67110481,-60.02516272,-164.49155970,174.82543623,177.34927969,-8.23031998
-9.54262738,-0.26472358,-2.38022675,-0.58821684,-0.94585118

>  <Name>
ligand

>  <RI>
0

>  <Rbt.Current_Directory>
/home/itssahil/PROJECTS/Mol_Feturizer/New_Systems/rnas/4TS2

>  <Rbt.Executable>
rbdock ($Id: //depot/dev/client3/rdock/2013.1/src/exe/rbdock.cxx#4 $)

>  <Rbt.Library>
libRbt.so (2013.1, Build901 2013/11/27)

>  <Rbt.Parameter_File>
/export/apps/rDock/src/rDock_2013.1_src/data/scripts/dock_solv.prm

>  <Rbt.Receptor>
prm/pocket_docking_4.prm

>  <SCORE>
-9.63574

>  <SCORE.INTER>
-3.17888

>  <SCORE.INTER.CONST>
1

>  <SCORE.INTER.POLAR>
0

>  <SCORE.INTER.ROT>
5

>  <SCORE.INTER.SOLV>
8.23463

>  <SCORE.INTER.VDW>
-11.7975

>  <SCORE.INTER.norm>
-0.138212

>  <SCORE.INTRA>
-6.45686

>  <SCORE.INTRA.DIHEDRAL>
-10.7606

>  <SCORE.INTRA.DIHEDRAL.0>
12.4853

>  <SCORE.INTRA.POLAR>
0

>  <SCORE.INTRA.POLAR.0>
0

>  <SCORE.INTRA.REPUL>
0

>  <SCORE.INTRA.REPUL.0>
0

>  <SCORE.INTRA.SOLV>
0.879702

>  <SCORE.INTRA.SOLV.lig_0>
-31.1706

>  <SCORE.INTRA.VDW>
-1.51641

>  <SCORE.INTRA.VDW.0>
-1.16895

>  <SCORE.INTRA.norm>
-0.280733

>  <SCORE.RESTR>
0

>  <SCORE.RESTR.CAVITY>
0

>  <SCORE.RESTR.norm>
0

>  <SCORE.SYSTEM>
0

>  <SCORE.SYSTEM.CONST>
0

>  <SCORE.SYSTEM.DIHEDRAL>
0

>  <SCORE.SYSTEM.SOLV>
0

>  <SCORE.SYSTEM.norm>
0

>  <SCORE.heavy>
23

>  <SCORE.norm>
-0.418945

>  <RMSD>
3.792

$$$$
ligand
 OpenBabel11021811513D
libRbt.so/2013.1/901 2013/11/27
 23 24  0  0  0  0  0  0  0  0999 V2000
   -8.6883  -12.3705    1.6319 C   0  0  0  0  0  0  0  0  0  0  0  0
   -9.0560  -11.8534    2.9253 O   0  0  0  0  0  0  0  0  0  0  0  0
   -9.8014  -12.0629    0.6406 C   0  0  2  0  0  0  0  0  0  0  0  0
   -9.5960  -12.6045   -0.7658 C   0  0  1  0  0  0  0  0  0  0  0  0
   -9.9341  -13.9928   -0.7932 O   0  0  0  0  0  0  0  0  0  0  0  0
  -10.5347  -11.7223   -1.5819 C   0  0  2  0  0  0  0  0  0  0  0  0
  -10.3005  -11.5887   -2.9888 O   0  0  0  0  0  0  0  0  0  0  0  0
  -10.3580  -10.3788   -0.8964 C   0  0  2  0  0  0  0  0  0  0  0  0
   -9.9769  -10.6538    0.4684 O   0  0  0  0  0  0  0  0  0  0  0  0
  -11.6966   -9.6247   -0.9926 C   0  0  0  0  0  0  0  0  0  0  0  0
  -11.7421   -8.4800   -0.1293 O   0  0  0  0  0  0  0  0  0  0  0  0
   -8.9389   -8.4260   -0.8946 C   0  0  2  0  0  0  0  0  0  0  0  0
   -9.2665   -9.6797   -1.5181 O   0  0  0  0  0  0  0  0  0  0  0  0
   -7.9664   -7.7044   -1.8088 C   0  0  2  0  0  0  0  0  0  0  0  0
   -8.4765   -7.7225   -3.1466 O   0  0  0  0  0  0  0  0  0  0  0  0
   -6.6235   -8.4013   -1.8100 C   0  0  1  0  0  0  0  0  0  0  0  0
   -5.6761   -7.5637   -2.4766 O   0  0  0  0  0  0  0  0  0  0  0  0
   -6.1663   -8.6830   -0.3914 C   0  0  2  0  0  0  0  0  0  0  0  0
   -4.9982   -9.4907   -0.4429 O   0  0  0  0  0  0  0  0  0  0  0  0
   -7.2323   -9.4089    0.4182 C   0  0  2  0  0  0  0  0  0  0  0  0
   -8.3979   -8.5958    0.4154 O   0  0  0  0  0  0  0  0  0  0  0  0
   -6.7670   -9.6732    1.8551 C   0  0  0  0  0  0  0  0  0  0  0  0
   -6.4707   -8.4700    2.5791 O   0  0  0  0  0  0  0  0  0  0  0  0
  1  2  1  0  0  0  0
  3  1  1  1  0  0  0
  3  9  1  0  0  0  0
  3  4  1  0  0  0  0
  4  5  1  1  0  0  0
  4  6  1  0  0  0  0
  6  7  1  6  0  0  0
  6  8  1  0  0  0  0
  8  9  1  0  0  0  0
  8 10  1  6  0  0  0
  8 13  1  0  0  0  0
 10 11  1  0  0  0  0
 12 13  1  6  0  0  0
 12 14  1  0  0  0  0
 12 21  1  0  0  0  0
 14 15  1  6  0  0  0
 14 16  1  0  0  0  0
 16 17  1  1  0  0  0
 16 18  1  0  0  0  0
 18 19  1  6  0  0  0
 18 20  1  0  0  0  0
 20 21  1  0  0  0  0
 20 22  1  1  0  0  0
 22 23  1  0  0  0  0
M  END
>  <CHROM.1>
-177.18315373,166.97106498,-169.49459128,-175.93539259,60.62142477,-8.62973798
-9.95381884,-0.41325287,-2.60904364,-0.60072017,-0.92057943

>  <Name>
ligand

>  <RI>
0

>  <Rbt.Current_Directory>
/home/itssahil/PROJECTS/Mol_Feturizer/New_Systems/rnas/4TS2

>  <Rbt.Executable>
rbdock ($Id: //depot/dev/client3/rdock/2013.1/src/exe/rbdock.cxx#4 $)

>  <Rbt.Library>
libRbt.so (2013.1, Build901 2013/11/27)

>  <Rbt.Parameter_File>
/export/apps/rDock/src/rDock_2013.1_src/data/scripts/dock_solv.prm

>  <Rbt.Receptor>
prm/pocket_docking_6.prm

>  <SCORE>
-7.54645

>  <SCORE.INTER>
-0.523873

>  <SCORE.INTER.CONST>
1

>  <SCORE.INTER.POLAR>
0

>  <SCORE.INTER.ROT>
5

>  <SCORE.INTER.SOLV>
7.3938

>  <SCORE.INTER.VDW>
-9.74718

>  <SCORE.INTER.norm>
-0.0227771

>  <SCORE.INTRA>
-7.02258

>  <SCORE.INTRA.DIHEDRAL>
-11.3546

>  <SCORE.INTRA.DIHEDRAL.0>
12.4853

>  <SCORE.INTRA.POLAR>
0

>  <SCORE.INTRA.POLAR.0>
0

>  <SCORE.INTRA.REPUL>
0

>  <SCORE.INTRA.REPUL.0>
0

>  <SCORE.INTRA.SOLV>
0.458026

>  <SCORE.INTRA.SOLV.lig_0>
-31.1706

>  <SCORE.INTRA.VDW>
-1.57428

>  <SCORE.INTRA.VDW.0>
-1.16895

>  <SCORE.INTRA.norm>
-0.305329

>  <SCORE.RESTR>
0

>  <SCORE.RESTR.CAVITY>
0

>  <SCORE.RESTR.norm>
0

>  <SCORE.SYSTEM>
0

>  <SCORE.SYSTEM.CONST>
0

>  <SCORE.SYSTEM.DIHEDRAL>
0

>  <SCORE.SYSTEM.SOLV>
0

>  <SCORE.SYSTEM.norm>
0

>  <SCORE.heavy>
23

>  <SCORE.norm>
-0.328107

>  <RMSD>
3.796

$$$$
ligand
 OpenBabel11021811513D
libRbt.so/2013.1/901 2013/11/27
 23 24  0  0  0  0  0  0  0  0999 V2000
  -12.3066   -8.9344   -0.4928 C   0  0  0  0  0  0  0  0  0  0  0  0
  -13.1120   -9.0265    0.6981 O   0  0  0  0  0  0  0  0  0  0  0  0
  -11.4408  -10.1813   -0.6031 C   0  0  2  0  0  0  0  0  0  0  0  0
  -10.4264  -10.3768    0.5132 C   0  0  1  0  0  0  0  0  0  0  0  0
  -11.0836  -10.9159    1.6620 O   0  0  0  0  0  0  0  0  0  0  0  0
   -9.4280  -11.3309   -0.1338 C   0  0  2  0  0  0  0  0  0  0  0  0
   -8.0996  -11.3979    0.3981 O   0  0  0  0  0  0  0  0  0  0  0  0
   -9.3909  -10.8078   -1.5589 C   0  0  2  0  0  0  0  0  0  0  0  0
  -10.6662  -10.1783   -1.8056 O   0  0  0  0  0  0  0  0  0  0  0  0
   -9.1366  -12.0063   -2.4909 C   0  0  0  0  0  0  0  0  0  0  0  0
   -7.8634  -12.6228   -2.2532 O   0  0  0  0  0  0  0  0  0  0  0  0
   -8.7285   -8.5522   -1.0101 C   0  0  2  0  0  0  0  0  0  0  0  0
   -8.3802   -9.7899   -1.6542 O   0  0  0  0  0  0  0  0  0  0  0  0
   -8.0325   -7.4354   -1.7656 C   0  0  2  0  0  0  0  0  0  0  0  0
   -8.2674   -7.5988   -3.1686 O   0  0  0  0  0  0  0  0  0  0  0  0
   -6.5387   -7.4880   -1.5315 C   0  0  1  0  0  0  0  0  0  0  0  0
   -5.9539   -6.2907   -2.0491 O   0  0  0  0  0  0  0  0  0  0  0  0
   -6.2340   -7.6220   -0.0516 C   0  0  2  0  0  0  0  0  0  0  0  0
   -4.8397   -7.8467    0.1063 O   0  0  0  0  0  0  0  0  0  0  0  0
   -6.9948   -8.7771    0.5854 C   0  0  2  0  0  0  0  0  0  0  0  0
   -8.3807   -8.5435    0.3743 O   0  0  0  0  0  0  0  0  0  0  0  0
   -6.6934   -8.8929    2.0843 C   0  0  0  0  0  0  0  0  0  0  0  0
   -5.3299   -9.2482    2.3566 O   0  0  0  0  0  0  0  0  0  0  0  0
  1  2  1  0  0  0  0
  3  1  1  1  0  0  0
  3  9  1  0  0  0  0
  3  4  1  0  0  0  0
  4  5  1  1  0  0  0
  4  6  1  0  0  0  0
  6  7  1  1  0  0  0
  6  8  1  0  0  0  0
  8  9  1  0  0  0  0
  8 10  1  6  0  0  0
  8 13  1  0  0  0  0
 10 11  1  0  0  0  0
 12 13  1  6  0  0  0
 12 14  1  0  0  0  0
 12 21  1  0  0  0  0
 14 15  1  6  0  0  0
 14 16  1  0  0  0  0
 16 17  1  1  0  0  0
 16 18  1  0  0  0  0
 18 19  1  6  0  0  0
 18 20  1  0  0  0  0
 20 21  1  0  0  0  0
 20 22  1  1  0  0  0
 22 23  1  0  0  0  0
M  END
>  <CHROM.1>
-63.35297776,-63.16170366,-150.02477012,-72.32660504,-65.75993296,-8.56286444
-9.38812845,-0.50483701,2.96442269,0.43221138,2.00041147

>  <Name>
ligand

>  <RI>
0

>  <Rbt.Current_Directory>
/home/itssahil/PROJECTS/Mol_Feturizer/New_Systems/rnas/4TS2

>  <Rbt.Executable>
rbdock ($Id: //depot/dev/client3/rdock/2013.1/src/exe/rbdock.cxx#4 $)

>  <Rbt.Library>
libRbt.so (2013.1, Build901 2013/11/27)

>  <Rbt.Parameter_File>
/export/apps/rDock/src/rDock_2013.1_src/data/scripts/dock_solv.prm

>  <Rbt.Receptor>
prm/pocket_docking_3.prm

>  <SCORE>
-7.98429

>  <SCORE.INTER>
-4.55207

>  <SCORE.INTER.CONST>
1

>  <SCORE.INTER.POLAR>
0

>  <SCORE.INTER.ROT>
5

>  <SCORE.INTER.SOLV>
8.37996

>  <SCORE.INTER.VDW>
-12.7614

>  <SCORE.INTER.norm>
-0.197916

>  <SCORE.INTRA>
-3.43222

>  <SCORE.INTRA.DIHEDRAL>
-7.78944

>  <SCORE.INTRA.DIHEDRAL.0>
12.4853

>  <SCORE.INTRA.POLAR>
0

>  <SCORE.INTRA.POLAR.0>
0

>  <SCORE.INTRA.REPUL>
0

>  <SCORE.INTRA.REPUL.0>
0

>  <SCORE.INTRA.SOLV>
1.23578

>  <SCORE.INTRA.SOLV.lig_0>
-31.1706

>  <SCORE.INTRA.VDW>
-0.155394

>  <SCORE.INTRA.VDW.0>
-1.16895

>  <SCORE.INTRA.norm>
-0.149227

>  <SCORE.RESTR>
0

>  <SCORE.RESTR.CAVITY>
0

>  <SCORE.RESTR.norm>
0

>  <SCORE.SYSTEM>
0

>  <SCORE.SYSTEM.CONST>
0

>  <SCORE.SYSTEM.DIHEDRAL>
0

>  <SCORE.SYSTEM.SOLV>
0

>  <SCORE.SYSTEM.norm>
0

>  <SCORE.heavy>
23

>  <SCORE.norm>
-0.347143

>  <RMSD>
3.798

$$$$
ligand
 OpenBabel11021811513D
libRbt.so/2013.1/901 2013/11/27
 23 24  0  0  0  0  0  0  0  0999 V2000
   -7.1453  -11.6450   -2.8487 C   0  0  0  0  0  0  0  0  0  0  0  0
   -7.8909  -12.8758   -2.9163 O   0  0  0  0  0  0  0  0  0  0  0  0
   -8.1092  -10.4951   -2.5938 C   0  0  2  0  0  0  0  0  0  0  0  0
   -7.4807   -9.1110   -2.5419 C   0  0  1  0  0  0  0  0  0  0  0  0
   -7.2515   -8.6442   -3.8730 O   0  0  0  0  0  0  0  0  0  0  0  0
   -8.5355   -8.3159   -1.7798 C   0  0  2  0  0  0  0  0  0  0  0  0
   -8.1393   -7.1085   -1.1184 O   0  0  0  0  0  0  0  0  0  0  0  0
   -9.0038   -9.3376   -0.7586 C   0  0  2  0  0  0  0  0  0  0  0  0
   -8.7797  -10.6402   -1.3386 O   0  0  0  0  0  0  0  0  0  0  0  0
  -10.4928   -9.0680   -0.4759 C   0  0  0  0  0  0  0  0  0  0  0  0
  -11.3126   -9.2574   -1.6377 O   0  0  0  0  0  0  0  0  0  0  0  0
   -6.9765  -10.0280    0.3554 C   0  0  2  0  0  0  0  0  0  0  0  0
   -8.1762   -9.2371    0.4127 O   0  0  0  0  0  0  0  0  0  0  0  0
   -6.5089  -10.2477    1.7821 C   0  0  2  0  0  0  0  0  0  0  0  0
   -7.6151  -10.6886    2.5771 O   0  0  0  0  0  0  0  0  0  0  0  0
   -5.9912   -8.9557    2.3750 C   0  0  1  0  0  0  0  0  0  0  0  0
   -5.3394   -9.2513    3.6125 O   0  0  0  0  0  0  0  0  0  0  0  0
   -5.0236   -8.2801    1.4221 C   0  0  2  0  0  0  0  0  0  0  0  0
   -4.7035   -6.9945    1.9359 O   0  0  0  0  0  0  0  0  0  0  0  0
   -5.6139   -8.1207    0.0274 C   0  0  2  0  0  0  0  0  0  0  0  0
   -5.9607   -9.4172   -0.4401 O   0  0  0  0  0  0  0  0  0  0  0  0
   -4.6218   -7.4529   -0.9322 C   0  0  0  0  0  0  0  0  0  0  0  0
   -3.4132   -8.2075   -1.1042 O   0  0  0  0  0  0  0  0  0  0  0  0
  1  2  1  0  0  0  0
  3  1  1  1  0  0  0
  3  9  1  0  0  0  0
  3  4  1  0  0  0  0
  4  5  1  6  0  0  0
  4  6  1  0  0  0  0
  6  7  1  1  0  0  0
  6  8  1  0  0  0  0
  8  9  1  0  0  0  0
  8 10  1  1  0  0  0
  8 13  1  0  0  0  0
 10 11  1  0  0  0  0
 12 13  1  1  0  0  0
 12 14  1  0  0  0  0
 12 21  1  0  0  0  0
 14 15  1  1  0  0  0
 14 16  1  0  0  0  0
 16 17  1  1  0  0  0
 16 18  1  0  0  0  0
 18 19  1  1  0  0  0
 18 20  1  0  0  0  0
 20 21  1  0  0  0  0
 20 22  1  6  0  0  0
 22 23  1  0  0  0  0
M  END
>  <CHROM.1>
-178.00780393,63.32750319,-158.64618679,-86.91426177,60.94842105,-7.13205100
-9.28063021,-0.42926739,-2.37836620,0.42862510,1.58219370

>  <Name>
ligand

>  <RI>
0

>  <Rbt.Current_Directory>
/home/itssahil/PROJECTS/Mol_Feturizer/New_Systems/rnas/4TS2

>  <Rbt.Executable>
rbdock ($Id: //depot/dev/client3/rdock/2013.1/src/exe/rbdock.cxx#4 $)

>  <Rbt.Library>
libRbt.so (2013.1, Build901 2013/11/27)

>  <Rbt.Parameter_File>
/export/apps/rDock/src/rDock_2013.1_src/data/scripts/dock_solv.prm

>  <Rbt.Receptor>
prm/pocket_docking_3.prm

>  <SCORE>
-6.56071

>  <SCORE.INTER>
-3.57734

>  <SCORE.INTER.CONST>
1

>  <SCORE.INTER.POLAR>
0

>  <SCORE.INTER.ROT>
5

>  <SCORE.INTER.SOLV>
8.76366

>  <SCORE.INTER.VDW>
-12.2394

>  <SCORE.INTER.norm>
-0.155537

>  <SCORE.INTRA>
-2.98336

>  <SCORE.INTRA.DIHEDRAL>
-7.06154

>  <SCORE.INTRA.DIHEDRAL.0>
12.4853

>  <SCORE.INTRA.POLAR>
0

>  <SCORE.INTRA.POLAR.0>
0

>  <SCORE.INTRA.REPUL>
0

>  <SCORE.INTRA.REPUL.0>
0

>  <SCORE.INTRA.SOLV>
0.951121

>  <SCORE.INTRA.SOLV.lig_0>
-31.1706

>  <SCORE.INTRA.VDW>
0.0718444

>  <SCORE.INTRA.VDW.0>
-1.16895

>  <SCORE.INTRA.norm>
-0.129711

>  <SCORE.RESTR>
0

>  <SCORE.RESTR.CAVITY>
0

>  <SCORE.RESTR.norm>
0

>  <SCORE.SYSTEM>
0

>  <SCORE.SYSTEM.CONST>
0

>  <SCORE.SYSTEM.DIHEDRAL>
0

>  <SCORE.SYSTEM.SOLV>
0

>  <SCORE.SYSTEM.norm>
0

>  <SCORE.heavy>
23

>  <SCORE.norm>
-0.285248

>  <RMSD>
3.802

$$$$
ligand
 OpenBabel11021811513D
libRbt.so/2013.1/901 2013/11/27
 23 24  0  0  0  0  0  0  0  0999 V2000
   -7.7878  -11.7997    1.9186 C   0  0  0  0  0  0  0  0  0  0  0  0
   -7.6348  -13.2183    2.1175 O   0  0  0  0  0  0  0  0  0  0  0  0
   -9.0220  -11.5495    1.0638 C   0  0  2  0  0  0  0  0  0  0  0  0
   -8.9937  -12.1666   -0.3262 C   0  0  1  0  0  0  0  0  0  0  0  0
   -9.3193  -13.5551   -0.2351 O   0  0  0  0  0  0  0  0  0  0  0  0
  -10.0378  -11.3325   -1.0609 C   0  0  2  0  0  0  0  0  0  0  0  0
   -9.9875  -11.2754   -2.4914 O   0  0  0  0  0  0  0  0  0  0  0  0
   -9.7874   -9.9533   -0.4771 C   0  0  2  0  0  0  0  0  0  0  0  0
   -9.2315  -10.1523    0.8400 O   0  0  0  0  0  0  0  0  0  0  0  0
  -11.1343   -9.2089   -0.4406 C   0  0  0  0  0  0  0  0  0  0  0  0
  -11.7021   -9.0421   -1.7473 O   0  0  0  0  0  0  0  0  0  0  0  0
   -8.5336   -7.9287   -0.8731 C   0  0  2  0  0  0  0  0  0  0  0  0
   -8.7914   -9.2864   -1.2709 O   0  0  0  0  0  0  0  0  0  0  0  0
   -7.6906   -7.2890   -1.9606 C   0  0  2  0  0  0  0  0  0  0  0  0
   -8.2851   -7.5569   -3.2354 O   0  0  0  0  0  0  0  0  0  0  0  0
   -6.2952   -7.8737   -1.9622 C   0  0  1  0  0  0  0  0  0  0  0  0
   -5.4708   -7.0826   -2.8212 O   0  0  0  0  0  0  0  0  0  0  0  0
   -5.7218   -7.8923   -0.5580 C   0  0  2  0  0  0  0  0  0  0  0  0
   -4.4938   -8.6071   -0.5785 O   0  0  0  0  0  0  0  0  0  0  0  0
   -6.6644   -8.5598    0.4345 C   0  0  2  0  0  0  0  0  0  0  0  0
   -7.8940   -7.8480    0.4005 O   0  0  0  0  0  0  0  0  0  0  0  0
   -6.0833   -8.5577    1.8534 C   0  0  0  0  0  0  0  0  0  0  0  0
   -6.9643   -9.1464    2.8213 O   0  0  0  0  0  0  0  0  0  0  0  0
  1  2  1  0  0  0  0
  3  1  1  6  0  0  0
  3  9  1  0  0  0  0
  3  4  1  0  0  0  0
  4  5  1  1  0  0  0
  4  6  1  0  0  0  0
  6  7  1  6  0  0  0
  6  8  1  0  0  0  0
  8  9  1  0  0  0  0
  8 10  1  1  0  0  0
  8 13  1  0  0  0  0
 10 11  1  0  0  0  0
 12 13  1  6  0  0  0
 12 14  1  0  0  0  0
 12 21  1  0  0  0  0
 14 15  1  6  0  0  0
 14 16  1  0  0  0  0
 16 17  1  6  0  0  0
 16 18  1  0  0  0  0
 18 19  1  6  0  0  0
 18 20  1  0  0  0  0
 20 21  1  0  0  0  0
 20 22  1  1  0  0  0
 22 23  1  0  0  0  0
M  END
>  <CHROM.1>
-60.82515577,-61.10148050,-168.68862665,175.84042369,178.34340036,-8.15083001
-9.61489312,-0.37834949,-2.24229441,-0.53206532,-0.76389048

>  <Name>
ligand

>  <RI>
0

>  <Rbt.Current_Directory>
/home/itssahil/PROJECTS/Mol_Feturizer/New_Systems/rnas/4TS2

>  <Rbt.Executable>
rbdock ($Id: //depot/dev/client3/rdock/2013.1/src/exe/rbdock.cxx#4 $)

>  <Rbt.Library>
libRbt.so (2013.1, Build901 2013/11/27)

>  <Rbt.Parameter_File>
/export/apps/rDock/src/rDock_2013.1_src/data/scripts/dock_solv.prm

>  <Rbt.Receptor>
prm/pocket_docking_5.prm

>  <SCORE>
-9.74155

>  <SCORE.INTER>
-2.91328

>  <SCORE.INTER.CONST>
1

>  <SCORE.INTER.POLAR>
0

>  <SCORE.INTER.ROT>
5

>  <SCORE.INTER.SOLV>
7.94818

>  <SCORE.INTER.VDW>
-11.5249

>  <SCORE.INTER.norm>
-0.126664

>  <SCORE.INTRA>
-6.82827

>  <SCORE.INTRA.DIHEDRAL>
-11.6503

>  <SCORE.INTRA.DIHEDRAL.0>
12.4853

>  <SCORE.INTRA.POLAR>
0

>  <SCORE.INTRA.POLAR.0>
0

>  <SCORE.INTRA.REPUL>
0

>  <SCORE.INTRA.REPUL.0>
0

>  <SCORE.INTRA.SOLV>
0.777126

>  <SCORE.INTRA.SOLV.lig_0>
-31.1706

>  <SCORE.INTRA.VDW>
-1.3917

>  <SCORE.INTRA.VDW.0>
-1.16895

>  <SCORE.INTRA.norm>
-0.296881

>  <SCORE.RESTR>
0

>  <SCORE.RESTR.CAVITY>
0

>  <SCORE.RESTR.norm>
0

>  <SCORE.SYSTEM>
0

>  <SCORE.SYSTEM.CONST>
0

>  <SCORE.SYSTEM.DIHEDRAL>
0

>  <SCORE.SYSTEM.SOLV>
0

>  <SCORE.SYSTEM.norm>
0

>  <SCORE.heavy>
23

>  <SCORE.norm>
-0.423546

>  <RMSD>
3.820

$$$$
ligand
 OpenBabel11021811513D
libRbt.so/2013.1/901 2013/11/27
 23 24  0  0  0  0  0  0  0  0999 V2000
   -8.0517  -11.8730    2.0972 C   0  0  0  0  0  0  0  0  0  0  0  0
   -8.3325  -11.3946    3.4268 O   0  0  0  0  0  0  0  0  0  0  0  0
   -9.2379  -11.5588    1.1968 C   0  0  2  0  0  0  0  0  0  0  0  0
   -9.1799  -12.1602   -0.1991 C   0  0  1  0  0  0  0  0  0  0  0  0
   -9.5689  -13.5340   -0.1399 O   0  0  0  0  0  0  0  0  0  0  0  0
  -10.1559  -11.2725   -0.9639 C   0  0  2  0  0  0  0  0  0  0  0  0
  -10.0449  -11.2009   -2.3903 O   0  0  0  0  0  0  0  0  0  0  0  0
   -9.8698   -9.9125   -0.3519 C   0  0  2  0  0  0  0  0  0  0  0  0
   -9.3773  -10.1513    0.9837 O   0  0  0  0  0  0  0  0  0  0  0  0
  -11.1836   -9.1102   -0.3596 C   0  0  0  0  0  0  0  0  0  0  0  0
  -12.1863   -9.6957    0.4826 O   0  0  0  0  0  0  0  0  0  0  0  0
   -8.5296   -7.9325   -0.6848 C   0  0  2  0  0  0  0  0  0  0  0  0
   -8.8143   -9.2808   -1.0960 O   0  0  0  0  0  0  0  0  0  0  0  0
   -7.7123   -7.2845   -1.7869 C   0  0  2  0  0  0  0  0  0  0  0  0
   -8.3475   -7.5255   -3.0473 O   0  0  0  0  0  0  0  0  0  0  0  0
   -6.3242   -7.8839   -1.8396 C   0  0  1  0  0  0  0  0  0  0  0  0
   -5.5170   -7.0881   -2.7105 O   0  0  0  0  0  0  0  0  0  0  0  0
   -5.7094   -7.9312   -0.4537 C   0  0  2  0  0  0  0  0  0  0  0  0
   -4.4906   -8.6587   -0.5224 O   0  0  0  0  0  0  0  0  0  0  0  0
   -6.6293   -8.6044    0.5560 C   0  0  2  0  0  0  0  0  0  0  0  0
   -7.8513   -7.8790    0.5701 O   0  0  0  0  0  0  0  0  0  0  0  0
   -6.0062   -8.6313    1.9567 C   0  0  0  0  0  0  0  0  0  0  0  0
   -6.8897   -9.1653    2.9536 O   0  0  0  0  0  0  0  0  0  0  0  0
  1  2  1  0  0  0  0
  3  1  1  6  0  0  0
  3  9  1  0  0  0  0
  3  4  1  0  0  0  0
  4  5  1  1  0  0  0
  4  6  1  0  0  0  0
  6  7  1  6  0  0  0
  6  8  1  0  0  0  0
  8  9  1  0  0  0  0
  8 10  1  1  0  0  0
  8 13  1  0  0  0  0
 10 11  1  0  0  0  0
 12 13  1  6  0  0  0
 12 14  1  0  0  0  0
 12 21  1  0  0  0  0
 14 15  1  6  0  0  0
 14 16  1  0  0  0  0
 16 17  1  6  0  0  0
 16 18  1  0  0  0  0
 18 19  1  6  0  0  0
 18 20  1  0  0  0  0
 20 21  1  0  0  0  0
 20 22  1  1  0  0  0
 22 23  1  0  0  0  0
M  END
>  <CHROM.1>
-172.27678919,64.69480516,-163.91581158,174.84039772,175.44026770,-8.26271478
-9.55956049,-0.09154896,-2.44610349,-0.53178975,-0.99939528

>  <Name>
ligand

>  <RI>
0

>  <Rbt.Current_Directory>
/home/itssahil/PROJECTS/Mol_Feturizer/New_Systems/rnas/4TS2

>  <Rbt.Executable>
rbdock ($Id: //depot/dev/client3/rdock/2013.1/src/exe/rbdock.cxx#4 $)

>  <Rbt.Library>
libRbt.so (2013.1, Build901 2013/11/27)

>  <Rbt.Parameter_File>
/export/apps/rDock/src/rDock_2013.1_src/data/scripts/dock_solv.prm

>  <Rbt.Receptor>
prm/pocket_docking_6.prm

>  <SCORE>
-9.57806

>  <SCORE.INTER>
-3.06139

>  <SCORE.INTER.CONST>
1

>  <SCORE.INTER.POLAR>
0

>  <SCORE.INTER.ROT>
5

>  <SCORE.INTER.SOLV>
7.8157

>  <SCORE.INTER.VDW>
-11.5795

>  <SCORE.INTER.norm>
-0.133104

>  <SCORE.INTRA>
-6.51667

>  <SCORE.INTRA.DIHEDRAL>
-10.62

>  <SCORE.INTRA.DIHEDRAL.0>
12.4853

>  <SCORE.INTRA.POLAR>
0

>  <SCORE.INTRA.POLAR.0>
0

>  <SCORE.INTRA.REPUL>
0

>  <SCORE.INTRA.REPUL.0>
0

>  <SCORE.INTRA.SOLV>
0.630055

>  <SCORE.INTRA.SOLV.lig_0>
-31.1706

>  <SCORE.INTRA.VDW>
-1.52169

>  <SCORE.INTRA.VDW.0>
-1.16895

>  <SCORE.INTRA.norm>
-0.283333

>  <SCORE.RESTR>
0

>  <SCORE.RESTR.CAVITY>
0

>  <SCORE.RESTR.norm>
0

>  <SCORE.SYSTEM>
0

>  <SCORE.SYSTEM.CONST>
0

>  <SCORE.SYSTEM.DIHEDRAL>
0

>  <SCORE.SYSTEM.SOLV>
0

>  <SCORE.SYSTEM.norm>
0

>  <SCORE.heavy>
23

>  <SCORE.norm>
-0.416437

>  <RMSD>
3.845

$$$$
ligand
 OpenBabel11021811513D
libRbt.so/2013.1/901 2013/11/27
 23 24  0  0  0  0  0  0  0  0999 V2000
   -7.2811   -8.8130    1.0903 C   0  0  0  0  0  0  0  0  0  0  0  0
   -7.0960   -7.7498    2.0448 O   0  0  0  0  0  0  0  0  0  0  0  0
   -7.7569   -8.2185   -0.2275 C   0  0  2  0  0  0  0  0  0  0  0  0
   -7.9161   -9.2058   -1.3735 C   0  0  1  0  0  0  0  0  0  0  0  0
   -9.1521   -9.9078   -1.2262 O   0  0  0  0  0  0  0  0  0  0  0  0
   -7.8672   -8.2861   -2.5889 C   0  0  2  0  0  0  0  0  0  0  0  0
   -7.5174   -8.8469   -3.8599 O   0  0  0  0  0  0  0  0  0  0  0  0
   -6.8176   -7.2757   -2.1607 C   0  0  2  0  0  0  0  0  0  0  0  0
   -6.8450   -7.2317   -0.7182 O   0  0  0  0  0  0  0  0  0  0  0  0
   -7.1833   -5.9227   -2.7973 C   0  0  0  0  0  0  0  0  0  0  0  0
   -6.9655   -5.9093   -4.2151 O   0  0  0  0  0  0  0  0  0  0  0  0
   -4.4489   -6.8324   -2.3027 C   0  0  2  0  0  0  0  0  0  0  0  0
   -5.5214   -7.7568   -2.5545 O   0  0  0  0  0  0  0  0  0  0  0  0
   -3.1847   -7.4328   -2.8890 C   0  0  2  0  0  0  0  0  0  0  0  0
   -3.4482   -7.8705   -4.2266 O   0  0  0  0  0  0  0  0  0  0  0  0
   -2.7445   -8.6339   -2.0812 C   0  0  1  0  0  0  0  0  0  0  0  0
   -1.4346   -9.0150   -2.5084 O   0  0  0  0  0  0  0  0  0  0  0  0
   -2.7378   -8.3083   -0.5997 C   0  0  2  0  0  0  0  0  0  0  0  0
   -2.4943   -9.5050    0.1270 O   0  0  0  0  0  0  0  0  0  0  0  0
   -4.0620   -7.7132   -0.1402 C   0  0  2  0  0  0  0  0  0  0  0  0
   -4.2955   -6.5437   -0.9132 O   0  0  0  0  0  0  0  0  0  0  0  0
   -4.0387   -7.3715    1.3544 C   0  0  0  0  0  0  0  0  0  0  0  0
   -3.1017   -6.3338    1.6781 O   0  0  0  0  0  0  0  0  0  0  0  0
  1  2  1  0  0  0  0
  3  1  1  1  0  0  0
  3  9  1  0  0  0  0
  3  4  1  0  0  0  0
  4  5  1  1  0  0  0
  4  6  1  0  0  0  0
  6  7  1  6  0  0  0
  6  8  1  0  0  0  0
  8  9  1  0  0  0  0
  8 10  1  6  0  0  0
  8 13  1  0  0  0  0
 10 11  1  0  0  0  0
 12 13  1  1  0  0  0
 12 14  1  0  0  0  0
 12 21  1  0  0  0  0
 14 15  1  6  0  0  0
 14 16  1  0  0  0  0
 16 17  1  6  0  0  0
 16 18  1  0  0  0  0
 18 19  1  1  0  0  0
 18 20  1  0  0  0  0
 20 21  1  0  0  0  0
 20 22  1  1  0  0  0
 22 23  1  0  0  0  0
M  END
>  <CHROM.1>
176.27254723,-71.23109585,-174.78478031,175.07891730,65.05169748,-5.37775695
-7.85546447,-1.35146127,2.99855065,-0.04470436,-1.49598675

>  <Name>
ligand

>  <RI>
0

>  <Rbt.Current_Directory>
/home/itssahil/PROJECTS/Mol_Feturizer/New_Systems/rnas/4TS2

>  <Rbt.Executable>
rbdock ($Id: //depot/dev/client3/rdock/2013.1/src/exe/rbdock.cxx#4 $)

>  <Rbt.Library>
libRbt.so (2013.1, Build901 2013/11/27)

>  <Rbt.Parameter_File>
/export/apps/rDock/src/rDock_2013.1_src/data/scripts/dock_solv.prm

>  <Rbt.Receptor>
prm/pocket_docking_8.prm

>  <SCORE>
-10.1023

>  <SCORE.INTER>
-3.08269

>  <SCORE.INTER.CONST>
1

>  <SCORE.INTER.POLAR>
0

>  <SCORE.INTER.ROT>
5

>  <SCORE.INTER.SOLV>
9.1274

>  <SCORE.INTER.VDW>
-12.0309

>  <SCORE.INTER.norm>
-0.13403

>  <SCORE.INTRA>
-7.01963

>  <SCORE.INTRA.DIHEDRAL>
-11.6017

>  <SCORE.INTRA.DIHEDRAL.0>
12.4853

>  <SCORE.INTRA.POLAR>
0

>  <SCORE.INTRA.POLAR.0>
0

>  <SCORE.INTRA.REPUL>
0

>  <SCORE.INTRA.REPUL.0>
0

>  <SCORE.INTRA.SOLV>
0.555588

>  <SCORE.INTRA.SOLV.lig_0>
-31.1706

>  <SCORE.INTRA.VDW>
-1.49659

>  <SCORE.INTRA.VDW.0>
-1.16895

>  <SCORE.INTRA.norm>
-0.305201

>  <SCORE.RESTR>
0

>  <SCORE.RESTR.CAVITY>
0

>  <SCORE.RESTR.norm>
0

>  <SCORE.SYSTEM>
0

>  <SCORE.SYSTEM.CONST>
0

>  <SCORE.SYSTEM.DIHEDRAL>
0

>  <SCORE.SYSTEM.SOLV>
0

>  <SCORE.SYSTEM.norm>
0

>  <SCORE.heavy>
23

>  <SCORE.norm>
-0.439231

>  <RMSD>
3.866

$$$$
ligand
 OpenBabel11021811513D
libRbt.so/2013.1/901 2013/11/27
 23 24  0  0  0  0  0  0  0  0999 V2000
  -12.3980   -8.9892   -0.5308 C   0  0  0  0  0  0  0  0  0  0  0  0
  -13.2856   -8.9052    0.6009 O   0  0  0  0  0  0  0  0  0  0  0  0
  -11.5275  -10.2293   -0.3868 C   0  0  2  0  0  0  0  0  0  0  0  0
  -10.5737  -10.2277    0.7981 C   0  0  1  0  0  0  0  0  0  0  0  0
  -11.2910  -10.5746    1.9844 O   0  0  0  0  0  0  0  0  0  0  0  0
   -9.5424  -11.2670    0.3718 C   0  0  2  0  0  0  0  0  0  0  0  0
   -8.2440  -11.2329    0.9762 O   0  0  0  0  0  0  0  0  0  0  0  0
   -9.4297  -10.9873   -1.1165 C   0  0  2  0  0  0  0  0  0  0  0  0
  -10.6901  -10.4189   -1.5308 O   0  0  0  0  0  0  0  0  0  0  0  0
   -9.1261  -12.3215   -1.8218 C   0  0  0  0  0  0  0  0  0  0  0  0
   -9.0661  -12.1842   -3.2484 O   0  0  0  0  0  0  0  0  0  0  0  0
   -8.7489   -8.6922   -0.8053 C   0  0  2  0  0  0  0  0  0  0  0  0
   -8.4154   -9.9903   -1.3266 O   0  0  0  0  0  0  0  0  0  0  0  0
   -8.1375   -7.6592   -1.7335 C   0  0  2  0  0  0  0  0  0  0  0  0
   -8.4675   -7.9892   -3.0872 O   0  0  0  0  0  0  0  0  0  0  0  0
   -6.6300   -7.6581   -1.6057 C   0  0  1  0  0  0  0  0  0  0  0  0
   -6.1148   -6.5193   -2.2993 O   0  0  0  0  0  0  0  0  0  0  0  0
   -6.2173   -7.6133   -0.1468 C   0  0  2  0  0  0  0  0  0  0  0  0
   -4.8100   -7.7937   -0.0674 O   0  0  0  0  0  0  0  0  0  0  0  0
   -6.9006   -8.6994    0.6732 C   0  0  2  0  0  0  0  0  0  0  0  0
   -8.3036   -8.5161    0.5395 O   0  0  0  0  0  0  0  0  0  0  0  0
   -6.4903   -8.6342    2.1492 C   0  0  0  0  0  0  0  0  0  0  0  0
   -7.0331   -9.7089    2.9303 O   0  0  0  0  0  0  0  0  0  0  0  0
  1  2  1  0  0  0  0
  3  1  1  6  0  0  0
  3  9  1  0  0  0  0
  3  4  1  0  0  0  0
  4  5  1  1  0  0  0
  4  6  1  0  0  0  0
  6  7  1  1  0  0  0
  6  8  1  0  0  0  0
  8  9  1  0  0  0  0
  8 10  1  6  0  0  0
  8 13  1  0  0  0  0
 10 11  1  0  0  0  0
 12 13  1  6  0  0  0
 12 14  1  0  0  0  0
 12 21  1  0  0  0  0
 14 15  1  6  0  0  0
 14 16  1  0  0  0  0
 16 17  1  6  0  0  0
 16 18  1  0  0  0  0
 18 19  1  6  0  0  0
 18 20  1  0  0  0  0
 20 21  1  0  0  0  0
 20 22  1  1  0  0  0
 22 23  1  0  0  0  0
M  END
>  <CHROM.1>
-64.57930737,177.02047420,-146.17892035,-66.90656707,-175.33773358,-8.75607485
-9.42817156,-0.37584801,3.04931103,0.47211187,1.65280966

>  <Name>
ligand

>  <RI>
0

>  <Rbt.Current_Directory>
/home/itssahil/PROJECTS/Mol_Feturizer/New_Systems/rnas/4TS2

>  <Rbt.Executable>
rbdock ($Id: //depot/dev/client3/rdock/2013.1/src/exe/rbdock.cxx#4 $)

>  <Rbt.Library>
libRbt.so (2013.1, Build901 2013/11/27)

>  <Rbt.Parameter_File>
/export/apps/rDock/src/rDock_2013.1_src/data/scripts/dock_solv.prm

>  <Rbt.Receptor>
prm/pocket_docking_3.prm

>  <SCORE>
-7.86894

>  <SCORE.INTER>
-4.03858

>  <SCORE.INTER.CONST>
1

>  <SCORE.INTER.POLAR>
0

>  <SCORE.INTER.ROT>
5

>  <SCORE.INTER.SOLV>
9.45679

>  <SCORE.INTER.VDW>
-12.778

>  <SCORE.INTER.norm>
-0.17559

>  <SCORE.INTRA>
-3.83037

>  <SCORE.INTRA.DIHEDRAL>
-7.63994

>  <SCORE.INTRA.DIHEDRAL.0>
12.4853

>  <SCORE.INTRA.POLAR>
0

>  <SCORE.INTRA.POLAR.0>
0

>  <SCORE.INTRA.REPUL>
0

>  <SCORE.INTRA.REPUL.0>
0

>  <SCORE.INTRA.SOLV>
1.04652

>  <SCORE.INTRA.SOLV.lig_0>
-31.1706

>  <SCORE.INTRA.VDW>
-0.533656

>  <SCORE.INTRA.VDW.0>
-1.16895

>  <SCORE.INTRA.norm>
-0.166538

>  <SCORE.RESTR>
0

>  <SCORE.RESTR.CAVITY>
0

>  <SCORE.RESTR.norm>
0

>  <SCORE.SYSTEM>
0

>  <SCORE.SYSTEM.CONST>
0

>  <SCORE.SYSTEM.DIHEDRAL>
0

>  <SCORE.SYSTEM.SOLV>
0

>  <SCORE.SYSTEM.norm>
0

>  <SCORE.heavy>
23

>  <SCORE.norm>
-0.342128

>  <RMSD>
3.868

$$$$
ligand
 OpenBabel11021811513D
libRbt.so/2013.1/901 2013/11/27
 23 24  0  0  0  0  0  0  0  0999 V2000
   -5.8554   -7.0495   -2.0456 C   0  0  0  0  0  0  0  0  0  0  0  0
   -6.6093   -5.9008   -2.4788 O   0  0  0  0  0  0  0  0  0  0  0  0
   -6.4587   -8.3011   -2.6668 C   0  0  2  0  0  0  0  0  0  0  0  0
   -7.9017   -8.5933   -2.2849 C   0  0  1  0  0  0  0  0  0  0  0  0
   -8.7737   -7.7690   -3.0611 O   0  0  0  0  0  0  0  0  0  0  0  0
   -8.0140  -10.0814   -2.5988 C   0  0  2  0  0  0  0  0  0  0  0  0
   -9.0448  -10.8418   -1.9573 O   0  0  0  0  0  0  0  0  0  0  0  0
   -6.6495  -10.5854   -2.1631 C   0  0  2  0  0  0  0  0  0  0  0  0
   -5.7350   -9.4759   -2.2897 O   0  0  0  0  0  0  0  0  0  0  0  0
   -6.2727  -11.7653   -3.0772 C   0  0  0  0  0  0  0  0  0  0  0  0
   -4.9364  -12.2320   -2.8442 O   0  0  0  0  0  0  0  0  0  0  0  0
   -5.4214  -11.0719   -0.1425 C   0  0  2  0  0  0  0  0  0  0  0  0
   -6.7080  -10.9414   -0.7715 O   0  0  0  0  0  0  0  0  0  0  0  0
   -5.6014  -11.9490    1.0824 C   0  0  2  0  0  0  0  0  0  0  0  0
   -6.3377  -13.1215    0.7174 O   0  0  0  0  0  0  0  0  0  0  0  0
   -6.3860  -11.2160    2.1484 C   0  0  1  0  0  0  0  0  0  0  0  0
   -6.3210  -11.9698    3.3612 O   0  0  0  0  0  0  0  0  0  0  0  0
   -5.8218   -9.8249    2.3657 C   0  0  2  0  0  0  0  0  0  0  0  0
   -6.6904   -9.1139    3.2372 O   0  0  0  0  0  0  0  0  0  0  0  0
   -5.6917   -9.0515    1.0604 C   0  0  2  0  0  0  0  0  0  0  0  0
   -4.8526   -9.8077    0.1980 O   0  0  0  0  0  0  0  0  0  0  0  0
   -5.1044   -7.6537    1.2889 C   0  0  0  0  0  0  0  0  0  0  0  0
   -3.8026   -7.6839    1.8922 O   0  0  0  0  0  0  0  0  0  0  0  0
  1  2  1  0  0  0  0
  3  1  1  1  0  0  0
  3  9  1  0  0  0  0
  3  4  1  0  0  0  0
  4  5  1  6  0  0  0
  4  6  1  0  0  0  0
  6  7  1  1  0  0  0
  6  8  1  0  0  0  0
  8  9  1  0  0  0  0
  8 10  1  6  0  0  0
  8 13  1  0  0  0  0
 10 11  1  0  0  0  0
 12 13  1  1  0  0  0
 12 14  1  0  0  0  0
 12 21  1  0  0  0  0
 14 15  1  6  0  0  0
 14 16  1  0  0  0  0
 16 17  1  1  0  0  0
 16 18  1  0  0  0  0
 18 19  1  1  0  0  0
 18 20  1  0  0  0  0
 20 21  1  0  0  0  0
 20 22  1  1  0  0  0
 22 23  1  0  0  0  0
M  END
>  <CHROM.1>
-61.40241792,173.91967119,-157.96009911,-163.36261518,59.26453953,-6.30198449
-9.82162875,-0.47028817,-2.50393488,1.24333117,2.86709950

>  <Name>
ligand

>  <RI>
0

>  <Rbt.Current_Directory>
/home/itssahil/PROJECTS/Mol_Feturizer/New_Systems/rnas/4TS2

>  <Rbt.Executable>
rbdock ($Id: //depot/dev/client3/rdock/2013.1/src/exe/rbdock.cxx#4 $)

>  <Rbt.Library>
libRbt.so (2013.1, Build901 2013/11/27)

>  <Rbt.Parameter_File>
/export/apps/rDock/src/rDock_2013.1_src/data/scripts/dock_solv.prm

>  <Rbt.Receptor>
prm/pocket_docking_6.prm

>  <SCORE>
-6.62334

>  <SCORE.INTER>
-0.592119

>  <SCORE.INTER.CONST>
1

>  <SCORE.INTER.POLAR>
0

>  <SCORE.INTER.ROT>
5

>  <SCORE.INTER.SOLV>
6.31281

>  <SCORE.INTER.VDW>
-9.43235

>  <SCORE.INTER.norm>
-0.0257443

>  <SCORE.INTRA>
-6.03122

>  <SCORE.INTRA.DIHEDRAL>
-9.13382

>  <SCORE.INTRA.DIHEDRAL.0>
12.4853

>  <SCORE.INTRA.POLAR>
0

>  <SCORE.INTRA.POLAR.0>
0

>  <SCORE.INTRA.REPUL>
0

>  <SCORE.INTRA.REPUL.0>
0

>  <SCORE.INTRA.SOLV>
0.548001

>  <SCORE.INTRA.SOLV.lig_0>
-31.1706

>  <SCORE.INTRA.VDW>
-1.73831

>  <SCORE.INTRA.VDW.0>
-1.16895

>  <SCORE.INTRA.norm>
-0.262227

>  <SCORE.RESTR>
0

>  <SCORE.RESTR.CAVITY>
0

>  <SCORE.RESTR.norm>
0

>  <SCORE.SYSTEM>
0

>  <SCORE.SYSTEM.CONST>
0

>  <SCORE.SYSTEM.DIHEDRAL>
0

>  <SCORE.SYSTEM.SOLV>
0

>  <SCORE.SYSTEM.norm>
0

>  <SCORE.heavy>
23

>  <SCORE.norm>
-0.287971

>  <RMSD>
3.883

$$$$
ligand
 OpenBabel11021811513D
libRbt.so/2013.1/901 2013/11/27
 23 24  0  0  0  0  0  0  0  0999 V2000
  -11.7436   -9.1342   -0.9251 C   0  0  0  0  0  0  0  0  0  0  0  0
  -12.4473   -9.1079    0.3318 O   0  0  0  0  0  0  0  0  0  0  0  0
  -10.8265  -10.3485   -0.9542 C   0  0  2  0  0  0  0  0  0  0  0  0
   -9.7484  -10.3827    0.1182 C   0  0  1  0  0  0  0  0  0  0  0  0
  -10.3201  -10.8247    1.3511 O   0  0  0  0  0  0  0  0  0  0  0  0
   -8.7403  -11.3571   -0.4815 C   0  0  2  0  0  0  0  0  0  0  0  0
   -7.3848  -11.3122   -0.0202 O   0  0  0  0  0  0  0  0  0  0  0  0
   -8.8005  -10.9860   -1.9527 C   0  0  2  0  0  0  0  0  0  0  0  0
  -10.1151  -10.4399   -2.1918 O   0  0  0  0  0  0  0  0  0  0  0  0
   -8.5375  -12.2644   -2.7690 C   0  0  0  0  0  0  0  0  0  0  0  0
   -7.2084  -12.7697   -2.5799 O   0  0  0  0  0  0  0  0  0  0  0  0
   -8.3022   -8.6261   -1.8530 C   0  0  2  0  0  0  0  0  0  0  0  0
   -7.8453   -9.9425   -2.2084 O   0  0  0  0  0  0  0  0  0  0  0  0
   -7.5576   -7.6352   -2.7283 C   0  0  2  0  0  0  0  0  0  0  0  0
   -7.6248   -8.0684   -4.0914 O   0  0  0  0  0  0  0  0  0  0  0  0
   -6.0998   -7.5670   -2.3297 C   0  0  1  0  0  0  0  0  0  0  0  0
   -5.4955   -6.4585   -3.0002 O   0  0  0  0  0  0  0  0  0  0  0  0
   -5.9633   -7.4077   -0.8274 C   0  0  2  0  0  0  0  0  0  0  0  0
   -4.5903   -7.5276   -0.4811 O   0  0  0  0  0  0  0  0  0  0  0  0
   -6.7573   -8.4616   -0.0674 C   0  0  2  0  0  0  0  0  0  0  0  0
   -8.1161   -8.3424   -0.4665 O   0  0  0  0  0  0  0  0  0  0  0  0
   -6.6269   -8.2811    1.4496 C   0  0  0  0  0  0  0  0  0  0  0  0
   -7.1703   -9.3811    2.1943 O   0  0  0  0  0  0  0  0  0  0  0  0
  1  2  1  0  0  0  0
  3  1  1  6  0  0  0
  3  9  1  0  0  0  0
  3  4  1  0  0  0  0
  4  5  1  1  0  0  0
  4  6  1  0  0  0  0
  6  7  1  1  0  0  0
  6  8  1  0  0  0  0
  8  9  1  0  0  0  0
  8 10  1  6  0  0  0
  8 13  1  0  0  0  0
 10 11  1  0  0  0  0
 12 13  1  1  0  0  0
 12 14  1  0  0  0  0
 12 21  1  0  0  0  0
 14 15  1  6  0  0  0
 14 16  1  0  0  0  0
 16 17  1  6  0  0  0
 16 18  1  0  0  0  0
 18 19  1  6  0  0  0
 18 20  1  0  0  0  0
 20 21  1  0  0  0  0
 20 22  1  1  0  0  0
 22 23  1  0  0  0  0
M  END
>  <CHROM.1>
-61.34716814,-65.42120172,-153.65287920,-80.97070429,-170.05829357,-8.16584278
-9.42321194,-1.05404568,-3.07511802,-0.62276214,-1.83389467

>  <Name>
ligand

>  <RI>
0

>  <Rbt.Current_Directory>
/home/itssahil/PROJECTS/Mol_Feturizer/New_Systems/rnas/4TS2

>  <Rbt.Executable>
rbdock ($Id: //depot/dev/client3/rdock/2013.1/src/exe/rbdock.cxx#4 $)

>  <Rbt.Library>
libRbt.so (2013.1, Build901 2013/11/27)

>  <Rbt.Parameter_File>
/export/apps/rDock/src/rDock_2013.1_src/data/scripts/dock_solv.prm

>  <Rbt.Receptor>
prm/pocket_docking_3.prm

>  <SCORE>
-7.90755

>  <SCORE.INTER>
-4.59958

>  <SCORE.INTER.CONST>
1

>  <SCORE.INTER.POLAR>
0

>  <SCORE.INTER.ROT>
5

>  <SCORE.INTER.SOLV>
8.09653

>  <SCORE.INTER.VDW>
-12.6986

>  <SCORE.INTER.norm>
-0.199982

>  <SCORE.INTRA>
-3.30797

>  <SCORE.INTRA.DIHEDRAL>
-6.91525

>  <SCORE.INTRA.DIHEDRAL.0>
12.4853

>  <SCORE.INTRA.POLAR>
0

>  <SCORE.INTRA.POLAR.0>
0

>  <SCORE.INTRA.REPUL>
0

>  <SCORE.INTRA.REPUL.0>
0

>  <SCORE.INTRA.SOLV>
1.56214

>  <SCORE.INTRA.SOLV.lig_0>
-31.1706

>  <SCORE.INTRA.VDW>
-0.631412

>  <SCORE.INTRA.VDW.0>
-1.16895

>  <SCORE.INTRA.norm>
-0.143825

>  <SCORE.RESTR>
0

>  <SCORE.RESTR.CAVITY>
0

>  <SCORE.RESTR.norm>
0

>  <SCORE.SYSTEM>
0

>  <SCORE.SYSTEM.CONST>
0

>  <SCORE.SYSTEM.DIHEDRAL>
0

>  <SCORE.SYSTEM.SOLV>
0

>  <SCORE.SYSTEM.norm>
0

>  <SCORE.heavy>
23

>  <SCORE.norm>
-0.343807

>  <RMSD>
3.888

$$$$
ligand
 OpenBabel11021811513D
libRbt.so/2013.1/901 2013/11/27
 23 24  0  0  0  0  0  0  0  0999 V2000
   -5.8069   -7.0909   -1.9286 C   0  0  0  0  0  0  0  0  0  0  0  0
   -6.5179   -5.9316   -2.4039 O   0  0  0  0  0  0  0  0  0  0  0  0
   -6.3923   -8.3340   -2.5831 C   0  0  2  0  0  0  0  0  0  0  0  0
   -7.8606   -8.6008   -2.2895 C   0  0  1  0  0  0  0  0  0  0  0  0
   -8.6695   -7.7642   -3.1190 O   0  0  0  0  0  0  0  0  0  0  0  0
   -7.9788  -10.0877   -2.6068 C   0  0  2  0  0  0  0  0  0  0  0  0
   -9.0595  -10.8288   -2.0280 O   0  0  0  0  0  0  0  0  0  0  0  0
   -6.6521  -10.6133   -2.0877 C   0  0  2  0  0  0  0  0  0  0  0  0
   -5.7129   -9.5196   -2.1603 O   0  0  0  0  0  0  0  0  0  0  0  0
   -6.2402  -11.8020   -2.9748 C   0  0  0  0  0  0  0  0  0  0  0  0
   -7.1804  -12.8835   -2.9103 O   0  0  0  0  0  0  0  0  0  0  0  0
   -5.5592  -11.2025   -0.0174 C   0  0  2  0  0  0  0  0  0  0  0  0
   -6.8014  -10.9642   -0.7016 O   0  0  0  0  0  0  0  0  0  0  0  0
   -5.8699  -12.0378    1.2106 C   0  0  2  0  0  0  0  0  0  0  0  0
   -6.6971  -13.1431    0.8307 O   0  0  0  0  0  0  0  0  0  0  0  0
   -6.6252  -11.2169    2.2327 C   0  0  1  0  0  0  0  0  0  0  0  0
   -6.6801  -11.9524    3.4572 O   0  0  0  0  0  0  0  0  0  0  0  0
   -5.9428   -9.8806    2.4548 C   0  0  2  0  0  0  0  0  0  0  0  0
   -6.7758   -9.0771    3.2794 O   0  0  0  0  0  0  0  0  0  0  0  0
   -5.6882   -9.1453    1.1458 C   0  0  2  0  0  0  0  0  0  0  0  0
   -4.8891   -9.9909    0.3297 O   0  0  0  0  0  0  0  0  0  0  0  0
   -4.9826   -7.8043    1.3800 C   0  0  0  0  0  0  0  0  0  0  0  0
   -3.7029   -7.9468    2.0138 O   0  0  0  0  0  0  0  0  0  0  0  0
  1  2  1  0  0  0  0
  3  1  1  1  0  0  0
  3  9  1  0  0  0  0
  3  4  1  0  0  0  0
  4  5  1  6  0  0  0
  4  6  1  0  0  0  0
  6  7  1  1  0  0  0
  6  8  1  0  0  0  0
  8  9  1  0  0  0  0
  8 10  1  6  0  0  0
  8 13  1  0  0  0  0
 10 11  1  0  0  0  0
 12 13  1  1  0  0  0
 12 14  1  0  0  0  0
 12 21  1  0  0  0  0
 14 15  1  6  0  0  0
 14 16  1  0  0  0  0
 16 17  1  1  0  0  0
 16 18  1  0  0  0  0
 18 19  1  1  0  0  0
 18 20  1  0  0  0  0
 20 21  1  0  0  0  0
 20 22  1  1  0  0  0
 22 23  1  0  0  0  0
M  END
>  <CHROM.1>
-61.10874519,-62.10672787,-159.13223145,-167.33639436,60.42847873,-6.45536635
-9.90322438,-0.40387048,-2.28330206,1.16687690,2.55858856

>  <Name>
ligand

>  <RI>
0

>  <Rbt.Current_Directory>
/home/itssahil/PROJECTS/Mol_Feturizer/New_Systems/rnas/4TS2

>  <Rbt.Executable>
rbdock ($Id: //depot/dev/client3/rdock/2013.1/src/exe/rbdock.cxx#4 $)

>  <Rbt.Library>
libRbt.so (2013.1, Build901 2013/11/27)

>  <Rbt.Parameter_File>
/export/apps/rDock/src/rDock_2013.1_src/data/scripts/dock_solv.prm

>  <Rbt.Receptor>
prm/pocket_docking_4.prm

>  <SCORE>
-6.52842

>  <SCORE.INTER>
-0.203113

>  <SCORE.INTER.CONST>
1

>  <SCORE.INTER.POLAR>
0

>  <SCORE.INTER.ROT>
5

>  <SCORE.INTER.SOLV>
6.13969

>  <SCORE.INTER.VDW>
-9.11531

>  <SCORE.INTER.norm>
-0.00883101

>  <SCORE.INTRA>
-6.32531

>  <SCORE.INTRA.DIHEDRAL>
-9.89213

>  <SCORE.INTRA.DIHEDRAL.0>
12.4853

>  <SCORE.INTRA.POLAR>
0

>  <SCORE.INTRA.POLAR.0>
0

>  <SCORE.INTRA.REPUL>
0

>  <SCORE.INTRA.REPUL.0>
0

>  <SCORE.INTRA.SOLV>
0.597066

>  <SCORE.INTRA.SOLV.lig_0>
-31.1706

>  <SCORE.INTRA.VDW>
-1.67778

>  <SCORE.INTRA.VDW.0>
-1.16895

>  <SCORE.INTRA.norm>
-0.275013

>  <SCORE.RESTR>
0

>  <SCORE.RESTR.CAVITY>
0

>  <SCORE.RESTR.norm>
0

>  <SCORE.SYSTEM>
0

>  <SCORE.SYSTEM.CONST>
0

>  <SCORE.SYSTEM.DIHEDRAL>
0

>  <SCORE.SYSTEM.SOLV>
0

>  <SCORE.SYSTEM.norm>
0

>  <SCORE.heavy>
23

>  <SCORE.norm>
-0.283845

>  <RMSD>
3.902

$$$$
ligand
 OpenBabel11021811513D
libRbt.so/2013.1/901 2013/11/27
 23 24  0  0  0  0  0  0  0  0999 V2000
   -7.4387  -11.3187    1.6517 C   0  0  0  0  0  0  0  0  0  0  0  0
   -7.7833  -10.5723    2.8348 O   0  0  0  0  0  0  0  0  0  0  0  0
   -8.6274  -11.3174    0.7012 C   0  0  2  0  0  0  0  0  0  0  0  0
   -8.4605  -12.1515   -0.5597 C   0  0  1  0  0  0  0  0  0  0  0  0
   -8.6889  -13.5280   -0.2513 O   0  0  0  0  0  0  0  0  0  0  0  0
   -9.5109  -11.5406   -1.4811 C   0  0  2  0  0  0  0  0  0  0  0  0
   -9.3687  -11.7171   -2.8956 O   0  0  0  0  0  0  0  0  0  0  0  0
   -9.4021  -10.0678   -1.1280 C   0  0  2  0  0  0  0  0  0  0  0  0
   -8.9232   -9.9990    0.2318 O   0  0  0  0  0  0  0  0  0  0  0  0
  -10.7993   -9.4427   -1.2917 C   0  0  0  0  0  0  0  0  0  0  0  0
  -11.7553   -9.9941   -0.3754 O   0  0  0  0  0  0  0  0  0  0  0  0
   -8.3045   -8.0335   -1.8242 C   0  0  2  0  0  0  0  0  0  0  0  0
   -8.4064   -9.4606   -1.9688 O   0  0  0  0  0  0  0  0  0  0  0  0
   -7.2610   -7.5500   -2.8140 C   0  0  2  0  0  0  0  0  0  0  0  0
   -7.5337   -8.1177   -4.0999 O   0  0  0  0  0  0  0  0  0  0  0  0
   -5.8796   -7.9964   -2.3882 C   0  0  1  0  0  0  0  0  0  0  0  0
   -4.9132   -7.3214   -3.1969 O   0  0  0  0  0  0  0  0  0  0  0  0
   -5.6452   -7.6844   -0.9224 C   0  0  2  0  0  0  0  0  0  0  0  0
   -4.4167   -8.2765   -0.5230 O   0  0  0  0  0  0  0  0  0  0  0  0
   -6.7624   -8.2228   -0.0386 C   0  0  2  0  0  0  0  0  0  0  0  0
   -7.9797   -7.6445   -0.4897 O   0  0  0  0  0  0  0  0  0  0  0  0
   -6.5248   -7.8869    1.4384 C   0  0  0  0  0  0  0  0  0  0  0  0
   -5.3625   -8.5311    1.9804 O   0  0  0  0  0  0  0  0  0  0  0  0
  1  2  1  0  0  0  0
  3  1  1  6  0  0  0
  3  9  1  0  0  0  0
  3  4  1  0  0  0  0
  4  5  1  1  0  0  0
  4  6  1  0  0  0  0
  6  7  1  6  0  0  0
  6  8  1  0  0  0  0
  8  9  1  0  0  0  0
  8 10  1  6  0  0  0
  8 13  1  0  0  0  0
 10 11  1  0  0  0  0
 12 13  1  1  0  0  0
 12 14  1  0  0  0  0
 12 21  1  0  0  0  0
 14 15  1  6  0  0  0
 14 16  1  0  0  0  0
 16 17  1  6  0  0  0
 16 18  1  0  0  0  0
 18 19  1  1  0  0  0
 18 20  1  0  0  0  0
 20 21  1  0  0  0  0
 20 22  1  1  0  0  0
 22 23  1  0  0  0  0
M  END
>  <CHROM.1>
-175.78321396,63.87300226,-177.63428318,174.03544876,-65.11568295,-7.80688508
-9.49977686,-0.74737518,-2.61348447,-0.65323318,-1.12540558

>  <Name>
ligand

>  <RI>
0

>  <Rbt.Current_Directory>
/home/itssahil/PROJECTS/Mol_Feturizer/New_Systems/rnas/4TS2

>  <Rbt.Executable>
rbdock ($Id: //depot/dev/client3/rdock/2013.1/src/exe/rbdock.cxx#4 $)

>  <Rbt.Library>
libRbt.so (2013.1, Build901 2013/11/27)

>  <Rbt.Parameter_File>
/export/apps/rDock/src/rDock_2013.1_src/data/scripts/dock_solv.prm

>  <Rbt.Receptor>
prm/pocket_docking_5.prm

>  <SCORE>
-10.1025

>  <SCORE.INTER>
-3.28743

>  <SCORE.INTER.CONST>
1

>  <SCORE.INTER.POLAR>
0

>  <SCORE.INTER.ROT>
5

>  <SCORE.INTER.SOLV>
7.20858

>  <SCORE.INTER.VDW>
-11.5278

>  <SCORE.INTER.norm>
-0.142932

>  <SCORE.INTRA>
-6.81508

>  <SCORE.INTRA.DIHEDRAL>
-11.8902

>  <SCORE.INTRA.DIHEDRAL.0>
12.4853

>  <SCORE.INTRA.POLAR>
0

>  <SCORE.INTRA.POLAR.0>
0

>  <SCORE.INTRA.REPUL>
0

>  <SCORE.INTRA.REPUL.0>
0

>  <SCORE.INTRA.SOLV>
0.751687

>  <SCORE.INTRA.SOLV.lig_0>
-31.1706

>  <SCORE.INTRA.VDW>
-1.24583

>  <SCORE.INTRA.VDW.0>
-1.16895

>  <SCORE.INTRA.norm>
-0.296308

>  <SCORE.RESTR>
0

>  <SCORE.RESTR.CAVITY>
0

>  <SCORE.RESTR.norm>
0

>  <SCORE.SYSTEM>
0

>  <SCORE.SYSTEM.CONST>
0

>  <SCORE.SYSTEM.DIHEDRAL>
0

>  <SCORE.SYSTEM.SOLV>
0

>  <SCORE.SYSTEM.norm>
0

>  <SCORE.heavy>
23

>  <SCORE.norm>
-0.43924

>  <RMSD>
3.915

$$$$
ligand
 OpenBabel11021811513D
libRbt.so/2013.1/901 2013/11/27
 23 24  0  0  0  0  0  0  0  0999 V2000
   -7.5086  -11.3840    1.7182 C   0  0  0  0  0  0  0  0  0  0  0  0
   -7.8895  -10.6620    2.9053 O   0  0  0  0  0  0  0  0  0  0  0  0
   -8.6787  -11.3896    0.7449 C   0  0  2  0  0  0  0  0  0  0  0  0
   -8.4788  -12.2147   -0.5171 C   0  0  1  0  0  0  0  0  0  0  0  0
   -8.6988  -13.5953   -0.2207 O   0  0  0  0  0  0  0  0  0  0  0  0
   -9.5176  -11.6096   -1.4553 C   0  0  2  0  0  0  0  0  0  0  0  0
   -9.3462  -11.7765   -2.8677 O   0  0  0  0  0  0  0  0  0  0  0  0
   -9.4309  -10.1377   -1.0922 C   0  0  2  0  0  0  0  0  0  0  0  0
   -8.9791  -10.0717    0.2770 O   0  0  0  0  0  0  0  0  0  0  0  0
  -10.8311   -9.5262   -1.2795 C   0  0  0  0  0  0  0  0  0  0  0  0
  -11.8031  -10.1063   -0.3984 O   0  0  0  0  0  0  0  0  0  0  0  0
   -8.3439   -8.0878   -1.7587 C   0  0  2  0  0  0  0  0  0  0  0  0
   -8.4255   -9.5155   -1.9102 O   0  0  0  0  0  0  0  0  0  0  0  0
   -7.3188   -7.5830   -2.7570 C   0  0  2  0  0  0  0  0  0  0  0  0
   -7.5966   -8.1479   -4.0430 O   0  0  0  0  0  0  0  0  0  0  0  0
   -5.9261   -8.0104   -2.3485 C   0  0  1  0  0  0  0  0  0  0  0  0
   -4.9790   -7.3163   -3.1638 O   0  0  0  0  0  0  0  0  0  0  0  0
   -5.6807   -7.7028   -0.8836 C   0  0  2  0  0  0  0  0  0  0  0  0
   -4.4390   -8.2782   -0.5008 O   0  0  0  0  0  0  0  0  0  0  0  0
   -6.7798   -8.2631    0.0091 C   0  0  2  0  0  0  0  0  0  0  0  0
   -8.0107   -7.7012   -0.4256 O   0  0  0  0  0  0  0  0  0  0  0  0
   -6.5314   -7.9317    1.4854 C   0  0  0  0  0  0  0  0  0  0  0  0
   -5.3590   -8.5686    2.0139 O   0  0  0  0  0  0  0  0  0  0  0  0
  1  2  1  0  0  0  0
  3  1  1  1  0  0  0
  3  9  1  0  0  0  0
  3  4  1  0  0  0  0
  4  5  1  1  0  0  0
  4  6  1  0  0  0  0
  6  7  1  6  0  0  0
  6  8  1  0  0  0  0
  8  9  1  0  0  0  0
  8 10  1  6  0  0  0
  8 13  1  0  0  0  0
 10 11  1  0  0  0  0
 12 13  1  1  0  0  0
 12 14  1  0  0  0  0
 12 21  1  0  0  0  0
 14 15  1  6  0  0  0
 14 16  1  0  0  0  0
 16 17  1  6  0  0  0
 16 18  1  0  0  0  0
 18 19  1  1  0  0  0
 18 20  1  0  0  0  0
 20 21  1  0  0  0  0
 20 22  1  1  0  0  0
 22 23  1  0  0  0  0
M  END
>  <CHROM.1>
-175.08106950,63.01663230,-175.82053307,173.86471601,-65.54300836,-7.84198784
-9.55222910,-0.70668903,-2.60787272,-0.66136260,-1.11998852

>  <Name>
ligand

>  <RI>
0

>  <Rbt.Current_Directory>
/home/itssahil/PROJECTS/Mol_Feturizer/New_Systems/rnas/4TS2

>  <Rbt.Executable>
rbdock ($Id: //depot/dev/client3/rdock/2013.1/src/exe/rbdock.cxx#4 $)

>  <Rbt.Library>
libRbt.so (2013.1, Build901 2013/11/27)

>  <Rbt.Parameter_File>
/export/apps/rDock/src/rDock_2013.1_src/data/scripts/dock_solv.prm

>  <Rbt.Receptor>
prm/pocket_docking_5.prm

>  <SCORE>
-10.0766

>  <SCORE.INTER>
-3.18104

>  <SCORE.INTER.CONST>
1

>  <SCORE.INTER.POLAR>
0

>  <SCORE.INTER.ROT>
5

>  <SCORE.INTER.SOLV>
7.02644

>  <SCORE.INTER.VDW>
-11.3962

>  <SCORE.INTER.norm>
-0.138306

>  <SCORE.INTRA>
-6.89559

>  <SCORE.INTRA.DIHEDRAL>
-11.807

>  <SCORE.INTRA.DIHEDRAL.0>
12.4853

>  <SCORE.INTRA.POLAR>
0

>  <SCORE.INTRA.POLAR.0>
0

>  <SCORE.INTRA.REPUL>
0

>  <SCORE.INTRA.REPUL.0>
0

>  <SCORE.INTRA.SOLV>
0.66238

>  <SCORE.INTRA.SOLV.lig_0>
-31.1706

>  <SCORE.INTRA.VDW>
-1.3233

>  <SCORE.INTRA.VDW.0>
-1.16895

>  <SCORE.INTRA.norm>
-0.299808

>  <SCORE.RESTR>
0

>  <SCORE.RESTR.CAVITY>
0

>  <SCORE.RESTR.norm>
0

>  <SCORE.SYSTEM>
0

>  <SCORE.SYSTEM.CONST>
0

>  <SCORE.SYSTEM.DIHEDRAL>
0

>  <SCORE.SYSTEM.SOLV>
0

>  <SCORE.SYSTEM.norm>
0

>  <SCORE.heavy>
23

>  <SCORE.norm>
-0.438115

>  <RMSD>
3.915

$$$$
ligand
 OpenBabel11021811513D
libRbt.so/2013.1/901 2013/11/27
 23 24  0  0  0  0  0  0  0  0999 V2000
   -7.0904  -11.3299    1.8194 C   0  0  0  0  0  0  0  0  0  0  0  0
   -7.2856  -10.6980    3.0992 O   0  0  0  0  0  0  0  0  0  0  0  0
   -8.3820  -11.2385    1.0195 C   0  0  2  0  0  0  0  0  0  0  0  0
   -8.4361  -12.0907   -0.2393 C   0  0  1  0  0  0  0  0  0  0  0  0
   -8.7336  -13.4426    0.1158 O   0  0  0  0  0  0  0  0  0  0  0  0
   -9.5391  -11.4027   -1.0365 C   0  0  2  0  0  0  0  0  0  0  0  0
   -9.5843  -11.5983   -2.4549 O   0  0  0  0  0  0  0  0  0  0  0  0
   -9.2719   -9.9413   -0.7222 C   0  0  2  0  0  0  0  0  0  0  0  0
   -8.6273   -9.9034    0.5687 O   0  0  0  0  0  0  0  0  0  0  0  0
  -10.6248   -9.2069   -0.7257 C   0  0  0  0  0  0  0  0  0  0  0  0
  -11.2688   -9.2540   -2.0066 O   0  0  0  0  0  0  0  0  0  0  0  0
   -8.1580   -7.9964   -1.6189 C   0  0  2  0  0  0  0  0  0  0  0  0
   -8.3409   -9.4212   -1.6863 O   0  0  0  0  0  0  0  0  0  0  0  0
   -7.2374   -7.6022   -2.7588 C   0  0  2  0  0  0  0  0  0  0  0  0
   -7.7056   -8.2034   -3.9711 O   0  0  0  0  0  0  0  0  0  0  0  0
   -5.8321   -8.0999   -2.5014 C   0  0  1  0  0  0  0  0  0  0  0  0
   -4.9549   -7.5040   -3.4600 O   0  0  0  0  0  0  0  0  0  0  0  0
   -5.3887   -7.7453   -1.0948 C   0  0  2  0  0  0  0  0  0  0  0  0
   -4.1447   -8.3820   -0.8369 O   0  0  0  0  0  0  0  0  0  0  0  0
   -6.3989   -8.1947   -0.0477 C   0  0  2  0  0  0  0  0  0  0  0  0
   -7.6395   -7.5744   -0.3576 O   0  0  0  0  0  0  0  0  0  0  0  0
   -5.9499   -7.8161    1.3686 C   0  0  0  0  0  0  0  0  0  0  0  0
   -6.9006   -8.1887    2.3771 O   0  0  0  0  0  0  0  0  0  0  0  0
  1  2  1  0  0  0  0
  3  1  1  6  0  0  0
  3  9  1  0  0  0  0
  3  4  1  0  0  0  0
  4  5  1  1  0  0  0
  4  6  1  0  0  0  0
  6  7  1  6  0  0  0
  6  8  1  0  0  0  0
  8  9  1  0  0  0  0
  8 10  1  1  0  0  0
  8 13  1  0  0  0  0
 10 11  1  0  0  0  0
 12 13  1  1  0  0  0
 12 14  1  0  0  0  0
 12 21  1  0  0  0  0
 14 15  1  6  0  0  0
 14 16  1  0  0  0  0
 16 17  1  6  0  0  0
 16 18  1  0  0  0  0
 18 19  1  1  0  0  0
 18 20  1  0  0  0  0
 20 21  1  0  0  0  0
 20 22  1  1  0  0  0
 22 23  1  0  0  0  0
M  END
>  <CHROM.1>
-168.43291481,-62.16268273,-175.77934307,171.21448145,178.17494315,-7.71668316
-9.43040230,-0.65732331,-2.38795242,-0.63308120,-1.09878544

>  <Name>
ligand

>  <RI>
0

>  <Rbt.Current_Directory>
/home/itssahil/PROJECTS/Mol_Feturizer/New_Systems/rnas/4TS2

>  <Rbt.Executable>
rbdock ($Id: //depot/dev/client3/rdock/2013.1/src/exe/rbdock.cxx#4 $)

>  <Rbt.Library>
libRbt.so (2013.1, Build901 2013/11/27)

>  <Rbt.Parameter_File>
/export/apps/rDock/src/rDock_2013.1_src/data/scripts/dock_solv.prm

>  <Rbt.Receptor>
prm/pocket_docking_5.prm

>  <SCORE>
-9.47359

>  <SCORE.INTER>
-2.84986

>  <SCORE.INTER.CONST>
1

>  <SCORE.INTER.POLAR>
0

>  <SCORE.INTER.ROT>
5

>  <SCORE.INTER.SOLV>
8.47138

>  <SCORE.INTER.VDW>
-11.657

>  <SCORE.INTER.norm>
-0.123907

>  <SCORE.INTRA>
-6.62373

>  <SCORE.INTRA.DIHEDRAL>
-11.3503

>  <SCORE.INTRA.DIHEDRAL.0>
12.4853

>  <SCORE.INTRA.POLAR>
0

>  <SCORE.INTRA.POLAR.0>
0

>  <SCORE.INTRA.REPUL>
0

>  <SCORE.INTRA.REPUL.0>
0

>  <SCORE.INTRA.SOLV>
0.986334

>  <SCORE.INTRA.SOLV.lig_0>
-31.1706

>  <SCORE.INTRA.VDW>
-1.44173

>  <SCORE.INTRA.VDW.0>
-1.16895

>  <SCORE.INTRA.norm>
-0.287988

>  <SCORE.RESTR>
0

>  <SCORE.RESTR.CAVITY>
0

>  <SCORE.RESTR.norm>
0

>  <SCORE.SYSTEM>
0

>  <SCORE.SYSTEM.CONST>
0

>  <SCORE.SYSTEM.DIHEDRAL>
0

>  <SCORE.SYSTEM.SOLV>
0

>  <SCORE.SYSTEM.norm>
0

>  <SCORE.heavy>
23

>  <SCORE.norm>
-0.411895

>  <RMSD>
3.925

$$$$
ligand
 OpenBabel11021811513D
libRbt.so/2013.1/901 2013/11/27
 23 24  0  0  0  0  0  0  0  0999 V2000
   -7.8367  -11.1735    1.9280 C   0  0  0  0  0  0  0  0  0  0  0  0
   -7.4267  -12.3941    2.5741 O   0  0  0  0  0  0  0  0  0  0  0  0
   -8.7221  -11.5159    0.7383 C   0  0  2  0  0  0  0  0  0  0  0  0
   -8.0545  -12.3201   -0.3668 C   0  0  1  0  0  0  0  0  0  0  0  0
   -8.0052  -13.6970    0.0125 O   0  0  0  0  0  0  0  0  0  0  0  0
   -8.9671  -12.0374   -1.5554 C   0  0  2  0  0  0  0  0  0  0  0  0
   -8.4471  -12.2190   -2.8778 O   0  0  0  0  0  0  0  0  0  0  0  0
   -9.3127  -10.5761   -1.3295 C   0  0  2  0  0  0  0  0  0  0  0  0
   -9.2100  -10.3377    0.0903 O   0  0  0  0  0  0  0  0  0  0  0  0
  -10.7379  -10.3444   -1.8631 C   0  0  0  0  0  0  0  0  0  0  0  0
  -11.2429   -9.0447   -1.5262 O   0  0  0  0  0  0  0  0  0  0  0  0
   -8.5129   -8.3457   -1.7912 C   0  0  2  0  0  0  0  0  0  0  0  0
   -8.3237   -9.7589   -1.9783 O   0  0  0  0  0  0  0  0  0  0  0  0
   -7.5554   -7.6314   -2.7269 C   0  0  2  0  0  0  0  0  0  0  0  0
   -7.6681   -8.1976   -4.0372 O   0  0  0  0  0  0  0  0  0  0  0  0
   -6.1272   -7.8095   -2.2607 C   0  0  1  0  0  0  0  0  0  0  0  0
   -5.2892   -6.9291   -3.0132 O   0  0  0  0  0  0  0  0  0  0  0  0
   -6.0069   -7.5075   -0.7791 C   0  0  2  0  0  0  0  0  0  0  0  0
   -4.6985   -7.8578   -0.3492 O   0  0  0  0  0  0  0  0  0  0  0  0
   -7.0221   -8.2866    0.0463 C   0  0  2  0  0  0  0  0  0  0  0  0
   -8.3152   -7.9460   -0.4351 O   0  0  0  0  0  0  0  0  0  0  0  0
   -6.9038   -7.9611    1.5399 C   0  0  0  0  0  0  0  0  0  0  0  0
   -5.6696   -8.4126    2.1165 O   0  0  0  0  0  0  0  0  0  0  0  0
  1  2  1  0  0  0  0
  3  1  1  1  0  0  0
  3  9  1  0  0  0  0
  3  4  1  0  0  0  0
  4  5  1  1  0  0  0
  4  6  1  0  0  0  0
  6  7  1  6  0  0  0
  6  8  1  0  0  0  0
  8  9  1  0  0  0  0
  8 10  1  6  0  0  0
  8 13  1  0  0  0  0
 10 11  1  0  0  0  0
 12 13  1  1  0  0  0
 12 14  1  0  0  0  0
 12 21  1  0  0  0  0
 14 15  1  6  0  0  0
 14 16  1  0  0  0  0
 16 17  1  6  0  0  0
 16 18  1  0  0  0  0
 18 19  1  1  0  0  0
 18 20  1  0  0  0  0
 20 21  1  0  0  0  0
 20 22  1  1  0  0  0
 22 23  1  0  0  0  0
M  END
>  <CHROM.1>
-62.98154274,171.49232706,-170.02801093,-177.67017679,-66.70182117,-7.81381749
-9.66832437,-0.77022402,-2.22994935,-0.79330101,-0.88616481

>  <Name>
ligand

>  <RI>
0

>  <Rbt.Current_Directory>
/home/itssahil/PROJECTS/Mol_Feturizer/New_Systems/rnas/4TS2

>  <Rbt.Executable>
rbdock ($Id: //depot/dev/client3/rdock/2013.1/src/exe/rbdock.cxx#4 $)

>  <Rbt.Library>
libRbt.so (2013.1, Build901 2013/11/27)

>  <Rbt.Parameter_File>
/export/apps/rDock/src/rDock_2013.1_src/data/scripts/dock_solv.prm

>  <Rbt.Receptor>
prm/pocket_docking_4.prm

>  <SCORE>
-10.0738

>  <SCORE.INTER>
-3.28618

>  <SCORE.INTER.CONST>
1

>  <SCORE.INTER.POLAR>
0

>  <SCORE.INTER.ROT>
5

>  <SCORE.INTER.SOLV>
7.70822

>  <SCORE.INTER.VDW>
-11.6935

>  <SCORE.INTER.norm>
-0.142878

>  <SCORE.INTRA>
-6.78766

>  <SCORE.INTRA.DIHEDRAL>
-11.5605

>  <SCORE.INTRA.DIHEDRAL.0>
12.4853

>  <SCORE.INTRA.POLAR>
0

>  <SCORE.INTRA.POLAR.0>
0

>  <SCORE.INTRA.REPUL>
0

>  <SCORE.INTRA.REPUL.0>
0

>  <SCORE.INTRA.SOLV>
0.67013

>  <SCORE.INTRA.SOLV.lig_0>
-31.1706

>  <SCORE.INTRA.VDW>
-1.3425

>  <SCORE.INTRA.VDW.0>
-1.16895

>  <SCORE.INTRA.norm>
-0.295116

>  <SCORE.RESTR>
0

>  <SCORE.RESTR.CAVITY>
0

>  <SCORE.RESTR.norm>
0

>  <SCORE.SYSTEM>
0

>  <SCORE.SYSTEM.CONST>
0

>  <SCORE.SYSTEM.DIHEDRAL>
0

>  <SCORE.SYSTEM.SOLV>
0

>  <SCORE.SYSTEM.norm>
0

>  <SCORE.heavy>
23

>  <SCORE.norm>
-0.437993

>  <RMSD>
3.935

$$$$
ligand
 OpenBabel11021811513D
libRbt.so/2013.1/901 2013/11/27
 23 24  0  0  0  0  0  0  0  0999 V2000
   -7.4847  -11.3341    1.5947 C   0  0  0  0  0  0  0  0  0  0  0  0
   -7.9599  -10.6536    2.7723 O   0  0  0  0  0  0  0  0  0  0  0  0
   -8.6192  -11.4272    0.5845 C   0  0  2  0  0  0  0  0  0  0  0  0
   -8.3253  -12.2534   -0.6583 C   0  0  1  0  0  0  0  0  0  0  0  0
   -8.4663  -13.6415   -0.3490 O   0  0  0  0  0  0  0  0  0  0  0  0
   -9.3691  -11.7282   -1.6382 C   0  0  2  0  0  0  0  0  0  0  0  0
   -9.1408  -11.9014   -3.0418 O   0  0  0  0  0  0  0  0  0  0  0  0
   -9.3888  -10.2493   -1.2940 C   0  0  2  0  0  0  0  0  0  0  0  0
   -8.9876  -10.1372    0.0880 O   0  0  0  0  0  0  0  0  0  0  0  0
  -10.8183   -9.7316   -1.5352 C   0  0  0  0  0  0  0  0  0  0  0  0
  -11.7806  -10.3663   -0.6814 O   0  0  0  0  0  0  0  0  0  0  0  0
   -8.3995   -8.1438   -1.9387 C   0  0  2  0  0  0  0  0  0  0  0  0
   -8.3988   -9.5740   -2.0882 O   0  0  0  0  0  0  0  0  0  0  0  0
   -7.3515   -7.5877   -2.8846 C   0  0  2  0  0  0  0  0  0  0  0  0
   -7.5323   -8.1682   -4.1809 O   0  0  0  0  0  0  0  0  0  0  0  0
   -5.9616   -7.9412   -2.4027 C   0  0  1  0  0  0  0  0  0  0  0  0
   -5.0108   -7.1999   -3.1706 O   0  0  0  0  0  0  0  0  0  0  0  0
   -5.8090   -7.6191   -0.9283 C   0  0  2  0  0  0  0  0  0  0  0  0
   -4.5607   -8.1283   -0.4792 O   0  0  0  0  0  0  0  0  0  0  0  0
   -6.9225   -8.2346   -0.0915 C   0  0  2  0  0  0  0  0  0  0  0  0
   -8.1566   -7.7383   -0.5917 O   0  0  0  0  0  0  0  0  0  0  0  0
   -6.7688   -7.8884    1.3943 C   0  0  0  0  0  0  0  0  0  0  0  0
   -5.6017   -8.4747    1.9892 O   0  0  0  0  0  0  0  0  0  0  0  0
  1  2  1  0  0  0  0
  3  1  1  1  0  0  0
  3  9  1  0  0  0  0
  3  4  1  0  0  0  0
  4  5  1  1  0  0  0
  4  6  1  0  0  0  0
  6  7  1  6  0  0  0
  6  8  1  0  0  0  0
  8  9  1  0  0  0  0
  8 10  1  6  0  0  0
  8 13  1  0  0  0  0
 10 11  1  0  0  0  0
 12 13  1  1  0  0  0
 12 14  1  0  0  0  0
 12 21  1  0  0  0  0
 14 15  1  6  0  0  0
 14 16  1  0  0  0  0
 16 17  1  6  0  0  0
 16 18  1  0  0  0  0
 18 19  1  1  0  0  0
 18 20  1  0  0  0  0
 20 21  1  0  0  0  0
 20 22  1  1  0  0  0
 22 23  1  0  0  0  0
M  END
>  <CHROM.1>
-173.61553085,62.76617395,-177.36510688,174.81157008,-66.18951004,-7.85351654
-9.57551771,-0.83926772,-2.62152177,-0.73045739,-1.13688791

>  <Name>
ligand

>  <RI>
0

>  <Rbt.Current_Directory>
/home/itssahil/PROJECTS/Mol_Feturizer/New_Systems/rnas/4TS2

>  <Rbt.Executable>
rbdock ($Id: //depot/dev/client3/rdock/2013.1/src/exe/rbdock.cxx#4 $)

>  <Rbt.Library>
libRbt.so (2013.1, Build901 2013/11/27)

>  <Rbt.Parameter_File>
/export/apps/rDock/src/rDock_2013.1_src/data/scripts/dock_solv.prm

>  <Rbt.Receptor>
prm/pocket_docking_6.prm

>  <SCORE>
-10.2252

>  <SCORE.INTER>
-3.39318

>  <SCORE.INTER.CONST>
1

>  <SCORE.INTER.POLAR>
0

>  <SCORE.INTER.ROT>
5

>  <SCORE.INTER.SOLV>
7.30684

>  <SCORE.INTER.VDW>
-11.6311

>  <SCORE.INTER.norm>
-0.14753

>  <SCORE.INTRA>
-6.83198

>  <SCORE.INTRA.DIHEDRAL>
-11.8436

>  <SCORE.INTRA.DIHEDRAL.0>
12.4853

>  <SCORE.INTRA.POLAR>
0

>  <SCORE.INTRA.POLAR.0>
0

>  <SCORE.INTRA.REPUL>
0

>  <SCORE.INTRA.REPUL.0>
0

>  <SCORE.INTRA.SOLV>
0.740301

>  <SCORE.INTRA.SOLV.lig_0>
-31.1706

>  <SCORE.INTRA.VDW>
-1.28035

>  <SCORE.INTRA.VDW.0>
-1.16895

>  <SCORE.INTRA.norm>
-0.297043

>  <SCORE.RESTR>
0

>  <SCORE.RESTR.CAVITY>
0

>  <SCORE.RESTR.norm>
0

>  <SCORE.SYSTEM>
0

>  <SCORE.SYSTEM.CONST>
0

>  <SCORE.SYSTEM.DIHEDRAL>
0

>  <SCORE.SYSTEM.SOLV>
0

>  <SCORE.SYSTEM.norm>
0

>  <SCORE.heavy>
23

>  <SCORE.norm>
-0.444572

>  <RMSD>
3.947

$$$$
ligand
 OpenBabel11021811513D
libRbt.so/2013.1/901 2013/11/27
 23 24  0  0  0  0  0  0  0  0999 V2000
   -7.8879  -11.1181    1.7697 C   0  0  0  0  0  0  0  0  0  0  0  0
   -7.6741  -12.4217    2.3446 O   0  0  0  0  0  0  0  0  0  0  0  0
   -8.9576  -11.2214    0.6919 C   0  0  2  0  0  0  0  0  0  0  0  0
   -8.6178  -12.1215   -0.4861 C   0  0  1  0  0  0  0  0  0  0  0  0
   -8.8346  -13.4854   -0.1185 O   0  0  0  0  0  0  0  0  0  0  0  0
   -9.5739  -11.6095   -1.5581 C   0  0  2  0  0  0  0  0  0  0  0  0
   -9.2625  -11.8639   -2.9331 O   0  0  0  0  0  0  0  0  0  0  0  0
   -9.5558  -10.1150   -1.2896 C   0  0  2  0  0  0  0  0  0  0  0  0
   -9.2405   -9.9462    0.1088 O   0  0  0  0  0  0  0  0  0  0  0  0
  -10.9446   -9.5578   -1.6507 C   0  0  0  0  0  0  0  0  0  0  0  0
  -11.9838  -10.1041   -0.8266 O   0  0  0  0  0  0  0  0  0  0  0  0
   -8.4052   -8.0893   -1.9221 C   0  0  2  0  0  0  0  0  0  0  0  0
   -8.4900   -9.5192   -2.0485 O   0  0  0  0  0  0  0  0  0  0  0  0
   -7.3273   -7.6120   -2.8774 C   0  0  2  0  0  0  0  0  0  0  0  0
   -7.5444   -8.2015   -4.1641 O   0  0  0  0  0  0  0  0  0  0  0  0
   -5.9603   -8.0400   -2.3906 C   0  0  1  0  0  0  0  0  0  0  0  0
   -4.9680   -7.3691   -3.1709 O   0  0  0  0  0  0  0  0  0  0  0  0
   -5.7865   -7.7038   -0.9217 C   0  0  2  0  0  0  0  0  0  0  0  0
   -4.5701   -8.2793   -0.4651 O   0  0  0  0  0  0  0  0  0  0  0  0
   -6.9334   -8.2383   -0.0744 C   0  0  2  0  0  0  0  0  0  0  0  0
   -8.1365   -7.6774   -0.5820 O   0  0  0  0  0  0  0  0  0  0  0  0
   -6.7571   -7.8781    1.4055 C   0  0  0  0  0  0  0  0  0  0  0  0
   -5.6253   -8.5221    2.0087 O   0  0  0  0  0  0  0  0  0  0  0  0
  1  2  1  0  0  0  0
  3  1  1  1  0  0  0
  3  9  1  0  0  0  0
  3  4  1  0  0  0  0
  4  5  1  1  0  0  0
  4  6  1  0  0  0  0
  6  7  1  6  0  0  0
  6  8  1  0  0  0  0
  8  9  1  0  0  0  0
  8 10  1  6  0  0  0
  8 13  1  0  0  0  0
 10 11  1  0  0  0  0
 12 13  1  1  0  0  0
 12 14  1  0  0  0  0
 12 21  1  0  0  0  0
 14 15  1  6  0  0  0
 14 16  1  0  0  0  0
 16 17  1  6  0  0  0
 16 18  1  0  0  0  0
 18 19  1  1  0  0  0
 18 20  1  0  0  0  0
 20 21  1  0  0  0  0
 20 22  1  1  0  0  0
 22 23  1  0  0  0  0
M  END
>  <CHROM.1>
-62.03025646,63.15975535,-174.70795565,177.47939021,-66.12446782,-7.94769673
-9.60955790,-0.82524544,-2.49030463,-0.63399771,-1.01194961

>  <Name>
ligand

>  <RI>
0

>  <Rbt.Current_Directory>
/home/itssahil/PROJECTS/Mol_Feturizer/New_Systems/rnas/4TS2

>  <Rbt.Executable>
rbdock ($Id: //depot/dev/client3/rdock/2013.1/src/exe/rbdock.cxx#4 $)

>  <Rbt.Library>
libRbt.so (2013.1, Build901 2013/11/27)

>  <Rbt.Parameter_File>
/export/apps/rDock/src/rDock_2013.1_src/data/scripts/dock_solv.prm

>  <Rbt.Receptor>
prm/pocket_docking_5.prm

>  <SCORE>
-10.5224

>  <SCORE.INTER>
-3.58118

>  <SCORE.INTER.CONST>
1

>  <SCORE.INTER.POLAR>
0

>  <SCORE.INTER.ROT>
5

>  <SCORE.INTER.SOLV>
7.02362

>  <SCORE.INTER.VDW>
-11.662

>  <SCORE.INTER.norm>
-0.155703

>  <SCORE.INTRA>
-6.94124

>  <SCORE.INTRA.DIHEDRAL>
-12.001

>  <SCORE.INTRA.DIHEDRAL.0>
12.4853

>  <SCORE.INTRA.POLAR>
0

>  <SCORE.INTRA.POLAR.0>
0

>  <SCORE.INTRA.REPUL>
0

>  <SCORE.INTRA.REPUL.0>
0

>  <SCORE.INTRA.SOLV>
0.534721

>  <SCORE.INTRA.SOLV.lig_0>
-31.1706

>  <SCORE.INTRA.VDW>
-1.20812

>  <SCORE.INTRA.VDW.0>
-1.16895

>  <SCORE.INTRA.norm>
-0.301793

>  <SCORE.RESTR>
0

>  <SCORE.RESTR.CAVITY>
0

>  <SCORE.RESTR.norm>
0

>  <SCORE.SYSTEM>
0

>  <SCORE.SYSTEM.CONST>
0

>  <SCORE.SYSTEM.DIHEDRAL>
0

>  <SCORE.SYSTEM.SOLV>
0

>  <SCORE.SYSTEM.norm>
0

>  <SCORE.heavy>
23

>  <SCORE.norm>
-0.457496

>  <RMSD>
3.954

$$$$
ligand
 OpenBabel11021811513D
libRbt.so/2013.1/901 2013/11/27
 23 24  0  0  0  0  0  0  0  0999 V2000
   -7.3793  -11.4679    1.9115 C   0  0  0  0  0  0  0  0  0  0  0  0
   -7.1564  -12.8640    2.1883 O   0  0  0  0  0  0  0  0  0  0  0  0
   -8.6302  -11.3258    1.0563 C   0  0  2  0  0  0  0  0  0  0  0  0
   -8.5635  -11.9755   -0.3173 C   0  0  1  0  0  0  0  0  0  0  0  0
   -8.7920  -13.3803   -0.1890 O   0  0  0  0  0  0  0  0  0  0  0  0
   -9.6648  -11.2349   -1.0683 C   0  0  2  0  0  0  0  0  0  0  0  0
   -9.6228  -11.2117   -2.5001 O   0  0  0  0  0  0  0  0  0  0  0  0
   -9.5086   -9.8269   -0.5215 C   0  0  2  0  0  0  0  0  0  0  0  0
   -8.9365   -9.9527    0.7976 O   0  0  0  0  0  0  0  0  0  0  0  0
  -10.9037   -9.1765   -0.4979 C   0  0  0  0  0  0  0  0  0  0  0  0
  -11.4850   -9.0826   -1.8059 O   0  0  0  0  0  0  0  0  0  0  0  0
   -8.2303   -7.8046   -0.8439 C   0  0  2  0  0  0  0  0  0  0  0  0
   -8.5634   -9.1137   -1.3370 O   0  0  0  0  0  0  0  0  0  0  0  0
   -7.5358   -7.0589   -1.9682 C   0  0  2  0  0  0  0  0  0  0  0  0
   -8.3058   -7.1934   -3.1679 O   0  0  0  0  0  0  0  0  0  0  0  0
   -6.1641   -7.6437   -2.2239 C   0  0  1  0  0  0  0  0  0  0  0  0
   -5.4538   -6.7707   -3.1053 O   0  0  0  0  0  0  0  0  0  0  0  0
   -5.4018   -7.8073   -0.9227 C   0  0  2  0  0  0  0  0  0  0  0  0
   -4.2006   -8.5193   -1.1868 O   0  0  0  0  0  0  0  0  0  0  0  0
   -6.2085   -8.5707    0.1191 C   0  0  2  0  0  0  0  0  0  0  0  0
   -7.4189   -7.8562    0.3293 O   0  0  0  0  0  0  0  0  0  0  0  0
   -5.4363   -8.7153    1.4358 C   0  0  0  0  0  0  0  0  0  0  0  0
   -5.0051   -7.4569    1.9744 O   0  0  0  0  0  0  0  0  0  0  0  0
  1  2  1  0  0  0  0
  3  1  1  6  0  0  0
  3  9  1  0  0  0  0
  3  4  1  0  0  0  0
  4  5  1  1  0  0  0
  4  6  1  0  0  0  0
  6  7  1  6  0  0  0
  6  8  1  0  0  0  0
  8  9  1  0  0  0  0
  8 10  1  1  0  0  0
  8 13  1  0  0  0  0
 10 11  1  0  0  0  0
 12 13  1  6  0  0  0
 12 14  1  0  0  0  0
 12 21  1  0  0  0  0
 14 15  1  6  0  0  0
 14 16  1  0  0  0  0
 16 17  1  6  0  0  0
 16 18  1  0  0  0  0
 18 19  1  6  0  0  0
 18 20  1  0  0  0  0
 20 21  1  0  0  0  0
 20 22  1  1  0  0  0
 22 23  1  0  0  0  0
M  END
>  <CHROM.1>
-62.96557727,-61.14149777,-165.39625769,-174.27937388,55.41308784,-7.75570812
-9.39480898,-0.52250726,-2.32866100,-0.48878338,-0.71141345

>  <Name>
ligand

>  <RI>
0

>  <Rbt.Current_Directory>
/home/itssahil/PROJECTS/Mol_Feturizer/New_Systems/rnas/4TS2

>  <Rbt.Executable>
rbdock ($Id: //depot/dev/client3/rdock/2013.1/src/exe/rbdock.cxx#4 $)

>  <Rbt.Library>
libRbt.so (2013.1, Build901 2013/11/27)

>  <Rbt.Parameter_File>
/export/apps/rDock/src/rDock_2013.1_src/data/scripts/dock_solv.prm

>  <Rbt.Receptor>
prm/pocket_docking_4.prm

>  <SCORE>
-9.00318

>  <SCORE.INTER>
-2.16465

>  <SCORE.INTER.CONST>
1

>  <SCORE.INTER.POLAR>
0

>  <SCORE.INTER.ROT>
5

>  <SCORE.INTER.SOLV>
7.82088

>  <SCORE.INTER.VDW>
-10.9834

>  <SCORE.INTER.norm>
-0.0941153

>  <SCORE.INTRA>
-6.83853

>  <SCORE.INTRA.DIHEDRAL>
-11.2347

>  <SCORE.INTRA.DIHEDRAL.0>
12.4853

>  <SCORE.INTRA.POLAR>
0

>  <SCORE.INTRA.POLAR.0>
0

>  <SCORE.INTRA.REPUL>
0

>  <SCORE.INTRA.REPUL.0>
0

>  <SCORE.INTRA.SOLV>
0.554534

>  <SCORE.INTRA.SOLV.lig_0>
-31.1706

>  <SCORE.INTRA.VDW>
-1.49844

>  <SCORE.INTRA.VDW.0>
-1.16895

>  <SCORE.INTRA.norm>
-0.297327

>  <SCORE.RESTR>
0

>  <SCORE.RESTR.CAVITY>
0

>  <SCORE.RESTR.norm>
0

>  <SCORE.SYSTEM>
0

>  <SCORE.SYSTEM.CONST>
0

>  <SCORE.SYSTEM.DIHEDRAL>
0

>  <SCORE.SYSTEM.SOLV>
0

>  <SCORE.SYSTEM.norm>
0

>  <SCORE.heavy>
23

>  <SCORE.norm>
-0.391443

>  <RMSD>
3.971

$$$$
ligand
 OpenBabel11021811513D
libRbt.so/2013.1/901 2013/11/27
 23 24  0  0  0  0  0  0  0  0999 V2000
   -5.7942   -7.0848   -1.9447 C   0  0  0  0  0  0  0  0  0  0  0  0
   -6.4813   -5.9175   -2.4351 O   0  0  0  0  0  0  0  0  0  0  0  0
   -6.4153   -8.3251   -2.5711 C   0  0  2  0  0  0  0  0  0  0  0  0
   -7.8881   -8.5483   -2.2636 C   0  0  1  0  0  0  0  0  0  0  0  0
   -8.6807   -7.7077   -3.1046 O   0  0  0  0  0  0  0  0  0  0  0  0
   -8.0462  -10.0376   -2.5508 C   0  0  2  0  0  0  0  0  0  0  0  0
   -9.1417  -10.7393   -1.9511 O   0  0  0  0  0  0  0  0  0  0  0  0
   -6.7300  -10.5868   -2.0293 C   0  0  2  0  0  0  0  0  0  0  0  0
   -5.7637   -9.5193   -2.1290 O   0  0  0  0  0  0  0  0  0  0  0  0
   -6.3544  -11.8029   -2.8952 C   0  0  0  0  0  0  0  0  0  0  0  0
   -5.0343  -12.2879   -2.6128 O   0  0  0  0  0  0  0  0  0  0  0  0
   -5.6635  -11.3299    0.0049 C   0  0  2  0  0  0  0  0  0  0  0  0
   -6.8794  -10.9066   -0.6356 O   0  0  0  0  0  0  0  0  0  0  0  0
   -6.0490  -12.2488    1.1492 C   0  0  2  0  0  0  0  0  0  0  0  0
   -6.9811  -13.2264    0.6739 O   0  0  0  0  0  0  0  0  0  0  0  0
   -6.7168  -11.4642    2.2570 C   0  0  1  0  0  0  0  0  0  0  0  0
   -6.8380  -12.3086    3.4041 O   0  0  0  0  0  0  0  0  0  0  0  0
   -5.9070  -10.2283    2.5999 C   0  0  2  0  0  0  0  0  0  0  0  0
   -6.6547   -9.4339    3.5106 O   0  0  0  0  0  0  0  0  0  0  0  0
   -5.5875   -9.3950    1.3660 C   0  0  2  0  0  0  0  0  0  0  0  0
   -4.8775  -10.2287    0.4601 O   0  0  0  0  0  0  0  0  0  0  0  0
   -4.7540   -8.1580    1.7210 C   0  0  0  0  0  0  0  0  0  0  0  0
   -4.3429   -7.4087    0.5681 O   0  0  0  0  0  0  0  0  0  0  0  0
  1  2  1  0  0  0  0
  3  1  1  1  0  0  0
  3  9  1  0  0  0  0
  3  4  1  0  0  0  0
  4  5  1  6  0  0  0
  4  6  1  0  0  0  0
  6  7  1  1  0  0  0
  6  8  1  0  0  0  0
  8  9  1  0  0  0  0
  8 10  1  6  0  0  0
  8 13  1  0  0  0  0
 10 11  1  0  0  0  0
 12 13  1  1  0  0  0
 12 14  1  0  0  0  0
 12 21  1  0  0  0  0
 14 15  1  6  0  0  0
 14 16  1  0  0  0  0
 16 17  1  1  0  0  0
 16 18  1  0  0  0  0
 18 19  1  1  0  0  0
 18 20  1  0  0  0  0
 20 21  1  0  0  0  0
 20 22  1  1  0  0  0
 22 23  1  0  0  0  0
M  END
>  <CHROM.1>
-60.91993851,171.75645786,-152.13460242,-174.90661384,175.22748952,-6.41829580
-9.94344276,-0.40766535,-2.00590577,1.21864808,2.54002555

>  <Name>
ligand

>  <RI>
0

>  <Rbt.Current_Directory>
/home/itssahil/PROJECTS/Mol_Feturizer/New_Systems/rnas/4TS2

>  <Rbt.Executable>
rbdock ($Id: //depot/dev/client3/rdock/2013.1/src/exe/rbdock.cxx#4 $)

>  <Rbt.Library>
libRbt.so (2013.1, Build901 2013/11/27)

>  <Rbt.Parameter_File>
/export/apps/rDock/src/rDock_2013.1_src/data/scripts/dock_solv.prm

>  <Rbt.Receptor>
prm/pocket_docking_4.prm

>  <SCORE>
-5.34408

>  <SCORE.INTER>
0.261152

>  <SCORE.INTER.CONST>
1

>  <SCORE.INTER.POLAR>
0

>  <SCORE.INTER.ROT>
5

>  <SCORE.INTER.SOLV>
5.76727

>  <SCORE.INTER.VDW>
-8.68166

>  <SCORE.INTER.norm>
0.0113544

>  <SCORE.INTRA>
-5.60523

>  <SCORE.INTRA.DIHEDRAL>
-8.92501

>  <SCORE.INTRA.DIHEDRAL.0>
12.4853

>  <SCORE.INTRA.POLAR>
0

>  <SCORE.INTRA.POLAR.0>
0

>  <SCORE.INTRA.REPUL>
0

>  <SCORE.INTRA.REPUL.0>
0

>  <SCORE.INTRA.SOLV>
0.63072

>  <SCORE.INTRA.SOLV.lig_0>
-31.1706

>  <SCORE.INTRA.VDW>
-1.45809

>  <SCORE.INTRA.VDW.0>
-1.16895

>  <SCORE.INTRA.norm>
-0.243706

>  <SCORE.RESTR>
0

>  <SCORE.RESTR.CAVITY>
0

>  <SCORE.RESTR.norm>
0

>  <SCORE.SYSTEM>
0

>  <SCORE.SYSTEM.CONST>
0

>  <SCORE.SYSTEM.DIHEDRAL>
0

>  <SCORE.SYSTEM.SOLV>
0

>  <SCORE.SYSTEM.norm>
0

>  <SCORE.heavy>
23

>  <SCORE.norm>
-0.232351

>  <RMSD>
3.992

$$$$
ligand
 OpenBabel11021811513D
libRbt.so/2013.1/901 2013/11/27
 23 24  0  0  0  0  0  0  0  0999 V2000
  -11.9755   -9.1800   -1.3840 C   0  0  0  0  0  0  0  0  0  0  0  0
  -12.8009   -9.0664   -0.2088 O   0  0  0  0  0  0  0  0  0  0  0  0
  -11.0516  -10.3792   -1.2267 C   0  0  2  0  0  0  0  0  0  0  0  0
  -10.1116  -10.3312   -0.0319 C   0  0  1  0  0  0  0  0  0  0  0  0
  -10.8251  -10.7066    1.1481 O   0  0  0  0  0  0  0  0  0  0  0  0
   -9.0300  -11.3242   -0.4437 C   0  0  2  0  0  0  0  0  0  0  0  0
   -7.7410  -11.2300    0.1742 O   0  0  0  0  0  0  0  0  0  0  0  0
   -8.9141  -11.0441   -1.9317 C   0  0  2  0  0  0  0  0  0  0  0  0
  -10.1943  -10.5343   -2.3612 O   0  0  0  0  0  0  0  0  0  0  0  0
   -8.5433  -12.3654   -2.6292 C   0  0  0  0  0  0  0  0  0  0  0  0
   -9.5374  -13.3817   -2.4385 O   0  0  0  0  0  0  0  0  0  0  0  0
   -8.4174   -8.6849   -1.8093 C   0  0  2  0  0  0  0  0  0  0  0  0
   -7.9435  -10.0031   -2.1345 O   0  0  0  0  0  0  0  0  0  0  0  0
   -7.6547   -7.7011   -2.6769 C   0  0  2  0  0  0  0  0  0  0  0  0
   -7.6820   -8.1525   -4.0355 O   0  0  0  0  0  0  0  0  0  0  0  0
   -6.2087   -7.6190   -2.2394 C   0  0  1  0  0  0  0  0  0  0  0  0
   -5.5925   -6.5158   -2.9077 O   0  0  0  0  0  0  0  0  0  0  0  0
   -6.1144   -7.4393   -0.7362 C   0  0  2  0  0  0  0  0  0  0  0  0
   -4.7508   -7.5465   -0.3509 O   0  0  0  0  0  0  0  0  0  0  0  0
   -6.9231   -8.4879    0.0157 C   0  0  2  0  0  0  0  0  0  0  0  0
   -8.2711   -8.3820   -0.4220 O   0  0  0  0  0  0  0  0  0  0  0  0
   -6.8354   -8.2868    1.5332 C   0  0  0  0  0  0  0  0  0  0  0  0
   -5.5049   -8.4520    2.0451 O   0  0  0  0  0  0  0  0  0  0  0  0
  1  2  1  0  0  0  0
  3  1  1  6  0  0  0
  3  9  1  0  0  0  0
  3  4  1  0  0  0  0
  4  5  1  1  0  0  0
  4  6  1  0  0  0  0
  6  7  1  1  0  0  0
  6  8  1  0  0  0  0
  8  9  1  0  0  0  0
  8 10  1  6  0  0  0
  8 13  1  0  0  0  0
 10 11  1  0  0  0  0
 12 13  1  1  0  0  0
 12 14  1  0  0  0  0
 12 21  1  0  0  0  0
 14 15  1  6  0  0  0
 14 16  1  0  0  0  0
 16 17  1  6  0  0  0
 16 18  1  0  0  0  0
 18 19  1  1  0  0  0
 18 20  1  0  0  0  0
 20 21  1  0  0  0  0
 20 22  1  1  0  0  0
 22 23  1  0  0  0  0
M  END
>  <CHROM.1>
-59.75206704,60.80409831,-151.76645369,-75.91806322,-63.57862837,-8.36859791
-9.42896655,-1.07992190,-3.10017310,0.60571535,1.56017726

>  <Name>
ligand

>  <RI>
0

>  <Rbt.Current_Directory>
/home/itssahil/PROJECTS/Mol_Feturizer/New_Systems/rnas/4TS2

>  <Rbt.Executable>
rbdock ($Id: //depot/dev/client3/rdock/2013.1/src/exe/rbdock.cxx#4 $)

>  <Rbt.Library>
libRbt.so (2013.1, Build901 2013/11/27)

>  <Rbt.Parameter_File>
/export/apps/rDock/src/rDock_2013.1_src/data/scripts/dock_solv.prm

>  <Rbt.Receptor>
prm/pocket_docking_3.prm

>  <SCORE>
-8.46402

>  <SCORE.INTER>
-5.14592

>  <SCORE.INTER.CONST>
1

>  <SCORE.INTER.POLAR>
0

>  <SCORE.INTER.ROT>
5

>  <SCORE.INTER.SOLV>
7.9097

>  <SCORE.INTER.VDW>
-13.0005

>  <SCORE.INTER.norm>
-0.223735

>  <SCORE.INTRA>
-3.31811

>  <SCORE.INTRA.DIHEDRAL>
-7.744

>  <SCORE.INTRA.DIHEDRAL.0>
12.4853

>  <SCORE.INTRA.POLAR>
0

>  <SCORE.INTRA.POLAR.0>
0

>  <SCORE.INTRA.REPUL>
0

>  <SCORE.INTRA.REPUL.0>
0

>  <SCORE.INTRA.SOLV>
1.25785

>  <SCORE.INTRA.SOLV.lig_0>
-31.1706

>  <SCORE.INTRA.VDW>
-0.0750293

>  <SCORE.INTRA.VDW.0>
-1.16895

>  <SCORE.INTRA.norm>
-0.144265

>  <SCORE.RESTR>
0

>  <SCORE.RESTR.CAVITY>
0

>  <SCORE.RESTR.norm>
0

>  <SCORE.SYSTEM>
0

>  <SCORE.SYSTEM.CONST>
0

>  <SCORE.SYSTEM.DIHEDRAL>
0

>  <SCORE.SYSTEM.SOLV>
0

>  <SCORE.SYSTEM.norm>
0

>  <SCORE.heavy>
23

>  <SCORE.norm>
-0.368001

>  <RMSD>
4.005

$$$$
ligand
 OpenBabel11021811513D
libRbt.so/2013.1/901 2013/11/27
 23 24  0  0  0  0  0  0  0  0999 V2000
   -7.1309  -11.1502    1.6815 C   0  0  0  0  0  0  0  0  0  0  0  0
   -7.4859  -10.5155    2.9251 O   0  0  0  0  0  0  0  0  0  0  0  0
   -8.3445  -11.1539    0.7630 C   0  0  2  0  0  0  0  0  0  0  0  0
   -8.2246  -12.0229   -0.4796 C   0  0  1  0  0  0  0  0  0  0  0  0
   -8.4663  -13.3871   -0.1292 O   0  0  0  0  0  0  0  0  0  0  0  0
   -9.2897  -11.4189   -1.3886 C   0  0  2  0  0  0  0  0  0  0  0  0
   -9.1882  -11.6341   -2.8012 O   0  0  0  0  0  0  0  0  0  0  0  0
   -9.1483   -9.9394   -1.0774 C   0  0  2  0  0  0  0  0  0  0  0  0
   -8.6320   -9.8434    0.2671 O   0  0  0  0  0  0  0  0  0  0  0  0
  -10.5394   -9.2959   -1.2204 C   0  0  0  0  0  0  0  0  0  0  0  0
  -11.4775   -9.8036   -0.2614 O   0  0  0  0  0  0  0  0  0  0  0  0
   -8.0536   -7.9396   -1.8713 C   0  0  2  0  0  0  0  0  0  0  0  0
   -8.1661   -9.3706   -1.9598 O   0  0  0  0  0  0  0  0  0  0  0  0
   -7.1213   -7.4880   -2.9800 C   0  0  2  0  0  0  0  0  0  0  0  0
   -7.5259   -8.0957   -4.2117 O   0  0  0  0  0  0  0  0  0  0  0  0
   -5.7015   -7.9214   -2.6880 C   0  0  1  0  0  0  0  0  0  0  0  0
   -4.8273   -7.2726   -3.6145 O   0  0  0  0  0  0  0  0  0  0  0  0
   -5.3153   -7.5637   -1.2654 C   0  0  2  0  0  0  0  0  0  0  0  0
   -4.0499   -8.1436   -0.9790 O   0  0  0  0  0  0  0  0  0  0  0  0
   -6.3319   -8.0736   -0.2527 C   0  0  2  0  0  0  0  0  0  0  0  0
   -7.5915   -7.5092   -0.5912 O   0  0  0  0  0  0  0  0  0  0  0  0
   -5.9414   -7.6916    1.1800 C   0  0  0  0  0  0  0  0  0  0  0  0
   -6.9477   -8.0313    2.1452 O   0  0  0  0  0  0  0  0  0  0  0  0
  1  2  1  0  0  0  0
  3  1  1  6  0  0  0
  3  9  1  0  0  0  0
  3  4  1  0  0  0  0
  4  5  1  1  0  0  0
  4  6  1  0  0  0  0
  6  7  1  6  0  0  0
  6  8  1  0  0  0  0
  8  9  1  0  0  0  0
  8 10  1  6  0  0  0
  8 13  1  0  0  0  0
 10 11  1  0  0  0  0
 12 13  1  1  0  0  0
 12 14  1  0  0  0  0
 12 21  1  0  0  0  0
 14 15  1  6  0  0  0
 14 16  1  0  0  0  0
 16 17  1  6  0  0  0
 16 18  1  0  0  0  0
 18 19  1  1  0  0  0
 18 20  1  0  0  0  0
 20 21  1  0  0  0  0
 20 22  1  1  0  0  0
 22 23  1  0  0  0  0
M  END
>  <CHROM.1>
-168.50849322,64.11696893,-172.69486793,173.05293949,173.73854451,-7.63183959
-9.36362048,-0.80658626,-2.47369177,-0.68890827,-1.23749373

>  <Name>
ligand

>  <RI>
0

>  <Rbt.Current_Directory>
/home/itssahil/PROJECTS/Mol_Feturizer/New_Systems/rnas/4TS2

>  <Rbt.Executable>
rbdock ($Id: //depot/dev/client3/rdock/2013.1/src/exe/rbdock.cxx#4 $)

>  <Rbt.Library>
libRbt.so (2013.1, Build901 2013/11/27)

>  <Rbt.Parameter_File>
/export/apps/rDock/src/rDock_2013.1_src/data/scripts/dock_solv.prm

>  <Rbt.Receptor>
prm/pocket_docking_4.prm

>  <SCORE>
-9.61378

>  <SCORE.INTER>
-2.94153

>  <SCORE.INTER.CONST>
1

>  <SCORE.INTER.POLAR>
0

>  <SCORE.INTER.ROT>
5

>  <SCORE.INTER.SOLV>
8.35575

>  <SCORE.INTER.VDW>
-11.6796

>  <SCORE.INTER.norm>
-0.127893

>  <SCORE.INTRA>
-6.67233

>  <SCORE.INTRA.DIHEDRAL>
-11.1318

>  <SCORE.INTRA.DIHEDRAL.0>
12.4853

>  <SCORE.INTRA.POLAR>
0

>  <SCORE.INTRA.POLAR.0>
0

>  <SCORE.INTRA.REPUL>
0

>  <SCORE.INTRA.REPUL.0>
0

>  <SCORE.INTRA.SOLV>
0.786649

>  <SCORE.INTRA.SOLV.lig_0>
-31.1706

>  <SCORE.INTRA.VDW>
-1.49978

>  <SCORE.INTRA.VDW.0>
-1.16895

>  <SCORE.INTRA.norm>
-0.290101

>  <SCORE.RESTR>
8.10283e-05

>  <SCORE.RESTR.CAVITY>
8.10283e-05

>  <SCORE.RESTR.norm>
3.52297e-06

>  <SCORE.SYSTEM>
0

>  <SCORE.SYSTEM.CONST>
0

>  <SCORE.SYSTEM.DIHEDRAL>
0

>  <SCORE.SYSTEM.SOLV>
0

>  <SCORE.SYSTEM.norm>
0

>  <SCORE.heavy>
23

>  <SCORE.norm>
-0.41799

>  <RMSD>
4.008

$$$$
ligand
 OpenBabel11021811513D
libRbt.so/2013.1/901 2013/11/27
 23 24  0  0  0  0  0  0  0  0999 V2000
   -7.1178  -11.1067    1.7249 C   0  0  0  0  0  0  0  0  0  0  0  0
   -7.4689  -10.4752    2.9713 O   0  0  0  0  0  0  0  0  0  0  0  0
   -8.3361  -11.1141    0.8128 C   0  0  2  0  0  0  0  0  0  0  0  0
   -8.2255  -11.9939   -0.4230 C   0  0  1  0  0  0  0  0  0  0  0  0
   -8.4699  -13.3543   -0.0599 O   0  0  0  0  0  0  0  0  0  0  0  0
   -9.2932  -11.3940   -1.3317 C   0  0  2  0  0  0  0  0  0  0  0  0
   -9.1997  -11.6215   -2.7429 O   0  0  0  0  0  0  0  0  0  0  0  0
   -9.1453   -9.9124   -1.0337 C   0  0  2  0  0  0  0  0  0  0  0  0
   -8.6218   -9.8068    0.3073 O   0  0  0  0  0  0  0  0  0  0  0  0
  -10.5350   -9.2655   -1.1751 C   0  0  0  0  0  0  0  0  0  0  0  0
  -11.4725   -9.7691   -0.2133 O   0  0  0  0  0  0  0  0  0  0  0  0
   -8.0469   -7.9233   -1.8490 C   0  0  2  0  0  0  0  0  0  0  0  0
   -8.1657   -9.3544   -1.9259 O   0  0  0  0  0  0  0  0  0  0  0  0
   -7.1172   -7.4842   -2.9649 C   0  0  2  0  0  0  0  0  0  0  0  0
   -7.5294   -8.0996   -4.1902 O   0  0  0  0  0  0  0  0  0  0  0  0
   -5.6981   -7.9213   -2.6752 C   0  0  1  0  0  0  0  0  0  0  0  0
   -4.8250   -7.2834   -3.6101 O   0  0  0  0  0  0  0  0  0  0  0  0
   -5.3046   -7.5542   -1.2570 C   0  0  2  0  0  0  0  0  0  0  0  0
   -4.0406   -8.1372   -0.9712 O   0  0  0  0  0  0  0  0  0  0  0  0
   -6.3192   -8.0520   -0.2363 C   0  0  2  0  0  0  0  0  0  0  0  0
   -7.5779   -7.4849   -0.5741 O   0  0  0  0  0  0  0  0  0  0  0  0
   -5.9214   -7.6606    1.1918 C   0  0  0  0  0  0  0  0  0  0  0  0
   -6.9119   -8.0163    2.1676 O   0  0  0  0  0  0  0  0  0  0  0  0
  1  2  1  0  0  0  0
  3  1  1  6  0  0  0
  3  9  1  0  0  0  0
  3  4  1  0  0  0  0
  4  5  1  1  0  0  0
  4  6  1  0  0  0  0
  6  7  1  6  0  0  0
  6  8  1  0  0  0  0
  8  9  1  0  0  0  0
  8 10  1  6  0  0  0
  8 13  1  0  0  0  0
 10 11  1  0  0  0  0
 12 13  1  1  0  0  0
 12 14  1  0  0  0  0
 12 21  1  0  0  0  0
 14 15  1  6  0  0  0
 14 16  1  0  0  0  0
 16 17  1  6  0  0  0
 16 18  1  0  0  0  0
 18 19  1  1  0  0  0
 18 20  1  0  0  0  0
 20 21  1  0  0  0  0
 20 22  1  1  0  0  0
 22 23  1  0  0  0  0
M  END
>  <CHROM.1>
-167.80065623,63.68667838,-172.78613650,173.12427539,175.08236500,-7.62493952
-9.34285082,-0.77384680,-2.46625700,-0.68186447,-1.24005491

>  <Name>
ligand

>  <RI>
0

>  <Rbt.Current_Directory>
/home/itssahil/PROJECTS/Mol_Feturizer/New_Systems/rnas/4TS2

>  <Rbt.Executable>
rbdock ($Id: //depot/dev/client3/rdock/2013.1/src/exe/rbdock.cxx#4 $)

>  <Rbt.Library>
libRbt.so (2013.1, Build901 2013/11/27)

>  <Rbt.Parameter_File>
/export/apps/rDock/src/rDock_2013.1_src/data/scripts/dock_solv.prm

>  <Rbt.Receptor>
prm/pocket_docking_8.prm

>  <SCORE>
-9.64614

>  <SCORE.INTER>
-2.9969

>  <SCORE.INTER.CONST>
1

>  <SCORE.INTER.POLAR>
0

>  <SCORE.INTER.ROT>
5

>  <SCORE.INTER.SOLV>
8.41924

>  <SCORE.INTER.VDW>
-11.7377

>  <SCORE.INTER.norm>
-0.1303

>  <SCORE.INTRA>
-6.64924

>  <SCORE.INTRA.DIHEDRAL>
-11.1552

>  <SCORE.INTRA.DIHEDRAL.0>
12.4853

>  <SCORE.INTRA.POLAR>
0

>  <SCORE.INTRA.POLAR.0>
0

>  <SCORE.INTRA.REPUL>
0

>  <SCORE.INTRA.REPUL.0>
0

>  <SCORE.INTRA.SOLV>
0.792878

>  <SCORE.INTRA.SOLV.lig_0>
-31.1706

>  <SCORE.INTRA.VDW>
-1.46809

>  <SCORE.INTRA.VDW.0>
-1.16895

>  <SCORE.INTRA.norm>
-0.289098

>  <SCORE.RESTR>
0

>  <SCORE.RESTR.CAVITY>
0

>  <SCORE.RESTR.norm>
0

>  <SCORE.SYSTEM>
0

>  <SCORE.SYSTEM.CONST>
0

>  <SCORE.SYSTEM.DIHEDRAL>
0

>  <SCORE.SYSTEM.SOLV>
0

>  <SCORE.SYSTEM.norm>
0

>  <SCORE.heavy>
23

>  <SCORE.norm>
-0.419398

>  <RMSD>
4.009

$$$$
ligand
 OpenBabel11021811513D
libRbt.so/2013.1/901 2013/11/27
 23 24  0  0  0  0  0  0  0  0999 V2000
   -7.4199  -11.0022    1.8186 C   0  0  0  0  0  0  0  0  0  0  0  0
   -7.1980  -12.3261    2.3418 O   0  0  0  0  0  0  0  0  0  0  0  0
   -8.5654  -11.0506    0.8177 C   0  0  2  0  0  0  0  0  0  0  0  0
   -8.3512  -11.9616   -0.3814 C   0  0  1  0  0  0  0  0  0  0  0  0
   -8.6068  -13.3149   -0.0002 O   0  0  0  0  0  0  0  0  0  0  0  0
   -9.3538  -11.4008   -1.3843 C   0  0  2  0  0  0  0  0  0  0  0  0
   -9.1509  -11.6646   -2.7777 O   0  0  0  0  0  0  0  0  0  0  0  0
   -9.2459   -9.9098   -1.1172 C   0  0  2  0  0  0  0  0  0  0  0  0
   -8.8269   -9.7613    0.2560 O   0  0  0  0  0  0  0  0  0  0  0  0
  -10.6283   -9.2859   -1.3810 C   0  0  0  0  0  0  0  0  0  0  0  0
  -11.6375   -9.8021   -0.5019 O   0  0  0  0  0  0  0  0  0  0  0  0
   -8.0726   -7.9339   -1.8565 C   0  0  2  0  0  0  0  0  0  0  0  0
   -8.2081   -9.3626   -1.9480 O   0  0  0  0  0  0  0  0  0  0  0  0
   -7.1237   -7.4962   -2.9567 C   0  0  2  0  0  0  0  0  0  0  0  0
   -7.5281   -8.0954   -4.1926 O   0  0  0  0  0  0  0  0  0  0  0  0
   -5.7138   -7.9535   -2.6534 C   0  0  1  0  0  0  0  0  0  0  0  0
   -4.8213   -7.3180   -3.5716 O   0  0  0  0  0  0  0  0  0  0  0  0
   -5.3337   -7.6041   -1.2271 C   0  0  2  0  0  0  0  0  0  0  0  0
   -4.0806   -8.2053   -0.9310 O   0  0  0  0  0  0  0  0  0  0  0  0
   -6.3670   -8.0985   -0.2237 C   0  0  2  0  0  0  0  0  0  0  0  0
   -7.6143   -7.5129   -0.5719 O   0  0  0  0  0  0  0  0  0  0  0  0
   -5.9823   -7.7251    1.2127 C   0  0  0  0  0  0  0  0  0  0  0  0
   -6.9687   -8.1185    2.1781 O   0  0  0  0  0  0  0  0  0  0  0  0
  1  2  1  0  0  0  0
  3  1  1  1  0  0  0
  3  9  1  0  0  0  0
  3  4  1  0  0  0  0
  4  5  1  1  0  0  0
  4  6  1  0  0  0  0
  6  7  1  6  0  0  0
  6  8  1  0  0  0  0
  8  9  1  0  0  0  0
  8 10  1  6  0  0  0
  8 13  1  0  0  0  0
 10 11  1  0  0  0  0
 12 13  1  1  0  0  0
 12 14  1  0  0  0  0
 12 21  1  0  0  0  0
 14 15  1  6  0  0  0
 14 16  1  0  0  0  0
 16 17  1  6  0  0  0
 16 18  1  0  0  0  0
 18 19  1  1  0  0  0
 18 20  1  0  0  0  0
 20 21  1  0  0  0  0
 20 22  1  1  0  0  0
 22 23  1  0  0  0  0
M  END
>  <CHROM.1>
-60.01815577,62.16769301,-170.15864926,175.76040290,177.09619306,-7.68588350
-9.44388804,-0.82039006,-2.36273202,-0.61752626,-1.06995446

>  <Name>
ligand

>  <RI>
0

>  <Rbt.Current_Directory>
/home/itssahil/PROJECTS/Mol_Feturizer/New_Systems/rnas/4TS2

>  <Rbt.Executable>
rbdock ($Id: //depot/dev/client3/rdock/2013.1/src/exe/rbdock.cxx#4 $)

>  <Rbt.Library>
libRbt.so (2013.1, Build901 2013/11/27)

>  <Rbt.Parameter_File>
/export/apps/rDock/src/rDock_2013.1_src/data/scripts/dock_solv.prm

>  <Rbt.Receptor>
prm/pocket_docking_5.prm

>  <SCORE>
-9.94642

>  <SCORE.INTER>
-3.07565

>  <SCORE.INTER.CONST>
1

>  <SCORE.INTER.POLAR>
0

>  <SCORE.INTER.ROT>
5

>  <SCORE.INTER.SOLV>
7.90207

>  <SCORE.INTER.VDW>
-11.6178

>  <SCORE.INTER.norm>
-0.133724

>  <SCORE.INTRA>
-6.87077

>  <SCORE.INTRA.DIHEDRAL>
-11.7375

>  <SCORE.INTRA.DIHEDRAL.0>
12.4853

>  <SCORE.INTRA.POLAR>
0

>  <SCORE.INTRA.POLAR.0>
0

>  <SCORE.INTRA.REPUL>
0

>  <SCORE.INTRA.REPUL.0>
0

>  <SCORE.INTRA.SOLV>
0.592726

>  <SCORE.INTRA.SOLV.lig_0>
-31.1706

>  <SCORE.INTRA.VDW>
-1.29841

>  <SCORE.INTRA.VDW.0>
-1.16895

>  <SCORE.INTRA.norm>
-0.298729

>  <SCORE.RESTR>
0

>  <SCORE.RESTR.CAVITY>
0

>  <SCORE.RESTR.norm>
0

>  <SCORE.SYSTEM>
0

>  <SCORE.SYSTEM.CONST>
0

>  <SCORE.SYSTEM.DIHEDRAL>
0

>  <SCORE.SYSTEM.SOLV>
0

>  <SCORE.SYSTEM.norm>
0

>  <SCORE.heavy>
23

>  <SCORE.norm>
-0.432453

>  <RMSD>
4.010

$$$$
ligand
 OpenBabel11021811513D
libRbt.so/2013.1/901 2013/11/27
 23 24  0  0  0  0  0  0  0  0999 V2000
   -7.3239  -11.4928    1.8026 C   0  0  0  0  0  0  0  0  0  0  0  0
   -7.4972  -10.8937    3.1013 O   0  0  0  0  0  0  0  0  0  0  0  0
   -8.6014  -11.3064    0.9965 C   0  0  2  0  0  0  0  0  0  0  0  0
   -8.5967  -11.9247   -0.3932 C   0  0  1  0  0  0  0  0  0  0  0  0
   -8.8488  -13.3274   -0.2888 O   0  0  0  0  0  0  0  0  0  0  0  0
   -9.7090  -11.1455   -1.0868 C   0  0  2  0  0  0  0  0  0  0  0  0
   -9.7175  -11.0893   -2.5182 O   0  0  0  0  0  0  0  0  0  0  0  0
   -9.5051   -9.7540   -0.5139 C   0  0  2  0  0  0  0  0  0  0  0  0
   -8.8890   -9.9220    0.7805 O   0  0  0  0  0  0  0  0  0  0  0  0
  -10.8851   -9.0776   -0.4251 C   0  0  0  0  0  0  0  0  0  0  0  0
  -11.7721   -9.7615    0.4712 O   0  0  0  0  0  0  0  0  0  0  0  0
   -8.2215   -7.7375   -0.8507 C   0  0  2  0  0  0  0  0  0  0  0  0
   -8.5754   -9.0402   -1.3464 O   0  0  0  0  0  0  0  0  0  0  0  0
   -7.5257   -6.9965   -1.9774 C   0  0  2  0  0  0  0  0  0  0  0  0
   -8.3064   -7.1160   -3.1717 O   0  0  0  0  0  0  0  0  0  0  0  0
   -6.1637   -7.5982   -2.2457 C   0  0  1  0  0  0  0  0  0  0  0  0
   -5.4486   -6.7311   -3.1290 O   0  0  0  0  0  0  0  0  0  0  0  0
   -5.3939   -7.7771   -0.9510 C   0  0  2  0  0  0  0  0  0  0  0  0
   -4.2042   -8.5036   -1.2269 O   0  0  0  0  0  0  0  0  0  0  0  0
   -6.2027   -8.5340    0.0939 C   0  0  2  0  0  0  0  0  0  0  0  0
   -7.4020   -7.8045    0.3161 O   0  0  0  0  0  0  0  0  0  0  0  0
   -5.4225   -8.6940    1.4041 C   0  0  0  0  0  0  0  0  0  0  0  0
   -4.9869   -7.4421    1.9542 O   0  0  0  0  0  0  0  0  0  0  0  0
  1  2  1  0  0  0  0
  3  1  1  6  0  0  0
  3  9  1  0  0  0  0
  3  4  1  0  0  0  0
  4  5  1  1  0  0  0
  4  6  1  0  0  0  0
  6  7  1  6  0  0  0
  6  8  1  0  0  0  0
  8  9  1  0  0  0  0
  8 10  1  1  0  0  0
  8 13  1  0  0  0  0
 10 11  1  0  0  0  0
 12 13  1  6  0  0  0
 12 14  1  0  0  0  0
 12 21  1  0  0  0  0
 14 15  1  6  0  0  0
 14 16  1  0  0  0  0
 16 17  1  6  0  0  0
 16 18  1  0  0  0  0
 18 19  1  6  0  0  0
 18 20  1  0  0  0  0
 20 21  1  0  0  0  0
 20 22  1  1  0  0  0
 22 23  1  0  0  0  0
M  END
>  <CHROM.1>
-178.18582654,62.99650247,-166.47034666,-175.58103246,56.23331464,-7.78638734
-9.28781168,-0.39368518,-2.47702890,-0.50365661,-0.90933356

>  <Name>
ligand

>  <RI>
0

>  <Rbt.Current_Directory>
/home/itssahil/PROJECTS/Mol_Feturizer/New_Systems/rnas/4TS2

>  <Rbt.Executable>
rbdock ($Id: //depot/dev/client3/rdock/2013.1/src/exe/rbdock.cxx#4 $)

>  <Rbt.Library>
libRbt.so (2013.1, Build901 2013/11/27)

>  <Rbt.Parameter_File>
/export/apps/rDock/src/rDock_2013.1_src/data/scripts/dock_solv.prm

>  <Rbt.Receptor>
prm/pocket_docking_8.prm

>  <SCORE>
-9.16625

>  <SCORE.INTER>
-2.04639

>  <SCORE.INTER.CONST>
1

>  <SCORE.INTER.POLAR>
0

>  <SCORE.INTER.ROT>
5

>  <SCORE.INTER.SOLV>
7.94412

>  <SCORE.INTER.VDW>
-10.9456

>  <SCORE.INTER.norm>
-0.0889737

>  <SCORE.INTRA>
-7.11985

>  <SCORE.INTRA.DIHEDRAL>
-11.4052

>  <SCORE.INTRA.DIHEDRAL.0>
12.4853

>  <SCORE.INTRA.POLAR>
0

>  <SCORE.INTRA.POLAR.0>
0

>  <SCORE.INTRA.REPUL>
0

>  <SCORE.INTRA.REPUL.0>
0

>  <SCORE.INTRA.SOLV>
0.289

>  <SCORE.INTRA.SOLV.lig_0>
-31.1706

>  <SCORE.INTRA.VDW>
-1.56173

>  <SCORE.INTRA.VDW.0>
-1.16895

>  <SCORE.INTRA.norm>
-0.309559

>  <SCORE.RESTR>
0

>  <SCORE.RESTR.CAVITY>
0

>  <SCORE.RESTR.norm>
0

>  <SCORE.SYSTEM>
0

>  <SCORE.SYSTEM.CONST>
0

>  <SCORE.SYSTEM.DIHEDRAL>
0

>  <SCORE.SYSTEM.SOLV>
0

>  <SCORE.SYSTEM.norm>
0

>  <SCORE.heavy>
23

>  <SCORE.norm>
-0.398532

>  <RMSD>
4.023

$$$$
ligand
 OpenBabel11021811513D
libRbt.so/2013.1/901 2013/11/27
 23 24  0  0  0  0  0  0  0  0999 V2000
   -7.3216  -10.8563    1.8526 C   0  0  0  0  0  0  0  0  0  0  0  0
   -7.0965  -12.1430    2.4602 O   0  0  0  0  0  0  0  0  0  0  0  0
   -8.4676  -10.9717    0.8578 C   0  0  2  0  0  0  0  0  0  0  0  0
   -8.2267  -11.9097   -0.3151 C   0  0  1  0  0  0  0  0  0  0  0  0
   -8.4361  -13.2591    0.1063 O   0  0  0  0  0  0  0  0  0  0  0  0
   -9.2501  -11.4120   -1.3301 C   0  0  2  0  0  0  0  0  0  0  0  0
   -9.0424  -11.7095   -2.7160 O   0  0  0  0  0  0  0  0  0  0  0  0
   -9.1911   -9.9111   -1.1069 C   0  0  2  0  0  0  0  0  0  0  0  0
   -8.7734   -9.7088    0.2599 O   0  0  0  0  0  0  0  0  0  0  0  0
  -10.5941   -9.3413   -1.3835 C   0  0  0  0  0  0  0  0  0  0  0  0
  -11.5777   -9.8423   -0.4675 O   0  0  0  0  0  0  0  0  0  0  0  0
   -8.0603   -7.9229   -1.8789 C   0  0  2  0  0  0  0  0  0  0  0  0
   -8.1743   -9.3543   -1.9571 O   0  0  0  0  0  0  0  0  0  0  0  0
   -7.1177   -7.4813   -2.9829 C   0  0  2  0  0  0  0  0  0  0  0  0
   -7.5125   -8.0981   -4.2134 O   0  0  0  0  0  0  0  0  0  0  0  0
   -5.7012   -7.9146   -2.6751 C   0  0  1  0  0  0  0  0  0  0  0  0
   -4.8180   -7.2743   -3.5990 O   0  0  0  0  0  0  0  0  0  0  0  0
   -5.3269   -7.5462   -1.2520 C   0  0  2  0  0  0  0  0  0  0  0  0
   -4.0650   -8.1257   -0.9501 O   0  0  0  0  0  0  0  0  0  0  0  0
   -6.3530   -8.0466   -0.2443 C   0  0  2  0  0  0  0  0  0  0  0  0
   -7.6088   -7.4831   -0.5982 O   0  0  0  0  0  0  0  0  0  0  0  0
   -5.9745   -7.6540    1.1887 C   0  0  0  0  0  0  0  0  0  0  0  0
   -6.9896   -7.9848    2.1477 O   0  0  0  0  0  0  0  0  0  0  0  0
  1  2  1  0  0  0  0
  3  1  1  1  0  0  0
  3  9  1  0  0  0  0
  3  4  1  0  0  0  0
  4  5  1  1  0  0  0
  4  6  1  0  0  0  0
  6  7  1  6  0  0  0
  6  8  1  0  0  0  0
  8  9  1  0  0  0  0
  8 10  1  6  0  0  0
  8 13  1  0  0  0  0
 10 11  1  0  0  0  0
 12 13  1  1  0  0  0
 12 14  1  0  0  0  0
 12 21  1  0  0  0  0
 14 15  1  6  0  0  0
 14 16  1  0  0  0  0
 16 17  1  6  0  0  0
 16 18  1  0  0  0  0
 18 19  1  1  0  0  0
 18 20  1  0  0  0  0
 20 21  1  0  0  0  0
 20 22  1  1  0  0  0
 22 23  1  0  0  0  0
M  END
>  <CHROM.1>
-62.72538799,63.44361190,-171.01725310,177.45223793,173.74701405,-7.63714268
-9.40183276,-0.80878207,-2.34483035,-0.63212815,-1.08749335

>  <Name>
ligand

>  <RI>
0

>  <Rbt.Current_Directory>
/home/itssahil/PROJECTS/Mol_Feturizer/New_Systems/rnas/4TS2

>  <Rbt.Executable>
rbdock ($Id: //depot/dev/client3/rdock/2013.1/src/exe/rbdock.cxx#4 $)

>  <Rbt.Library>
libRbt.so (2013.1, Build901 2013/11/27)

>  <Rbt.Parameter_File>
/export/apps/rDock/src/rDock_2013.1_src/data/scripts/dock_solv.prm

>  <Rbt.Receptor>
prm/pocket_docking_5.prm

>  <SCORE>
-9.99032

>  <SCORE.INTER>
-3.13316

>  <SCORE.INTER.CONST>
1

>  <SCORE.INTER.POLAR>
0

>  <SCORE.INTER.ROT>
5

>  <SCORE.INTER.SOLV>
8.01793

>  <SCORE.INTER.VDW>
-11.6948

>  <SCORE.INTER.norm>
-0.136224

>  <SCORE.INTRA>
-6.85716

>  <SCORE.INTRA.DIHEDRAL>
-11.7223

>  <SCORE.INTRA.DIHEDRAL.0>
12.4853

>  <SCORE.INTRA.POLAR>
0

>  <SCORE.INTRA.POLAR.0>
0

>  <SCORE.INTRA.REPUL>
0

>  <SCORE.INTRA.REPUL.0>
0

>  <SCORE.INTRA.SOLV>
0.626318

>  <SCORE.INTRA.SOLV.lig_0>
-31.1706

>  <SCORE.INTRA.VDW>
-1.30916

>  <SCORE.INTRA.VDW.0>
-1.16895

>  <SCORE.INTRA.norm>
-0.298137

>  <SCORE.RESTR>
0

>  <SCORE.RESTR.CAVITY>
0

>  <SCORE.RESTR.norm>
0

>  <SCORE.SYSTEM>
0

>  <SCORE.SYSTEM.CONST>
0

>  <SCORE.SYSTEM.DIHEDRAL>
0

>  <SCORE.SYSTEM.SOLV>
0

>  <SCORE.SYSTEM.norm>
0

>  <SCORE.heavy>
23

>  <SCORE.norm>
-0.434362

>  <RMSD>
4.038

$$$$
ligand
 OpenBabel11021811513D
libRbt.so/2013.1/901 2013/11/27
 23 24  0  0  0  0  0  0  0  0999 V2000
   -7.1640  -11.1469    1.9718 C   0  0  0  0  0  0  0  0  0  0  0  0
   -6.9345  -12.5210    2.3385 O   0  0  0  0  0  0  0  0  0  0  0  0
   -8.4417  -11.0603    1.1493 C   0  0  2  0  0  0  0  0  0  0  0  0
   -8.4288  -11.8245   -0.1657 C   0  0  1  0  0  0  0  0  0  0  0  0
   -8.6683  -13.2102    0.0889 O   0  0  0  0  0  0  0  0  0  0  0  0
   -9.5469  -11.1349   -0.9401 C   0  0  2  0  0  0  0  0  0  0  0  0
   -9.5534  -11.2333   -2.3693 O   0  0  0  0  0  0  0  0  0  0  0  0
   -9.3568   -9.6880   -0.5203 C   0  0  2  0  0  0  0  0  0  0  0  0
   -8.7415   -9.7099    0.7852 O   0  0  0  0  0  0  0  0  0  0  0  0
  -10.7430   -9.0188   -0.5059 C   0  0  0  0  0  0  0  0  0  0  0  0
  -11.6162   -9.5918    0.4773 O   0  0  0  0  0  0  0  0  0  0  0  0
   -8.1116   -7.6988   -1.0862 C   0  0  2  0  0  0  0  0  0  0  0  0
   -8.4321   -9.0594   -1.4240 O   0  0  0  0  0  0  0  0  0  0  0  0
   -7.3900   -7.0934   -2.2759 C   0  0  2  0  0  0  0  0  0  0  0  0
   -8.1304   -7.3755   -3.4685 O   0  0  0  0  0  0  0  0  0  0  0  0
   -6.0123   -7.7005   -2.4250 C   0  0  1  0  0  0  0  0  0  0  0  0
   -5.2808   -6.9391   -3.3888 O   0  0  0  0  0  0  0  0  0  0  0  0
   -5.2820   -7.7020   -1.0955 C   0  0  2  0  0  0  0  0  0  0  0  0
   -4.0745   -8.4369   -1.2417 O   0  0  0  0  0  0  0  0  0  0  0  0
   -6.1137   -8.3354    0.0117 C   0  0  2  0  0  0  0  0  0  0  0  0
   -7.3291   -7.6046    0.1039 O   0  0  0  0  0  0  0  0  0  0  0  0
   -5.3738   -8.3161    1.3545 C   0  0  0  0  0  0  0  0  0  0  0  0
   -4.9327   -7.0040    1.7332 O   0  0  0  0  0  0  0  0  0  0  0  0
  1  2  1  0  0  0  0
  3  1  1  6  0  0  0
  3  9  1  0  0  0  0
  3  4  1  0  0  0  0
  4  5  1  1  0  0  0
  4  6  1  0  0  0  0
  6  7  1  6  0  0  0
  6  8  1  0  0  0  0
  8  9  1  0  0  0  0
  8 10  1  1  0  0  0
  8 13  1  0  0  0  0
 10 11  1  0  0  0  0
 12 13  1  6  0  0  0
 12 14  1  0  0  0  0
 12 21  1  0  0  0  0
 14 15  1  6  0  0  0
 14 16  1  0  0  0  0
 16 17  1  6  0  0  0
 16 18  1  0  0  0  0
 18 19  1  6  0  0  0
 18 20  1  0  0  0  0
 20 21  1  0  0  0  0
 20 22  1  1  0  0  0
 22 23  1  0  0  0  0
M  END
>  <CHROM.1>
-61.95738800,64.21549571,-167.71949926,-176.75706433,54.23356810,-7.63040042
-9.28476070,-0.47096771,-2.33678065,-0.45225552,-0.83069651

>  <Name>
ligand

>  <RI>
0

>  <Rbt.Current_Directory>
/home/itssahil/PROJECTS/Mol_Feturizer/New_Systems/rnas/4TS2

>  <Rbt.Executable>
rbdock ($Id: //depot/dev/client3/rdock/2013.1/src/exe/rbdock.cxx#4 $)

>  <Rbt.Library>
libRbt.so (2013.1, Build901 2013/11/27)

>  <Rbt.Parameter_File>
/export/apps/rDock/src/rDock_2013.1_src/data/scripts/dock_solv.prm

>  <Rbt.Receptor>
prm/pocket_docking_5.prm

>  <SCORE>
-8.69718

>  <SCORE.INTER>
-1.7915

>  <SCORE.INTER.CONST>
1

>  <SCORE.INTER.POLAR>
0

>  <SCORE.INTER.ROT>
5

>  <SCORE.INTER.SOLV>
7.78913

>  <SCORE.INTER.VDW>
-10.724

>  <SCORE.INTER.norm>
-0.0778912

>  <SCORE.INTRA>
-6.90568

>  <SCORE.INTRA.DIHEDRAL>
-11.469

>  <SCORE.INTRA.DIHEDRAL.0>
12.4853

>  <SCORE.INTRA.POLAR>
0

>  <SCORE.INTRA.POLAR.0>
0

>  <SCORE.INTRA.REPUL>
0

>  <SCORE.INTRA.REPUL.0>
0

>  <SCORE.INTRA.SOLV>
0.359635

>  <SCORE.INTRA.SOLV.lig_0>
-31.1706

>  <SCORE.INTRA.VDW>
-1.35102

>  <SCORE.INTRA.VDW.0>
-1.16895

>  <SCORE.INTRA.norm>
-0.300247

>  <SCORE.RESTR>
0

>  <SCORE.RESTR.CAVITY>
0

>  <SCORE.RESTR.norm>
0

>  <SCORE.SYSTEM>
0

>  <SCORE.SYSTEM.CONST>
0

>  <SCORE.SYSTEM.DIHEDRAL>
0

>  <SCORE.SYSTEM.SOLV>
0

>  <SCORE.SYSTEM.norm>
0

>  <SCORE.heavy>
23

>  <SCORE.norm>
-0.378138

>  <RMSD>
4.123

$$$$
ligand
 OpenBabel11021811513D
libRbt.so/2013.1/901 2013/11/27
 23 24  0  0  0  0  0  0  0  0999 V2000
   -5.0292   -7.7569   -2.8897 C   0  0  0  0  0  0  0  0  0  0  0  0
   -5.1017   -6.5064   -3.6013 O   0  0  0  0  0  0  0  0  0  0  0  0
   -6.3788   -8.4551   -2.9758 C   0  0  2  0  0  0  0  0  0  0  0  0
   -7.5522   -7.6910   -2.3818 C   0  0  1  0  0  0  0  0  0  0  0  0
   -7.9897   -6.6971   -3.3106 O   0  0  0  0  0  0  0  0  0  0  0  0
   -8.5651   -8.8062   -2.1451 C   0  0  2  0  0  0  0  0  0  0  0  0
   -9.6066   -8.5944   -1.1847 O   0  0  0  0  0  0  0  0  0  0  0  0
   -7.6638   -9.9412   -1.6919 C   0  0  2  0  0  0  0  0  0  0  0  0
   -6.3681   -9.7064   -2.2829 O   0  0  0  0  0  0  0  0  0  0  0  0
   -8.2973  -11.2607   -2.1685 C   0  0  0  0  0  0  0  0  0  0  0  0
   -7.4465  -12.3915   -1.9336 O   0  0  0  0  0  0  0  0  0  0  0  0
   -6.5498  -10.7985    0.2706 C   0  0  2  0  0  0  0  0  0  0  0  0
   -7.5079   -9.8692   -0.2645 O   0  0  0  0  0  0  0  0  0  0  0  0
   -6.7518  -10.8442    1.7738 C   0  0  2  0  0  0  0  0  0  0  0  0
   -8.1450  -11.0160    2.0562 O   0  0  0  0  0  0  0  0  0  0  0  0
   -6.3017   -9.5467    2.4086 C   0  0  1  0  0  0  0  0  0  0  0  0
   -6.2750   -9.7189    3.8275 O   0  0  0  0  0  0  0  0  0  0  0  0
   -4.9267   -9.1532    1.9032 C   0  0  2  0  0  0  0  0  0  0  0  0
   -4.6224   -7.8506    2.3830 O   0  0  0  0  0  0  0  0  0  0  0  0
   -4.8583   -9.1467    0.3820 C   0  0  2  0  0  0  0  0  0  0  0  0
   -5.2074  -10.4493   -0.0666 O   0  0  0  0  0  0  0  0  0  0  0  0
   -3.4601   -8.7649   -0.1183 C   0  0  0  0  0  0  0  0  0  0  0  0
   -3.1036   -7.4099    0.1925 O   0  0  0  0  0  0  0  0  0  0  0  0
  1  2  1  0  0  0  0
  3  1  1  1  0  0  0
  3  9  1  0  0  0  0
  3  4  1  0  0  0  0
  4  5  1  6  0  0  0
  4  6  1  0  0  0  0
  6  7  1  1  0  0  0
  6  8  1  0  0  0  0
  8  9  1  0  0  0  0
  8 10  1  6  0  0  0
  8 13  1  0  0  0  0
 10 11  1  0  0  0  0
 12 13  1  6  0  0  0
 12 14  1  0  0  0  0
 12 21  1  0  0  0  0
 14 15  1  6  0  0  0
 14 16  1  0  0  0  0
 16 17  1  1  0  0  0
 16 18  1  0  0  0  0
 18 19  1  6  0  0  0
 18 20  1  0  0  0  0
 20 21  1  0  0  0  0
 20 22  1  1  0  0  0
 22 23  1  0  0  0  0
M  END
>  <CHROM.1>
-60.31164619,173.00474752,-166.10359784,-173.12903017,-66.22342358,-6.41741598
-9.21967064,-0.50815049,-1.89072241,0.60666851,2.03859506

>  <Name>
ligand

>  <RI>
0

>  <Rbt.Current_Directory>
/home/itssahil/PROJECTS/Mol_Feturizer/New_Systems/rnas/4TS2

>  <Rbt.Executable>
rbdock ($Id: //depot/dev/client3/rdock/2013.1/src/exe/rbdock.cxx#4 $)

>  <Rbt.Library>
libRbt.so (2013.1, Build901 2013/11/27)

>  <Rbt.Parameter_File>
/export/apps/rDock/src/rDock_2013.1_src/data/scripts/dock_solv.prm

>  <Rbt.Receptor>
prm/pocket_docking_3.prm

>  <SCORE>
-7.49403

>  <SCORE.INTER>
-0.84718

>  <SCORE.INTER.CONST>
1

>  <SCORE.INTER.POLAR>
0

>  <SCORE.INTER.ROT>
5

>  <SCORE.INTER.SOLV>
5.59821

>  <SCORE.INTER.VDW>
-9.36419

>  <SCORE.INTER.norm>
-0.0368339

>  <SCORE.INTRA>
-6.64685

>  <SCORE.INTRA.DIHEDRAL>
-11.1166

>  <SCORE.INTRA.DIHEDRAL.0>
12.4853

>  <SCORE.INTRA.POLAR>
0

>  <SCORE.INTRA.POLAR.0>
0

>  <SCORE.INTRA.REPUL>
0

>  <SCORE.INTRA.REPUL.0>
0

>  <SCORE.INTRA.SOLV>
0.657872

>  <SCORE.INTRA.SOLV.lig_0>
-31.1706

>  <SCORE.INTRA.VDW>
-1.41746

>  <SCORE.INTRA.VDW.0>
-1.16895

>  <SCORE.INTRA.norm>
-0.288993

>  <SCORE.RESTR>
0

>  <SCORE.RESTR.CAVITY>
0

>  <SCORE.RESTR.norm>
0

>  <SCORE.SYSTEM>
0

>  <SCORE.SYSTEM.CONST>
0

>  <SCORE.SYSTEM.DIHEDRAL>
0

>  <SCORE.SYSTEM.SOLV>
0

>  <SCORE.SYSTEM.norm>
0

>  <SCORE.heavy>
23

>  <SCORE.norm>
-0.325827

>  <RMSD>
4.280

$$$$
ligand
 OpenBabel11021811513D
libRbt.so/2013.1/901 2013/11/27
 23 24  0  0  0  0  0  0  0  0999 V2000
   -6.6291   -7.2793   -2.9501 C   0  0  0  0  0  0  0  0  0  0  0  0
   -6.8567   -7.7066   -4.3070 O   0  0  0  0  0  0  0  0  0  0  0  0
   -5.1732   -6.8623   -2.7995 C   0  0  2  0  0  0  0  0  0  0  0  0
   -4.1511   -7.9770   -2.9615 C   0  0  1  0  0  0  0  0  0  0  0  0
   -3.9490   -8.2365   -4.3522 O   0  0  0  0  0  0  0  0  0  0  0  0
   -2.9324   -7.3897   -2.2576 C   0  0  2  0  0  0  0  0  0  0  0  0
   -1.9188   -8.2830   -1.7812 O   0  0  0  0  0  0  0  0  0  0  0  0
   -3.5783   -6.6668   -1.0889 C   0  0  2  0  0  0  0  0  0  0  0  0
   -4.9151   -6.3142   -1.5037 O   0  0  0  0  0  0  0  0  0  0  0  0
   -2.7169   -5.4318   -0.7687 C   0  0  0  0  0  0  0  0  0  0  0  0
   -2.6496   -4.5127   -1.8680 O   0  0  0  0  0  0  0  0  0  0  0  0
   -4.3558   -7.0289    1.1677 C   0  0  2  0  0  0  0  0  0  0  0  0
   -3.6946   -7.5797    0.0156 O   0  0  0  0  0  0  0  0  0  0  0  0
   -3.8265   -7.7595    2.3877 C   0  0  2  0  0  0  0  0  0  0  0  0
   -2.3959   -7.7895    2.3342 O   0  0  0  0  0  0  0  0  0  0  0  0
   -4.3247   -9.1879    2.4075 C   0  0  1  0  0  0  0  0  0  0  0  0
   -4.0143   -9.7611    3.6798 O   0  0  0  0  0  0  0  0  0  0  0  0
   -5.8209   -9.2356    2.1629 C   0  0  2  0  0  0  0  0  0  0  0  0
   -6.2132  -10.5931    2.0121 O   0  0  0  0  0  0  0  0  0  0  0  0
   -6.2193   -8.4654    0.9111 C   0  0  2  0  0  0  0  0  0  0  0  0
   -5.7770   -7.1248    1.0760 O   0  0  0  0  0  0  0  0  0  0  0  0
   -7.7350   -8.5050    0.6827 C   0  0  0  0  0  0  0  0  0  0  0  0
   -8.1525   -7.7265   -0.4483 O   0  0  0  0  0  0  0  0  0  0  0  0
  1  2  1  0  0  0  0
  3  1  1  1  0  0  0
  3  9  1  0  0  0  0
  3  4  1  0  0  0  0
  4  5  1  6  0  0  0
  4  6  1  0  0  0  0
  6  7  1  1  0  0  0
  6  8  1  0  0  0  0
  8  9  1  0  0  0  0
  8 10  1  1  0  0  0
  8 13  1  0  0  0  0
 10 11  1  0  0  0  0
 12 13  1  6  0  0  0
 12 14  1  0  0  0  0
 12 21  1  0  0  0  0
 14 15  1  6  0  0  0
 14 16  1  0  0  0  0
 16 17  1  1  0  0  0
 16 18  1  0  0  0  0
 18 19  1  6  0  0  0
 18 20  1  0  0  0  0
 20 21  1  0  0  0  0
 20 22  1  1  0  0  0
 22 23  1  0  0  0  0
M  END
>  <CHROM.1>
-65.62525560,61.48065653,-152.57738710,-177.05916210,176.75628102,-4.69808896
-7.71803638,-0.37304860,1.47780209,-0.33880290,-1.25141778

>  <Name>
ligand

>  <RI>
0

>  <Rbt.Current_Directory>
/home/itssahil/PROJECTS/Mol_Feturizer/New_Systems/rnas/4TS2

>  <Rbt.Executable>
rbdock ($Id: //depot/dev/client3/rdock/2013.1/src/exe/rbdock.cxx#4 $)

>  <Rbt.Library>
libRbt.so (2013.1, Build901 2013/11/27)

>  <Rbt.Parameter_File>
/export/apps/rDock/src/rDock_2013.1_src/data/scripts/dock_solv.prm

>  <Rbt.Receptor>
prm/pocket_docking_6.prm

>  <SCORE>
-8.17136

>  <SCORE.INTER>
-2.33567

>  <SCORE.INTER.CONST>
1

>  <SCORE.INTER.POLAR>
0

>  <SCORE.INTER.ROT>
5

>  <SCORE.INTER.SOLV>
9.23249

>  <SCORE.INTER.VDW>
-11.5679

>  <SCORE.INTER.norm>
-0.101551

>  <SCORE.INTRA>
-5.83569

>  <SCORE.INTRA.DIHEDRAL>
-9.15047

>  <SCORE.INTRA.DIHEDRAL.0>
12.4853

>  <SCORE.INTRA.POLAR>
0

>  <SCORE.INTRA.POLAR.0>
0

>  <SCORE.INTRA.REPUL>
0

>  <SCORE.INTRA.REPUL.0>
0

>  <SCORE.INTRA.SOLV>
0.38294

>  <SCORE.INTRA.SOLV.lig_0>
-31.1706

>  <SCORE.INTRA.VDW>
-1.45192

>  <SCORE.INTRA.VDW.0>
-1.16895

>  <SCORE.INTRA.norm>
-0.253726

>  <SCORE.RESTR>
0

>  <SCORE.RESTR.CAVITY>
0

>  <SCORE.RESTR.norm>
0

>  <SCORE.SYSTEM>
0

>  <SCORE.SYSTEM.CONST>
0

>  <SCORE.SYSTEM.DIHEDRAL>
0

>  <SCORE.SYSTEM.SOLV>
0

>  <SCORE.SYSTEM.norm>
0

>  <SCORE.heavy>
23

>  <SCORE.norm>
-0.355276

>  <RMSD>
4.347

$$$$
ligand
 OpenBabel11021811513D
libRbt.so/2013.1/901 2013/11/27
 23 24  0  0  0  0  0  0  0  0999 V2000
   -6.5041   -7.8893   -3.1636 C   0  0  0  0  0  0  0  0  0  0  0  0
   -7.3994   -6.7674   -3.2870 O   0  0  0  0  0  0  0  0  0  0  0  0
   -5.1106   -7.3768   -2.8290 C   0  0  2  0  0  0  0  0  0  0  0  0
   -4.0152   -8.4313   -2.7901 C   0  0  1  0  0  0  0  0  0  0  0  0
   -3.6005   -8.7335   -4.1238 O   0  0  0  0  0  0  0  0  0  0  0  0
   -2.9455   -7.7414   -1.9502 C   0  0  2  0  0  0  0  0  0  0  0  0
   -1.9628   -8.5498   -1.2922 O   0  0  0  0  0  0  0  0  0  0  0  0
   -3.7926   -7.0136   -0.9214 C   0  0  2  0  0  0  0  0  0  0  0  0
   -5.0731   -6.7619   -1.5380 O   0  0  0  0  0  0  0  0  0  0  0  0
   -3.0567   -5.7154   -0.5431 C   0  0  0  0  0  0  0  0  0  0  0  0
   -1.7940   -5.9674    0.0889 O   0  0  0  0  0  0  0  0  0  0  0  0
   -4.7760   -7.2934    1.2654 C   0  0  2  0  0  0  0  0  0  0  0  0
   -4.0157   -7.8868    0.1987 O   0  0  0  0  0  0  0  0  0  0  0  0
   -4.5018   -8.0994    2.5214 C   0  0  2  0  0  0  0  0  0  0  0  0
   -3.0885   -8.2768    2.6675 O   0  0  0  0  0  0  0  0  0  0  0  0
   -5.1380   -9.4685    2.4220 C   0  0  1  0  0  0  0  0  0  0  0  0
   -5.0711  -10.0962    3.7046 O   0  0  0  0  0  0  0  0  0  0  0  0
   -6.5813   -9.3556    1.9691 C   0  0  2  0  0  0  0  0  0  0  0  0
   -7.0818  -10.6617    1.7181 O   0  0  0  0  0  0  0  0  0  0  0  0
   -6.7181   -8.5232    0.7013 C   0  0  2  0  0  0  0  0  0  0  0  0
   -6.1721   -7.2394    0.9726 O   0  0  0  0  0  0  0  0  0  0  0  0
   -8.1820   -8.4006    0.2621 C   0  0  0  0  0  0  0  0  0  0  0  0
   -8.3606   -7.5168   -0.8544 O   0  0  0  0  0  0  0  0  0  0  0  0
  1  2  1  0  0  0  0
  3  1  1  1  0  0  0
  3  9  1  0  0  0  0
  3  4  1  0  0  0  0
  4  5  1  6  0  0  0
  4  6  1  0  0  0  0
  6  7  1  1  0  0  0
  6  8  1  0  0  0  0
  8  9  1  0  0  0  0
  8 10  1  1  0  0  0
  8 13  1  0  0  0  0
 10 11  1  0  0  0  0
 12 13  1  6  0  0  0
 12 14  1  0  0  0  0
 12 21  1  0  0  0  0
 14 15  1  6  0  0  0
 14 16  1  0  0  0  0
 16 17  1  1  0  0  0
 16 18  1  0  0  0  0
 18 19  1  6  0  0  0
 18 20  1  0  0  0  0
 20 21  1  0  0  0  0
 20 22  1  1  0  0  0
 22 23  1  0  0  0  0
M  END
>  <CHROM.1>
-174.60854073,-63.53453205,-159.79356358,178.17827508,174.33752816,-4.99732516
-7.99193333,-0.21017889,1.32690023,-0.19803404,-1.29133257

>  <Name>
ligand

>  <RI>
0

>  <Rbt.Current_Directory>
/home/itssahil/PROJECTS/Mol_Feturizer/New_Systems/rnas/4TS2

>  <Rbt.Executable>
rbdock ($Id: //depot/dev/client3/rdock/2013.1/src/exe/rbdock.cxx#4 $)

>  <Rbt.Library>
libRbt.so (2013.1, Build901 2013/11/27)

>  <Rbt.Parameter_File>
/export/apps/rDock/src/rDock_2013.1_src/data/scripts/dock_solv.prm

>  <Rbt.Receptor>
prm/pocket_docking_8.prm

>  <SCORE>
-8.81418

>  <SCORE.INTER>
-2.46079

>  <SCORE.INTER.CONST>
1

>  <SCORE.INTER.POLAR>
0

>  <SCORE.INTER.ROT>
5

>  <SCORE.INTER.SOLV>
7.25033

>  <SCORE.INTER.VDW>
-10.9906

>  <SCORE.INTER.norm>
-0.106991

>  <SCORE.INTRA>
-6.35339

>  <SCORE.INTRA.DIHEDRAL>
-10.3119

>  <SCORE.INTRA.DIHEDRAL.0>
12.4853

>  <SCORE.INTRA.POLAR>
0

>  <SCORE.INTRA.POLAR.0>
0

>  <SCORE.INTRA.REPUL>
0

>  <SCORE.INTRA.REPUL.0>
0

>  <SCORE.INTRA.SOLV>
0.890217

>  <SCORE.INTRA.SOLV.lig_0>
-31.1706

>  <SCORE.INTRA.VDW>
-1.64255

>  <SCORE.INTRA.VDW.0>
-1.16895

>  <SCORE.INTRA.norm>
-0.276234

>  <SCORE.RESTR>
0

>  <SCORE.RESTR.CAVITY>
0

>  <SCORE.RESTR.norm>
0

>  <SCORE.SYSTEM>
0

>  <SCORE.SYSTEM.CONST>
0

>  <SCORE.SYSTEM.DIHEDRAL>
0

>  <SCORE.SYSTEM.SOLV>
0

>  <SCORE.SYSTEM.norm>
0

>  <SCORE.heavy>
23

>  <SCORE.norm>
-0.383225

>  <RMSD>
4.347

$$$$
ligand
 OpenBabel11021811513D
libRbt.so/2013.1/901 2013/11/27
 23 24  0  0  0  0  0  0  0  0999 V2000
   -7.4830   -6.8513   -2.9709 C   0  0  0  0  0  0  0  0  0  0  0  0
   -6.7204   -6.4332   -4.1194 O   0  0  0  0  0  0  0  0  0  0  0  0
   -7.6665   -8.3614   -3.0209 C   0  0  2  0  0  0  0  0  0  0  0  0
   -8.4772   -8.9621   -1.8827 C   0  0  1  0  0  0  0  0  0  0  0  0
   -9.8697   -8.7688   -2.1390 O   0  0  0  0  0  0  0  0  0  0  0  0
   -8.0372  -10.4217   -1.9207 C   0  0  2  0  0  0  0  0  0  0  0  0
   -8.2026  -11.2188   -0.7419 O   0  0  0  0  0  0  0  0  0  0  0  0
   -6.5616  -10.2835   -2.2512 C   0  0  2  0  0  0  0  0  0  0  0  0
   -6.4108   -9.0449   -2.9767 O   0  0  0  0  0  0  0  0  0  0  0  0
   -6.1527  -11.5089   -3.0883 C   0  0  0  0  0  0  0  0  0  0  0  0
   -6.2785  -12.7367   -2.3572 O   0  0  0  0  0  0  0  0  0  0  0  0
   -4.4010  -10.0169   -1.2078 C   0  0  2  0  0  0  0  0  0  0  0  0
   -5.8203  -10.1601   -1.0255 O   0  0  0  0  0  0  0  0  0  0  0  0
   -3.7483  -10.1973    0.1501 C   0  0  2  0  0  0  0  0  0  0  0  0
   -4.2711  -11.3772    0.7704 O   0  0  0  0  0  0  0  0  0  0  0  0
   -4.0581   -9.0195    1.0477 C   0  0  1  0  0  0  0  0  0  0  0  0
   -3.2341   -9.1054    2.2127 O   0  0  0  0  0  0  0  0  0  0  0  0
   -3.8033   -7.7124    0.3215 C   0  0  2  0  0  0  0  0  0  0  0  0
   -4.2736   -6.6438    1.1317 O   0  0  0  0  0  0  0  0  0  0  0  0
   -4.5130   -7.6598   -1.0247 C   0  0  2  0  0  0  0  0  0  0  0  0
   -4.0524   -8.7627   -1.7935 O   0  0  0  0  0  0  0  0  0  0  0  0
   -4.2349   -6.3423   -1.7581 C   0  0  0  0  0  0  0  0  0  0  0  0
   -2.8381   -6.1196   -2.0012 O   0  0  0  0  0  0  0  0  0  0  0  0
  1  2  1  0  0  0  0
  3  1  1  1  0  0  0
  3  9  1  0  0  0  0
  3  4  1  0  0  0  0
  4  5  1  6  0  0  0
  4  6  1  0  0  0  0
  6  7  1  1  0  0  0
  6  8  1  0  0  0  0
  8  9  1  0  0  0  0
  8 10  1  6  0  0  0
  8 13  1  0  0  0  0
 10 11  1  0  0  0  0
 12 13  1  1  0  0  0
 12 14  1  0  0  0  0
 12 21  1  0  0  0  0
 14 15  1  1  0  0  0
 14 16  1  0  0  0  0
 16 17  1  1  0  0  0
 16 18  1  0  0  0  0
 18 19  1  1  0  0  0
 18 20  1  0  0  0  0
 20 21  1  0  0  0  0
 20 22  1  6  0  0  0
 22 23  1  0  0  0  0
M  END
>  <CHROM.1>
-178.99384562,-63.73003995,-168.14362761,-179.78175683,58.87823445,-5.69354591
-9.02902304,-1.32675722,3.06914825,0.63435362,2.76350885

>  <Name>
ligand

>  <RI>
0

>  <Rbt.Current_Directory>
/home/itssahil/PROJECTS/Mol_Feturizer/New_Systems/rnas/4TS2

>  <Rbt.Executable>
rbdock ($Id: //depot/dev/client3/rdock/2013.1/src/exe/rbdock.cxx#4 $)

>  <Rbt.Library>
libRbt.so (2013.1, Build901 2013/11/27)

>  <Rbt.Parameter_File>
/export/apps/rDock/src/rDock_2013.1_src/data/scripts/dock_solv.prm

>  <Rbt.Receptor>
prm/pocket_docking_4.prm

>  <SCORE>
-8.42114

>  <SCORE.INTER>
-1.16957

>  <SCORE.INTER.CONST>
1

>  <SCORE.INTER.POLAR>
0

>  <SCORE.INTER.ROT>
5

>  <SCORE.INTER.SOLV>
5.46234

>  <SCORE.INTER.VDW>
-9.53383

>  <SCORE.INTER.norm>
-0.050851

>  <SCORE.INTRA>
-7.25157

>  <SCORE.INTRA.DIHEDRAL>
-11.7179

>  <SCORE.INTRA.DIHEDRAL.0>
12.4853

>  <SCORE.INTRA.POLAR>
0

>  <SCORE.INTRA.POLAR.0>
0

>  <SCORE.INTRA.REPUL>
0

>  <SCORE.INTRA.REPUL.0>
0

>  <SCORE.INTRA.SOLV>
0.47234

>  <SCORE.INTRA.SOLV.lig_0>
-31.1706

>  <SCORE.INTRA.VDW>
-1.62879

>  <SCORE.INTRA.VDW.0>
-1.16895

>  <SCORE.INTRA.norm>
-0.315286

>  <SCORE.RESTR>
0

>  <SCORE.RESTR.CAVITY>
0

>  <SCORE.RESTR.norm>
0

>  <SCORE.SYSTEM>
0

>  <SCORE.SYSTEM.CONST>
0

>  <SCORE.SYSTEM.DIHEDRAL>
0

>  <SCORE.SYSTEM.SOLV>
0

>  <SCORE.SYSTEM.norm>
0

>  <SCORE.heavy>
23

>  <SCORE.norm>
-0.366136

>  <RMSD>
4.370

$$$$
ligand
 OpenBabel11021811513D
libRbt.so/2013.1/901 2013/11/27
 23 24  0  0  0  0  0  0  0  0999 V2000
   -6.7038   -7.6471   -2.9954 C   0  0  0  0  0  0  0  0  0  0  0  0
   -7.4227   -6.3993   -2.9537 O   0  0  0  0  0  0  0  0  0  0  0  0
   -5.3791   -7.4804   -2.2648 C   0  0  2  0  0  0  0  0  0  0  0  0
   -4.4758   -8.7041   -2.2560 C   0  0  1  0  0  0  0  0  0  0  0  0
   -3.7917   -8.7972   -3.5072 O   0  0  0  0  0  0  0  0  0  0  0  0
   -3.5621   -8.4109   -1.0709 C   0  0  2  0  0  0  0  0  0  0  0  0
   -2.8858   -9.5044   -0.4391 O   0  0  0  0  0  0  0  0  0  0  0  0
   -4.5308   -7.7663   -0.0952 C   0  0  2  0  0  0  0  0  0  0  0  0
   -5.5771   -7.1614   -0.8845 O   0  0  0  0  0  0  0  0  0  0  0  0
   -3.7446   -6.7321    0.7306 C   0  0  0  0  0  0  0  0  0  0  0  0
   -3.2003   -5.6832   -0.0826 O   0  0  0  0  0  0  0  0  0  0  0  0
   -6.1788   -8.3247    1.5781 C   0  0  2  0  0  0  0  0  0  0  0  0
   -5.1343   -8.7943    0.7083 O   0  0  0  0  0  0  0  0  0  0  0  0
   -6.4419   -9.4139    2.6012 C   0  0  2  0  0  0  0  0  0  0  0  0
   -5.1957   -9.8495    3.1557 O   0  0  0  0  0  0  0  0  0  0  0  0
   -7.1061  -10.6057    1.9475 C   0  0  1  0  0  0  0  0  0  0  0  0
   -7.5572  -11.4947    2.9721 O   0  0  0  0  0  0  0  0  0  0  0  0
   -8.2743  -10.1618    1.0879 C   0  0  2  0  0  0  0  0  0  0  0  0
   -8.7527  -11.2832    0.3578 O   0  0  0  0  0  0  0  0  0  0  0  0
   -7.8772   -9.0673    0.1064 C   0  0  2  0  0  0  0  0  0  0  0  0
   -7.3657   -7.9793    0.8643 O   0  0  0  0  0  0  0  0  0  0  0  0
   -9.0688   -8.6136   -0.7451 C   0  0  0  0  0  0  0  0  0  0  0  0
   -9.5589   -9.6422   -1.6177 O   0  0  0  0  0  0  0  0  0  0  0  0
  1  2  1  0  0  0  0
  3  1  1  1  0  0  0
  3  9  1  0  0  0  0
  3  4  1  0  0  0  0
  4  5  1  6  0  0  0
  4  6  1  0  0  0  0
  6  7  1  1  0  0  0
  6  8  1  0  0  0  0
  8  9  1  0  0  0  0
  8 10  1  1  0  0  0
  8 13  1  0  0  0  0
 10 11  1  0  0  0  0
 12 13  1  6  0  0  0
 12 14  1  0  0  0  0
 12 21  1  0  0  0  0
 14 15  1  6  0  0  0
 14 16  1  0  0  0  0
 16 17  1  1  0  0  0
 16 18  1  0  0  0  0
 18 19  1  6  0  0  0
 18 20  1  0  0  0  0
 20 21  1  0  0  0  0
 20 22  1  1  0  0  0
 22 23  1  0  0  0  0
M  END
>  <CHROM.1>
-178.15949806,62.13542287,-164.89889179,-173.75201774,-65.40775097,-6.08248952
-8.67864653,-0.13065917,0.82552919,-0.33023271,-1.12723456

>  <Name>
ligand

>  <RI>
0

>  <Rbt.Current_Directory>
/home/itssahil/PROJECTS/Mol_Feturizer/New_Systems/rnas/4TS2

>  <Rbt.Executable>
rbdock ($Id: //depot/dev/client3/rdock/2013.1/src/exe/rbdock.cxx#4 $)

>  <Rbt.Library>
libRbt.so (2013.1, Build901 2013/11/27)

>  <Rbt.Parameter_File>
/export/apps/rDock/src/rDock_2013.1_src/data/scripts/dock_solv.prm

>  <Rbt.Receptor>
prm/pocket_docking_5.prm

>  <SCORE>
-8.69922

>  <SCORE.INTER>
-1.80181

>  <SCORE.INTER.CONST>
1

>  <SCORE.INTER.POLAR>
0

>  <SCORE.INTER.ROT>
5

>  <SCORE.INTER.SOLV>
6.50273

>  <SCORE.INTER.VDW>
-10.3021

>  <SCORE.INTER.norm>
-0.0783397

>  <SCORE.INTRA>
-6.89741

>  <SCORE.INTRA.DIHEDRAL>
-11.103

>  <SCORE.INTRA.DIHEDRAL.0>
12.4853

>  <SCORE.INTRA.POLAR>
0

>  <SCORE.INTRA.POLAR.0>
0

>  <SCORE.INTRA.REPUL>
0

>  <SCORE.INTRA.REPUL.0>
0

>  <SCORE.INTRA.SOLV>
0.435554

>  <SCORE.INTRA.SOLV.lig_0>
-31.1706

>  <SCORE.INTRA.VDW>
-1.56369

>  <SCORE.INTRA.VDW.0>
-1.16895

>  <SCORE.INTRA.norm>
-0.299887

>  <SCORE.RESTR>
0

>  <SCORE.RESTR.CAVITY>
0

>  <SCORE.RESTR.norm>
0

>  <SCORE.SYSTEM>
0

>  <SCORE.SYSTEM.CONST>
0

>  <SCORE.SYSTEM.DIHEDRAL>
0

>  <SCORE.SYSTEM.SOLV>
0

>  <SCORE.SYSTEM.norm>
0

>  <SCORE.heavy>
23

>  <SCORE.norm>
-0.378227

>  <RMSD>
4.370

$$$$
ligand
 OpenBabel11021811513D
libRbt.so/2013.1/901 2013/11/27
 23 24  0  0  0  0  0  0  0  0999 V2000
   -4.8222   -7.0867   -3.0971 C   0  0  0  0  0  0  0  0  0  0  0  0
   -4.9525   -5.9147   -3.9248 O   0  0  0  0  0  0  0  0  0  0  0  0
   -6.1070   -7.8982   -3.1815 C   0  0  2  0  0  0  0  0  0  0  0  0
   -7.3330   -7.2534   -2.5534 C   0  0  1  0  0  0  0  0  0  0  0  0
   -7.8701   -6.2808   -3.4522 O   0  0  0  0  0  0  0  0  0  0  0  0
   -8.2410   -8.4580   -2.3297 C   0  0  2  0  0  0  0  0  0  0  0  0
   -9.2818   -8.3600   -1.3503 O   0  0  0  0  0  0  0  0  0  0  0  0
   -7.2371   -9.5197   -1.9160 C   0  0  2  0  0  0  0  0  0  0  0  0
   -5.9762   -9.1591   -2.5189 O   0  0  0  0  0  0  0  0  0  0  0  0
   -7.7605  -10.8785   -2.4153 C   0  0  0  0  0  0  0  0  0  0  0  0
   -9.0112  -11.2376   -1.8117 O   0  0  0  0  0  0  0  0  0  0  0  0
   -6.0447  -10.3454    0.0138 C   0  0  2  0  0  0  0  0  0  0  0  0
   -7.0657   -9.4666   -0.4896 O   0  0  0  0  0  0  0  0  0  0  0  0
   -6.2306  -10.4439    1.5165 C   0  0  2  0  0  0  0  0  0  0  0  0
   -7.6072  -10.7137    1.8035 O   0  0  0  0  0  0  0  0  0  0  0  0
   -5.8603   -9.1373    2.1831 C   0  0  1  0  0  0  0  0  0  0  0  0
   -5.8105   -9.3449    3.5966 O   0  0  0  0  0  0  0  0  0  0  0  0
   -4.5182   -8.6416    1.6792 C   0  0  2  0  0  0  0  0  0  0  0  0
   -4.2951   -7.3352    2.1920 O   0  0  0  0  0  0  0  0  0  0  0  0
   -4.4632   -8.5904    0.1583 C   0  0  2  0  0  0  0  0  0  0  0  0
   -4.7308   -9.9006   -0.3229 O   0  0  0  0  0  0  0  0  0  0  0  0
   -3.0971   -8.1051   -0.3409 C   0  0  0  0  0  0  0  0  0  0  0  0
   -2.0147   -8.9501    0.0764 O   0  0  0  0  0  0  0  0  0  0  0  0
  1  2  1  0  0  0  0
  3  1  1  1  0  0  0
  3  9  1  0  0  0  0
  3  4  1  0  0  0  0
  4  5  1  6  0  0  0
  4  6  1  0  0  0  0
  6  7  1  1  0  0  0
  6  8  1  0  0  0  0
  8  9  1  0  0  0  0
  8 10  1  6  0  0  0
  8 13  1  0  0  0  0
 10 11  1  0  0  0  0
 12 13  1  1  0  0  0
 12 14  1  0  0  0  0
 12 21  1  0  0  0  0
 14 15  1  6  0  0  0
 14 16  1  0  0  0  0
 16 17  1  1  0  0  0
 16 18  1  0  0  0  0
 18 19  1  1  0  0  0
 18 20  1  0  0  0  0
 20 21  1  0  0  0  0
 20 22  1  1  0  0  0
 22 23  1  0  0  0  0
M  END
>  <CHROM.1>
-67.89058657,-62.80596849,-165.56342098,-174.61855853,60.08507473,-6.10338855
-8.81983365,-0.70929045,-2.06609738,0.45195596,2.06617469

>  <Name>
ligand

>  <RI>
0

>  <Rbt.Current_Directory>
/home/itssahil/PROJECTS/Mol_Feturizer/New_Systems/rnas/4TS2

>  <Rbt.Executable>
rbdock ($Id: //depot/dev/client3/rdock/2013.1/src/exe/rbdock.cxx#4 $)

>  <Rbt.Library>
libRbt.so (2013.1, Build901 2013/11/27)

>  <Rbt.Parameter_File>
/export/apps/rDock/src/rDock_2013.1_src/data/scripts/dock_solv.prm

>  <Rbt.Receptor>
prm/pocket_docking_4.prm

>  <SCORE>
-8.47467

>  <SCORE.INTER>
-1.58632

>  <SCORE.INTER.CONST>
1

>  <SCORE.INTER.POLAR>
0

>  <SCORE.INTER.ROT>
5

>  <SCORE.INTER.SOLV>
6.353

>  <SCORE.INTER.VDW>
-10.1085

>  <SCORE.INTER.norm>
-0.0689705

>  <SCORE.INTRA>
-6.88835

>  <SCORE.INTRA.DIHEDRAL>
-11.1442

>  <SCORE.INTRA.DIHEDRAL.0>
12.4853

>  <SCORE.INTRA.POLAR>
0

>  <SCORE.INTRA.POLAR.0>
0

>  <SCORE.INTRA.REPUL>
0

>  <SCORE.INTRA.REPUL.0>
0

>  <SCORE.INTRA.SOLV>
0.514243

>  <SCORE.INTRA.SOLV.lig_0>
-31.1706

>  <SCORE.INTRA.VDW>
-1.57335

>  <SCORE.INTRA.VDW.0>
-1.16895

>  <SCORE.INTRA.norm>
-0.299493

>  <SCORE.RESTR>
0

>  <SCORE.RESTR.CAVITY>
0

>  <SCORE.RESTR.norm>
0

>  <SCORE.SYSTEM>
0

>  <SCORE.SYSTEM.CONST>
0

>  <SCORE.SYSTEM.DIHEDRAL>
0

>  <SCORE.SYSTEM.SOLV>
0

>  <SCORE.SYSTEM.norm>
0

>  <SCORE.heavy>
23

>  <SCORE.norm>
-0.368464

>  <RMSD>
4.377

$$$$
ligand
 OpenBabel11021811513D
libRbt.so/2013.1/901 2013/11/27
 23 24  0  0  0  0  0  0  0  0999 V2000
   -6.7354   -8.3334   -2.8382 C   0  0  0  0  0  0  0  0  0  0  0  0
   -7.5014   -7.1184   -2.9515 O   0  0  0  0  0  0  0  0  0  0  0  0
   -5.4883   -8.0575   -2.0106 C   0  0  2  0  0  0  0  0  0  0  0  0
   -4.5351   -9.2316   -1.8486 C   0  0  1  0  0  0  0  0  0  0  0  0
   -3.7410   -9.3640   -3.0293 O   0  0  0  0  0  0  0  0  0  0  0  0
   -3.7422   -8.8235   -0.6116 C   0  0  2  0  0  0  0  0  0  0  0  0
   -3.0750   -9.8425    0.1427 O   0  0  0  0  0  0  0  0  0  0  0  0
   -4.8202   -8.1718    0.2364 C   0  0  2  0  0  0  0  0  0  0  0  0
   -5.8199   -7.6679   -0.6748 O   0  0  0  0  0  0  0  0  0  0  0  0
   -4.1562   -7.0525    1.0585 C   0  0  0  0  0  0  0  0  0  0  0  0
   -3.1774   -7.5569    1.9778 O   0  0  0  0  0  0  0  0  0  0  0  0
   -6.5258   -8.6931    1.8633 C   0  0  2  0  0  0  0  0  0  0  0  0
   -5.4446   -9.1797    1.0496 O   0  0  0  0  0  0  0  0  0  0  0  0
   -6.9008   -9.8008    2.8301 C   0  0  2  0  0  0  0  0  0  0  0  0
   -5.7134  -10.3052    3.4511 O   0  0  0  0  0  0  0  0  0  0  0  0
   -7.5665  -10.9431    2.0947 C   0  0  1  0  0  0  0  0  0  0  0  0
   -8.1210  -11.8430    3.0571 O   0  0  0  0  0  0  0  0  0  0  0  0
   -8.6553  -10.4244    1.1748 C   0  0  2  0  0  0  0  0  0  0  0  0
   -9.1277  -11.5020    0.3778 O   0  0  0  0  0  0  0  0  0  0  0  0
   -8.1493   -9.3184    0.2586 C   0  0  2  0  0  0  0  0  0  0  0  0
   -7.6471   -8.2764    1.0843 O   0  0  0  0  0  0  0  0  0  0  0  0
   -9.2616   -8.7891   -0.6545 C   0  0  0  0  0  0  0  0  0  0  0  0
   -9.7216   -9.7643   -1.6016 O   0  0  0  0  0  0  0  0  0  0  0  0
  1  2  1  0  0  0  0
  3  1  1  6  0  0  0
  3  9  1  0  0  0  0
  3  4  1  0  0  0  0
  4  5  1  6  0  0  0
  4  6  1  0  0  0  0
  6  7  1  1  0  0  0
  6  8  1  0  0  0  0
  8  9  1  0  0  0  0
  8 10  1  1  0  0  0
  8 13  1  0  0  0  0
 10 11  1  0  0  0  0
 12 13  1  6  0  0  0
 12 14  1  0  0  0  0
 12 21  1  0  0  0  0
 14 15  1  6  0  0  0
 14 16  1  0  0  0  0
 16 17  1  1  0  0  0
 16 18  1  0  0  0  0
 18 19  1  6  0  0  0
 18 20  1  0  0  0  0
 20 21  1  0  0  0  0
 20 22  1  1  0  0  0
 22 23  1  0  0  0  0
M  END
>  <CHROM.1>
-177.37723649,-63.47612864,-169.87602264,-177.61749823,-66.08927002,-6.33467774
-9.14365510,0.19044298,0.67836006,-0.29142718,-1.22416253

>  <Name>
ligand

>  <RI>
0

>  <Rbt.Current_Directory>
/home/itssahil/PROJECTS/Mol_Feturizer/New_Systems/rnas/4TS2

>  <Rbt.Executable>
rbdock ($Id: //depot/dev/client3/rdock/2013.1/src/exe/rbdock.cxx#4 $)

>  <Rbt.Library>
libRbt.so (2013.1, Build901 2013/11/27)

>  <Rbt.Parameter_File>
/export/apps/rDock/src/rDock_2013.1_src/data/scripts/dock_solv.prm

>  <Rbt.Receptor>
prm/pocket_docking_3.prm

>  <SCORE>
-8.08537

>  <SCORE.INTER>
-1.01933

>  <SCORE.INTER.CONST>
1

>  <SCORE.INTER.POLAR>
0

>  <SCORE.INTER.ROT>
5

>  <SCORE.INTER.SOLV>
5.427

>  <SCORE.INTER.VDW>
-9.42189

>  <SCORE.INTER.norm>
-0.0443188

>  <SCORE.INTRA>
-7.06604

>  <SCORE.INTRA.DIHEDRAL>
-11.752

>  <SCORE.INTRA.DIHEDRAL.0>
12.4853

>  <SCORE.INTRA.POLAR>
0

>  <SCORE.INTRA.POLAR.0>
0

>  <SCORE.INTRA.REPUL>
0

>  <SCORE.INTRA.REPUL.0>
0

>  <SCORE.INTRA.SOLV>
0.795359

>  <SCORE.INTRA.SOLV.lig_0>
-31.1706

>  <SCORE.INTRA.VDW>
-1.58774

>  <SCORE.INTRA.VDW.0>
-1.16895

>  <SCORE.INTRA.norm>
-0.307219

>  <SCORE.RESTR>
0

>  <SCORE.RESTR.CAVITY>
0

>  <SCORE.RESTR.norm>
0

>  <SCORE.SYSTEM>
0

>  <SCORE.SYSTEM.CONST>
0

>  <SCORE.SYSTEM.DIHEDRAL>
0

>  <SCORE.SYSTEM.SOLV>
0

>  <SCORE.SYSTEM.norm>
0

>  <SCORE.heavy>
23

>  <SCORE.norm>
-0.351538

>  <RMSD>
4.431

$$$$
ligand
 OpenBabel11021811513D
libRbt.so/2013.1/901 2013/11/27
 23 24  0  0  0  0  0  0  0  0999 V2000
   -6.4936   -7.2215   -3.0024 C   0  0  0  0  0  0  0  0  0  0  0  0
   -6.5464   -7.5545   -4.4030 O   0  0  0  0  0  0  0  0  0  0  0  0
   -5.0378   -7.0830   -2.5805 C   0  0  2  0  0  0  0  0  0  0  0  0
   -4.2049   -8.3525   -2.6701 C   0  0  1  0  0  0  0  0  0  0  0  0
   -3.8078   -8.5642   -4.0265 O   0  0  0  0  0  0  0  0  0  0  0  0
   -3.0481   -8.0357   -1.7283 C   0  0  2  0  0  0  0  0  0  0  0  0
   -2.2985   -9.1228   -1.1727 O   0  0  0  0  0  0  0  0  0  0  0  0
   -3.7590   -7.2763   -0.6221 C   0  0  2  0  0  0  0  0  0  0  0  0
   -4.9235   -6.6654   -1.2172 O   0  0  0  0  0  0  0  0  0  0  0  0
   -2.7726   -6.2371   -0.0593 C   0  0  0  0  0  0  0  0  0  0  0  0
   -3.3574   -5.4322    0.9740 O   0  0  0  0  0  0  0  0  0  0  0  0
   -5.0707   -7.6409    1.3714 C   0  0  2  0  0  0  0  0  0  0  0  0
   -4.2192   -8.2150    0.3647 O   0  0  0  0  0  0  0  0  0  0  0  0
   -5.1444   -8.6285    2.5210 C   0  0  2  0  0  0  0  0  0  0  0  0
   -3.8199   -9.0503    2.8646 O   0  0  0  0  0  0  0  0  0  0  0  0
   -5.9363   -9.8529    2.1178 C   0  0  1  0  0  0  0  0  0  0  0  0
   -6.1918  -10.6355    3.2865 O   0  0  0  0  0  0  0  0  0  0  0  0
   -7.2431   -9.4518    1.4604 C   0  0  2  0  0  0  0  0  0  0  0  0
   -7.8665  -10.6182    0.9406 O   0  0  0  0  0  0  0  0  0  0  0  0
   -7.0298   -8.4593    0.3254 C   0  0  2  0  0  0  0  0  0  0  0  0
   -6.3688   -7.3247    0.8690 O   0  0  0  0  0  0  0  0  0  0  0  0
   -8.3578   -8.0470   -0.3206 C   0  0  0  0  0  0  0  0  0  0  0  0
   -9.0000   -9.1236   -1.0193 O   0  0  0  0  0  0  0  0  0  0  0  0
  1  2  1  0  0  0  0
  3  1  1  1  0  0  0
  3  9  1  0  0  0  0
  3  4  1  0  0  0  0
  4  5  1  6  0  0  0
  4  6  1  0  0  0  0
  6  7  1  1  0  0  0
  6  8  1  0  0  0  0
  8  9  1  0  0  0  0
  8 10  1  1  0  0  0
  8 13  1  0  0  0  0
 10 11  1  0  0  0  0
 12 13  1  6  0  0  0
 12 14  1  0  0  0  0
 12 21  1  0  0  0  0
 14 15  1  6  0  0  0
 14 16  1  0  0  0  0
 16 17  1  1  0  0  0
 16 18  1  0  0  0  0
 18 19  1  6  0  0  0
 18 20  1  0  0  0  0
 20 21  1  0  0  0  0
 20 22  1  1  0  0  0
 22 23  1  0  0  0  0
M  END
>  <CHROM.1>
-64.24399378,178.34707297,-164.30080789,-171.76572318,-67.12661254,-5.33402187
-8.21194989,-0.25402234,1.17793141,-0.34260545,-1.32103544

>  <Name>
ligand

>  <RI>
0

>  <Rbt.Current_Directory>
/home/itssahil/PROJECTS/Mol_Feturizer/New_Systems/rnas/4TS2

>  <Rbt.Executable>
rbdock ($Id: //depot/dev/client3/rdock/2013.1/src/exe/rbdock.cxx#4 $)

>  <Rbt.Library>
libRbt.so (2013.1, Build901 2013/11/27)

>  <Rbt.Parameter_File>
/export/apps/rDock/src/rDock_2013.1_src/data/scripts/dock_solv.prm

>  <Rbt.Receptor>
prm/pocket_docking_5.prm

>  <SCORE>
-8.39651

>  <SCORE.INTER>
-1.86219

>  <SCORE.INTER.CONST>
1

>  <SCORE.INTER.POLAR>
0

>  <SCORE.INTER.ROT>
5

>  <SCORE.INTER.SOLV>
7.53363

>  <SCORE.INTER.VDW>
-10.686

>  <SCORE.INTER.norm>
-0.0809647

>  <SCORE.INTRA>
-6.53432

>  <SCORE.INTRA.DIHEDRAL>
-10.8141

>  <SCORE.INTRA.DIHEDRAL.0>
12.4853

>  <SCORE.INTRA.POLAR>
0

>  <SCORE.INTRA.POLAR.0>
0

>  <SCORE.INTRA.REPUL>
0

>  <SCORE.INTRA.REPUL.0>
0

>  <SCORE.INTRA.SOLV>
0.647892

>  <SCORE.INTRA.SOLV.lig_0>
-31.1706

>  <SCORE.INTRA.VDW>
-1.4512

>  <SCORE.INTRA.VDW.0>
-1.16895

>  <SCORE.INTRA.norm>
-0.284101

>  <SCORE.RESTR>
0

>  <SCORE.RESTR.CAVITY>
0

>  <SCORE.RESTR.norm>
0

>  <SCORE.SYSTEM>
0

>  <SCORE.SYSTEM.CONST>
0

>  <SCORE.SYSTEM.DIHEDRAL>
0

>  <SCORE.SYSTEM.SOLV>
0

>  <SCORE.SYSTEM.norm>
0

>  <SCORE.heavy>
23

>  <SCORE.norm>
-0.365066

>  <RMSD>
4.440

$$$$
ligand
 OpenBabel11021811513D
libRbt.so/2013.1/901 2013/11/27
 23 24  0  0  0  0  0  0  0  0999 V2000
   -6.6370   -7.3752   -3.1406 C   0  0  0  0  0  0  0  0  0  0  0  0
   -6.6927   -7.6011   -4.5623 O   0  0  0  0  0  0  0  0  0  0  0  0
   -5.2252   -6.9520   -2.7611 C   0  0  2  0  0  0  0  0  0  0  0  0
   -4.1622   -8.0338   -2.8768 C   0  0  1  0  0  0  0  0  0  0  0  0
   -3.7706   -8.1692   -4.2445 O   0  0  0  0  0  0  0  0  0  0  0  0
   -3.0634   -7.4923   -1.9687 C   0  0  2  0  0  0  0  0  0  0  0  0
   -2.0994   -8.4087   -1.4367 O   0  0  0  0  0  0  0  0  0  0  0  0
   -3.8772   -6.8823   -0.8411 C   0  0  2  0  0  0  0  0  0  0  0  0
   -5.1557   -6.5143   -1.4011 O   0  0  0  0  0  0  0  0  0  0  0  0
   -3.0981   -5.6674   -0.3056 C   0  0  0  0  0  0  0  0  0  0  0  0
   -1.8452   -6.0392    0.2856 O   0  0  0  0  0  0  0  0  0  0  0  0
   -4.8817   -7.4302    1.2846 C   0  0  2  0  0  0  0  0  0  0  0  0
   -4.1157   -7.8889    0.1573 O   0  0  0  0  0  0  0  0  0  0  0  0
   -4.6162   -8.3855    2.4332 C   0  0  2  0  0  0  0  0  0  0  0  0
   -3.2040   -8.5822    2.5645 O   0  0  0  0  0  0  0  0  0  0  0  0
   -5.2534   -9.7306    2.1619 C   0  0  1  0  0  0  0  0  0  0  0  0
   -5.1950  -10.5118    3.3576 O   0  0  0  0  0  0  0  0  0  0  0  0
   -6.6937   -9.5599    1.7179 C   0  0  2  0  0  0  0  0  0  0  0  0
   -7.1943  -10.8241    1.3048 O   0  0  0  0  0  0  0  0  0  0  0  0
   -6.8218   -8.5772    0.5617 C   0  0  2  0  0  0  0  0  0  0  0  0
   -6.2759   -7.3378    0.9925 O   0  0  0  0  0  0  0  0  0  0  0  0
   -8.2829   -8.3986    0.1323 C   0  0  0  0  0  0  0  0  0  0  0  0
   -8.4520   -7.3928   -0.8774 O   0  0  0  0  0  0  0  0  0  0  0  0
  1  2  1  0  0  0  0
  3  1  1  1  0  0  0
  3  9  1  0  0  0  0
  3  4  1  0  0  0  0
  4  5  1  6  0  0  0
  4  6  1  0  0  0  0
  6  7  1  1  0  0  0
  6  8  1  0  0  0  0
  8  9  1  0  0  0  0
  8 10  1  1  0  0  0
  8 13  1  0  0  0  0
 10 11  1  0  0  0  0
 12 13  1  6  0  0  0
 12 14  1  0  0  0  0
 12 21  1  0  0  0  0
 14 15  1  6  0  0  0
 14 16  1  0  0  0  0
 16 17  1  1  0  0  0
 16 18  1  0  0  0  0
 18 19  1  6  0  0  0
 18 20  1  0  0  0  0
 20 21  1  0  0  0  0
 20 22  1  1  0  0  0
 22 23  1  0  0  0  0
M  END
>  <CHROM.1>
-69.40190710,-64.29839959,-159.40938459,179.98282836,174.92723358,-5.06641201
-7.99744367,-0.33252914,1.37164275,-0.27705302,-1.24812635

>  <Name>
ligand

>  <RI>
0

>  <Rbt.Current_Directory>
/home/itssahil/PROJECTS/Mol_Feturizer/New_Systems/rnas/4TS2

>  <Rbt.Executable>
rbdock ($Id: //depot/dev/client3/rdock/2013.1/src/exe/rbdock.cxx#4 $)

>  <Rbt.Library>
libRbt.so (2013.1, Build901 2013/11/27)

>  <Rbt.Parameter_File>
/export/apps/rDock/src/rDock_2013.1_src/data/scripts/dock_solv.prm

>  <Rbt.Receptor>
prm/pocket_docking_5.prm

>  <SCORE>
-8.01231

>  <SCORE.INTER>
-1.82071

>  <SCORE.INTER.CONST>
1

>  <SCORE.INTER.POLAR>
0

>  <SCORE.INTER.ROT>
5

>  <SCORE.INTER.SOLV>
8.08105

>  <SCORE.INTER.VDW>
-10.8408

>  <SCORE.INTER.norm>
-0.0791615

>  <SCORE.INTRA>
-6.19159

>  <SCORE.INTRA.DIHEDRAL>
-10.0878

>  <SCORE.INTRA.DIHEDRAL.0>
12.4853

>  <SCORE.INTRA.POLAR>
0

>  <SCORE.INTRA.POLAR.0>
0

>  <SCORE.INTRA.REPUL>
0

>  <SCORE.INTRA.REPUL.0>
0

>  <SCORE.INTRA.SOLV>
0.752463

>  <SCORE.INTRA.SOLV.lig_0>
-31.1706

>  <SCORE.INTRA.VDW>
-1.52394

>  <SCORE.INTRA.VDW.0>
-1.16895

>  <SCORE.INTRA.norm>
-0.2692

>  <SCORE.RESTR>
0

>  <SCORE.RESTR.CAVITY>
0

>  <SCORE.RESTR.norm>
0

>  <SCORE.SYSTEM>
0

>  <SCORE.SYSTEM.CONST>
0

>  <SCORE.SYSTEM.DIHEDRAL>
0

>  <SCORE.SYSTEM.SOLV>
0

>  <SCORE.SYSTEM.norm>
0

>  <SCORE.heavy>
23

>  <SCORE.norm>
-0.348361

>  <RMSD>
4.452

$$$$
ligand
 OpenBabel11021811513D
libRbt.so/2013.1/901 2013/11/27
 23 24  0  0  0  0  0  0  0  0999 V2000
   -4.6483   -6.4998   -2.6671 C   0  0  0  0  0  0  0  0  0  0  0  0
   -3.4120   -7.1043   -3.0933 O   0  0  0  0  0  0  0  0  0  0  0  0
   -5.8036   -7.4168   -3.0428 C   0  0  2  0  0  0  0  0  0  0  0  0
   -7.1791   -6.9637   -2.5779 C   0  0  1  0  0  0  0  0  0  0  0  0
   -7.6707   -5.9559   -3.4638 O   0  0  0  0  0  0  0  0  0  0  0  0
   -7.9701   -8.2667   -2.6224 C   0  0  2  0  0  0  0  0  0  0  0  0
   -9.1590   -8.3748   -1.8305 O   0  0  0  0  0  0  0  0  0  0  0  0
   -6.9329   -9.2658   -2.1407 C   0  0  2  0  0  0  0  0  0  0  0  0
   -5.6401   -8.7234   -2.4841 O   0  0  0  0  0  0  0  0  0  0  0  0
   -7.2134  -10.6068   -2.8427 C   0  0  0  0  0  0  0  0  0  0  0  0
   -6.1492  -11.5514   -2.6616 O   0  0  0  0  0  0  0  0  0  0  0  0
   -6.0561  -10.2675   -0.1269 C   0  0  2  0  0  0  0  0  0  0  0  0
   -6.9997   -9.3505   -0.7071 O   0  0  0  0  0  0  0  0  0  0  0  0
   -6.3982  -10.4003    1.3454 C   0  0  2  0  0  0  0  0  0  0  0  0
   -7.8027  -10.6426    1.4821 O   0  0  0  0  0  0  0  0  0  0  0  0
   -6.0694   -9.1211    2.0833 C   0  0  1  0  0  0  0  0  0  0  0  0
   -6.1703   -9.3666    3.4880 O   0  0  0  0  0  0  0  0  0  0  0  0
   -4.6717   -8.6466    1.7339 C   0  0  2  0  0  0  0  0  0  0  0  0
   -4.4734   -7.3599    2.3038 O   0  0  0  0  0  0  0  0  0  0  0  0
   -4.4590   -8.5573    0.2287 C   0  0  2  0  0  0  0  0  0  0  0  0
   -4.7048   -9.8474   -0.3144 O   0  0  0  0  0  0  0  0  0  0  0  0
   -3.0381   -8.0938   -0.1138 C   0  0  0  0  0  0  0  0  0  0  0  0
   -2.0240   -8.9793    0.3833 O   0  0  0  0  0  0  0  0  0  0  0  0
  1  2  1  0  0  0  0
  3  1  1  1  0  0  0
  3  9  1  0  0  0  0
  3  4  1  0  0  0  0
  4  5  1  6  0  0  0
  4  6  1  0  0  0  0
  6  7  1  1  0  0  0
  6  8  1  0  0  0  0
  8  9  1  0  0  0  0
  8 10  1  6  0  0  0
  8 13  1  0  0  0  0
 10 11  1  0  0  0  0
 12 13  1  1  0  0  0
 12 14  1  0  0  0  0
 12 21  1  0  0  0  0
 14 15  1  6  0  0  0
 14 16  1  0  0  0  0
 16 17  1  1  0  0  0
 16 18  1  0  0  0  0
 18 19  1  1  0  0  0
 18 20  1  0  0  0  0
 20 21  1  0  0  0  0
 20 22  1  1  0  0  0
 22 23  1  0  0  0  0
M  END
>  <CHROM.1>
176.11515211,168.85775535,-171.37096841,-179.79166465,60.32461345,-5.84119052
-8.75862212,-0.75913065,-1.94530150,0.41466242,2.00037542

>  <Name>
ligand

>  <RI>
0

>  <Rbt.Current_Directory>
/home/itssahil/PROJECTS/Mol_Feturizer/New_Systems/rnas/4TS2

>  <Rbt.Executable>
rbdock ($Id: //depot/dev/client3/rdock/2013.1/src/exe/rbdock.cxx#4 $)

>  <Rbt.Library>
libRbt.so (2013.1, Build901 2013/11/27)

>  <Rbt.Parameter_File>
/export/apps/rDock/src/rDock_2013.1_src/data/scripts/dock_solv.prm

>  <Rbt.Receptor>
prm/pocket_docking_4.prm

>  <SCORE>
-8.83382

>  <SCORE.INTER>
-1.83806

>  <SCORE.INTER.CONST>
1

>  <SCORE.INTER.POLAR>
0

>  <SCORE.INTER.ROT>
5

>  <SCORE.INTER.SOLV>
6.40792

>  <SCORE.INTER.VDW>
-10.2947

>  <SCORE.INTER.norm>
-0.0799157

>  <SCORE.INTRA>
-6.99576

>  <SCORE.INTRA.DIHEDRAL>
-11.6585

>  <SCORE.INTRA.DIHEDRAL.0>
12.4853

>  <SCORE.INTRA.POLAR>
0

>  <SCORE.INTRA.POLAR.0>
0

>  <SCORE.INTRA.REPUL>
0

>  <SCORE.INTRA.REPUL.0>
0

>  <SCORE.INTRA.SOLV>
0.57002

>  <SCORE.INTRA.SOLV.lig_0>
-31.1706

>  <SCORE.INTRA.VDW>
-1.45151

>  <SCORE.INTRA.VDW.0>
-1.16895

>  <SCORE.INTRA.norm>
-0.304163

>  <SCORE.RESTR>
0

>  <SCORE.RESTR.CAVITY>
0

>  <SCORE.RESTR.norm>
0

>  <SCORE.SYSTEM>
0

>  <SCORE.SYSTEM.CONST>
0

>  <SCORE.SYSTEM.DIHEDRAL>
0

>  <SCORE.SYSTEM.SOLV>
0

>  <SCORE.SYSTEM.norm>
0

>  <SCORE.heavy>
23

>  <SCORE.norm>
-0.384079

>  <RMSD>
4.496

$$$$
ligand
 OpenBabel11021811513D
libRbt.so/2013.1/901 2013/11/27
 23 24  0  0  0  0  0  0  0  0999 V2000
  -10.7515   -9.2619   -1.4900 C   0  0  0  0  0  0  0  0  0  0  0  0
  -11.7274   -9.1255   -0.4391 O   0  0  0  0  0  0  0  0  0  0  0  0
  -10.4423  -10.7386   -1.6906 C   0  0  2  0  0  0  0  0  0  0  0  0
  -10.0092  -11.4938   -0.4434 C   0  0  1  0  0  0  0  0  0  0  0  0
  -11.1615  -11.8248    0.3344 O   0  0  0  0  0  0  0  0  0  0  0  0
   -9.2968  -12.7027   -1.0404 C   0  0  2  0  0  0  0  0  0  0  0  0
   -8.3506  -13.4105   -0.2304 O   0  0  0  0  0  0  0  0  0  0  0  0
   -8.5950  -12.0801   -2.2344 C   0  0  2  0  0  0  0  0  0  0  0  0
   -9.3751  -10.9298   -2.6236 O   0  0  0  0  0  0  0  0  0  0  0  0
   -8.5241  -13.1452   -3.3435 C   0  0  0  0  0  0  0  0  0  0  0  0
   -9.7963  -13.3706   -3.9667 O   0  0  0  0  0  0  0  0  0  0  0  0
   -6.5480  -10.9643   -2.8611 C   0  0  2  0  0  0  0  0  0  0  0  0
   -7.3028  -11.6062   -1.8189 O   0  0  0  0  0  0  0  0  0  0  0  0
   -5.1191  -10.8281   -2.3691 C   0  0  2  0  0  0  0  0  0  0  0  0
   -4.6806  -12.0857   -1.8435 O   0  0  0  0  0  0  0  0  0  0  0  0
   -5.0361   -9.8022   -1.2602 C   0  0  1  0  0  0  0  0  0  0  0  0
   -3.6584   -9.5250   -0.9983 O   0  0  0  0  0  0  0  0  0  0  0  0
   -5.7605   -8.5291   -1.6544 C   0  0  2  0  0  0  0  0  0  0  0  0
   -5.8113   -7.6676   -0.5254 O   0  0  0  0  0  0  0  0  0  0  0  0
   -7.1811   -8.8044   -2.1288 C   0  0  2  0  0  0  0  0  0  0  0  0
   -7.0975   -9.6994   -3.2296 O   0  0  0  0  0  0  0  0  0  0  0  0
   -7.8983   -7.5136   -2.5413 C   0  0  0  0  0  0  0  0  0  0  0  0
   -7.2690   -6.8512   -3.6480 O   0  0  0  0  0  0  0  0  0  0  0  0
  1  2  1  0  0  0  0
  3  1  1  1  0  0  0
  3  9  1  0  0  0  0
  3  4  1  0  0  0  0
  4  5  1  6  0  0  0
  4  6  1  0  0  0  0
  6  7  1  1  0  0  0
  6  8  1  0  0  0  0
  8  9  1  0  0  0  0
  8 10  1  6  0  0  0
  8 13  1  0  0  0  0
 10 11  1  0  0  0  0
 12 13  1  1  0  0  0
 12 14  1  0  0  0  0
 12 21  1  0  0  0  0
 14 15  1  1  0  0  0
 14 16  1  0  0  0  0
 16 17  1  6  0  0  0
 16 18  1  0  0  0  0
 18 19  1  1  0  0  0
 18 20  1  0  0  0  0
 20 21  1  0  0  0  0
 20 22  1  6  0  0  0
 22 23  1  0  0  0  0
M  END
>  <CHROM.1>
-54.21445315,73.61326816,-166.69422310,-178.66608575,62.43126316,-7.89044294
-10.51371297,-1.82259307,2.63597676,-0.11436895,-3.12377977

>  <Name>
ligand

>  <RI>
0

>  <Rbt.Current_Directory>
/home/itssahil/PROJECTS/Mol_Feturizer/New_Systems/rnas/4TS2

>  <Rbt.Executable>
rbdock ($Id: //depot/dev/client3/rdock/2013.1/src/exe/rbdock.cxx#4 $)

>  <Rbt.Library>
libRbt.so (2013.1, Build901 2013/11/27)

>  <Rbt.Parameter_File>
/export/apps/rDock/src/rDock_2013.1_src/data/scripts/dock_solv.prm

>  <Rbt.Receptor>
prm/pocket_docking_6.prm

>  <SCORE>
-7.90025

>  <SCORE.INTER>
-1.29446

>  <SCORE.INTER.CONST>
1

>  <SCORE.INTER.POLAR>
0

>  <SCORE.INTER.ROT>
5

>  <SCORE.INTER.SOLV>
4.61051

>  <SCORE.INTER.VDW>
-9.33315

>  <SCORE.INTER.norm>
-0.0562811

>  <SCORE.INTRA>
-6.60579

>  <SCORE.INTRA.DIHEDRAL>
-10.7507

>  <SCORE.INTRA.DIHEDRAL.0>
12.4853

>  <SCORE.INTRA.POLAR>
0

>  <SCORE.INTRA.POLAR.0>
0

>  <SCORE.INTRA.REPUL>
0

>  <SCORE.INTRA.REPUL.0>
0

>  <SCORE.INTRA.SOLV>
0.314377

>  <SCORE.INTRA.SOLV.lig_0>
-31.1706

>  <SCORE.INTRA.VDW>
-1.38763

>  <SCORE.INTRA.VDW.0>
-1.16895

>  <SCORE.INTRA.norm>
-0.287208

>  <SCORE.RESTR>
0

>  <SCORE.RESTR.CAVITY>
0

>  <SCORE.RESTR.norm>
0

>  <SCORE.SYSTEM>
0

>  <SCORE.SYSTEM.CONST>
0

>  <SCORE.SYSTEM.DIHEDRAL>
0

>  <SCORE.SYSTEM.SOLV>
0

>  <SCORE.SYSTEM.norm>
0

>  <SCORE.heavy>
23

>  <SCORE.norm>
-0.343489

>  <RMSD>
4.547

$$$$
ligand
 OpenBabel11021811513D
libRbt.so/2013.1/901 2013/11/27
 23 24  0  0  0  0  0  0  0  0999 V2000
  -10.6036   -9.1755   -1.0469 C   0  0  0  0  0  0  0  0  0  0  0  0
  -11.5851   -8.9932   -0.0082 O   0  0  0  0  0  0  0  0  0  0  0  0
  -10.4927  -10.6589   -1.3690 C   0  0  2  0  0  0  0  0  0  0  0  0
  -10.0102  -11.5436   -0.2297 C   0  0  1  0  0  0  0  0  0  0  0  0
  -11.0964  -11.8027    0.6620 O   0  0  0  0  0  0  0  0  0  0  0  0
   -9.5157  -12.7768   -0.9782 C   0  0  2  0  0  0  0  0  0  0  0  0
   -8.5715  -13.6388   -0.3318 O   0  0  0  0  0  0  0  0  0  0  0  0
   -8.8877  -12.1502   -2.2105 C   0  0  2  0  0  0  0  0  0  0  0  0
   -9.5687  -10.8974   -2.4345 O   0  0  0  0  0  0  0  0  0  0  0  0
   -9.0682  -13.1349   -3.3799 C   0  0  0  0  0  0  0  0  0  0  0  0
  -10.4475  -13.3293   -3.7227 O   0  0  0  0  0  0  0  0  0  0  0  0
   -6.7923  -11.2834   -3.0384 C   0  0  2  0  0  0  0  0  0  0  0  0
   -7.5104  -11.8497   -1.9286 O   0  0  0  0  0  0  0  0  0  0  0  0
   -5.3253  -11.2361   -2.6536 C   0  0  2  0  0  0  0  0  0  0  0  0
   -4.9354  -12.5100   -2.1287 O   0  0  0  0  0  0  0  0  0  0  0  0
   -5.0922  -10.1958   -1.5802 C   0  0  1  0  0  0  0  0  0  0  0  0
   -3.6835  -10.0092   -1.4248 O   0  0  0  0  0  0  0  0  0  0  0  0
   -5.7559   -8.8841   -1.9540 C   0  0  2  0  0  0  0  0  0  0  0  0
   -5.6656   -7.9979   -0.8467 O   0  0  0  0  0  0  0  0  0  0  0  0
   -7.2227   -9.0702   -2.3183 C   0  0  2  0  0  0  0  0  0  0  0  0
   -7.2806   -9.9914   -3.3989 O   0  0  0  0  0  0  0  0  0  0  0  0
   -7.8794   -7.7415   -2.7113 C   0  0  0  0  0  0  0  0  0  0  0  0
   -7.8994   -6.7869   -1.6399 O   0  0  0  0  0  0  0  0  0  0  0  0
  1  2  1  0  0  0  0
  3  1  1  1  0  0  0
  3  9  1  0  0  0  0
  3  4  1  0  0  0  0
  4  5  1  1  0  0  0
  4  6  1  0  0  0  0
  6  7  1  1  0  0  0
  6  8  1  0  0  0  0
  8  9  1  0  0  0  0
  8 10  1  6  0  0  0
  8 13  1  0  0  0  0
 10 11  1  0  0  0  0
 12 13  1  1  0  0  0
 12 14  1  0  0  0  0
 12 21  1  0  0  0  0
 14 15  1  1  0  0  0
 14 16  1  0  0  0  0
 16 17  1  6  0  0  0
 16 18  1  0  0  0  0
 18 19  1  1  0  0  0
 18 20  1  0  0  0  0
 20 21  1  0  0  0  0
 20 22  1  6  0  0  0
 22 23  1  0  0  0  0
M  END
>  <CHROM.1>
-62.73142898,64.76712125,-171.05832821,178.31619868,-62.86428573,-8.04487421
-10.67315252,-1.75251205,2.75794007,-0.22435706,-2.97611909

>  <Name>
ligand

>  <RI>
0

>  <Rbt.Current_Directory>
/home/itssahil/PROJECTS/Mol_Feturizer/New_Systems/rnas/4TS2

>  <Rbt.Executable>
rbdock ($Id: //depot/dev/client3/rdock/2013.1/src/exe/rbdock.cxx#4 $)

>  <Rbt.Library>
libRbt.so (2013.1, Build901 2013/11/27)

>  <Rbt.Parameter_File>
/export/apps/rDock/src/rDock_2013.1_src/data/scripts/dock_solv.prm

>  <Rbt.Receptor>
prm/pocket_docking_5.prm

>  <SCORE>
-7.85753

>  <SCORE.INTER>
-0.985773

>  <SCORE.INTER.CONST>
1

>  <SCORE.INTER.POLAR>
0

>  <SCORE.INTER.ROT>
5

>  <SCORE.INTER.SOLV>
5.1209

>  <SCORE.INTER.VDW>
-9.29748

>  <SCORE.INTER.norm>
-0.0428597

>  <SCORE.INTRA>
-6.87176

>  <SCORE.INTRA.DIHEDRAL>
-11.8209

>  <SCORE.INTRA.DIHEDRAL.0>
12.4853

>  <SCORE.INTRA.POLAR>
0

>  <SCORE.INTRA.POLAR.0>
0

>  <SCORE.INTRA.REPUL>
0

>  <SCORE.INTRA.REPUL.0>
0

>  <SCORE.INTRA.SOLV>
0.486391

>  <SCORE.INTRA.SOLV.lig_0>
-31.1706

>  <SCORE.INTRA.VDW>
-1.20452

>  <SCORE.INTRA.VDW.0>
-1.16895

>  <SCORE.INTRA.norm>
-0.298772

>  <SCORE.RESTR>
0

>  <SCORE.RESTR.CAVITY>
0

>  <SCORE.RESTR.norm>
0

>  <SCORE.SYSTEM>
0

>  <SCORE.SYSTEM.CONST>
0

>  <SCORE.SYSTEM.DIHEDRAL>
0

>  <SCORE.SYSTEM.SOLV>
0

>  <SCORE.SYSTEM.norm>
0

>  <SCORE.heavy>
23

>  <SCORE.norm>
-0.341632

>  <RMSD>
4.577

$$$$
ligand
 OpenBabel11021811513D
libRbt.so/2013.1/901 2013/11/27
 23 24  0  0  0  0  0  0  0  0999 V2000
   -4.1504   -6.9813   -2.9290 C   0  0  0  0  0  0  0  0  0  0  0  0
   -4.0809   -5.8177   -3.7755 O   0  0  0  0  0  0  0  0  0  0  0  0
   -5.3477   -7.8246   -3.3433 C   0  0  2  0  0  0  0  0  0  0  0  0
   -6.7100   -7.1893   -3.1109 C   0  0  1  0  0  0  0  0  0  0  0  0
   -6.9837   -6.2578   -4.1595 O   0  0  0  0  0  0  0  0  0  0  0  0
   -7.6278   -8.4072   -3.1092 C   0  0  2  0  0  0  0  0  0  0  0  0
   -8.9046   -8.3030   -2.4679 O   0  0  0  0  0  0  0  0  0  0  0  0
   -6.7680   -9.4319   -2.3905 C   0  0  2  0  0  0  0  0  0  0  0  0
   -5.3929   -9.0610   -2.6254 O   0  0  0  0  0  0  0  0  0  0  0  0
   -7.1102  -10.8174   -2.9677 C   0  0  0  0  0  0  0  0  0  0  0  0
   -8.4681  -11.1982   -2.7057 O   0  0  0  0  0  0  0  0  0  0  0  0
   -6.3414  -10.3353   -0.1929 C   0  0  2  0  0  0  0  0  0  0  0  0
   -7.0081   -9.3307   -0.9767 O   0  0  0  0  0  0  0  0  0  0  0  0
   -6.8926  -10.2504    1.2182 C   0  0  2  0  0  0  0  0  0  0  0  0
   -8.3232  -10.2229    1.1636 O   0  0  0  0  0  0  0  0  0  0  0  0
   -6.4251   -8.9801    1.8942 C   0  0  1  0  0  0  0  0  0  0  0  0
   -6.7544   -9.0554    3.2832 O   0  0  0  0  0  0  0  0  0  0  0  0
   -4.9290   -8.8013    1.7198 C   0  0  2  0  0  0  0  0  0  0  0  0
   -4.5650   -7.5182    2.2102 O   0  0  0  0  0  0  0  0  0  0  0  0
   -4.5076   -8.9092    0.2605 C   0  0  2  0  0  0  0  0  0  0  0  0
   -4.9220  -10.1846   -0.2103 O   0  0  0  0  0  0  0  0  0  0  0  0
   -2.9919   -8.7447    0.0973 C   0  0  0  0  0  0  0  0  0  0  0  0
   -2.5442   -8.9742   -1.2468 O   0  0  0  0  0  0  0  0  0  0  0  0
  1  2  1  0  0  0  0
  3  1  1  1  0  0  0
  3  9  1  0  0  0  0
  3  4  1  0  0  0  0
  4  5  1  6  0  0  0
  4  6  1  0  0  0  0
  6  7  1  1  0  0  0
  6  8  1  0  0  0  0
  8  9  1  0  0  0  0
  8 10  1  6  0  0  0
  8 13  1  0  0  0  0
 10 11  1  0  0  0  0
 12 13  1  6  0  0  0
 12 14  1  0  0  0  0
 12 21  1  0  0  0  0
 14 15  1  6  0  0  0
 14 16  1  0  0  0  0
 16 17  1  1  0  0  0
 16 18  1  0  0  0  0
 18 19  1  6  0  0  0
 18 20  1  0  0  0  0
 20 21  1  0  0  0  0
 20 22  1  1  0  0  0
 22 23  1  0  0  0  0
M  END
>  <CHROM.1>
-66.15061889,-63.99090201,-169.76057588,174.58681142,174.10995611,-5.99397004
-8.79836093,-1.06193972,-1.62633184,0.47269502,1.90757099

>  <Name>
ligand

>  <RI>
0

>  <Rbt.Current_Directory>
/home/itssahil/PROJECTS/Mol_Feturizer/New_Systems/rnas/4TS2

>  <Rbt.Executable>
rbdock ($Id: //depot/dev/client3/rdock/2013.1/src/exe/rbdock.cxx#4 $)

>  <Rbt.Library>
libRbt.so (2013.1, Build901 2013/11/27)

>  <Rbt.Parameter_File>
/export/apps/rDock/src/rDock_2013.1_src/data/scripts/dock_solv.prm

>  <Rbt.Receptor>
prm/pocket_docking_8.prm

>  <SCORE>
-8.43112

>  <SCORE.INTER>
-1.50812

>  <SCORE.INTER.CONST>
1

>  <SCORE.INTER.POLAR>
0

>  <SCORE.INTER.ROT>
5

>  <SCORE.INTER.SOLV>
7.69651

>  <SCORE.INTER.VDW>
-10.5042

>  <SCORE.INTER.norm>
-0.0655703

>  <SCORE.INTRA>
-6.923

>  <SCORE.INTRA.DIHEDRAL>
-11.4022

>  <SCORE.INTRA.DIHEDRAL.0>
12.4853

>  <SCORE.INTRA.POLAR>
0

>  <SCORE.INTRA.POLAR.0>
0

>  <SCORE.INTRA.REPUL>
0

>  <SCORE.INTRA.REPUL.0>
0

>  <SCORE.INTRA.SOLV>
0.729718

>  <SCORE.INTRA.SOLV.lig_0>
-31.1706

>  <SCORE.INTRA.VDW>
-1.58677

>  <SCORE.INTRA.VDW.0>
-1.16895

>  <SCORE.INTRA.norm>
-0.301

>  <SCORE.RESTR>
0

>  <SCORE.RESTR.CAVITY>
0

>  <SCORE.RESTR.norm>
0

>  <SCORE.SYSTEM>
0

>  <SCORE.SYSTEM.CONST>
0

>  <SCORE.SYSTEM.DIHEDRAL>
0

>  <SCORE.SYSTEM.SOLV>
0

>  <SCORE.SYSTEM.norm>
0

>  <SCORE.heavy>
23

>  <SCORE.norm>
-0.366571

>  <RMSD>
4.597

$$$$
ligand
 OpenBabel11021811513D
libRbt.so/2013.1/901 2013/11/27
 23 24  0  0  0  0  0  0  0  0999 V2000
   -7.8568   -7.4143   -2.7978 C   0  0  0  0  0  0  0  0  0  0  0  0
   -7.3863   -6.4398   -3.7489 O   0  0  0  0  0  0  0  0  0  0  0  0
   -7.1071   -7.2288   -1.4863 C   0  0  2  0  0  0  0  0  0  0  0  0
   -5.5976   -7.3985   -1.5635 C   0  0  1  0  0  0  0  0  0  0  0  0
   -5.0122   -6.2037   -2.0850 O   0  0  0  0  0  0  0  0  0  0  0  0
   -5.2388   -7.6799   -0.1083 C   0  0  2  0  0  0  0  0  0  0  0  0
   -4.0047   -8.3491    0.1769 O   0  0  0  0  0  0  0  0  0  0  0  0
   -6.4099   -8.5414    0.3300 C   0  0  2  0  0  0  0  0  0  0  0  0
   -7.5320   -8.1738   -0.5002 O   0  0  0  0  0  0  0  0  0  0  0  0
   -6.6652   -8.2605    1.8218 C   0  0  0  0  0  0  0  0  0  0  0  0
   -5.5572   -8.6453    2.6477 O   0  0  0  0  0  0  0  0  0  0  0  0
   -7.0605  -10.8524    0.5829 C   0  0  2  0  0  0  0  0  0  0  0  0
   -6.1019   -9.9187    0.0562 O   0  0  0  0  0  0  0  0  0  0  0  0
   -6.5317  -12.2484    0.3109 C   0  0  2  0  0  0  0  0  0  0  0  0
   -5.1633  -12.3223    0.7261 O   0  0  0  0  0  0  0  0  0  0  0  0
   -6.5897  -12.5581   -1.1688 C   0  0  1  0  0  0  0  0  0  0  0  0
   -6.3214  -13.9499   -1.3539 O   0  0  0  0  0  0  0  0  0  0  0  0
   -7.9525  -12.2079   -1.7352 C   0  0  2  0  0  0  0  0  0  0  0  0
   -7.9054  -12.3446   -3.1489 O   0  0  0  0  0  0  0  0  0  0  0  0
   -8.3644  -10.7828   -1.3912 C   0  0  2  0  0  0  0  0  0  0  0  0
   -8.3615  -10.6678    0.0254 O   0  0  0  0  0  0  0  0  0  0  0  0
   -9.7504  -10.4448   -1.9531 C   0  0  0  0  0  0  0  0  0  0  0  0
  -10.1796   -9.1150   -1.6259 O   0  0  0  0  0  0  0  0  0  0  0  0
  1  2  1  0  0  0  0
  3  1  1  6  0  0  0
  3  9  1  0  0  0  0
  3  4  1  0  0  0  0
  4  5  1  1  0  0  0
  4  6  1  0  0  0  0
  6  7  1  6  0  0  0
  6  8  1  0  0  0  0
  8  9  1  0  0  0  0
  8 10  1  1  0  0  0
  8 13  1  0  0  0  0
 10 11  1  0  0  0  0
 12 13  1  6  0  0  0
 12 14  1  0  0  0  0
 12 21  1  0  0  0  0
 14 15  1  6  0  0  0
 14 16  1  0  0  0  0
 16 17  1  1  0  0  0
 16 18  1  0  0  0  0
 18 19  1  6  0  0  0
 18 20  1  0  0  0  0
 20 21  1  0  0  0  0
 20 22  1  1  0  0  0
 22 23  1  0  0  0  0
M  END
>  <CHROM.1>
-60.29997814,-63.49143448,-175.34887576,172.41139069,178.95163313,-6.88913179
-9.63674738,-0.78926067,1.29118819,-0.82031303,-0.25620872

>  <Name>
ligand

>  <RI>
0

>  <Rbt.Current_Directory>
/home/itssahil/PROJECTS/Mol_Feturizer/New_Systems/rnas/4TS2

>  <Rbt.Executable>
rbdock ($Id: //depot/dev/client3/rdock/2013.1/src/exe/rbdock.cxx#4 $)

>  <Rbt.Library>
libRbt.so (2013.1, Build901 2013/11/27)

>  <Rbt.Parameter_File>
/export/apps/rDock/src/rDock_2013.1_src/data/scripts/dock_solv.prm

>  <Rbt.Receptor>
prm/pocket_docking_5.prm

>  <SCORE>
-8.05859

>  <SCORE.INTER>
-1.06024

>  <SCORE.INTER.CONST>
1

>  <SCORE.INTER.POLAR>
0

>  <SCORE.INTER.ROT>
5

>  <SCORE.INTER.SOLV>
6.63364

>  <SCORE.INTER.VDW>
-9.85137

>  <SCORE.INTER.norm>
-0.0460974

>  <SCORE.INTRA>
-6.99836

>  <SCORE.INTRA.DIHEDRAL>
-11.8996

>  <SCORE.INTRA.DIHEDRAL.0>
12.4853

>  <SCORE.INTRA.POLAR>
0

>  <SCORE.INTRA.POLAR.0>
0

>  <SCORE.INTRA.REPUL>
0

>  <SCORE.INTRA.REPUL.0>
0

>  <SCORE.INTRA.SOLV>
0.766333

>  <SCORE.INTRA.SOLV.lig_0>
-31.1706

>  <SCORE.INTRA.VDW>
-1.4317

>  <SCORE.INTRA.VDW.0>
-1.16895

>  <SCORE.INTRA.norm>
-0.304276

>  <SCORE.RESTR>
0

>  <SCORE.RESTR.CAVITY>
0

>  <SCORE.RESTR.norm>
0

>  <SCORE.SYSTEM>
0

>  <SCORE.SYSTEM.CONST>
0

>  <SCORE.SYSTEM.DIHEDRAL>
0

>  <SCORE.SYSTEM.SOLV>
0

>  <SCORE.SYSTEM.norm>
0

>  <SCORE.heavy>
23

>  <SCORE.norm>
-0.350374

>  <RMSD>
4.869

$$$$
ligand
 OpenBabel11021811513D
libRbt.so/2013.1/901 2013/11/27
 23 24  0  0  0  0  0  0  0  0999 V2000
   -4.5866   -6.2431   -3.6303 C   0  0  0  0  0  0  0  0  0  0  0  0
   -3.5745   -6.9368   -4.3853 O   0  0  0  0  0  0  0  0  0  0  0  0
   -5.8035   -7.1457   -3.4867 C   0  0  2  0  0  0  0  0  0  0  0  0
   -6.9648   -6.5612   -2.6972 C   0  0  1  0  0  0  0  0  0  0  0  0
   -7.7054   -5.6698   -3.5333 O   0  0  0  0  0  0  0  0  0  0  0  0
   -7.7334   -7.8154   -2.2950 C   0  0  2  0  0  0  0  0  0  0  0  0
   -8.6168   -7.7470   -1.1693 O   0  0  0  0  0  0  0  0  0  0  0  0
   -6.6002   -8.7845   -2.0075 C   0  0  2  0  0  0  0  0  0  0  0  0
   -5.4774   -8.3636   -2.8109 O   0  0  0  0  0  0  0  0  0  0  0  0
   -7.0886  -10.1976   -2.3739 C   0  0  0  0  0  0  0  0  0  0  0  0
   -6.0503  -11.1809   -2.2611 O   0  0  0  0  0  0  0  0  0  0  0  0
   -4.9567   -9.2688   -0.3070 C   0  0  2  0  0  0  0  0  0  0  0  0
   -6.2175   -8.6559   -0.6277 O   0  0  0  0  0  0  0  0  0  0  0  0
   -4.9131   -9.4574    1.1980 C   0  0  2  0  0  0  0  0  0  0  0  0
   -6.1330  -10.0696    1.6309 O   0  0  0  0  0  0  0  0  0  0  0  0
   -4.7860   -8.1212    1.8961 C   0  0  1  0  0  0  0  0  0  0  0  0
   -4.5012   -8.3541    3.2775 O   0  0  0  0  0  0  0  0  0  0  0  0
   -3.6827   -7.2921    1.2667 C   0  0  2  0  0  0  0  0  0  0  0  0
   -3.7172   -5.9880    1.8301 O   0  0  0  0  0  0  0  0  0  0  0  0
   -3.8429   -7.1812   -0.2435 C   0  0  2  0  0  0  0  0  0  0  0  0
   -3.8460   -8.5011   -0.7705 O   0  0  0  0  0  0  0  0  0  0  0  0
   -2.7134   -6.3564   -0.8717 C   0  0  0  0  0  0  0  0  0  0  0  0
   -1.4162   -6.9363   -0.6703 O   0  0  0  0  0  0  0  0  0  0  0  0
  1  2  1  0  0  0  0
  3  1  1  1  0  0  0
  3  9  1  0  0  0  0
  3  4  1  0  0  0  0
  4  5  1  6  0  0  0
  4  6  1  0  0  0  0
  6  7  1  1  0  0  0
  6  8  1  0  0  0  0
  8  9  1  0  0  0  0
  8 10  1  6  0  0  0
  8 13  1  0  0  0  0
 10 11  1  0  0  0  0
 12 13  1  1  0  0  0
 12 14  1  0  0  0  0
 12 21  1  0  0  0  0
 14 15  1  1  0  0  0
 14 16  1  0  0  0  0
 16 17  1  1  0  0  0
 16 18  1  0  0  0  0
 18 19  1  1  0  0  0
 18 20  1  0  0  0  0
 20 21  1  0  0  0  0
 20 22  1  6  0  0  0
 22 23  1  0  0  0  0
M  END
>  <CHROM.1>
179.42489451,174.43551598,-161.57063630,-165.55831173,61.55522747,-5.24433525
-7.95194281,-0.99681574,-2.17518174,0.54910770,1.99685790

>  <Name>
ligand

>  <RI>
0

>  <Rbt.Current_Directory>
/home/itssahil/PROJECTS/Mol_Feturizer/New_Systems/rnas/4TS2

>  <Rbt.Executable>
rbdock ($Id: //depot/dev/client3/rdock/2013.1/src/exe/rbdock.cxx#4 $)

>  <Rbt.Library>
libRbt.so (2013.1, Build901 2013/11/27)

>  <Rbt.Parameter_File>
/export/apps/rDock/src/rDock_2013.1_src/data/scripts/dock_solv.prm

>  <Rbt.Receptor>
prm/pocket_docking_5.prm

>  <SCORE>
-9.45813

>  <SCORE.INTER>
-2.89998

>  <SCORE.INTER.CONST>
1

>  <SCORE.INTER.POLAR>
0

>  <SCORE.INTER.ROT>
5

>  <SCORE.INTER.SOLV>
7.53051

>  <SCORE.INTER.VDW>
-11.3768

>  <SCORE.INTER.norm>
-0.126086

>  <SCORE.INTRA>
-6.55815

>  <SCORE.INTRA.DIHEDRAL>
-10.0141

>  <SCORE.INTRA.DIHEDRAL.0>
12.4853

>  <SCORE.INTRA.POLAR>
0

>  <SCORE.INTRA.POLAR.0>
0

>  <SCORE.INTRA.REPUL>
0

>  <SCORE.INTRA.REPUL.0>
0

>  <SCORE.INTRA.SOLV>
0.456933

>  <SCORE.INTRA.SOLV.lig_0>
-31.1706

>  <SCORE.INTRA.VDW>
-1.77956

>  <SCORE.INTRA.VDW.0>
-1.16895

>  <SCORE.INTRA.norm>
-0.285137

>  <SCORE.RESTR>
0

>  <SCORE.RESTR.CAVITY>
0

>  <SCORE.RESTR.norm>
0

>  <SCORE.SYSTEM>
0

>  <SCORE.SYSTEM.CONST>
0

>  <SCORE.SYSTEM.DIHEDRAL>
0

>  <SCORE.SYSTEM.SOLV>
0

>  <SCORE.SYSTEM.norm>
0

>  <SCORE.heavy>
23

>  <SCORE.norm>
-0.411223

>  <RMSD>
4.938

$$$$
ligand
 OpenBabel11021811513D
libRbt.so/2013.1/901 2013/11/27
 23 24  0  0  0  0  0  0  0  0999 V2000
   -8.0464  -12.3071    0.7918 C   0  0  0  0  0  0  0  0  0  0  0  0
   -7.7089  -12.8600    2.0787 O   0  0  0  0  0  0  0  0  0  0  0  0
   -6.9409  -12.6450   -0.1981 C   0  0  2  0  0  0  0  0  0  0  0  0
   -5.5661  -12.0876    0.1378 C   0  0  1  0  0  0  0  0  0  0  0  0
   -4.9503  -12.9109    1.1303 O   0  0  0  0  0  0  0  0  0  0  0  0
   -4.8711  -12.1283   -1.2190 C   0  0  2  0  0  0  0  0  0  0  0  0
   -3.7427  -11.2734   -1.4376 O   0  0  0  0  0  0  0  0  0  0  0  0
   -6.0054  -11.7394   -2.1507 C   0  0  2  0  0  0  0  0  0  0  0  0
   -7.2323  -12.1390   -1.5039 O   0  0  0  0  0  0  0  0  0  0  0  0
   -5.7821  -12.4669   -3.4889 C   0  0  0  0  0  0  0  0  0  0  0  0
   -4.5363  -12.1099   -4.1038 O   0  0  0  0  0  0  0  0  0  0  0  0
   -7.0457   -9.8150   -3.1715 C   0  0  2  0  0  0  0  0  0  0  0  0
   -6.0306  -10.3078   -2.2801 O   0  0  0  0  0  0  0  0  0  0  0  0
   -6.8483   -8.3161   -3.3004 C   0  0  2  0  0  0  0  0  0  0  0  0
   -5.4690   -8.0449   -3.5725 O   0  0  0  0  0  0  0  0  0  0  0  0
   -7.2166   -7.6201   -2.0085 C   0  0  1  0  0  0  0  0  0  0  0  0
   -7.2553   -6.2108   -2.2453 O   0  0  0  0  0  0  0  0  0  0  0  0
   -8.5636   -8.1036   -1.5060 C   0  0  2  0  0  0  0  0  0  0  0  0
   -8.7859   -7.5625   -0.2109 O   0  0  0  0  0  0  0  0  0  0  0  0
   -8.6302   -9.6227   -1.4237 C   0  0  2  0  0  0  0  0  0  0  0  0
   -8.3632  -10.1327   -2.7231 O   0  0  0  0  0  0  0  0  0  0  0  0
  -10.0011  -10.1016   -0.9317 C   0  0  0  0  0  0  0  0  0  0  0  0
  -11.0748   -9.7214   -1.8047 O   0  0  0  0  0  0  0  0  0  0  0  0
  1  2  1  0  0  0  0
  3  1  1  1  0  0  0
  3  9  1  0  0  0  0
  3  4  1  0  0  0  0
  4  5  1  1  0  0  0
  4  6  1  0  0  0  0
  6  7  1  1  0  0  0
  6  8  1  0  0  0  0
  8  9  1  0  0  0  0
  8 10  1  6  0  0  0
  8 13  1  0  0  0  0
 10 11  1  0  0  0  0
 12 13  1  1  0  0  0
 12 14  1  0  0  0  0
 12 21  1  0  0  0  0
 14 15  1  1  0  0  0
 14 16  1  0  0  0  0
 16 17  1  6  0  0  0
 16 18  1  0  0  0  0
 18 19  1  1  0  0  0
 18 20  1  0  0  0  0
 20 21  1  0  0  0  0
 20 22  1  6  0  0  0
 22 23  1  0  0  0  0
M  END
>  <CHROM.1>
-61.35823458,-60.19981817,-174.49468505,178.41566765,61.50095672,-6.98205708
-10.43699668,-1.52194566,0.98065280,-0.53477331,2.47311914

>  <Name>
ligand

>  <RI>
0

>  <Rbt.Current_Directory>
/home/itssahil/PROJECTS/Mol_Feturizer/New_Systems/rnas/4TS2

>  <Rbt.Executable>
rbdock ($Id: //depot/dev/client3/rdock/2013.1/src/exe/rbdock.cxx#4 $)

>  <Rbt.Library>
libRbt.so (2013.1, Build901 2013/11/27)

>  <Rbt.Parameter_File>
/export/apps/rDock/src/rDock_2013.1_src/data/scripts/dock_solv.prm

>  <Rbt.Receptor>
prm/pocket_docking_5.prm

>  <SCORE>
-7.77425

>  <SCORE.INTER>
-0.670635

>  <SCORE.INTER.CONST>
1

>  <SCORE.INTER.POLAR>
0

>  <SCORE.INTER.ROT>
5

>  <SCORE.INTER.SOLV>
6.71542

>  <SCORE.INTER.VDW>
-9.6189

>  <SCORE.INTER.norm>
-0.029158

>  <SCORE.INTRA>
-7.10361

>  <SCORE.INTRA.DIHEDRAL>
-12.2155

>  <SCORE.INTRA.DIHEDRAL.0>
12.4853

>  <SCORE.INTRA.POLAR>
0

>  <SCORE.INTRA.POLAR.0>
0

>  <SCORE.INTRA.REPUL>
0

>  <SCORE.INTRA.REPUL.0>
0

>  <SCORE.INTRA.SOLV>
0.489768

>  <SCORE.INTRA.SOLV.lig_0>
-31.1706

>  <SCORE.INTRA.VDW>
-1.24076

>  <SCORE.INTRA.VDW.0>
-1.16895

>  <SCORE.INTRA.norm>
-0.308853

>  <SCORE.RESTR>
0

>  <SCORE.RESTR.CAVITY>
0

>  <SCORE.RESTR.norm>
0

>  <SCORE.SYSTEM>
0

>  <SCORE.SYSTEM.CONST>
0

>  <SCORE.SYSTEM.DIHEDRAL>
0

>  <SCORE.SYSTEM.SOLV>
0

>  <SCORE.SYSTEM.norm>
0

>  <SCORE.heavy>
23

>  <SCORE.norm>
-0.338011

>  <RMSD>
4.942

$$$$
ligand
 OpenBabel11021811513D
libRbt.so/2013.1/901 2013/11/27
 23 24  0  0  0  0  0  0  0  0999 V2000
   -7.7831  -12.4459    0.8700 C   0  0  0  0  0  0  0  0  0  0  0  0
   -7.3128  -13.0381    2.0962 O   0  0  0  0  0  0  0  0  0  0  0  0
   -6.7875  -12.7493   -0.2405 C   0  0  2  0  0  0  0  0  0  0  0  0
   -5.3899  -12.1832   -0.0418 C   0  0  1  0  0  0  0  0  0  0  0  0
   -4.6630  -13.0205    0.8598 O   0  0  0  0  0  0  0  0  0  0  0  0
   -4.8447  -12.1863   -1.4660 C   0  0  2  0  0  0  0  0  0  0  0  0
   -3.7544  -11.3137   -1.7851 O   0  0  0  0  0  0  0  0  0  0  0  0
   -6.0763  -11.7907   -2.2613 C   0  0  2  0  0  0  0  0  0  0  0  0
   -7.2226  -12.2185   -1.4955 O   0  0  0  0  0  0  0  0  0  0  0  0
   -5.9918  -12.4864   -3.6319 C   0  0  0  0  0  0  0  0  0  0  0  0
   -6.0538  -13.9154   -3.5241 O   0  0  0  0  0  0  0  0  0  0  0  0
   -7.2341   -9.8572   -3.1266 C   0  0  2  0  0  0  0  0  0  0  0  0
   -6.1287  -10.3570   -2.3544 O   0  0  0  0  0  0  0  0  0  0  0  0
   -7.0595   -8.3550   -3.2502 C   0  0  2  0  0  0  0  0  0  0  0  0
   -5.7176   -8.0695   -3.6602 O   0  0  0  0  0  0  0  0  0  0  0  0
   -7.2946   -7.6826   -1.9154 C   0  0  1  0  0  0  0  0  0  0  0  0
   -7.3656   -6.2700   -2.1231 O   0  0  0  0  0  0  0  0  0  0  0  0
   -8.5791   -8.1840   -1.2832 C   0  0  2  0  0  0  0  0  0  0  0  0
   -8.6678   -7.6655    0.0369 O   0  0  0  0  0  0  0  0  0  0  0  0
   -8.6283   -9.7046   -1.2200 C   0  0  2  0  0  0  0  0  0  0  0  0
   -8.4957  -10.1916   -2.5486 O   0  0  0  0  0  0  0  0  0  0  0  0
   -9.9377  -10.2013   -0.5957 C   0  0  0  0  0  0  0  0  0  0  0  0
  -11.0974   -9.8315   -1.3558 O   0  0  0  0  0  0  0  0  0  0  0  0
  1  2  1  0  0  0  0
  3  1  1  1  0  0  0
  3  9  1  0  0  0  0
  3  4  1  0  0  0  0
  4  5  1  1  0  0  0
  4  6  1  0  0  0  0
  6  7  1  1  0  0  0
  6  8  1  0  0  0  0
  8  9  1  0  0  0  0
  8 10  1  6  0  0  0
  8 13  1  0  0  0  0
 10 11  1  0  0  0  0
 12 13  1  1  0  0  0
 12 14  1  0  0  0  0
 12 21  1  0  0  0  0
 14 15  1  1  0  0  0
 14 16  1  0  0  0  0
 16 17  1  6  0  0  0
 16 18  1  0  0  0  0
 18 19  1  1  0  0  0
 18 20  1  0  0  0  0
 20 21  1  0  0  0  0
 20 22  1  6  0  0  0
 22 23  1  0  0  0  0
M  END
>  <CHROM.1>
-62.13733161,64.46508028,-174.03538057,178.07214565,62.35642041,-7.04862592
-10.59693809,-1.46966543,0.96891184,-0.62687203,2.51548663

>  <Name>
ligand

>  <RI>
0

>  <Rbt.Current_Directory>
/home/itssahil/PROJECTS/Mol_Feturizer/New_Systems/rnas/4TS2

>  <Rbt.Executable>
rbdock ($Id: //depot/dev/client3/rdock/2013.1/src/exe/rbdock.cxx#4 $)

>  <Rbt.Library>
libRbt.so (2013.1, Build901 2013/11/27)

>  <Rbt.Parameter_File>
/export/apps/rDock/src/rDock_2013.1_src/data/scripts/dock_solv.prm

>  <Rbt.Receptor>
prm/pocket_docking_5.prm

>  <SCORE>
-7.61095

>  <SCORE.INTER>
-0.490429

>  <SCORE.INTER.CONST>
1

>  <SCORE.INTER.POLAR>
0

>  <SCORE.INTER.ROT>
5

>  <SCORE.INTER.SOLV>
6.29551

>  <SCORE.INTER.VDW>
-9.35879

>  <SCORE.INTER.norm>
-0.021323

>  <SCORE.INTRA>
-7.12052

>  <SCORE.INTRA.DIHEDRAL>
-12.0571

>  <SCORE.INTRA.DIHEDRAL.0>
12.4853

>  <SCORE.INTRA.POLAR>
0

>  <SCORE.INTRA.POLAR.0>
0

>  <SCORE.INTRA.REPUL>
0

>  <SCORE.INTRA.REPUL.0>
0

>  <SCORE.INTRA.SOLV>
0.337296

>  <SCORE.INTRA.SOLV.lig_0>
-31.1706

>  <SCORE.INTRA.VDW>
-1.26063

>  <SCORE.INTRA.VDW.0>
-1.16895

>  <SCORE.INTRA.norm>
-0.309588

>  <SCORE.RESTR>
0

>  <SCORE.RESTR.CAVITY>
0

>  <SCORE.RESTR.norm>
0

>  <SCORE.SYSTEM>
0

>  <SCORE.SYSTEM.CONST>
0

>  <SCORE.SYSTEM.DIHEDRAL>
0

>  <SCORE.SYSTEM.SOLV>
0

>  <SCORE.SYSTEM.norm>
0

>  <SCORE.heavy>
23

>  <SCORE.norm>
-0.330911

>  <RMSD>
4.967

$$$$
ligand
 OpenBabel11021811513D
libRbt.so/2013.1/901 2013/11/27
 23 24  0  0  0  0  0  0  0  0999 V2000
   -7.9183   -7.5990   -2.8058 C   0  0  0  0  0  0  0  0  0  0  0  0
   -7.2626   -7.2049   -4.0265 O   0  0  0  0  0  0  0  0  0  0  0  0
   -6.8812   -7.6996   -1.6964 C   0  0  2  0  0  0  0  0  0  0  0  0
   -5.7731   -8.7164   -1.9240 C   0  0  1  0  0  0  0  0  0  0  0  0
   -4.7963   -8.1631   -2.8082 O   0  0  0  0  0  0  0  0  0  0  0  0
   -5.2639   -8.9481   -0.5054 C   0  0  2  0  0  0  0  0  0  0  0  0
   -4.5522  -10.1585   -0.2212 O   0  0  0  0  0  0  0  0  0  0  0  0
   -6.5569   -8.9071    0.2897 C   0  0  2  0  0  0  0  0  0  0  0  0
   -7.4773   -8.0797   -0.4530 O   0  0  0  0  0  0  0  0  0  0  0  0
   -6.2340   -8.3271    1.6786 C   0  0  0  0  0  0  0  0  0  0  0  0
   -5.6572   -7.0159    1.6026 O   0  0  0  0  0  0  0  0  0  0  0  0
   -8.3345  -10.3286    1.0941 C   0  0  2  0  0  0  0  0  0  0  0  0
   -7.1121  -10.2322    0.3428 O   0  0  0  0  0  0  0  0  0  0  0  0
   -8.6357  -11.8035    1.2842 C   0  0  2  0  0  0  0  0  0  0  0  0
   -7.4572  -12.4677    1.7535 O   0  0  0  0  0  0  0  0  0  0  0  0
   -9.0380  -12.4359   -0.0300 C   0  0  1  0  0  0  0  0  0  0  0  0
   -9.5468  -13.7460    0.2316 O   0  0  0  0  0  0  0  0  0  0  0  0
  -10.0903  -11.5953   -0.7278 C   0  0  2  0  0  0  0  0  0  0  0  0
  -10.3061  -12.1259   -2.0283 O   0  0  0  0  0  0  0  0  0  0  0  0
   -9.6655  -10.1384   -0.8538 C   0  0  2  0  0  0  0  0  0  0  0  0
   -9.4180   -9.6510    0.4580 O   0  0  0  0  0  0  0  0  0  0  0  0
  -10.7432   -9.2942   -1.5444 C   0  0  0  0  0  0  0  0  0  0  0  0
  -11.9388   -9.1613   -0.7619 O   0  0  0  0  0  0  0  0  0  0  0  0
  1  2  1  0  0  0  0
  3  1  1  6  0  0  0
  3  9  1  0  0  0  0
  3  4  1  0  0  0  0
  4  5  1  6  0  0  0
  4  6  1  0  0  0  0
  6  7  1  6  0  0  0
  6  8  1  0  0  0  0
  8  9  1  0  0  0  0
  8 10  1  1  0  0  0
  8 13  1  0  0  0  0
 10 11  1  0  0  0  0
 12 13  1  6  0  0  0
 12 14  1  0  0  0  0
 12 21  1  0  0  0  0
 14 15  1  6  0  0  0
 14 16  1  0  0  0  0
 16 17  1  1  0  0  0
 16 18  1  0  0  0  0
 18 19  1  6  0  0  0
 18 20  1  0  0  0  0
 20 21  1  0  0  0  0
 20 22  1  1  0  0  0
 22 23  1  0  0  0  0
M  END
>  <CHROM.1>
-60.81331029,58.41790930,-169.04480639,178.95170130,67.11722271,-7.85485207
-9.72958536,-0.51548394,0.67365179,-0.43099679,-0.77215365

>  <Name>
ligand

>  <RI>
0

>  <Rbt.Current_Directory>
/home/itssahil/PROJECTS/Mol_Feturizer/New_Systems/rnas/4TS2

>  <Rbt.Executable>
rbdock ($Id: //depot/dev/client3/rdock/2013.1/src/exe/rbdock.cxx#4 $)

>  <Rbt.Library>
libRbt.so (2013.1, Build901 2013/11/27)

>  <Rbt.Parameter_File>
/export/apps/rDock/src/rDock_2013.1_src/data/scripts/dock_solv.prm

>  <Rbt.Receptor>
prm/pocket_docking_6.prm

>  <SCORE>
-8.09192

>  <SCORE.INTER>
-1.13932

>  <SCORE.INTER.CONST>
1

>  <SCORE.INTER.POLAR>
0

>  <SCORE.INTER.ROT>
5

>  <SCORE.INTER.SOLV>
6.39353

>  <SCORE.INTER.VDW>
-9.82405

>  <SCORE.INTER.norm>
-0.0495355

>  <SCORE.INTRA>
-6.9526

>  <SCORE.INTRA.DIHEDRAL>
-11.6393

>  <SCORE.INTRA.DIHEDRAL.0>
12.4853

>  <SCORE.INTRA.POLAR>
0

>  <SCORE.INTRA.POLAR.0>
0

>  <SCORE.INTRA.REPUL>
0

>  <SCORE.INTRA.REPUL.0>
0

>  <SCORE.INTRA.SOLV>
0.309634

>  <SCORE.INTRA.SOLV.lig_0>
-31.1706

>  <SCORE.INTRA.VDW>
-1.28776

>  <SCORE.INTRA.VDW.0>
-1.16895

>  <SCORE.INTRA.norm>
-0.302287

>  <SCORE.RESTR>
0

>  <SCORE.RESTR.CAVITY>
0

>  <SCORE.RESTR.norm>
0

>  <SCORE.SYSTEM>
0

>  <SCORE.SYSTEM.CONST>
0

>  <SCORE.SYSTEM.DIHEDRAL>
0

>  <SCORE.SYSTEM.SOLV>
0

>  <SCORE.SYSTEM.norm>
0

>  <SCORE.heavy>
23

>  <SCORE.norm>
-0.351823

>  <RMSD>
4.976

$$$$
ligand
 OpenBabel11021811513D
libRbt.so/2013.1/901 2013/11/27
 23 24  0  0  0  0  0  0  0  0999 V2000
   -7.2233  -12.1725    1.0612 C   0  0  0  0  0  0  0  0  0  0  0  0
   -6.6224  -12.6301    2.2879 O   0  0  0  0  0  0  0  0  0  0  0  0
   -6.2803  -12.4736   -0.0949 C   0  0  2  0  0  0  0  0  0  0  0  0
   -4.9165  -11.8042   -0.0209 C   0  0  1  0  0  0  0  0  0  0  0  0
   -4.0772  -12.5362    0.8746 O   0  0  0  0  0  0  0  0  0  0  0  0
   -4.4628  -11.8550   -1.4759 C   0  0  2  0  0  0  0  0  0  0  0  0
   -3.4591  -10.9315   -1.9141 O   0  0  0  0  0  0  0  0  0  0  0  0
   -5.7667  -11.5904   -2.2079 C   0  0  2  0  0  0  0  0  0  0  0  0
   -6.8296  -12.0482   -1.3453 O   0  0  0  0  0  0  0  0  0  0  0  0
   -5.7192  -12.3586   -3.5410 C   0  0  0  0  0  0  0  0  0  0  0  0
   -5.6304  -13.7776   -3.3512 O   0  0  0  0  0  0  0  0  0  0  0  0
   -7.0651   -9.7967   -3.1694 C   0  0  2  0  0  0  0  0  0  0  0  0
   -5.9261  -10.1715   -2.3755 O   0  0  0  0  0  0  0  0  0  0  0  0
   -7.0220   -8.2899   -3.3426 C   0  0  2  0  0  0  0  0  0  0  0  0
   -5.7072   -7.9013   -3.7556 O   0  0  0  0  0  0  0  0  0  0  0  0
   -7.3256   -7.5970   -2.0325 C   0  0  1  0  0  0  0  0  0  0  0  0
   -7.5186   -6.2038   -2.2879 O   0  0  0  0  0  0  0  0  0  0  0  0
   -8.5660   -8.1881   -1.3899 C   0  0  2  0  0  0  0  0  0  0  0  0
   -8.7101   -7.6359   -0.0885 O   0  0  0  0  0  0  0  0  0  0  0  0
   -8.4821   -9.7043   -1.2757 C   0  0  2  0  0  0  0  0  0  0  0  0
   -8.2970  -10.2215   -2.5865 O   0  0  0  0  0  0  0  0  0  0  0  0
   -9.7476  -10.2932   -0.6413 C   0  0  0  0  0  0  0  0  0  0  0  0
   -9.7411  -11.7278   -0.6041 O   0  0  0  0  0  0  0  0  0  0  0  0
  1  2  1  0  0  0  0
  3  1  1  1  0  0  0
  3  9  1  0  0  0  0
  3  4  1  0  0  0  0
  4  5  1  1  0  0  0
  4  6  1  0  0  0  0
  6  7  1  1  0  0  0
  6  8  1  0  0  0  0
  8  9  1  0  0  0  0
  8 10  1  6  0  0  0
  8 13  1  0  0  0  0
 10 11  1  0  0  0  0
 12 13  1  1  0  0  0
 12 14  1  0  0  0  0
 12 21  1  0  0  0  0
 14 15  1  1  0  0  0
 14 16  1  0  0  0  0
 16 17  1  6  0  0  0
 16 18  1  0  0  0  0
 18 19  1  1  0  0  0
 18 20  1  0  0  0  0
 20 21  1  0  0  0  0
 20 22  1  6  0  0  0
 22 23  1  0  0  0  0
M  END
>  <CHROM.1>
-60.79386460,62.61526214,-175.41016738,174.39501252,175.90769640,-6.73889185
-10.52521547,-1.43399232,0.99424077,-0.62414455,2.43356423

>  <Name>
ligand

>  <RI>
0

>  <Rbt.Current_Directory>
/home/itssahil/PROJECTS/Mol_Feturizer/New_Systems/rnas/4TS2

>  <Rbt.Executable>
rbdock ($Id: //depot/dev/client3/rdock/2013.1/src/exe/rbdock.cxx#4 $)

>  <Rbt.Library>
libRbt.so (2013.1, Build901 2013/11/27)

>  <Rbt.Parameter_File>
/export/apps/rDock/src/rDock_2013.1_src/data/scripts/dock_solv.prm

>  <Rbt.Receptor>
prm/pocket_docking_8.prm

>  <SCORE>
-7.21971

>  <SCORE.INTER>
-0.189552

>  <SCORE.INTER.CONST>
1

>  <SCORE.INTER.POLAR>
0

>  <SCORE.INTER.ROT>
5

>  <SCORE.INTER.SOLV>
5.98311

>  <SCORE.INTER.VDW>
-9.05407

>  <SCORE.INTER.norm>
-0.00824139

>  <SCORE.INTRA>
-7.03016

>  <SCORE.INTRA.DIHEDRAL>
-11.9716

>  <SCORE.INTRA.DIHEDRAL.0>
12.4853

>  <SCORE.INTRA.POLAR>
0

>  <SCORE.INTRA.POLAR.0>
0

>  <SCORE.INTRA.REPUL>
0

>  <SCORE.INTRA.REPUL.0>
0

>  <SCORE.INTRA.SOLV>
0.629178

>  <SCORE.INTRA.SOLV.lig_0>
-31.1706

>  <SCORE.INTRA.VDW>
-1.35896

>  <SCORE.INTRA.VDW.0>
-1.16895

>  <SCORE.INTRA.norm>
-0.305659

>  <SCORE.RESTR>
0

>  <SCORE.RESTR.CAVITY>
0

>  <SCORE.RESTR.norm>
0

>  <SCORE.SYSTEM>
0

>  <SCORE.SYSTEM.CONST>
0

>  <SCORE.SYSTEM.DIHEDRAL>
0

>  <SCORE.SYSTEM.SOLV>
0

>  <SCORE.SYSTEM.norm>
0

>  <SCORE.heavy>
23

>  <SCORE.norm>
-0.313901

>  <RMSD>
4.986

$$$$
ligand
 OpenBabel11021811513D
libRbt.so/2013.1/901 2013/11/27
 23 24  0  0  0  0  0  0  0  0999 V2000
   -4.9479   -6.7850   -4.3997 C   0  0  0  0  0  0  0  0  0  0  0  0
   -5.2219   -5.5501   -5.0892 O   0  0  0  0  0  0  0  0  0  0  0  0
   -6.2590   -7.3749   -3.9001 C   0  0  2  0  0  0  0  0  0  0  0  0
   -7.0006   -6.5434   -2.8647 C   0  0  1  0  0  0  0  0  0  0  0  0
   -7.7073   -5.4890   -3.5212 O   0  0  0  0  0  0  0  0  0  0  0  0
   -7.9055   -7.5851   -2.2155 C   0  0  2  0  0  0  0  0  0  0  0  0
   -8.4183   -7.3260   -0.9032 O   0  0  0  0  0  0  0  0  0  0  0  0
   -6.9947   -8.7998   -2.1864 C   0  0  2  0  0  0  0  0  0  0  0  0
   -6.0586   -8.6455   -3.2742 O   0  0  0  0  0  0  0  0  0  0  0  0
   -7.8778  -10.0508   -2.3436 C   0  0  0  0  0  0  0  0  0  0  0  0
   -7.1049  -11.2485   -2.5052 O   0  0  0  0  0  0  0  0  0  0  0  0
   -5.2951   -9.8629   -0.8415 C   0  0  2  0  0  0  0  0  0  0  0  0
   -6.2413   -8.7868   -0.9620 O   0  0  0  0  0  0  0  0  0  0  0  0
   -4.7797   -9.8569    0.5857 C   0  0  2  0  0  0  0  0  0  0  0  0
   -5.8901   -9.7808    1.4865 O   0  0  0  0  0  0  0  0  0  0  0  0
   -3.8982   -8.6510    0.8257 C   0  0  1  0  0  0  0  0  0  0  0  0
   -3.2413   -8.8103    2.0853 O   0  0  0  0  0  0  0  0  0  0  0  0
   -2.8743   -8.5079   -0.2842 C   0  0  2  0  0  0  0  0  0  0  0  0
   -2.1913   -7.2732   -0.1155 O   0  0  0  0  0  0  0  0  0  0  0  0
   -3.5205   -8.5295   -1.6630 C   0  0  2  0  0  0  0  0  0  0  0  0
   -4.2280   -9.7561   -1.7836 O   0  0  0  0  0  0  0  0  0  0  0  0
   -2.4756   -8.4020   -2.7778 C   0  0  0  0  0  0  0  0  0  0  0  0
   -1.5050   -9.4591   -2.7607 O   0  0  0  0  0  0  0  0  0  0  0  0
  1  2  1  0  0  0  0
  3  1  1  1  0  0  0
  3  9  1  0  0  0  0
  3  4  1  0  0  0  0
  4  5  1  6  0  0  0
  4  6  1  0  0  0  0
  6  7  1  1  0  0  0
  6  8  1  0  0  0  0
  8  9  1  0  0  0  0
  8 10  1  6  0  0  0
  8 13  1  0  0  0  0
 10 11  1  0  0  0  0
 12 13  1  1  0  0  0
 12 14  1  0  0  0  0
 12 21  1  0  0  0  0
 14 15  1  1  0  0  0
 14 16  1  0  0  0  0
 16 17  1  1  0  0  0
 16 18  1  0  0  0  0
 18 19  1  1  0  0  0
 18 20  1  0  0  0  0
 20 21  1  0  0  0  0
 20 22  1  6  0  0  0
 22 23  1  0  0  0  0
M  END
>  <CHROM.1>
-63.84261143,172.36738795,-169.69787639,-177.47631059,59.74642622,-5.27844394
-8.39157159,-1.71176919,-2.30557209,0.07310892,2.13955963

>  <Name>
ligand

>  <RI>
0

>  <Rbt.Current_Directory>
/home/itssahil/PROJECTS/Mol_Feturizer/New_Systems/rnas/4TS2

>  <Rbt.Executable>
rbdock ($Id: //depot/dev/client3/rdock/2013.1/src/exe/rbdock.cxx#4 $)

>  <Rbt.Library>
libRbt.so (2013.1, Build901 2013/11/27)

>  <Rbt.Parameter_File>
/export/apps/rDock/src/rDock_2013.1_src/data/scripts/dock_solv.prm

>  <Rbt.Receptor>
prm/pocket_docking_5.prm

>  <SCORE>
-8.70935

>  <SCORE.INTER>
-1.77645

>  <SCORE.INTER.CONST>
1

>  <SCORE.INTER.POLAR>
0

>  <SCORE.INTER.ROT>
5

>  <SCORE.INTER.SOLV>
6.52296

>  <SCORE.INTER.VDW>
-10.292

>  <SCORE.INTER.norm>
-0.0772371

>  <SCORE.INTRA>
-6.9329

>  <SCORE.INTRA.DIHEDRAL>
-11.7094

>  <SCORE.INTRA.DIHEDRAL.0>
12.4853

>  <SCORE.INTRA.POLAR>
0

>  <SCORE.INTRA.POLAR.0>
0

>  <SCORE.INTRA.REPUL>
0

>  <SCORE.INTRA.REPUL.0>
0

>  <SCORE.INTRA.SOLV>
0.499446

>  <SCORE.INTRA.SOLV.lig_0>
-31.1706

>  <SCORE.INTRA.VDW>
-1.3279

>  <SCORE.INTRA.VDW.0>
-1.16895

>  <SCORE.INTRA.norm>
-0.30143

>  <SCORE.RESTR>
0

>  <SCORE.RESTR.CAVITY>
0

>  <SCORE.RESTR.norm>
0

>  <SCORE.SYSTEM>
0

>  <SCORE.SYSTEM.CONST>
0

>  <SCORE.SYSTEM.DIHEDRAL>
0

>  <SCORE.SYSTEM.SOLV>
0

>  <SCORE.SYSTEM.norm>
0

>  <SCORE.heavy>
23

>  <SCORE.norm>
-0.378667

>  <RMSD>
5.045

$$$$
ligand
 OpenBabel11021811513D
libRbt.so/2013.1/901 2013/11/27
 23 24  0  0  0  0  0  0  0  0999 V2000
   -4.5451  -11.0787    1.6575 C   0  0  0  0  0  0  0  0  0  0  0  0
   -3.4974  -12.0675    1.6659 O   0  0  0  0  0  0  0  0  0  0  0  0
   -5.8930  -11.7848    1.6917 C   0  0  2  0  0  0  0  0  0  0  0  0
   -6.2045  -12.6633    0.4897 C   0  0  1  0  0  0  0  0  0  0  0  0
   -5.5282  -13.9144    0.6290 O   0  0  0  0  0  0  0  0  0  0  0  0
   -7.7240  -12.7689    0.5638 C   0  0  2  0  0  0  0  0  0  0  0  0
   -8.4466  -13.1113   -0.6248 O   0  0  0  0  0  0  0  0  0  0  0  0
   -8.1020  -11.3695    1.0163 C   0  0  2  0  0  0  0  0  0  0  0  0
   -6.9741  -10.8501    1.7522 O   0  0  0  0  0  0  0  0  0  0  0  0
   -9.3681  -11.4843    1.8843 C   0  0  0  0  0  0  0  0  0  0  0  0
  -10.5034  -11.9424    1.1367 O   0  0  0  0  0  0  0  0  0  0  0  0
   -8.7707   -9.2183    0.1487 C   0  0  2  0  0  0  0  0  0  0  0  0
   -8.2818  -10.5388   -0.1432 O   0  0  0  0  0  0  0  0  0  0  0  0
   -9.0641   -8.5394   -1.1762 C   0  0  2  0  0  0  0  0  0  0  0  0
   -9.8403   -9.4212   -1.9949 O   0  0  0  0  0  0  0  0  0  0  0  0
   -7.7775   -8.2302   -1.9096 C   0  0  1  0  0  0  0  0  0  0  0  0
   -8.0785   -7.3808   -3.0193 O   0  0  0  0  0  0  0  0  0  0  0  0
   -6.7850   -7.5514   -0.9850 C   0  0  2  0  0  0  0  0  0  0  0  0
   -5.5384   -7.4425   -1.6583 O   0  0  0  0  0  0  0  0  0  0  0  0
   -6.5813   -8.3327    0.3061 C   0  0  2  0  0  0  0  0  0  0  0  0
   -7.8505   -8.4595    0.9330 O   0  0  0  0  0  0  0  0  0  0  0  0
   -5.5901   -7.6294    1.2409 C   0  0  0  0  0  0  0  0  0  0  0  0
   -5.3834   -8.3354    2.4732 O   0  0  0  0  0  0  0  0  0  0  0  0
  1  2  1  0  0  0  0
  3  1  1  6  0  0  0
  3  9  1  0  0  0  0
  3  4  1  0  0  0  0
  4  5  1  1  0  0  0
  4  6  1  0  0  0  0
  6  7  1  6  0  0  0
  6  8  1  0  0  0  0
  8  9  1  0  0  0  0
  8 10  1  1  0  0  0
  8 13  1  0  0  0  0
 10 11  1  0  0  0  0
 12 13  1  6  0  0  0
 12 14  1  0  0  0  0
 12 21  1  0  0  0  0
 14 15  1  6  0  0  0
 14 16  1  0  0  0  0
 16 17  1  6  0  0  0
 16 18  1  0  0  0  0
 18 19  1  6  0  0  0
 18 20  1  0  0  0  0
 20 21  1  0  0  0  0
 20 22  1  1  0  0  0
 22 23  1  0  0  0  0
M  END
>  <CHROM.1>
-63.29085974,-65.28170497,-173.19952986,174.23155522,179.53932337,-7.22576062
-10.18762031,0.25834543,-1.26051299,-0.40069556,-0.39332723

>  <Name>
ligand

>  <RI>
0

>  <Rbt.Current_Directory>
/home/itssahil/PROJECTS/Mol_Feturizer/New_Systems/rnas/4TS2

>  <Rbt.Executable>
rbdock ($Id: //depot/dev/client3/rdock/2013.1/src/exe/rbdock.cxx#4 $)

>  <Rbt.Library>
libRbt.so (2013.1, Build901 2013/11/27)

>  <Rbt.Parameter_File>
/export/apps/rDock/src/rDock_2013.1_src/data/scripts/dock_solv.prm

>  <Rbt.Receptor>
prm/pocket_docking_5.prm

>  <SCORE>
-6.90329

>  <SCORE.INTER>
0.109644

>  <SCORE.INTER.CONST>
1

>  <SCORE.INTER.POLAR>
0

>  <SCORE.INTER.ROT>
5

>  <SCORE.INTER.SOLV>
6.06432

>  <SCORE.INTER.VDW>
-8.88168

>  <SCORE.INTER.norm>
0.00476714

>  <SCORE.INTRA>
-7.01294

>  <SCORE.INTRA.DIHEDRAL>
-11.8447

>  <SCORE.INTRA.DIHEDRAL.0>
12.4853

>  <SCORE.INTRA.POLAR>
0

>  <SCORE.INTRA.POLAR.0>
0

>  <SCORE.INTRA.REPUL>
0

>  <SCORE.INTRA.REPUL.0>
0

>  <SCORE.INTRA.SOLV>
0.785366

>  <SCORE.INTRA.SOLV.lig_0>
-31.1706

>  <SCORE.INTRA.VDW>
-1.48325

>  <SCORE.INTRA.VDW.0>
-1.16895

>  <SCORE.INTRA.norm>
-0.30491

>  <SCORE.RESTR>
0

>  <SCORE.RESTR.CAVITY>
0

>  <SCORE.RESTR.norm>
0

>  <SCORE.SYSTEM>
0

>  <SCORE.SYSTEM.CONST>
0

>  <SCORE.SYSTEM.DIHEDRAL>
0

>  <SCORE.SYSTEM.SOLV>
0

>  <SCORE.SYSTEM.norm>
0

>  <SCORE.heavy>
23

>  <SCORE.norm>
-0.300143

>  <RMSD>
5.053

$$$$
ligand
 OpenBabel11021811513D
libRbt.so/2013.1/901 2013/11/27
 23 24  0  0  0  0  0  0  0  0999 V2000
   -7.5644   -8.1830    0.7297 C   0  0  0  0  0  0  0  0  0  0  0  0
   -6.7179   -8.5985    1.8189 O   0  0  0  0  0  0  0  0  0  0  0  0
   -6.7186   -8.0369   -0.5272 C   0  0  2  0  0  0  0  0  0  0  0  0
   -7.4654   -7.5816   -1.7715 C   0  0  1  0  0  0  0  0  0  0  0  0
   -7.6577   -6.1666   -1.7178 O   0  0  0  0  0  0  0  0  0  0  0  0
   -6.5277   -8.0374   -2.8844 C   0  0  2  0  0  0  0  0  0  0  0  0
   -7.0629   -8.2198   -4.2006 O   0  0  0  0  0  0  0  0  0  0  0  0
   -6.0323   -9.3643   -2.3369 C   0  0  2  0  0  0  0  0  0  0  0  0
   -6.1106   -9.2774   -0.8983 O   0  0  0  0  0  0  0  0  0  0  0  0
   -4.5904   -9.5676   -2.8361 C   0  0  0  0  0  0  0  0  0  0  0  0
   -3.6984   -8.5509   -2.3585 O   0  0  0  0  0  0  0  0  0  0  0  0
   -6.7208  -11.6658   -2.0979 C   0  0  2  0  0  0  0  0  0  0  0  0
   -6.9307  -10.4051   -2.7571 O   0  0  0  0  0  0  0  0  0  0  0  0
   -7.0640  -12.7604   -3.0910 C   0  0  2  0  0  0  0  0  0  0  0  0
   -6.4087  -12.4895   -4.3349 O   0  0  0  0  0  0  0  0  0  0  0  0
   -8.5550  -12.7968   -3.3451 C   0  0  1  0  0  0  0  0  0  0  0  0
   -8.8628  -13.9827   -4.0817 O   0  0  0  0  0  0  0  0  0  0  0  0
   -9.3210  -12.7801   -2.0360 C   0  0  2  0  0  0  0  0  0  0  0  0
  -10.7054  -12.6349   -2.3219 O   0  0  0  0  0  0  0  0  0  0  0  0
   -8.8815  -11.6359   -1.1323 C   0  0  2  0  0  0  0  0  0  0  0  0
   -7.4876  -11.7867   -0.9000 O   0  0  0  0  0  0  0  0  0  0  0  0
   -9.6491  -11.6385    0.1950 C   0  0  0  0  0  0  0  0  0  0  0  0
   -9.2702  -10.5614    1.0644 O   0  0  0  0  0  0  0  0  0  0  0  0
  1  2  1  0  0  0  0
  3  1  1  1  0  0  0
  3  9  1  0  0  0  0
  3  4  1  0  0  0  0
  4  5  1  1  0  0  0
  4  6  1  0  0  0  0
  6  7  1  6  0  0  0
  6  8  1  0  0  0  0
  8  9  1  0  0  0  0
  8 10  1  6  0  0  0
  8 13  1  0  0  0  0
 10 11  1  0  0  0  0
 12 13  1  6  0  0  0
 12 14  1  0  0  0  0
 12 21  1  0  0  0  0
 14 15  1  6  0  0  0
 14 16  1  0  0  0  0
 16 17  1  1  0  0  0
 16 18  1  0  0  0  0
 18 19  1  6  0  0  0
 18 20  1  0  0  0  0
 20 21  1  0  0  0  0
 20 22  1  1  0  0  0
 22 23  1  0  0  0  0
M  END
>  <CHROM.1>
-179.16430311,62.09332681,-147.27827566,-168.69318364,-179.27231063,-7.39092691
-10.28573431,-1.81218230,0.91739081,0.78211186,0.78172759

>  <Name>
ligand

>  <RI>
0

>  <Rbt.Current_Directory>
/home/itssahil/PROJECTS/Mol_Feturizer/New_Systems/rnas/4TS2

>  <Rbt.Executable>
rbdock ($Id: //depot/dev/client3/rdock/2013.1/src/exe/rbdock.cxx#4 $)

>  <Rbt.Library>
libRbt.so (2013.1, Build901 2013/11/27)

>  <Rbt.Parameter_File>
/export/apps/rDock/src/rDock_2013.1_src/data/scripts/dock_solv.prm

>  <Rbt.Receptor>
prm/pocket_docking_6.prm

>  <SCORE>
-6.04073

>  <SCORE.INTER>
-0.636924

>  <SCORE.INTER.CONST>
1

>  <SCORE.INTER.POLAR>
0

>  <SCORE.INTER.ROT>
5

>  <SCORE.INTER.SOLV>
7.82096

>  <SCORE.INTER.VDW>
-9.96494

>  <SCORE.INTER.norm>
-0.0276923

>  <SCORE.INTRA>
-5.4038

>  <SCORE.INTRA.DIHEDRAL>
-7.84679

>  <SCORE.INTRA.DIHEDRAL.0>
12.4853

>  <SCORE.INTRA.POLAR>
0

>  <SCORE.INTRA.POLAR.0>
0

>  <SCORE.INTRA.REPUL>
0

>  <SCORE.INTRA.REPUL.0>
0

>  <SCORE.INTRA.SOLV>
0.245427

>  <SCORE.INTRA.SOLV.lig_0>
-31.1706

>  <SCORE.INTRA.VDW>
-1.60312

>  <SCORE.INTRA.VDW.0>
-1.16895

>  <SCORE.INTRA.norm>
-0.234948

>  <SCORE.RESTR>
0

>  <SCORE.RESTR.CAVITY>
0

>  <SCORE.RESTR.norm>
0

>  <SCORE.SYSTEM>
0

>  <SCORE.SYSTEM.CONST>
0

>  <SCORE.SYSTEM.DIHEDRAL>
0

>  <SCORE.SYSTEM.SOLV>
0

>  <SCORE.SYSTEM.norm>
0

>  <SCORE.heavy>
23

>  <SCORE.norm>
-0.26264

>  <RMSD>
5.083

$$$$
ligand
 OpenBabel11021811513D
libRbt.so/2013.1/901 2013/11/27
 23 24  0  0  0  0  0  0  0  0999 V2000
  -11.7002  -11.7596   -3.1186 C   0  0  0  0  0  0  0  0  0  0  0  0
  -12.0710  -13.1370   -2.9164 O   0  0  0  0  0  0  0  0  0  0  0  0
  -11.4725  -11.1038   -1.7642 C   0  0  2  0  0  0  0  0  0  0  0  0
  -11.0796   -9.6350   -1.8038 C   0  0  1  0  0  0  0  0  0  0  0  0
  -12.2472   -8.8374   -2.0110 O   0  0  0  0  0  0  0  0  0  0  0  0
  -10.4352   -9.4456   -0.4348 C   0  0  2  0  0  0  0  0  0  0  0  0
   -9.5280   -8.3526   -0.2489 O   0  0  0  0  0  0  0  0  0  0  0  0
   -9.7020  -10.7641   -0.2616 C   0  0  2  0  0  0  0  0  0  0  0  0
  -10.4186  -11.7455   -1.0405 O   0  0  0  0  0  0  0  0  0  0  0  0
   -9.6910  -11.0996    1.2408 C   0  0  0  0  0  0  0  0  0  0  0  0
  -11.0127  -11.2613    1.7742 O   0  0  0  0  0  0  0  0  0  0  0  0
   -8.3710  -10.4466   -2.2504 C   0  0  2  0  0  0  0  0  0  0  0  0
   -8.3853  -10.6414   -0.8256 O   0  0  0  0  0  0  0  0  0  0  0  0
   -7.1651  -11.1871   -2.7979 C   0  0  2  0  0  0  0  0  0  0  0  0
   -7.1438  -12.5140   -2.2604 O   0  0  0  0  0  0  0  0  0  0  0  0
   -5.8852  -10.4938   -2.3852 C   0  0  1  0  0  0  0  0  0  0  0  0
   -4.7995  -11.0688   -3.1161 O   0  0  0  0  0  0  0  0  0  0  0  0
   -5.9711   -9.0047   -2.6606 C   0  0  2  0  0  0  0  0  0  0  0  0
   -4.8296   -8.3724   -2.0980 O   0  0  0  0  0  0  0  0  0  0  0  0
   -7.2250   -8.3845   -2.0589 C   0  0  2  0  0  0  0  0  0  0  0  0
   -8.3444   -9.0653   -2.6096 O   0  0  0  0  0  0  0  0  0  0  0  0
   -7.3111   -6.8831   -2.3578 C   0  0  0  0  0  0  0  0  0  0  0  0
   -7.2674   -6.5871   -3.7614 O   0  0  0  0  0  0  0  0  0  0  0  0
  1  2  1  0  0  0  0
  3  1  1  6  0  0  0
  3  9  1  0  0  0  0
  3  4  1  0  0  0  0
  4  5  1  1  0  0  0
  4  6  1  0  0  0  0
  6  7  1  6  0  0  0
  6  8  1  0  0  0  0
  8  9  1  0  0  0  0
  8 10  1  1  0  0  0
  8 13  1  0  0  0  0
 10 11  1  0  0  0  0
 12 13  1  1  0  0  0
 12 14  1  0  0  0  0
 12 21  1  0  0  0  0
 14 15  1  1  0  0  0
 14 16  1  0  0  0  0
 16 17  1  6  0  0  0
 16 18  1  0  0  0  0
 18 19  1  1  0  0  0
 18 20  1  0  0  0  0
 20 21  1  0  0  0  0
 20 22  1  6  0  0  0
 22 23  1  0  0  0  0
M  END
>  <CHROM.1>
-179.65043308,61.49358904,-144.11005755,-65.48912038,56.57683430,-8.78413178
-10.08077097,-1.73138661,-2.75122473,0.30369030,-0.00012659

>  <Name>
ligand

>  <RI>
0

>  <Rbt.Current_Directory>
/home/itssahil/PROJECTS/Mol_Feturizer/New_Systems/rnas/4TS2

>  <Rbt.Executable>
rbdock ($Id: //depot/dev/client3/rdock/2013.1/src/exe/rbdock.cxx#4 $)

>  <Rbt.Library>
libRbt.so (2013.1, Build901 2013/11/27)

>  <Rbt.Parameter_File>
/export/apps/rDock/src/rDock_2013.1_src/data/scripts/dock_solv.prm

>  <Rbt.Receptor>
prm/pocket_docking_5.prm

>  <SCORE>
-8.65247

>  <SCORE.INTER>
-5.0591

>  <SCORE.INTER.CONST>
1

>  <SCORE.INTER.POLAR>
0

>  <SCORE.INTER.ROT>
5

>  <SCORE.INTER.SOLV>
6.22485

>  <SCORE.INTER.VDW>
-12.381

>  <SCORE.INTER.norm>
-0.219961

>  <SCORE.INTRA>
-3.59337

>  <SCORE.INTRA.DIHEDRAL>
-7.4715

>  <SCORE.INTRA.DIHEDRAL.0>
12.4853

>  <SCORE.INTRA.POLAR>
0

>  <SCORE.INTRA.POLAR.0>
0

>  <SCORE.INTRA.REPUL>
0

>  <SCORE.INTRA.REPUL.0>
0

>  <SCORE.INTRA.SOLV>
0.843894

>  <SCORE.INTRA.SOLV.lig_0>
-31.1706

>  <SCORE.INTRA.VDW>
-0.279566

>  <SCORE.INTRA.VDW.0>
-1.16895

>  <SCORE.INTRA.norm>
-0.156233

>  <SCORE.RESTR>
0

>  <SCORE.RESTR.CAVITY>
0

>  <SCORE.RESTR.norm>
0

>  <SCORE.SYSTEM>
0

>  <SCORE.SYSTEM.CONST>
0

>  <SCORE.SYSTEM.DIHEDRAL>
0

>  <SCORE.SYSTEM.SOLV>
0

>  <SCORE.SYSTEM.norm>
0

>  <SCORE.heavy>
23

>  <SCORE.norm>
-0.376194

>  <RMSD>
5.092

$$$$
ligand
 OpenBabel11021811513D
libRbt.so/2013.1/901 2013/11/27
 23 24  0  0  0  0  0  0  0  0999 V2000
   -4.4955   -8.7016    0.5050 C   0  0  0  0  0  0  0  0  0  0  0  0
   -4.2171   -8.1628    1.8117 O   0  0  0  0  0  0  0  0  0  0  0  0
   -5.7673   -8.0624   -0.0339 C   0  0  2  0  0  0  0  0  0  0  0  0
   -7.0320   -8.3444    0.7627 C   0  0  1  0  0  0  0  0  0  0  0  0
   -7.0705   -7.4914    1.9087 O   0  0  0  0  0  0  0  0  0  0  0  0
   -8.1210   -8.0519   -0.2639 C   0  0  2  0  0  0  0  0  0  0  0  0
   -9.4171   -8.6315   -0.0731 O   0  0  0  0  0  0  0  0  0  0  0  0
   -7.4914   -8.5948   -1.5346 C   0  0  2  0  0  0  0  0  0  0  0  0
   -6.0611   -8.5135   -1.3592 O   0  0  0  0  0  0  0  0  0  0  0  0
   -7.9898   -7.7332   -2.7089 C   0  0  0  0  0  0  0  0  0  0  0  0
   -7.5484   -6.3717   -2.6137 O   0  0  0  0  0  0  0  0  0  0  0  0
   -7.3438  -10.6009   -2.8692 C   0  0  2  0  0  0  0  0  0  0  0  0
   -7.8331   -9.9851   -1.6653 O   0  0  0  0  0  0  0  0  0  0  0  0
   -7.9094  -12.0080   -2.9219 C   0  0  2  0  0  0  0  0  0  0  0  0
   -9.3179  -11.9586   -2.6690 O   0  0  0  0  0  0  0  0  0  0  0  0
   -7.2725  -12.8753   -1.8584 C   0  0  1  0  0  0  0  0  0  0  0  0
   -7.6423  -14.2352   -2.0979 O   0  0  0  0  0  0  0  0  0  0  0  0
   -5.7627  -12.7310   -1.8845 C   0  0  2  0  0  0  0  0  0  0  0  0
   -5.2217  -13.4170   -0.7637 O   0  0  0  0  0  0  0  0  0  0  0  0
   -5.3278  -11.2728   -1.8269 C   0  0  2  0  0  0  0  0  0  0  0  0
   -5.9179  -10.6073   -2.9354 O   0  0  0  0  0  0  0  0  0  0  0  0
   -3.8012  -11.1371   -1.8715 C   0  0  0  0  0  0  0  0  0  0  0  0
   -3.1572  -11.6572   -0.6991 O   0  0  0  0  0  0  0  0  0  0  0  0
  1  2  1  0  0  0  0
  3  1  1  1  0  0  0
  3  9  1  0  0  0  0
  3  4  1  0  0  0  0
  4  5  1  1  0  0  0
  4  6  1  0  0  0  0
  6  7  1  1  0  0  0
  6  8  1  0  0  0  0
  8  9  1  0  0  0  0
  8 10  1  6  0  0  0
  8 13  1  0  0  0  0
 10 11  1  0  0  0  0
 12 13  1  1  0  0  0
 12 14  1  0  0  0  0
 12 21  1  0  0  0  0
 14 15  1  1  0  0  0
 14 16  1  0  0  0  0
 16 17  1  6  0  0  0
 16 18  1  0  0  0  0
 18 19  1  1  0  0  0
 18 20  1  0  0  0  0
 20 21  1  0  0  0  0
 20 22  1  6  0  0  0
 22 23  1  0  0  0  0
M  END
>  <CHROM.1>
-63.12468185,64.21650541,-174.12863863,177.26189640,-67.18800584,-6.59072111
-10.05070013,-1.18462088,-1.63552933,0.46429589,-2.72714506

>  <Name>
ligand

>  <RI>
0

>  <Rbt.Current_Directory>
/home/itssahil/PROJECTS/Mol_Feturizer/New_Systems/rnas/4TS2

>  <Rbt.Executable>
rbdock ($Id: //depot/dev/client3/rdock/2013.1/src/exe/rbdock.cxx#4 $)

>  <Rbt.Library>
libRbt.so (2013.1, Build901 2013/11/27)

>  <Rbt.Parameter_File>
/export/apps/rDock/src/rDock_2013.1_src/data/scripts/dock_solv.prm

>  <Rbt.Receptor>
prm/pocket_docking_8.prm

>  <SCORE>
-8.52103

>  <SCORE.INTER>
-1.57092

>  <SCORE.INTER.CONST>
1

>  <SCORE.INTER.POLAR>
0

>  <SCORE.INTER.ROT>
5

>  <SCORE.INTER.SOLV>
7.22255

>  <SCORE.INTER.VDW>
-10.3881

>  <SCORE.INTER.norm>
-0.0683007

>  <SCORE.INTRA>
-6.95012

>  <SCORE.INTRA.DIHEDRAL>
-11.8563

>  <SCORE.INTRA.DIHEDRAL.0>
12.4853

>  <SCORE.INTRA.POLAR>
0

>  <SCORE.INTRA.POLAR.0>
0

>  <SCORE.INTRA.REPUL>
0

>  <SCORE.INTRA.REPUL.0>
0

>  <SCORE.INTRA.SOLV>
0.512418

>  <SCORE.INTRA.SOLV.lig_0>
-31.1706

>  <SCORE.INTRA.VDW>
-1.27816

>  <SCORE.INTRA.VDW.0>
-1.16895

>  <SCORE.INTRA.norm>
-0.302179

>  <SCORE.RESTR>
0

>  <SCORE.RESTR.CAVITY>
0

>  <SCORE.RESTR.norm>
0

>  <SCORE.SYSTEM>
0

>  <SCORE.SYSTEM.CONST>
0

>  <SCORE.SYSTEM.DIHEDRAL>
0

>  <SCORE.SYSTEM.SOLV>
0

>  <SCORE.SYSTEM.norm>
0

>  <SCORE.heavy>
23

>  <SCORE.norm>
-0.37048

>  <RMSD>
5.118

$$$$
ligand
 OpenBabel11021811513D
libRbt.so/2013.1/901 2013/11/27
 23 24  0  0  0  0  0  0  0  0999 V2000
   -4.6055   -6.3801   -4.0014 C   0  0  0  0  0  0  0  0  0  0  0  0
   -4.9714   -5.4239   -5.0150 O   0  0  0  0  0  0  0  0  0  0  0  0
   -5.8412   -7.1718   -3.5981 C   0  0  2  0  0  0  0  0  0  0  0  0
   -6.8684   -6.4106   -2.7741 C   0  0  1  0  0  0  0  0  0  0  0  0
   -7.6570   -5.5910   -3.6392 O   0  0  0  0  0  0  0  0  0  0  0  0
   -7.6466   -7.5455   -2.1169 C   0  0  2  0  0  0  0  0  0  0  0  0
   -8.3846   -7.2685   -0.9207 O   0  0  0  0  0  0  0  0  0  0  0  0
   -6.5383   -8.5414   -1.8243 C   0  0  2  0  0  0  0  0  0  0  0  0
   -5.4995   -8.3078   -2.7987 O   0  0  0  0  0  0  0  0  0  0  0  0
   -7.1387   -9.9548   -1.9321 C   0  0  0  0  0  0  0  0  0  0  0  0
   -8.1521  -10.1948   -0.9457 O   0  0  0  0  0  0  0  0  0  0  0  0
   -4.6770   -8.8073   -0.3101 C   0  0  2  0  0  0  0  0  0  0  0  0
   -5.9873   -8.2560   -0.5274 O   0  0  0  0  0  0  0  0  0  0  0  0
   -4.4539   -8.8707    1.1894 C   0  0  2  0  0  0  0  0  0  0  0  0
   -5.5933   -9.4769    1.8094 O   0  0  0  0  0  0  0  0  0  0  0  0
   -4.2948   -7.4789    1.7608 C   0  0  1  0  0  0  0  0  0  0  0  0
   -3.8448   -7.5902    3.1131 O   0  0  0  0  0  0  0  0  0  0  0  0
   -3.3014   -6.6757    0.9430 C   0  0  2  0  0  0  0  0  0  0  0  0
   -3.3171   -5.3310    1.4025 O   0  0  0  0  0  0  0  0  0  0  0  0
   -3.6383   -6.6932   -0.5420 C   0  0  2  0  0  0  0  0  0  0  0  0
   -3.6551   -8.0515   -0.9598 O   0  0  0  0  0  0  0  0  0  0  0  0
   -2.6185   -5.8934   -1.3614 C   0  0  0  0  0  0  0  0  0  0  0  0
   -1.2909   -6.4332   -1.2860 O   0  0  0  0  0  0  0  0  0  0  0  0
  1  2  1  0  0  0  0
  3  1  1  1  0  0  0
  3  9  1  0  0  0  0
  3  4  1  0  0  0  0
  4  5  1  6  0  0  0
  4  6  1  0  0  0  0
  6  7  1  1  0  0  0
  6  8  1  0  0  0  0
  8  9  1  0  0  0  0
  8 10  1  6  0  0  0
  8 13  1  0  0  0  0
 10 11  1  0  0  0  0
 12 13  1  1  0  0  0
 12 14  1  0  0  0  0
 12 21  1  0  0  0  0
 14 15  1  1  0  0  0
 14 16  1  0  0  0  0
 16 17  1  1  0  0  0
 16 18  1  0  0  0  0
 18 19  1  1  0  0  0
 18 20  1  0  0  0  0
 20 21  1  0  0  0  0
 20 22  1  6  0  0  0
 22 23  1  0  0  0  0
M  END
>  <CHROM.1>
-72.03891611,-63.77615878,-159.79932324,-160.37636634,62.48130939,-5.21714973
-7.48500089,-1.05145700,-2.30031871,0.51039166,2.02914637

>  <Name>
ligand

>  <RI>
0

>  <Rbt.Current_Directory>
/home/itssahil/PROJECTS/Mol_Feturizer/New_Systems/rnas/4TS2

>  <Rbt.Executable>
rbdock ($Id: //depot/dev/client3/rdock/2013.1/src/exe/rbdock.cxx#4 $)

>  <Rbt.Library>
libRbt.so (2013.1, Build901 2013/11/27)

>  <Rbt.Parameter_File>
/export/apps/rDock/src/rDock_2013.1_src/data/scripts/dock_solv.prm

>  <Rbt.Receptor>
prm/pocket_docking_7.prm

>  <SCORE>
-9.00211

>  <SCORE.INTER>
-3.43789

>  <SCORE.INTER.CONST>
1

>  <SCORE.INTER.POLAR>
0

>  <SCORE.INTER.ROT>
5

>  <SCORE.INTER.SOLV>
8.85227

>  <SCORE.INTER.VDW>
-12.176

>  <SCORE.INTER.norm>
-0.149474

>  <SCORE.INTRA>
-5.56422

>  <SCORE.INTRA.DIHEDRAL>
-8.55396

>  <SCORE.INTRA.DIHEDRAL.0>
12.4853

>  <SCORE.INTRA.POLAR>
0

>  <SCORE.INTRA.POLAR.0>
0

>  <SCORE.INTRA.REPUL>
0

>  <SCORE.INTRA.REPUL.0>
0

>  <SCORE.INTRA.SOLV>
0.617831

>  <SCORE.INTRA.SOLV.lig_0>
-31.1706

>  <SCORE.INTRA.VDW>
-1.59615

>  <SCORE.INTRA.VDW.0>
-1.16895

>  <SCORE.INTRA.norm>
-0.241922

>  <SCORE.RESTR>
0

>  <SCORE.RESTR.CAVITY>
0

>  <SCORE.RESTR.norm>
0

>  <SCORE.SYSTEM>
0

>  <SCORE.SYSTEM.CONST>
0

>  <SCORE.SYSTEM.DIHEDRAL>
0

>  <SCORE.SYSTEM.SOLV>
0

>  <SCORE.SYSTEM.norm>
0

>  <SCORE.heavy>
23

>  <SCORE.norm>
-0.391396

>  <RMSD>
5.126

$$$$
ligand
 OpenBabel11021811513D
libRbt.so/2013.1/901 2013/11/27
 23 24  0  0  0  0  0  0  0  0999 V2000
   -4.6801   -9.2053    0.4281 C   0  0  0  0  0  0  0  0  0  0  0  0
   -4.5352   -8.9970    1.8462 O   0  0  0  0  0  0  0  0  0  0  0  0
   -5.7308   -8.2441   -0.1090 C   0  0  2  0  0  0  0  0  0  0  0  0
   -7.1264   -8.4043    0.4743 C   0  0  1  0  0  0  0  0  0  0  0  0
   -7.1804   -7.7722    1.7548 O   0  0  0  0  0  0  0  0  0  0  0  0
   -7.9891   -7.7292   -0.5866 C   0  0  2  0  0  0  0  0  0  0  0  0
   -9.3799   -8.0656   -0.6556 O   0  0  0  0  0  0  0  0  0  0  0  0
   -7.2874   -8.1573   -1.8634 C   0  0  2  0  0  0  0  0  0  0  0  0
   -5.9049   -8.3917   -1.5211 O   0  0  0  0  0  0  0  0  0  0  0  0
   -7.4546   -7.0242   -2.8918 C   0  0  0  0  0  0  0  0  0  0  0  0
   -6.8205   -7.3240   -4.1431 O   0  0  0  0  0  0  0  0  0  0  0  0
   -7.5929  -10.5086   -1.4099 C   0  0  2  0  0  0  0  0  0  0  0  0
   -7.8429   -9.4087   -2.3019 O   0  0  0  0  0  0  0  0  0  0  0  0
   -7.4092  -11.7512   -2.2612 C   0  0  2  0  0  0  0  0  0  0  0  0
   -6.4846  -11.4659   -3.3166 O   0  0  0  0  0  0  0  0  0  0  0  0
   -8.7232  -12.1630   -2.8880 C   0  0  1  0  0  0  0  0  0  0  0  0
   -8.5637  -13.4585   -3.4709 O   0  0  0  0  0  0  0  0  0  0  0  0
   -9.8267  -12.1894   -1.8477 C   0  0  2  0  0  0  0  0  0  0  0  0
  -11.0671  -12.4041   -2.5070 O   0  0  0  0  0  0  0  0  0  0  0  0
   -9.9038  -10.8858   -1.0644 C   0  0  2  0  0  0  0  0  0  0  0  0
   -8.6377  -10.6799   -0.4525 O   0  0  0  0  0  0  0  0  0  0  0  0
  -11.0104  -10.9293   -0.0040 C   0  0  0  0  0  0  0  0  0  0  0  0
  -11.1344   -9.7013    0.7283 O   0  0  0  0  0  0  0  0  0  0  0  0
  1  2  1  0  0  0  0
  3  1  1  1  0  0  0
  3  9  1  0  0  0  0
  3  4  1  0  0  0  0
  4  5  1  1  0  0  0
  4  6  1  0  0  0  0
  6  7  1  6  0  0  0
  6  8  1  0  0  0  0
  8  9  1  0  0  0  0
  8 10  1  6  0  0  0
  8 13  1  0  0  0  0
 10 11  1  0  0  0  0
 12 13  1  6  0  0  0
 12 14  1  0  0  0  0
 12 21  1  0  0  0  0
 14 15  1  6  0  0  0
 14 16  1  0  0  0  0
 16 17  1  1  0  0  0
 16 18  1  0  0  0  0
 18 19  1  6  0  0  0
 18 20  1  0  0  0  0
 20 21  1  0  0  0  0
 20 22  1  1  0  0  0
 22 23  1  0  0  0  0
M  END
>  <CHROM.1>
-61.23588837,179.78652591,-145.17532514,-65.50655095,-178.38629549,-7.92881579
-9.77602870,-1.22009558,-0.75126269,-0.52754084,-2.15626326

>  <Name>
ligand

>  <RI>
0

>  <Rbt.Current_Directory>
/home/itssahil/PROJECTS/Mol_Feturizer/New_Systems/rnas/4TS2

>  <Rbt.Executable>
rbdock ($Id: //depot/dev/client3/rdock/2013.1/src/exe/rbdock.cxx#4 $)

>  <Rbt.Library>
libRbt.so (2013.1, Build901 2013/11/27)

>  <Rbt.Parameter_File>
/export/apps/rDock/src/rDock_2013.1_src/data/scripts/dock_solv.prm

>  <Rbt.Receptor>
prm/pocket_docking_4.prm

>  <SCORE>
-6.47166

>  <SCORE.INTER>
-2.67633

>  <SCORE.INTER.CONST>
1

>  <SCORE.INTER.POLAR>
0

>  <SCORE.INTER.ROT>
5

>  <SCORE.INTER.SOLV>
7.99395

>  <SCORE.INTER.VDW>
-11.3822

>  <SCORE.INTER.norm>
-0.116362

>  <SCORE.INTRA>
-3.79533

>  <SCORE.INTRA.DIHEDRAL>
-7.70953

>  <SCORE.INTRA.DIHEDRAL.0>
12.4853

>  <SCORE.INTRA.POLAR>
0

>  <SCORE.INTRA.POLAR.0>
0

>  <SCORE.INTRA.REPUL>
0

>  <SCORE.INTRA.REPUL.0>
0

>  <SCORE.INTRA.SOLV>
1.04064

>  <SCORE.INTRA.SOLV.lig_0>
-31.1706

>  <SCORE.INTRA.VDW>
-0.460882

>  <SCORE.INTRA.VDW.0>
-1.16895

>  <SCORE.INTRA.norm>
-0.165014

>  <SCORE.RESTR>
0

>  <SCORE.RESTR.CAVITY>
0

>  <SCORE.RESTR.norm>
0

>  <SCORE.SYSTEM>
0

>  <SCORE.SYSTEM.CONST>
0

>  <SCORE.SYSTEM.DIHEDRAL>
0

>  <SCORE.SYSTEM.SOLV>
0

>  <SCORE.SYSTEM.norm>
0

>  <SCORE.heavy>
23

>  <SCORE.norm>
-0.281377

>  <RMSD>
5.155

$$$$
ligand
 OpenBabel11021811513D
libRbt.so/2013.1/901 2013/11/27
 23 24  0  0  0  0  0  0  0  0999 V2000
   -4.6092   -6.1827   -3.9420 C   0  0  0  0  0  0  0  0  0  0  0  0
   -3.6788   -6.9660   -4.7144 O   0  0  0  0  0  0  0  0  0  0  0  0
   -5.8142   -7.0451   -3.5947 C   0  0  2  0  0  0  0  0  0  0  0  0
   -6.8902   -6.3648   -2.7624 C   0  0  1  0  0  0  0  0  0  0  0  0
   -7.6999   -5.5479   -3.6106 O   0  0  0  0  0  0  0  0  0  0  0  0
   -7.6272   -7.5592   -2.1658 C   0  0  2  0  0  0  0  0  0  0  0  0
   -8.3988   -7.3639   -0.9747 O   0  0  0  0  0  0  0  0  0  0  0  0
   -6.4796   -8.5147   -1.8901 C   0  0  2  0  0  0  0  0  0  0  0  0
   -5.4350   -8.1954   -2.8337 O   0  0  0  0  0  0  0  0  0  0  0  0
   -7.0121   -9.9484   -2.0651 C   0  0  0  0  0  0  0  0  0  0  0  0
   -8.0600  -10.2593   -1.1362 O   0  0  0  0  0  0  0  0  0  0  0  0
   -4.6584   -8.8044   -0.3322 C   0  0  2  0  0  0  0  0  0  0  0  0
   -5.9662   -8.2565   -0.5723 O   0  0  0  0  0  0  0  0  0  0  0  0
   -4.4640   -8.8739    1.1710 C   0  0  2  0  0  0  0  0  0  0  0  0
   -5.6131   -9.4869    1.7661 O   0  0  0  0  0  0  0  0  0  0  0  0
   -4.3208   -7.4843    1.7517 C   0  0  1  0  0  0  0  0  0  0  0  0
   -3.8966   -7.6003    3.1119 O   0  0  0  0  0  0  0  0  0  0  0  0
   -3.3146   -6.6739    0.9569 C   0  0  2  0  0  0  0  0  0  0  0  0
   -3.3439   -5.3315    1.4221 O   0  0  0  0  0  0  0  0  0  0  0  0
   -3.6227   -6.6858   -0.5344 C   0  0  2  0  0  0  0  0  0  0  0  0
   -3.6268   -8.0421   -0.9586 O   0  0  0  0  0  0  0  0  0  0  0  0
   -2.5901   -5.8787   -1.3303 C   0  0  0  0  0  0  0  0  0  0  0  0
   -1.2549   -6.3869   -1.1942 O   0  0  0  0  0  0  0  0  0  0  0  0
  1  2  1  0  0  0  0
  3  1  1  1  0  0  0
  3  9  1  0  0  0  0
  3  4  1  0  0  0  0
  4  5  1  6  0  0  0
  4  6  1  0  0  0  0
  6  7  1  1  0  0  0
  6  8  1  0  0  0  0
  8  9  1  0  0  0  0
  8 10  1  6  0  0  0
  8 13  1  0  0  0  0
 10 11  1  0  0  0  0
 12 13  1  1  0  0  0
 12 14  1  0  0  0  0
 12 21  1  0  0  0  0
 14 15  1  1  0  0  0
 14 16  1  0  0  0  0
 16 17  1  1  0  0  0
 16 18  1  0  0  0  0
 18 19  1  1  0  0  0
 18 20  1  0  0  0  0
 20 21  1  0  0  0  0
 20 22  1  6  0  0  0
 22 23  1  0  0  0  0
M  END
>  <CHROM.1>
179.38495809,-61.97022925,-160.99692543,-162.83429130,60.44038568,-5.14229502
-7.54091995,-1.05453062,-2.37408185,0.48106950,1.93080411

>  <Name>
ligand

>  <RI>
0

>  <Rbt.Current_Directory>
/home/itssahil/PROJECTS/Mol_Feturizer/New_Systems/rnas/4TS2

>  <Rbt.Executable>
rbdock ($Id: //depot/dev/client3/rdock/2013.1/src/exe/rbdock.cxx#4 $)

>  <Rbt.Library>
libRbt.so (2013.1, Build901 2013/11/27)

>  <Rbt.Parameter_File>
/export/apps/rDock/src/rDock_2013.1_src/data/scripts/dock_solv.prm

>  <Rbt.Receptor>
prm/pocket_docking_6.prm

>  <SCORE>
-9.48434

>  <SCORE.INTER>
-3.2603

>  <SCORE.INTER.CONST>
1

>  <SCORE.INTER.POLAR>
0

>  <SCORE.INTER.ROT>
5

>  <SCORE.INTER.SOLV>
8.34189

>  <SCORE.INTER.VDW>
-11.8875

>  <SCORE.INTER.norm>
-0.141752

>  <SCORE.INTRA>
-6.22404

>  <SCORE.INTRA.DIHEDRAL>
-9.65323

>  <SCORE.INTRA.DIHEDRAL.0>
12.4853

>  <SCORE.INTRA.POLAR>
0

>  <SCORE.INTRA.POLAR.0>
0

>  <SCORE.INTRA.REPUL>
0

>  <SCORE.INTRA.REPUL.0>
0

>  <SCORE.INTRA.SOLV>
0.545034

>  <SCORE.INTRA.SOLV.lig_0>
-31.1706

>  <SCORE.INTRA.VDW>
-1.66994

>  <SCORE.INTRA.VDW.0>
-1.16895

>  <SCORE.INTRA.norm>
-0.270611

>  <SCORE.RESTR>
0

>  <SCORE.RESTR.CAVITY>
0

>  <SCORE.RESTR.norm>
0

>  <SCORE.SYSTEM>
0

>  <SCORE.SYSTEM.CONST>
0

>  <SCORE.SYSTEM.DIHEDRAL>
0

>  <SCORE.SYSTEM.SOLV>
0

>  <SCORE.SYSTEM.norm>
0

>  <SCORE.heavy>
23

>  <SCORE.norm>
-0.412363

>  <RMSD>
5.158

$$$$
ligand
 OpenBabel11021811513D
libRbt.so/2013.1/901 2013/11/27
 23 24  0  0  0  0  0  0  0  0999 V2000
   -5.1529   -8.6617    0.4869 C   0  0  0  0  0  0  0  0  0  0  0  0
   -5.5872   -8.3928    1.8339 O   0  0  0  0  0  0  0  0  0  0  0  0
   -6.1278   -8.0149   -0.4865 C   0  0  2  0  0  0  0  0  0  0  0  0
   -7.5541   -8.5405   -0.4335 C   0  0  1  0  0  0  0  0  0  0  0  0
   -8.2380   -7.9451    0.6710 O   0  0  0  0  0  0  0  0  0  0  0  0
   -8.0943   -8.1195   -1.7961 C   0  0  2  0  0  0  0  0  0  0  0  0
   -9.2285   -8.8138   -2.3287 O   0  0  0  0  0  0  0  0  0  0  0  0
   -6.8832   -8.3459   -2.6838 C   0  0  2  0  0  0  0  0  0  0  0  0
   -5.7179   -8.2039   -1.8439 O   0  0  0  0  0  0  0  0  0  0  0  0
   -6.9268   -7.2984   -3.8110 C   0  0  0  0  0  0  0  0  0  0  0  0
   -6.9042   -5.9547   -3.3094 O   0  0  0  0  0  0  0  0  0  0  0  0
   -6.7697  -10.6942   -2.1358 C   0  0  2  0  0  0  0  0  0  0  0  0
   -6.9068   -9.7001   -3.1658 O   0  0  0  0  0  0  0  0  0  0  0  0
   -5.8997  -11.8065   -2.6910 C   0  0  2  0  0  0  0  0  0  0  0  0
   -4.7311  -11.2355   -3.2896 O   0  0  0  0  0  0  0  0  0  0  0  0
   -6.6436  -12.5782   -3.7587 C   0  0  1  0  0  0  0  0  0  0  0  0
   -5.8951  -13.7541   -4.0759 O   0  0  0  0  0  0  0  0  0  0  0  0
   -8.0315  -12.9554   -3.2766 C   0  0  2  0  0  0  0  0  0  0  0  0
   -8.7532  -13.5163   -4.3647 O   0  0  0  0  0  0  0  0  0  0  0  0
   -8.7977  -11.7515   -2.7452 C   0  0  2  0  0  0  0  0  0  0  0  0
   -8.0311  -11.1902   -1.6882 O   0  0  0  0  0  0  0  0  0  0  0  0
  -10.1921  -12.1463   -2.2444 C   0  0  0  0  0  0  0  0  0  0  0  0
  -10.9557  -11.0274   -1.7705 O   0  0  0  0  0  0  0  0  0  0  0  0
  1  2  1  0  0  0  0
  3  1  1  1  0  0  0
  3  9  1  0  0  0  0
  3  4  1  0  0  0  0
  4  5  1  1  0  0  0
  4  6  1  0  0  0  0
  6  7  1  6  0  0  0
  6  8  1  0  0  0  0
  8  9  1  0  0  0  0
  8 10  1  6  0  0  0
  8 13  1  0  0  0  0
 10 11  1  0  0  0  0
 12 13  1  6  0  0  0
 12 14  1  0  0  0  0
 12 21  1  0  0  0  0
 14 15  1  6  0  0  0
 14 16  1  0  0  0  0
 16 17  1  1  0  0  0
 16 18  1  0  0  0  0
 18 19  1  6  0  0  0
 18 20  1  0  0  0  0
 20 21  1  0  0  0  0
 20 22  1  1  0  0  0
 22 23  1  0  0  0  0
M  END
>  <CHROM.1>
-62.69488197,59.48035071,-141.49744995,-64.47856529,-178.37073836,-7.31292145
-10.02210648,-2.12176241,-1.34942653,-0.13380060,-2.61683873

>  <Name>
ligand

>  <RI>
0

>  <Rbt.Current_Directory>
/home/itssahil/PROJECTS/Mol_Feturizer/New_Systems/rnas/4TS2

>  <Rbt.Executable>
rbdock ($Id: //depot/dev/client3/rdock/2013.1/src/exe/rbdock.cxx#4 $)

>  <Rbt.Library>
libRbt.so (2013.1, Build901 2013/11/27)

>  <Rbt.Parameter_File>
/export/apps/rDock/src/rDock_2013.1_src/data/scripts/dock_solv.prm

>  <Rbt.Receptor>
prm/pocket_docking_4.prm

>  <SCORE>
-7.37226

>  <SCORE.INTER>
-3.92171

>  <SCORE.INTER.CONST>
1

>  <SCORE.INTER.POLAR>
0

>  <SCORE.INTER.ROT>
5

>  <SCORE.INTER.SOLV>
7.42123

>  <SCORE.INTER.VDW>
-12.0215

>  <SCORE.INTER.norm>
-0.170509

>  <SCORE.INTRA>
-3.45055

>  <SCORE.INTRA.DIHEDRAL>
-7.10854

>  <SCORE.INTRA.DIHEDRAL.0>
12.4853

>  <SCORE.INTRA.POLAR>
0

>  <SCORE.INTRA.POLAR.0>
0

>  <SCORE.INTRA.REPUL>
0

>  <SCORE.INTRA.REPUL.0>
0

>  <SCORE.INTRA.SOLV>
1.18186

>  <SCORE.INTRA.SOLV.lig_0>
-31.1706

>  <SCORE.INTRA.VDW>
-0.48721

>  <SCORE.INTRA.VDW.0>
-1.16895

>  <SCORE.INTRA.norm>
-0.150024

>  <SCORE.RESTR>
0

>  <SCORE.RESTR.CAVITY>
0

>  <SCORE.RESTR.norm>
0

>  <SCORE.SYSTEM>
0

>  <SCORE.SYSTEM.CONST>
0

>  <SCORE.SYSTEM.DIHEDRAL>
0

>  <SCORE.SYSTEM.SOLV>
0

>  <SCORE.SYSTEM.norm>
0

>  <SCORE.heavy>
23

>  <SCORE.norm>
-0.320533

>  <RMSD>
5.175

$$$$
ligand
 OpenBabel11021811513D
libRbt.so/2013.1/901 2013/11/27
 23 24  0  0  0  0  0  0  0  0999 V2000
   -4.6113   -6.2002   -3.9402 C   0  0  0  0  0  0  0  0  0  0  0  0
   -3.7164   -6.9579   -4.7771 O   0  0  0  0  0  0  0  0  0  0  0  0
   -5.8201   -7.0605   -3.6010 C   0  0  2  0  0  0  0  0  0  0  0  0
   -6.8896   -6.3857   -2.7558 C   0  0  1  0  0  0  0  0  0  0  0  0
   -7.6972   -5.5525   -3.5899 O   0  0  0  0  0  0  0  0  0  0  0  0
   -7.6315   -7.5840   -2.1734 C   0  0  2  0  0  0  0  0  0  0  0  0
   -8.3982   -7.4010   -0.9773 O   0  0  0  0  0  0  0  0  0  0  0  0
   -6.4885   -8.5498   -1.9148 C   0  0  2  0  0  0  0  0  0  0  0  0
   -5.4452   -8.2234   -2.8572 O   0  0  0  0  0  0  0  0  0  0  0  0
   -7.0298   -9.9779   -2.1079 C   0  0  0  0  0  0  0  0  0  0  0  0
   -8.0459  -10.3111   -1.1518 O   0  0  0  0  0  0  0  0  0  0  0  0
   -4.6820   -8.9064   -0.3537 C   0  0  2  0  0  0  0  0  0  0  0  0
   -5.9695   -8.3129   -0.5952 O   0  0  0  0  0  0  0  0  0  0  0  0
   -4.4765   -8.9497    1.1490 C   0  0  2  0  0  0  0  0  0  0  0  0
   -5.6431   -9.5035    1.7676 O   0  0  0  0  0  0  0  0  0  0  0  0
   -4.2735   -7.5541    1.6967 C   0  0  1  0  0  0  0  0  0  0  0  0
   -3.8416   -7.6562    3.0555 O   0  0  0  0  0  0  0  0  0  0  0  0
   -3.2438   -6.8021    0.8752 C   0  0  2  0  0  0  0  0  0  0  0  0
   -3.2161   -5.4494    1.3099 O   0  0  0  0  0  0  0  0  0  0  0  0
   -3.5660   -6.8352   -0.6128 C   0  0  2  0  0  0  0  0  0  0  0  0
   -3.6271   -8.1996   -1.0060 O   0  0  0  0  0  0  0  0  0  0  0  0
   -2.5100   -6.0876   -1.4355 C   0  0  0  0  0  0  0  0  0  0  0  0
   -2.5244   -4.6701   -1.2115 O   0  0  0  0  0  0  0  0  0  0  0  0
  1  2  1  0  0  0  0
  3  1  1  1  0  0  0
  3  9  1  0  0  0  0
  3  4  1  0  0  0  0
  4  5  1  6  0  0  0
  4  6  1  0  0  0  0
  6  7  1  1  0  0  0
  6  8  1  0  0  0  0
  8  9  1  0  0  0  0
  8 10  1  6  0  0  0
  8 13  1  0  0  0  0
 10 11  1  0  0  0  0
 12 13  1  1  0  0  0
 12 14  1  0  0  0  0
 12 21  1  0  0  0  0
 14 15  1  1  0  0  0
 14 16  1  0  0  0  0
 16 17  1  1  0  0  0
 16 18  1  0  0  0  0
 18 19  1  1  0  0  0
 18 20  1  0  0  0  0
 20 21  1  0  0  0  0
 20 22  1  6  0  0  0
 22 23  1  0  0  0  0
M  END
>  <CHROM.1>
-178.02513154,-63.88727348,-162.59655291,-164.64108344,-68.34462067,-5.19014292
-7.51835878,-1.08811060,-2.36254226,0.58677872,2.00562094

>  <Name>
ligand

>  <RI>
0

>  <Rbt.Current_Directory>
/home/itssahil/PROJECTS/Mol_Feturizer/New_Systems/rnas/4TS2

>  <Rbt.Executable>
rbdock ($Id: //depot/dev/client3/rdock/2013.1/src/exe/rbdock.cxx#4 $)

>  <Rbt.Library>
libRbt.so (2013.1, Build901 2013/11/27)

>  <Rbt.Parameter_File>
/export/apps/rDock/src/rDock_2013.1_src/data/scripts/dock_solv.prm

>  <Rbt.Receptor>
prm/pocket_docking_7.prm

>  <SCORE>
-9.54036

>  <SCORE.INTER>
-3.31086

>  <SCORE.INTER.CONST>
1

>  <SCORE.INTER.POLAR>
0

>  <SCORE.INTER.ROT>
5

>  <SCORE.INTER.SOLV>
8.83673

>  <SCORE.INTER.VDW>
-12.0862

>  <SCORE.INTER.norm>
-0.143951

>  <SCORE.INTRA>
-6.2295

>  <SCORE.INTRA.DIHEDRAL>
-9.84704

>  <SCORE.INTRA.DIHEDRAL.0>
12.4853

>  <SCORE.INTRA.POLAR>
0

>  <SCORE.INTRA.POLAR.0>
0

>  <SCORE.INTRA.REPUL>
0

>  <SCORE.INTRA.REPUL.0>
0

>  <SCORE.INTRA.SOLV>
0.625079

>  <SCORE.INTRA.SOLV.lig_0>
-31.1706

>  <SCORE.INTRA.VDW>
-1.61852

>  <SCORE.INTRA.VDW.0>
-1.16895

>  <SCORE.INTRA.norm>
-0.270848

>  <SCORE.RESTR>
0

>  <SCORE.RESTR.CAVITY>
0

>  <SCORE.RESTR.norm>
0

>  <SCORE.SYSTEM>
0

>  <SCORE.SYSTEM.CONST>
0

>  <SCORE.SYSTEM.DIHEDRAL>
0

>  <SCORE.SYSTEM.SOLV>
0

>  <SCORE.SYSTEM.norm>
0

>  <SCORE.heavy>
23

>  <SCORE.norm>
-0.414798

>  <RMSD>
5.176

$$$$
ligand
 OpenBabel11021811513D
libRbt.so/2013.1/901 2013/11/27
 23 24  0  0  0  0  0  0  0  0999 V2000
   -5.8257   -7.6338    1.3134 C   0  0  0  0  0  0  0  0  0  0  0  0
   -6.0837   -8.6449    2.3067 O   0  0  0  0  0  0  0  0  0  0  0  0
   -6.3644   -8.1087   -0.0285 C   0  0  2  0  0  0  0  0  0  0  0  0
   -5.7127   -9.3627   -0.5909 C   0  0  1  0  0  0  0  0  0  0  0  0
   -6.2628  -10.5130    0.0544 O   0  0  0  0  0  0  0  0  0  0  0  0
   -6.0591   -9.2587   -2.0723 C   0  0  2  0  0  0  0  0  0  0  0  0
   -5.2556   -9.9763   -3.0167 O   0  0  0  0  0  0  0  0  0  0  0  0
   -5.9280   -7.7645   -2.3087 C   0  0  2  0  0  0  0  0  0  0  0  0
   -6.1896   -7.1177   -1.0451 O   0  0  0  0  0  0  0  0  0  0  0  0
   -6.9473   -7.3709   -3.3930 C   0  0  0  0  0  0  0  0  0  0  0  0
   -8.3000   -7.6272   -2.9901 O   0  0  0  0  0  0  0  0  0  0  0  0
   -4.2352   -6.0713   -2.6173 C   0  0  2  0  0  0  0  0  0  0  0  0
   -4.5690   -7.4690   -2.6729 O   0  0  0  0  0  0  0  0  0  0  0  0
   -3.0328   -5.8553   -3.5173 C   0  0  2  0  0  0  0  0  0  0  0  0
   -3.2742   -6.4799   -4.7829 O   0  0  0  0  0  0  0  0  0  0  0  0
   -1.7977   -6.4853   -2.9118 C   0  0  1  0  0  0  0  0  0  0  0  0
   -0.6551   -6.0527   -3.6539 O   0  0  0  0  0  0  0  0  0  0  0  0
   -1.6557   -6.0899   -1.4543 C   0  0  2  0  0  0  0  0  0  0  0  0
   -0.5932   -6.8402   -0.8819 O   0  0  0  0  0  0  0  0  0  0  0  0
   -2.9296   -6.3570   -0.6639 C   0  0  2  0  0  0  0  0  0  0  0  0
   -3.9785   -5.6267   -1.2853 O   0  0  0  0  0  0  0  0  0  0  0  0
   -2.7814   -5.9377    0.8035 C   0  0  0  0  0  0  0  0  0  0  0  0
   -2.4180   -4.5580    0.9589 O   0  0  0  0  0  0  0  0  0  0  0  0
  1  2  1  0  0  0  0
  3  1  1  1  0  0  0
  3  9  1  0  0  0  0
  3  4  1  0  0  0  0
  4  5  1  1  0  0  0
  4  6  1  0  0  0  0
  6  7  1  6  0  0  0
  6  8  1  0  0  0  0
  8  9  1  0  0  0  0
  8 10  1  6  0  0  0
  8 13  1  0  0  0  0
 10 11  1  0  0  0  0
 12 13  1  1  0  0  0
 12 14  1  0  0  0  0
 12 21  1  0  0  0  0
 14 15  1  6  0  0  0
 14 16  1  0  0  0  0
 16 17  1  6  0  0  0
 16 18  1  0  0  0  0
 18 19  1  1  0  0  0
 18 20  1  0  0  0  0
 20 21  1  0  0  0  0
 20 22  1  1  0  0  0
 22 23  1  0  0  0  0
M  END
>  <CHROM.1>
-62.98410542,61.76254826,-157.81102367,-166.09396070,56.84473300,-4.38151725
-7.27389122,-1.49043505,-2.91424053,-0.53035453,-1.55194089

>  <Name>
ligand

>  <RI>
0

>  <Rbt.Current_Directory>
/home/itssahil/PROJECTS/Mol_Feturizer/New_Systems/rnas/4TS2

>  <Rbt.Executable>
rbdock ($Id: //depot/dev/client3/rdock/2013.1/src/exe/rbdock.cxx#4 $)

>  <Rbt.Library>
libRbt.so (2013.1, Build901 2013/11/27)

>  <Rbt.Parameter_File>
/export/apps/rDock/src/rDock_2013.1_src/data/scripts/dock_solv.prm

>  <Rbt.Receptor>
prm/pocket_docking_8.prm

>  <SCORE>
-8.43036

>  <SCORE.INTER>
-2.286

>  <SCORE.INTER.CONST>
1

>  <SCORE.INTER.POLAR>
0

>  <SCORE.INTER.ROT>
5

>  <SCORE.INTER.SOLV>
8.1794

>  <SCORE.INTER.VDW>
-11.1838

>  <SCORE.INTER.norm>
-0.0993915

>  <SCORE.INTRA>
-6.14436

>  <SCORE.INTRA.DIHEDRAL>
-9.44804

>  <SCORE.INTRA.DIHEDRAL.0>
12.4853

>  <SCORE.INTRA.POLAR>
0

>  <SCORE.INTRA.POLAR.0>
0

>  <SCORE.INTRA.REPUL>
0

>  <SCORE.INTRA.REPUL.0>
0

>  <SCORE.INTRA.SOLV>
0.362935

>  <SCORE.INTRA.SOLV.lig_0>
-31.1706

>  <SCORE.INTRA.VDW>
-1.60181

>  <SCORE.INTRA.VDW.0>
-1.16895

>  <SCORE.INTRA.norm>
-0.267146

>  <SCORE.RESTR>
0

>  <SCORE.RESTR.CAVITY>
0

>  <SCORE.RESTR.norm>
0

>  <SCORE.SYSTEM>
0

>  <SCORE.SYSTEM.CONST>
0

>  <SCORE.SYSTEM.DIHEDRAL>
0

>  <SCORE.SYSTEM.SOLV>
0

>  <SCORE.SYSTEM.norm>
0

>  <SCORE.heavy>
23

>  <SCORE.norm>
-0.366537

>  <RMSD>
5.180

$$$$
ligand
 OpenBabel11021811513D
libRbt.so/2013.1/901 2013/11/27
 23 24  0  0  0  0  0  0  0  0999 V2000
   -5.0832   -8.4144    0.5325 C   0  0  0  0  0  0  0  0  0  0  0  0
   -3.8756   -7.6346    0.4376 O   0  0  0  0  0  0  0  0  0  0  0  0
   -6.1161   -7.8474   -0.4308 C   0  0  2  0  0  0  0  0  0  0  0  0
   -7.4843   -8.5108   -0.3913 C   0  0  1  0  0  0  0  0  0  0  0  0
   -8.2237   -8.0064    0.7228 O   0  0  0  0  0  0  0  0  0  0  0  0
   -8.0623   -8.1186   -1.7469 C   0  0  2  0  0  0  0  0  0  0  0  0
   -9.1229   -8.9100   -2.2953 O   0  0  0  0  0  0  0  0  0  0  0  0
   -6.8344   -8.2084   -2.6358 C   0  0  2  0  0  0  0  0  0  0  0  0
   -5.6891   -7.9694   -1.7905 O   0  0  0  0  0  0  0  0  0  0  0  0
   -6.9796   -7.1487   -3.7429 C   0  0  0  0  0  0  0  0  0  0  0  0
   -7.1576   -5.8271   -3.2144 O   0  0  0  0  0  0  0  0  0  0  0  0
   -6.4977  -10.5451   -2.1318 C   0  0  2  0  0  0  0  0  0  0  0  0
   -6.7253   -9.5489   -3.1436 O   0  0  0  0  0  0  0  0  0  0  0  0
   -5.5355  -11.5668   -2.7085 C   0  0  2  0  0  0  0  0  0  0  0  0
   -4.4237  -10.8850   -3.2992 O   0  0  0  0  0  0  0  0  0  0  0  0
   -6.2127  -12.3820   -3.7883 C   0  0  1  0  0  0  0  0  0  0  0  0
   -5.3651  -13.4818   -4.1280 O   0  0  0  0  0  0  0  0  0  0  0  0
   -7.5604  -12.8879   -3.3102 C   0  0  2  0  0  0  0  0  0  0  0  0
   -8.2340  -13.4908   -4.4067 O   0  0  0  0  0  0  0  0  0  0  0  0
   -8.4273  -11.7655   -2.7558 C   0  0  2  0  0  0  0  0  0  0  0  0
   -7.7092  -11.1578   -1.6906 O   0  0  0  0  0  0  0  0  0  0  0  0
   -9.7799  -12.2899   -2.2593 C   0  0  0  0  0  0  0  0  0  0  0  0
  -10.6471  -11.2480   -1.7883 O   0  0  0  0  0  0  0  0  0  0  0  0
  1  2  1  0  0  0  0
  3  1  1  1  0  0  0
  3  9  1  0  0  0  0
  3  4  1  0  0  0  0
  4  5  1  1  0  0  0
  4  6  1  0  0  0  0
  6  7  1  6  0  0  0
  6  8  1  0  0  0  0
  8  9  1  0  0  0  0
  8 10  1  6  0  0  0
  8 13  1  0  0  0  0
 10 11  1  0  0  0  0
 12 13  1  6  0  0  0
 12 14  1  0  0  0  0
 12 21  1  0  0  0  0
 14 15  1  6  0  0  0
 14 16  1  0  0  0  0
 16 17  1  1  0  0  0
 16 18  1  0  0  0  0
 18 19  1  6  0  0  0
 18 20  1  0  0  0  0
 20 21  1  0  0  0  0
 20 22  1  1  0  0  0
 22 23  1  0  0  0  0
M  END
>  <CHROM.1>
-176.44754469,56.48745136,-142.18758242,-64.23127179,-177.22031130,-7.03365417
-9.89859124,-2.17410268,-1.34083241,-0.07335069,-2.68094568

>  <Name>
ligand

>  <RI>
0

>  <Rbt.Current_Directory>
/home/itssahil/PROJECTS/Mol_Feturizer/New_Systems/rnas/4TS2

>  <Rbt.Executable>
rbdock ($Id: //depot/dev/client3/rdock/2013.1/src/exe/rbdock.cxx#4 $)

>  <Rbt.Library>
libRbt.so (2013.1, Build901 2013/11/27)

>  <Rbt.Parameter_File>
/export/apps/rDock/src/rDock_2013.1_src/data/scripts/dock_solv.prm

>  <Rbt.Receptor>
prm/pocket_docking_5.prm

>  <SCORE>
-7.21656

>  <SCORE.INTER>
-3.67651

>  <SCORE.INTER.CONST>
1

>  <SCORE.INTER.POLAR>
0

>  <SCORE.INTER.ROT>
5

>  <SCORE.INTER.SOLV>
7.29302

>  <SCORE.INTER.VDW>
-11.8153

>  <SCORE.INTER.norm>
-0.159848

>  <SCORE.INTRA>
-3.54005

>  <SCORE.INTRA.DIHEDRAL>
-7.18258

>  <SCORE.INTRA.DIHEDRAL.0>
12.4853

>  <SCORE.INTRA.POLAR>
0

>  <SCORE.INTRA.POLAR.0>
0

>  <SCORE.INTRA.REPUL>
0

>  <SCORE.INTRA.REPUL.0>
0

>  <SCORE.INTRA.SOLV>
0.881688

>  <SCORE.INTRA.SOLV.lig_0>
-31.1706

>  <SCORE.INTRA.VDW>
-0.389605

>  <SCORE.INTRA.VDW.0>
-1.16895

>  <SCORE.INTRA.norm>
-0.153915

>  <SCORE.RESTR>
0

>  <SCORE.RESTR.CAVITY>
0

>  <SCORE.RESTR.norm>
0

>  <SCORE.SYSTEM>
0

>  <SCORE.SYSTEM.CONST>
0

>  <SCORE.SYSTEM.DIHEDRAL>
0

>  <SCORE.SYSTEM.SOLV>
0

>  <SCORE.SYSTEM.norm>
0

>  <SCORE.heavy>
23

>  <SCORE.norm>
-0.313764

>  <RMSD>
5.181

$$$$
ligand
 OpenBabel11021811513D
libRbt.so/2013.1/901 2013/11/27
 23 24  0  0  0  0  0  0  0  0999 V2000
   -4.5051   -8.6924    0.5570 C   0  0  0  0  0  0  0  0  0  0  0  0
   -4.2860   -8.1884    1.8887 O   0  0  0  0  0  0  0  0  0  0  0  0
   -5.7681   -8.0604   -0.0103 C   0  0  2  0  0  0  0  0  0  0  0  0
   -7.0501   -8.3569    0.7526 C   0  0  1  0  0  0  0  0  0  0  0  0
   -7.1244   -7.5107    1.9018 O   0  0  0  0  0  0  0  0  0  0  0  0
   -8.1153   -8.0674   -0.2995 C   0  0  2  0  0  0  0  0  0  0  0  0
   -9.4110   -8.6585   -0.1446 O   0  0  0  0  0  0  0  0  0  0  0  0
   -7.4496   -8.5982   -1.5569 C   0  0  2  0  0  0  0  0  0  0  0  0
   -6.0248   -8.5064   -1.3450 O   0  0  0  0  0  0  0  0  0  0  0  0
   -7.9252   -7.7342   -2.7387 C   0  0  0  0  0  0  0  0  0  0  0  0
   -7.5213   -6.3637   -2.6111 O   0  0  0  0  0  0  0  0  0  0  0  0
   -7.2026  -10.6105   -2.8673 C   0  0  2  0  0  0  0  0  0  0  0  0
   -7.7765   -9.9905   -1.7036 O   0  0  0  0  0  0  0  0  0  0  0  0
   -7.7699  -12.0148   -2.9602 C   0  0  2  0  0  0  0  0  0  0  0  0
   -9.1929  -11.9580   -2.8123 O   0  0  0  0  0  0  0  0  0  0  0  0
   -7.2179  -12.8837   -1.8515 C   0  0  1  0  0  0  0  0  0  0  0  0
   -7.5759  -14.2421   -2.1162 O   0  0  0  0  0  0  0  0  0  0  0  0
   -5.7097  -12.7470   -1.7658 C   0  0  2  0  0  0  0  0  0  0  0  0
   -5.2567  -13.4341   -0.6073 O   0  0  0  0  0  0  0  0  0  0  0  0
   -5.2727  -11.2909   -1.6778 C   0  0  2  0  0  0  0  0  0  0  0  0
   -5.7757  -10.6241   -2.8276 O   0  0  0  0  0  0  0  0  0  0  0  0
   -3.7463  -11.1631   -1.6094 C   0  0  0  0  0  0  0  0  0  0  0  0
   -3.0869  -11.6845   -2.7725 O   0  0  0  0  0  0  0  0  0  0  0  0
  1  2  1  0  0  0  0
  3  1  1  1  0  0  0
  3  9  1  0  0  0  0
  3  4  1  0  0  0  0
  4  5  1  1  0  0  0
  4  6  1  0  0  0  0
  6  7  1  1  0  0  0
  6  8  1  0  0  0  0
  8  9  1  0  0  0  0
  8 10  1  6  0  0  0
  8 13  1  0  0  0  0
 10 11  1  0  0  0  0
 12 13  1  1  0  0  0
 12 14  1  0  0  0  0
 12 21  1  0  0  0  0
 14 15  1  1  0  0  0
 14 16  1  0  0  0  0
 16 17  1  6  0  0  0
 16 18  1  0  0  0  0
 18 19  1  1  0  0  0
 18 20  1  0  0  0  0
 20 21  1  0  0  0  0
 20 22  1  6  0  0  0
 22 23  1  0  0  0  0
M  END
>  <CHROM.1>
-61.44089107,62.99272281,-173.52194454,179.88941827,61.65795190,-6.55003013
-10.06109431,-1.26048106,-1.69425403,0.39173749,-2.68165283

>  <Name>
ligand

>  <RI>
0

>  <Rbt.Current_Directory>
/home/itssahil/PROJECTS/Mol_Feturizer/New_Systems/rnas/4TS2

>  <Rbt.Executable>
rbdock ($Id: //depot/dev/client3/rdock/2013.1/src/exe/rbdock.cxx#4 $)

>  <Rbt.Library>
libRbt.so (2013.1, Build901 2013/11/27)

>  <Rbt.Parameter_File>
/export/apps/rDock/src/rDock_2013.1_src/data/scripts/dock_solv.prm

>  <Rbt.Receptor>
prm/pocket_docking_5.prm

>  <SCORE>
-8.64492

>  <SCORE.INTER>
-1.55043

>  <SCORE.INTER.CONST>
1

>  <SCORE.INTER.POLAR>
0

>  <SCORE.INTER.ROT>
5

>  <SCORE.INTER.SOLV>
7.17427

>  <SCORE.INTER.VDW>
-10.3584

>  <SCORE.INTER.norm>
-0.0674098

>  <SCORE.INTRA>
-7.09449

>  <SCORE.INTRA.DIHEDRAL>
-12.1373

>  <SCORE.INTRA.DIHEDRAL.0>
12.4853

>  <SCORE.INTRA.POLAR>
0

>  <SCORE.INTRA.POLAR.0>
0

>  <SCORE.INTRA.REPUL>
0

>  <SCORE.INTRA.REPUL.0>
0

>  <SCORE.INTRA.SOLV>
0.357467

>  <SCORE.INTRA.SOLV.lig_0>
-31.1706

>  <SCORE.INTRA.VDW>
-1.20457

>  <SCORE.INTRA.VDW.0>
-1.16895

>  <SCORE.INTRA.norm>
-0.308456

>  <SCORE.RESTR>
0

>  <SCORE.RESTR.CAVITY>
0

>  <SCORE.RESTR.norm>
0

>  <SCORE.SYSTEM>
0

>  <SCORE.SYSTEM.CONST>
0

>  <SCORE.SYSTEM.DIHEDRAL>
0

>  <SCORE.SYSTEM.SOLV>
0

>  <SCORE.SYSTEM.norm>
0

>  <SCORE.heavy>
23

>  <SCORE.norm>
-0.375866

>  <RMSD>
5.188

$$$$
ligand
 OpenBabel11021811513D
libRbt.so/2013.1/901 2013/11/27
 23 24  0  0  0  0  0  0  0  0999 V2000
   -4.6643   -9.6881    0.5582 C   0  0  0  0  0  0  0  0  0  0  0  0
   -4.4688   -9.5470    1.9785 O   0  0  0  0  0  0  0  0  0  0  0  0
   -5.6053   -8.5931    0.0764 C   0  0  2  0  0  0  0  0  0  0  0  0
   -7.0120   -8.6358    0.6533 C   0  0  1  0  0  0  0  0  0  0  0  0
   -7.0032   -8.0719    1.9664 O   0  0  0  0  0  0  0  0  0  0  0  0
   -7.7946   -7.8164   -0.3673 C   0  0  2  0  0  0  0  0  0  0  0  0
   -9.2129   -7.9991   -0.4514 O   0  0  0  0  0  0  0  0  0  0  0  0
   -7.1378   -8.2467   -1.6671 C   0  0  2  0  0  0  0  0  0  0  0  0
   -5.7891   -8.6447   -1.3412 O   0  0  0  0  0  0  0  0  0  0  0  0
   -7.1803   -7.0481   -2.6321 C   0  0  0  0  0  0  0  0  0  0  0  0
   -6.4437   -5.9213   -2.1367 O   0  0  0  0  0  0  0  0  0  0  0  0
   -7.6952  -10.5726   -1.3395 C   0  0  2  0  0  0  0  0  0  0  0  0
   -7.8213   -9.4065   -2.1716 O   0  0  0  0  0  0  0  0  0  0  0  0
   -7.6567  -11.7819   -2.2552 C   0  0  2  0  0  0  0  0  0  0  0  0
   -6.7090  -11.5488   -3.3029 O   0  0  0  0  0  0  0  0  0  0  0  0
   -9.0110  -12.0089   -2.8904 C   0  0  1  0  0  0  0  0  0  0  0  0
   -9.0017  -13.2820   -3.5405 O   0  0  0  0  0  0  0  0  0  0  0  0
  -10.1070  -11.9640   -1.8428 C   0  0  2  0  0  0  0  0  0  0  0  0
  -11.3659  -12.0021   -2.5010 O   0  0  0  0  0  0  0  0  0  0  0  0
  -10.0329  -10.7026   -0.9930 C   0  0  2  0  0  0  0  0  0  0  0  0
   -8.7497  -10.6738   -0.3828 O   0  0  0  0  0  0  0  0  0  0  0  0
  -11.1339  -10.6755    0.0738 C   0  0  0  0  0  0  0  0  0  0  0  0
  -11.1274   -9.4725    0.8564 O   0  0  0  0  0  0  0  0  0  0  0  0
  1  2  1  0  0  0  0
  3  1  1  1  0  0  0
  3  9  1  0  0  0  0
  3  4  1  0  0  0  0
  4  5  1  1  0  0  0
  4  6  1  0  0  0  0
  6  7  1  6  0  0  0
  6  8  1  0  0  0  0
  8  9  1  0  0  0  0
  8 10  1  6  0  0  0
  8 13  1  0  0  0  0
 10 11  1  0  0  0  0
 12 13  1  6  0  0  0
 12 14  1  0  0  0  0
 12 21  1  0  0  0  0
 14 15  1  6  0  0  0
 14 16  1  0  0  0  0
 16 17  1  1  0  0  0
 16 18  1  0  0  0  0
 18 19  1  6  0  0  0
 18 20  1  0  0  0  0
 20 21  1  0  0  0  0
 20 22  1  1  0  0  0
 22 23  1  0  0  0  0
M  END
>  <CHROM.1>
-63.08297888,62.11728776,-145.81695916,-65.36320787,-177.52837435,-7.94706517
-9.74499403,-1.02063244,-0.78683494,-0.30408629,-2.32235838

>  <Name>
ligand

>  <RI>
0

>  <Rbt.Current_Directory>
/home/itssahil/PROJECTS/Mol_Feturizer/New_Systems/rnas/4TS2

>  <Rbt.Executable>
rbdock ($Id: //depot/dev/client3/rdock/2013.1/src/exe/rbdock.cxx#4 $)

>  <Rbt.Library>
libRbt.so (2013.1, Build901 2013/11/27)

>  <Rbt.Parameter_File>
/export/apps/rDock/src/rDock_2013.1_src/data/scripts/dock_solv.prm

>  <Rbt.Receptor>
prm/pocket_docking_2.prm

>  <SCORE>
-3.77924

>  <SCORE.INTER>
-1.51598

>  <SCORE.INTER.CONST>
1

>  <SCORE.INTER.POLAR>
0

>  <SCORE.INTER.ROT>
5

>  <SCORE.INTER.SOLV>
8.10534

>  <SCORE.INTER.VDW>
-10.6458

>  <SCORE.INTER.norm>
-0.0659122

>  <SCORE.INTRA>
-3.51292

>  <SCORE.INTRA.DIHEDRAL>
-7.76261

>  <SCORE.INTRA.DIHEDRAL.0>
12.4853

>  <SCORE.INTRA.POLAR>
0

>  <SCORE.INTRA.POLAR.0>
0

>  <SCORE.INTRA.REPUL>
0

>  <SCORE.INTRA.REPUL.0>
0

>  <SCORE.INTRA.SOLV>
1.309

>  <SCORE.INTRA.SOLV.lig_0>
-31.1706

>  <SCORE.INTRA.VDW>
-0.286119

>  <SCORE.INTRA.VDW.0>
-1.16895

>  <SCORE.INTRA.norm>
-0.152736

>  <SCORE.RESTR>
1.24966

>  <SCORE.RESTR.CAVITY>
1.24966

>  <SCORE.RESTR.norm>
0.0543331

>  <SCORE.SYSTEM>
0

>  <SCORE.SYSTEM.CONST>
0

>  <SCORE.SYSTEM.DIHEDRAL>
0

>  <SCORE.SYSTEM.SOLV>
0

>  <SCORE.SYSTEM.norm>
0

>  <SCORE.heavy>
23

>  <SCORE.norm>
-0.164315

>  <RMSD>
5.224

$$$$
ligand
 OpenBabel11021811513D
libRbt.so/2013.1/901 2013/11/27
 23 24  0  0  0  0  0  0  0  0999 V2000
   -4.5824   -6.4025   -3.9989 C   0  0  0  0  0  0  0  0  0  0  0  0
   -5.0301   -5.4424   -4.9753 O   0  0  0  0  0  0  0  0  0  0  0  0
   -5.7647   -7.2581   -3.5670 C   0  0  2  0  0  0  0  0  0  0  0  0
   -6.8175   -6.5482   -2.7296 C   0  0  1  0  0  0  0  0  0  0  0  0
   -7.6659   -5.7806   -3.5859 O   0  0  0  0  0  0  0  0  0  0  0  0
   -7.5195   -7.7190   -2.0499 C   0  0  2  0  0  0  0  0  0  0  0  0
   -8.2499   -7.4735   -0.8423 O   0  0  0  0  0  0  0  0  0  0  0  0
   -6.3524   -8.6496   -1.7708 C   0  0  2  0  0  0  0  0  0  0  0  0
   -5.3460   -8.3667   -2.7660 O   0  0  0  0  0  0  0  0  0  0  0  0
   -6.8752  -10.0949   -1.8573 C   0  0  0  0  0  0  0  0  0  0  0  0
   -5.8343  -11.0644   -1.6728 O   0  0  0  0  0  0  0  0  0  0  0  0
   -4.4935   -8.8877   -0.2491 C   0  0  2  0  0  0  0  0  0  0  0  0
   -5.7948   -8.3234   -0.4864 O   0  0  0  0  0  0  0  0  0  0  0  0
   -4.2340   -8.8188    1.2443 C   0  0  2  0  0  0  0  0  0  0  0  0
   -5.3720   -9.3342    1.9438 O   0  0  0  0  0  0  0  0  0  0  0  0
   -4.0259   -7.3851    1.6804 C   0  0  1  0  0  0  0  0  0  0  0  0
   -3.5446   -7.3836    3.0265 O   0  0  0  0  0  0  0  0  0  0  0  0
   -3.0339   -6.6878    0.7691 C   0  0  2  0  0  0  0  0  0  0  0  0
   -3.0045   -5.3066    1.1022 O   0  0  0  0  0  0  0  0  0  0  0  0
   -3.4087   -6.8328   -0.6997 C   0  0  2  0  0  0  0  0  0  0  0  0
   -3.4699   -8.2229   -0.9894 O   0  0  0  0  0  0  0  0  0  0  0  0
   -2.3905   -6.1398   -1.6130 C   0  0  0  0  0  0  0  0  0  0  0  0
   -2.4043   -4.7104   -1.4856 O   0  0  0  0  0  0  0  0  0  0  0  0
  1  2  1  0  0  0  0
  3  1  1  1  0  0  0
  3  9  1  0  0  0  0
  3  4  1  0  0  0  0
  4  5  1  6  0  0  0
  4  6  1  0  0  0  0
  6  7  1  1  0  0  0
  6  8  1  0  0  0  0
  8  9  1  0  0  0  0
  8 10  1  6  0  0  0
  8 13  1  0  0  0  0
 10 11  1  0  0  0  0
 12 13  1  1  0  0  0
 12 14  1  0  0  0  0
 12 21  1  0  0  0  0
 14 15  1  1  0  0  0
 14 16  1  0  0  0  0
 16 17  1  1  0  0  0
 16 18  1  0  0  0  0
 18 19  1  1  0  0  0
 18 20  1  0  0  0  0
 20 21  1  0  0  0  0
 20 22  1  6  0  0  0
 22 23  1  0  0  0  0
M  END
>  <CHROM.1>
-69.87504592,177.15737693,-163.19346949,-164.98237655,-67.90214359,-5.00719247
-7.50018282,-1.10896874,-2.30619544,0.69870271,2.16593159

>  <Name>
ligand

>  <RI>
0

>  <Rbt.Current_Directory>
/home/itssahil/PROJECTS/Mol_Feturizer/New_Systems/rnas/4TS2

>  <Rbt.Executable>
rbdock ($Id: //depot/dev/client3/rdock/2013.1/src/exe/rbdock.cxx#4 $)

>  <Rbt.Library>
libRbt.so (2013.1, Build901 2013/11/27)

>  <Rbt.Parameter_File>
/export/apps/rDock/src/rDock_2013.1_src/data/scripts/dock_solv.prm

>  <Rbt.Receptor>
prm/pocket_docking_8.prm

>  <SCORE>
-9.05092

>  <SCORE.INTER>
-3.00541

>  <SCORE.INTER.CONST>
1

>  <SCORE.INTER.POLAR>
0

>  <SCORE.INTER.ROT>
5

>  <SCORE.INTER.SOLV>
8.70884

>  <SCORE.INTER.VDW>
-11.8399

>  <SCORE.INTER.norm>
-0.13067

>  <SCORE.INTRA>
-6.04551

>  <SCORE.INTRA.DIHEDRAL>
-9.68595

>  <SCORE.INTRA.DIHEDRAL.0>
12.4853

>  <SCORE.INTRA.POLAR>
0

>  <SCORE.INTRA.POLAR.0>
0

>  <SCORE.INTRA.REPUL>
0

>  <SCORE.INTRA.REPUL.0>
0

>  <SCORE.INTRA.SOLV>
0.651996

>  <SCORE.INTRA.SOLV.lig_0>
-31.1706

>  <SCORE.INTRA.VDW>
-1.52853

>  <SCORE.INTRA.VDW.0>
-1.16895

>  <SCORE.INTRA.norm>
-0.262848

>  <SCORE.RESTR>
0

>  <SCORE.RESTR.CAVITY>
0

>  <SCORE.RESTR.norm>
0

>  <SCORE.SYSTEM>
0

>  <SCORE.SYSTEM.CONST>
0

>  <SCORE.SYSTEM.DIHEDRAL>
0

>  <SCORE.SYSTEM.SOLV>
0

>  <SCORE.SYSTEM.norm>
0

>  <SCORE.heavy>
23

>  <SCORE.norm>
-0.393518

>  <RMSD>
5.226

$$$$
ligand
 OpenBabel11021811513D
libRbt.so/2013.1/901 2013/11/27
 23 24  0  0  0  0  0  0  0  0999 V2000
   -4.5784   -6.1883   -4.0135 C   0  0  0  0  0  0  0  0  0  0  0  0
   -3.6989   -6.9711   -4.8437 O   0  0  0  0  0  0  0  0  0  0  0  0
   -5.7884   -7.0324   -3.6398 C   0  0  2  0  0  0  0  0  0  0  0  0
   -6.8403   -6.3328   -2.7927 C   0  0  1  0  0  0  0  0  0  0  0  0
   -7.6539   -5.5100   -3.6313 O   0  0  0  0  0  0  0  0  0  0  0  0
   -7.5824   -7.5136   -2.1759 C   0  0  2  0  0  0  0  0  0  0  0  0
   -8.3301   -7.3011   -0.9725 O   0  0  0  0  0  0  0  0  0  0  0  0
   -6.4430   -8.4829   -1.9148 C   0  0  2  0  0  0  0  0  0  0  0  0
   -5.4112   -8.1832   -2.8786 O   0  0  0  0  0  0  0  0  0  0  0  0
   -6.9976   -9.9103   -2.0717 C   0  0  0  0  0  0  0  0  0  0  0  0
   -8.0222  -10.2069   -1.1126 O   0  0  0  0  0  0  0  0  0  0  0  0
   -4.6292   -8.8455   -0.3636 C   0  0  2  0  0  0  0  0  0  0  0  0
   -5.9028   -8.2241   -0.6079 O   0  0  0  0  0  0  0  0  0  0  0  0
   -4.4079   -8.8531    1.1375 C   0  0  2  0  0  0  0  0  0  0  0  0
   -5.5820   -9.3577    1.7835 O   0  0  0  0  0  0  0  0  0  0  0  0
   -4.1612   -7.4490    1.6439 C   0  0  1  0  0  0  0  0  0  0  0  0
   -3.7168   -7.5255    3.0005 O   0  0  0  0  0  0  0  0  0  0  0  0
   -3.1210   -6.7482    0.7910 C   0  0  2  0  0  0  0  0  0  0  0  0
   -3.0520   -5.3853    1.1877 O   0  0  0  0  0  0  0  0  0  0  0  0
   -3.4608   -6.8134   -0.6919 C   0  0  2  0  0  0  0  0  0  0  0  0
   -3.5631   -8.1859   -1.0464 O   0  0  0  0  0  0  0  0  0  0  0  0
   -2.3945   -6.1177   -1.5463 C   0  0  0  0  0  0  0  0  0  0  0  0
   -2.3627   -4.6956   -1.3556 O   0  0  0  0  0  0  0  0  0  0  0  0
  1  2  1  0  0  0  0
  3  1  1  1  0  0  0
  3  9  1  0  0  0  0
  3  4  1  0  0  0  0
  4  5  1  6  0  0  0
  4  6  1  0  0  0  0
  6  7  1  1  0  0  0
  6  8  1  0  0  0  0
  8  9  1  0  0  0  0
  8 10  1  6  0  0  0
  8 13  1  0  0  0  0
 10 11  1  0  0  0  0
 12 13  1  1  0  0  0
 12 14  1  0  0  0  0
 12 21  1  0  0  0  0
 14 15  1  1  0  0  0
 14 16  1  0  0  0  0
 16 17  1  1  0  0  0
 16 18  1  0  0  0  0
 18 19  1  1  0  0  0
 18 20  1  0  0  0  0
 20 21  1  0  0  0  0
 20 22  1  6  0  0  0
 22 23  1  0  0  0  0
M  END
>  <CHROM.1>
-178.25961139,-62.63936247,-162.59572436,-165.86499797,-67.99553565,-5.11820995
-7.46171499,-1.12785224,-2.37706605,0.55848139,1.98787293

>  <Name>
ligand

>  <RI>
0

>  <Rbt.Current_Directory>
/home/itssahil/PROJECTS/Mol_Feturizer/New_Systems/rnas/4TS2

>  <Rbt.Executable>
rbdock ($Id: //depot/dev/client3/rdock/2013.1/src/exe/rbdock.cxx#4 $)

>  <Rbt.Library>
libRbt.so (2013.1, Build901 2013/11/27)

>  <Rbt.Parameter_File>
/export/apps/rDock/src/rDock_2013.1_src/data/scripts/dock_solv.prm

>  <Rbt.Receptor>
prm/pocket_docking_7.prm

>  <SCORE>
-9.5502

>  <SCORE.INTER>
-3.21053

>  <SCORE.INTER.CONST>
1

>  <SCORE.INTER.POLAR>
0

>  <SCORE.INTER.ROT>
5

>  <SCORE.INTER.SOLV>
8.76312

>  <SCORE.INTER.VDW>
-11.9947

>  <SCORE.INTER.norm>
-0.139588

>  <SCORE.INTRA>
-6.33967

>  <SCORE.INTRA.DIHEDRAL>
-10.0361

>  <SCORE.INTRA.DIHEDRAL.0>
12.4853

>  <SCORE.INTRA.POLAR>
0

>  <SCORE.INTRA.POLAR.0>
0

>  <SCORE.INTRA.REPUL>
0

>  <SCORE.INTRA.REPUL.0>
0

>  <SCORE.INTRA.SOLV>
0.615016

>  <SCORE.INTRA.SOLV.lig_0>
-31.1706

>  <SCORE.INTRA.VDW>
-1.62911

>  <SCORE.INTRA.VDW.0>
-1.16895

>  <SCORE.INTRA.norm>
-0.275638

>  <SCORE.RESTR>
0

>  <SCORE.RESTR.CAVITY>
0

>  <SCORE.RESTR.norm>
0

>  <SCORE.SYSTEM>
0

>  <SCORE.SYSTEM.CONST>
0

>  <SCORE.SYSTEM.DIHEDRAL>
0

>  <SCORE.SYSTEM.SOLV>
0

>  <SCORE.SYSTEM.norm>
0

>  <SCORE.heavy>
23

>  <SCORE.norm>
-0.415226

>  <RMSD>
5.239

$$$$
ligand
 OpenBabel11021811513D
libRbt.so/2013.1/901 2013/11/27
 23 24  0  0  0  0  0  0  0  0999 V2000
   -4.6567   -6.2708   -4.0882 C   0  0  0  0  0  0  0  0  0  0  0  0
   -5.0741   -5.3258   -5.0923 O   0  0  0  0  0  0  0  0  0  0  0  0
   -5.8589   -7.0982   -3.6563 C   0  0  2  0  0  0  0  0  0  0  0  0
   -6.8816   -6.3709   -2.7969 C   0  0  1  0  0  0  0  0  0  0  0  0
   -7.7162   -5.5660   -3.6322 O   0  0  0  0  0  0  0  0  0  0  0  0
   -7.6104   -7.5311   -2.1273 C   0  0  2  0  0  0  0  0  0  0  0  0
   -8.3206   -7.2830   -0.9082 O   0  0  0  0  0  0  0  0  0  0  0  0
   -6.4682   -8.4994   -1.8748 C   0  0  2  0  0  0  0  0  0  0  0  0
   -5.4644   -8.2307   -2.8767 O   0  0  0  0  0  0  0  0  0  0  0  0
   -7.0339   -9.9274   -1.9774 C   0  0  0  0  0  0  0  0  0  0  0  0
   -6.0140  -10.9290   -1.8584 O   0  0  0  0  0  0  0  0  0  0  0  0
   -4.6014   -8.8152   -0.3771 C   0  0  2  0  0  0  0  0  0  0  0  0
   -5.8878   -8.2093   -0.5919 O   0  0  0  0  0  0  0  0  0  0  0  0
   -4.3357   -8.7994    1.1167 C   0  0  2  0  0  0  0  0  0  0  0  0
   -5.4850   -9.3057    1.8044 O   0  0  0  0  0  0  0  0  0  0  0  0
   -4.0878   -7.3860    1.5959 C   0  0  1  0  0  0  0  0  0  0  0  0
   -3.6026   -7.4389    2.9395 O   0  0  0  0  0  0  0  0  0  0  0  0
   -3.0802   -6.6876    0.7027 C   0  0  2  0  0  0  0  0  0  0  0  0
   -3.0128   -5.3187    1.0780 O   0  0  0  0  0  0  0  0  0  0  0  0
   -3.4633   -6.7772   -0.7684 C   0  0  2  0  0  0  0  0  0  0  0  0
   -3.5626   -8.1554   -1.1005 O   0  0  0  0  0  0  0  0  0  0  0  0
   -2.4296   -6.0837   -1.6638 C   0  0  0  0  0  0  0  0  0  0  0  0
   -2.3947   -4.6605   -1.4821 O   0  0  0  0  0  0  0  0  0  0  0  0
  1  2  1  0  0  0  0
  3  1  1  1  0  0  0
  3  9  1  0  0  0  0
  3  4  1  0  0  0  0
  4  5  1  6  0  0  0
  4  6  1  0  0  0  0
  6  7  1  1  0  0  0
  6  8  1  0  0  0  0
  8  9  1  0  0  0  0
  8 10  1  6  0  0  0
  8 13  1  0  0  0  0
 10 11  1  0  0  0  0
 12 13  1  1  0  0  0
 12 14  1  0  0  0  0
 12 21  1  0  0  0  0
 14 15  1  1  0  0  0
 14 16  1  0  0  0  0
 16 17  1  1  0  0  0
 16 18  1  0  0  0  0
 18 19  1  1  0  0  0
 18 20  1  0  0  0  0
 20 21  1  0  0  0  0
 20 22  1  6  0  0  0
 22 23  1  0  0  0  0
M  END
>  <CHROM.1>
-72.59339612,175.42959989,-162.18430824,-165.00700926,-67.27333128,-5.08616788
-7.40650813,-1.19860121,-2.29493051,0.67497678,2.17311233

>  <Name>
ligand

>  <RI>
0

>  <Rbt.Current_Directory>
/home/itssahil/PROJECTS/Mol_Feturizer/New_Systems/rnas/4TS2

>  <Rbt.Executable>
rbdock ($Id: //depot/dev/client3/rdock/2013.1/src/exe/rbdock.cxx#4 $)

>  <Rbt.Library>
libRbt.so (2013.1, Build901 2013/11/27)

>  <Rbt.Parameter_File>
/export/apps/rDock/src/rDock_2013.1_src/data/scripts/dock_solv.prm

>  <Rbt.Receptor>
prm/pocket_docking_6.prm

>  <SCORE>
-9.27686

>  <SCORE.INTER>
-3.33325

>  <SCORE.INTER.CONST>
1

>  <SCORE.INTER.POLAR>
0

>  <SCORE.INTER.ROT>
5

>  <SCORE.INTER.SOLV>
9.45077

>  <SCORE.INTER.VDW>
-12.3058

>  <SCORE.INTER.norm>
-0.144924

>  <SCORE.INTRA>
-5.9436

>  <SCORE.INTRA.DIHEDRAL>
-9.33358

>  <SCORE.INTRA.DIHEDRAL.0>
12.4853

>  <SCORE.INTRA.POLAR>
0

>  <SCORE.INTRA.POLAR.0>
0

>  <SCORE.INTRA.REPUL>
0

>  <SCORE.INTRA.REPUL.0>
0

>  <SCORE.INTRA.SOLV>
0.604704

>  <SCORE.INTRA.SOLV.lig_0>
-31.1706

>  <SCORE.INTRA.VDW>
-1.57917

>  <SCORE.INTRA.VDW.0>
-1.16895

>  <SCORE.INTRA.norm>
-0.258418

>  <SCORE.RESTR>
0

>  <SCORE.RESTR.CAVITY>
0

>  <SCORE.RESTR.norm>
0

>  <SCORE.SYSTEM>
0

>  <SCORE.SYSTEM.CONST>
0

>  <SCORE.SYSTEM.DIHEDRAL>
0

>  <SCORE.SYSTEM.SOLV>
0

>  <SCORE.SYSTEM.norm>
0

>  <SCORE.heavy>
23

>  <SCORE.norm>
-0.403342

>  <RMSD>
5.257

$$$$
ligand
 OpenBabel11021811513D
libRbt.so/2013.1/901 2013/11/27
 23 24  0  0  0  0  0  0  0  0999 V2000
   -4.4847   -6.0904   -4.0921 C   0  0  0  0  0  0  0  0  0  0  0  0
   -3.5536   -6.8629   -4.8742 O   0  0  0  0  0  0  0  0  0  0  0  0
   -5.6243   -6.9941   -3.6435 C   0  0  2  0  0  0  0  0  0  0  0  0
   -6.7111   -6.3203   -2.8198 C   0  0  1  0  0  0  0  0  0  0  0  0
   -7.5952   -5.6116   -3.6906 O   0  0  0  0  0  0  0  0  0  0  0  0
   -7.3557   -7.5105   -2.1175 C   0  0  2  0  0  0  0  0  0  0  0  0
   -8.0982   -7.2776   -0.9147 O   0  0  0  0  0  0  0  0  0  0  0  0
   -6.1450   -8.3776   -1.8206 C   0  0  2  0  0  0  0  0  0  0  0  0
   -5.1527   -8.0653   -2.8213 O   0  0  0  0  0  0  0  0  0  0  0  0
   -6.5967   -9.8480   -1.8791 C   0  0  0  0  0  0  0  0  0  0  0  0
   -7.1130  -10.2102   -3.1675 O   0  0  0  0  0  0  0  0  0  0  0  0
   -4.2914   -8.5234   -0.2810 C   0  0  2  0  0  0  0  0  0  0  0  0
   -5.6049   -7.9999   -0.5429 O   0  0  0  0  0  0  0  0  0  0  0  0
   -4.1997   -8.7957    1.2089 C   0  0  2  0  0  0  0  0  0  0  0  0
   -5.3555   -9.5317    1.6246 O   0  0  0  0  0  0  0  0  0  0  0  0
   -4.1675   -7.4969    1.9841 C   0  0  1  0  0  0  0  0  0  0  0  0
   -3.8346   -7.7859    3.3439 O   0  0  0  0  0  0  0  0  0  0  0  0
   -3.1499   -6.5433    1.3874 C   0  0  2  0  0  0  0  0  0  0  0  0
   -3.2792   -5.2819    2.0288 O   0  0  0  0  0  0  0  0  0  0  0  0
   -3.3516   -6.3577   -0.1106 C   0  0  2  0  0  0  0  0  0  0  0  0
   -3.2578   -7.6401   -0.7160 O   0  0  0  0  0  0  0  0  0  0  0  0
   -2.3076   -5.4063   -0.7068 C   0  0  0  0  0  0  0  0  0  0  0  0
   -2.4728   -5.2053   -2.1182 O   0  0  0  0  0  0  0  0  0  0  0  0
  1  2  1  0  0  0  0
  3  1  1  1  0  0  0
  3  9  1  0  0  0  0
  3  4  1  0  0  0  0
  4  5  1  6  0  0  0
  4  6  1  0  0  0  0
  6  7  1  1  0  0  0
  6  8  1  0  0  0  0
  8  9  1  0  0  0  0
  8 10  1  6  0  0  0
  8 13  1  0  0  0  0
 10 11  1  0  0  0  0
 12 13  1  1  0  0  0
 12 14  1  0  0  0  0
 12 21  1  0  0  0  0
 14 15  1  1  0  0  0
 14 16  1  0  0  0  0
 16 17  1  1  0  0  0
 16 18  1  0  0  0  0
 18 19  1  1  0  0  0
 18 20  1  0  0  0  0
 20 21  1  0  0  0  0
 20 22  1  6  0  0  0
 22 23  1  0  0  0  0
M  END
>  <CHROM.1>
-179.07894308,60.46273308,-146.46578446,-166.46941657,-179.77325401,-4.94399645
-7.37707353,-1.08390336,-2.19769430,0.65944779,1.94092173

>  <Name>
ligand

>  <RI>
0

>  <Rbt.Current_Directory>
/home/itssahil/PROJECTS/Mol_Feturizer/New_Systems/rnas/4TS2

>  <Rbt.Executable>
rbdock ($Id: //depot/dev/client3/rdock/2013.1/src/exe/rbdock.cxx#4 $)

>  <Rbt.Library>
libRbt.so (2013.1, Build901 2013/11/27)

>  <Rbt.Parameter_File>
/export/apps/rDock/src/rDock_2013.1_src/data/scripts/dock_solv.prm

>  <Rbt.Receptor>
prm/pocket_docking_6.prm

>  <SCORE>
-8.57904

>  <SCORE.INTER>
-3.363

>  <SCORE.INTER.CONST>
1

>  <SCORE.INTER.POLAR>
0

>  <SCORE.INTER.ROT>
5

>  <SCORE.INTER.SOLV>
10.205

>  <SCORE.INTER.VDW>
-12.577

>  <SCORE.INTER.norm>
-0.146218

>  <SCORE.INTRA>
-5.21603

>  <SCORE.INTRA.DIHEDRAL>
-7.49812

>  <SCORE.INTRA.DIHEDRAL.0>
12.4853

>  <SCORE.INTRA.POLAR>
0

>  <SCORE.INTRA.POLAR.0>
0

>  <SCORE.INTRA.REPUL>
0

>  <SCORE.INTRA.REPUL.0>
0

>  <SCORE.INTRA.SOLV>
0.223479

>  <SCORE.INTRA.SOLV.lig_0>
-31.1706

>  <SCORE.INTRA.VDW>
-1.57871

>  <SCORE.INTRA.VDW.0>
-1.16895

>  <SCORE.INTRA.norm>
-0.226784

>  <SCORE.RESTR>
0

>  <SCORE.RESTR.CAVITY>
0

>  <SCORE.RESTR.norm>
0

>  <SCORE.SYSTEM>
0

>  <SCORE.SYSTEM.CONST>
0

>  <SCORE.SYSTEM.DIHEDRAL>
0

>  <SCORE.SYSTEM.SOLV>
0

>  <SCORE.SYSTEM.norm>
0

>  <SCORE.heavy>
23

>  <SCORE.norm>
-0.373002

>  <RMSD>
5.274

$$$$
ligand
 OpenBabel11021811513D
libRbt.so/2013.1/901 2013/11/27
 23 24  0  0  0  0  0  0  0  0999 V2000
   -7.7697  -11.0571    1.1165 C   0  0  0  0  0  0  0  0  0  0  0  0
   -8.4558  -11.3180    2.3561 O   0  0  0  0  0  0  0  0  0  0  0  0
   -6.3911  -10.4899    1.4231 C   0  0  2  0  0  0  0  0  0  0  0  0
   -6.3777   -9.1627    2.1660 C   0  0  1  0  0  0  0  0  0  0  0  0
   -6.6082   -9.3956    3.5570 O   0  0  0  0  0  0  0  0  0  0  0  0
   -4.9808   -8.6398    1.8488 C   0  0  2  0  0  0  0  0  0  0  0  0
   -4.7324   -7.2336    1.9631 O   0  0  0  0  0  0  0  0  0  0  0  0
   -4.8141   -9.0808    0.4053 C   0  0  2  0  0  0  0  0  0  0  0  0
   -5.6449  -10.2476    0.2271 O   0  0  0  0  0  0  0  0  0  0  0  0
   -3.3217   -9.3810    0.1770 C   0  0  0  0  0  0  0  0  0  0  0  0
   -2.8466  -10.4512    1.0055 O   0  0  0  0  0  0  0  0  0  0  0  0
   -5.1319   -8.3071   -1.8592 C   0  0  2  0  0  0  0  0  0  0  0  0
   -5.3245   -8.0502   -0.4574 O   0  0  0  0  0  0  0  0  0  0  0  0
   -5.5959   -7.0756   -2.6146 C   0  0  2  0  0  0  0  0  0  0  0  0
   -5.0149   -5.9110   -2.0176 O   0  0  0  0  0  0  0  0  0  0  0  0
   -7.1007   -6.9413   -2.5359 C   0  0  1  0  0  0  0  0  0  0  0  0
   -7.5162   -5.9265   -3.4529 O   0  0  0  0  0  0  0  0  0  0  0  0
   -7.7733   -8.2585   -2.8728 C   0  0  2  0  0  0  0  0  0  0  0  0
   -9.1653   -8.1367   -2.6141 O   0  0  0  0  0  0  0  0  0  0  0  0
   -7.2173   -9.4108   -2.0471 C   0  0  2  0  0  0  0  0  0  0  0  0
   -5.8197   -9.4791   -2.2962 O   0  0  0  0  0  0  0  0  0  0  0  0
   -7.8912  -10.7400   -2.4077 C   0  0  0  0  0  0  0  0  0  0  0  0
   -9.2967  -10.7533   -2.1180 O   0  0  0  0  0  0  0  0  0  0  0  0
  1  2  1  0  0  0  0
  3  1  1  6  0  0  0
  3  9  1  0  0  0  0
  3  4  1  0  0  0  0
  4  5  1  1  0  0  0
  4  6  1  0  0  0  0
  6  7  1  6  0  0  0
  6  8  1  0  0  0  0
  8  9  1  0  0  0  0
  8 10  1  6  0  0  0
  8 13  1  0  0  0  0
 10 11  1  0  0  0  0
 12 13  1  1  0  0  0
 12 14  1  0  0  0  0
 12 21  1  0  0  0  0
 14 15  1  1  0  0  0
 14 16  1  0  0  0  0
 16 17  1  6  0  0  0
 16 18  1  0  0  0  0
 18 19  1  1  0  0  0
 18 20  1  0  0  0  0
 20 21  1  0  0  0  0
 20 22  1  6  0  0  0
 22 23  1  0  0  0  0
M  END
>  <CHROM.1>
-62.14552413,62.12394962,-174.49869038,175.58914493,-63.26451728,-6.31050351
-8.93318139,-0.46921956,1.20600767,0.52626633,2.17740485

>  <Name>
ligand

>  <RI>
0

>  <Rbt.Current_Directory>
/home/itssahil/PROJECTS/Mol_Feturizer/New_Systems/rnas/4TS2

>  <Rbt.Executable>
rbdock ($Id: //depot/dev/client3/rdock/2013.1/src/exe/rbdock.cxx#4 $)

>  <Rbt.Library>
libRbt.so (2013.1, Build901 2013/11/27)

>  <Rbt.Parameter_File>
/export/apps/rDock/src/rDock_2013.1_src/data/scripts/dock_solv.prm

>  <Rbt.Receptor>
prm/pocket_docking_3.prm

>  <SCORE>
-8.1423

>  <SCORE.INTER>
-1.28986

>  <SCORE.INTER.CONST>
1

>  <SCORE.INTER.POLAR>
0

>  <SCORE.INTER.ROT>
5

>  <SCORE.INTER.SOLV>
8.12755

>  <SCORE.INTER.VDW>
-10.5024

>  <SCORE.INTER.norm>
-0.0560808

>  <SCORE.INTRA>
-6.8568

>  <SCORE.INTRA.DIHEDRAL>
-12.0204

>  <SCORE.INTRA.DIHEDRAL.0>
12.4853

>  <SCORE.INTRA.POLAR>
0

>  <SCORE.INTRA.POLAR.0>
0

>  <SCORE.INTRA.REPUL>
0

>  <SCORE.INTRA.REPUL.0>
0

>  <SCORE.INTRA.SOLV>
0.511179

>  <SCORE.INTRA.SOLV.lig_0>
-31.1706

>  <SCORE.INTRA.VDW>
-1.10221

>  <SCORE.INTRA.VDW.0>
-1.16895

>  <SCORE.INTRA.norm>
-0.298122

>  <SCORE.RESTR>
0.00435986

>  <SCORE.RESTR.CAVITY>
0.00435986

>  <SCORE.RESTR.norm>
0.000189559

>  <SCORE.SYSTEM>
0

>  <SCORE.SYSTEM.CONST>
0

>  <SCORE.SYSTEM.DIHEDRAL>
0

>  <SCORE.SYSTEM.SOLV>
0

>  <SCORE.SYSTEM.norm>
0

>  <SCORE.heavy>
23

>  <SCORE.norm>
-0.354013

>  <RMSD>
5.287

$$$$
ligand
 OpenBabel11021811513D
libRbt.so/2013.1/901 2013/11/27
 23 24  0  0  0  0  0  0  0  0999 V2000
   -7.3124   -6.1357   -2.9828 C   0  0  0  0  0  0  0  0  0  0  0  0
   -7.9131   -7.3989   -3.3274 O   0  0  0  0  0  0  0  0  0  0  0  0
   -5.8194   -6.2019   -3.2711 C   0  0  2  0  0  0  0  0  0  0  0  0
   -5.4422   -6.5742   -4.6968 C   0  0  1  0  0  0  0  0  0  0  0  0
   -5.5690   -5.4247   -5.5363 O   0  0  0  0  0  0  0  0  0  0  0  0
   -4.0070   -7.0601   -4.5247 C   0  0  2  0  0  0  0  0  0  0  0  0
   -3.4510   -7.9242   -5.5229 O   0  0  0  0  0  0  0  0  0  0  0  0
   -4.0928   -7.7897   -3.1958 C   0  0  2  0  0  0  0  0  0  0  0  0
   -5.1693   -7.1788   -2.4532 O   0  0  0  0  0  0  0  0  0  0  0  0
   -2.7327   -7.6394   -2.4906 C   0  0  0  0  0  0  0  0  0  0  0  0
   -2.4102   -6.2698   -2.2118 O   0  0  0  0  0  0  0  0  0  0  0  0
   -4.4528   -9.9877   -2.2648 C   0  0  2  0  0  0  0  0  0  0  0  0
   -4.4577   -9.1587   -3.4398 O   0  0  0  0  0  0  0  0  0  0  0  0
   -4.7478  -11.4080   -2.7097 C   0  0  2  0  0  0  0  0  0  0  0  0
   -3.9037  -11.7388   -3.8180 O   0  0  0  0  0  0  0  0  0  0  0  0
   -6.1860  -11.5337   -3.1623 C   0  0  1  0  0  0  0  0  0  0  0  0
   -6.4899  -12.9198   -3.3349 O   0  0  0  0  0  0  0  0  0  0  0  0
   -7.1233  -10.9153   -2.1426 C   0  0  2  0  0  0  0  0  0  0  0  0
   -8.4360  -10.8949   -2.6863 O   0  0  0  0  0  0  0  0  0  0  0  0
   -6.7166   -9.4927   -1.7826 C   0  0  2  0  0  0  0  0  0  0  0  0
   -5.3874   -9.5424   -1.2820 O   0  0  0  0  0  0  0  0  0  0  0  0
   -7.6597   -8.8833   -0.7385 C   0  0  0  0  0  0  0  0  0  0  0  0
   -7.6561   -9.5981    0.5059 O   0  0  0  0  0  0  0  0  0  0  0  0
  1  2  1  0  0  0  0
  3  1  1  6  0  0  0
  3  9  1  0  0  0  0
  3  4  1  0  0  0  0
  4  5  1  6  0  0  0
  4  6  1  0  0  0  0
  6  7  1  6  0  0  0
  6  8  1  0  0  0  0
  8  9  1  0  0  0  0
  8 10  1  1  0  0  0
  8 13  1  0  0  0  0
 10 11  1  0  0  0  0
 12 13  1  6  0  0  0
 12 14  1  0  0  0  0
 12 21  1  0  0  0  0
 14 15  1  6  0  0  0
 14 16  1  0  0  0  0
 16 17  1  1  0  0  0
 16 18  1  0  0  0  0
 18 19  1  6  0  0  0
 18 20  1  0  0  0  0
 20 21  1  0  0  0  0
 20 22  1  1  0  0  0
 22 23  1  0  0  0  0
M  END
>  <CHROM.1>
56.08660368,61.72944882,-175.57845733,174.61750465,61.86526788,-5.53571047
-8.77449267,-2.91674403,1.07181604,0.46615410,-0.14739167

>  <Name>
ligand

>  <RI>
0

>  <Rbt.Current_Directory>
/home/itssahil/PROJECTS/Mol_Feturizer/New_Systems/rnas/4TS2

>  <Rbt.Executable>
rbdock ($Id: //depot/dev/client3/rdock/2013.1/src/exe/rbdock.cxx#4 $)

>  <Rbt.Library>
libRbt.so (2013.1, Build901 2013/11/27)

>  <Rbt.Parameter_File>
/export/apps/rDock/src/rDock_2013.1_src/data/scripts/dock_solv.prm

>  <Rbt.Receptor>
prm/pocket_docking_6.prm

>  <SCORE>
-9.76449

>  <SCORE.INTER>
-3.12877

>  <SCORE.INTER.CONST>
1

>  <SCORE.INTER.POLAR>
0

>  <SCORE.INTER.ROT>
5

>  <SCORE.INTER.SOLV>
6.39943

>  <SCORE.INTER.VDW>
-11.1523

>  <SCORE.INTER.norm>
-0.136034

>  <SCORE.INTRA>
-6.63572

>  <SCORE.INTRA.DIHEDRAL>
-12.0086

>  <SCORE.INTRA.DIHEDRAL.0>
12.4853

>  <SCORE.INTRA.POLAR>
0

>  <SCORE.INTRA.POLAR.0>
0

>  <SCORE.INTRA.REPUL>
0

>  <SCORE.INTRA.REPUL.0>
0

>  <SCORE.INTRA.SOLV>
1.22047

>  <SCORE.INTRA.SOLV.lig_0>
-31.1706

>  <SCORE.INTRA.VDW>
-1.24166

>  <SCORE.INTRA.VDW.0>
-1.16895

>  <SCORE.INTRA.norm>
-0.288509

>  <SCORE.RESTR>
0

>  <SCORE.RESTR.CAVITY>
0

>  <SCORE.RESTR.norm>
0

>  <SCORE.SYSTEM>
0

>  <SCORE.SYSTEM.CONST>
0

>  <SCORE.SYSTEM.DIHEDRAL>
0

>  <SCORE.SYSTEM.SOLV>
0

>  <SCORE.SYSTEM.norm>
0

>  <SCORE.heavy>
23

>  <SCORE.norm>
-0.424543

>  <RMSD>
5.293

$$$$
ligand
 OpenBabel11021811513D
libRbt.so/2013.1/901 2013/11/27
 23 24  0  0  0  0  0  0  0  0999 V2000
   -9.2356  -10.0744   -1.8360 C   0  0  0  0  0  0  0  0  0  0  0  0
  -10.3453   -9.1670   -1.9796 O   0  0  0  0  0  0  0  0  0  0  0  0
   -7.9500   -9.2692   -1.7121 C   0  0  2  0  0  0  0  0  0  0  0  0
   -7.5446   -8.4852   -2.9509 C   0  0  1  0  0  0  0  0  0  0  0  0
   -8.3104   -7.2808   -3.0214 O   0  0  0  0  0  0  0  0  0  0  0  0
   -6.0564   -8.2595   -2.7061 C   0  0  2  0  0  0  0  0  0  0  0  0
   -5.2120   -7.9758   -3.8280 O   0  0  0  0  0  0  0  0  0  0  0  0
   -5.6515   -9.5786   -2.0720 C   0  0  2  0  0  0  0  0  0  0  0  0
   -6.8286  -10.1105   -1.4279 O   0  0  0  0  0  0  0  0  0  0  0  0
   -4.5154   -9.2891   -1.0745 C   0  0  0  0  0  0  0  0  0  0  0  0
   -3.3211   -8.8319   -1.7243 O   0  0  0  0  0  0  0  0  0  0  0  0
   -4.8871  -11.7981   -2.6352 C   0  0  2  0  0  0  0  0  0  0  0  0
   -5.2743  -10.4975   -3.1113 O   0  0  0  0  0  0  0  0  0  0  0  0
   -4.2901  -12.5522   -3.8087 C   0  0  2  0  0  0  0  0  0  0  0  0
   -3.3279  -11.7180   -4.4635 O   0  0  0  0  0  0  0  0  0  0  0  0
   -5.3646  -12.9056   -4.8134 C   0  0  1  0  0  0  0  0  0  0  0  0
   -4.8144  -13.8174   -5.7671 O   0  0  0  0  0  0  0  0  0  0  0  0
   -6.5598  -13.5313   -4.1200 C   0  0  2  0  0  0  0  0  0  0  0  0
   -7.6075  -13.6812   -5.0683 O   0  0  0  0  0  0  0  0  0  0  0  0
   -7.0602  -12.6767   -2.9633 C   0  0  2  0  0  0  0  0  0  0  0  0
   -5.9792  -12.5116   -2.0556 O   0  0  0  0  0  0  0  0  0  0  0  0
   -8.2570  -13.3263   -2.2584 C   0  0  0  0  0  0  0  0  0  0  0  0
   -7.9416  -14.5994   -1.6757 O   0  0  0  0  0  0  0  0  0  0  0  0
  1  2  1  0  0  0  0
  3  1  1  6  0  0  0
  3  9  1  0  0  0  0
  3  4  1  0  0  0  0
  4  5  1  1  0  0  0
  4  6  1  0  0  0  0
  6  7  1  6  0  0  0
  6  8  1  0  0  0  0
  8  9  1  0  0  0  0
  8 10  1  1  0  0  0
  8 13  1  0  0  0  0
 10 11  1  0  0  0  0
 12 13  1  6  0  0  0
 12 14  1  0  0  0  0
 12 21  1  0  0  0  0
 14 15  1  6  0  0  0
 14 16  1  0  0  0  0
 16 17  1  6  0  0  0
 16 18  1  0  0  0  0
 18 19  1  6  0  0  0
 18 20  1  0  0  0  0
 20 21  1  0  0  0  0
 20 22  1  1  0  0  0
 22 23  1  0  0  0  0
M  END
>  <CHROM.1>
-66.43779494,-65.88802408,-170.06661959,-179.10602508,61.71823245,-6.36418982
-10.95474443,-2.92621351,1.82794507,0.25190981,0.28082293

>  <Name>
ligand

>  <RI>
0

>  <Rbt.Current_Directory>
/home/itssahil/PROJECTS/Mol_Feturizer/New_Systems/rnas/4TS2

>  <Rbt.Executable>
rbdock ($Id: //depot/dev/client3/rdock/2013.1/src/exe/rbdock.cxx#4 $)

>  <Rbt.Library>
libRbt.so (2013.1, Build901 2013/11/27)

>  <Rbt.Parameter_File>
/export/apps/rDock/src/rDock_2013.1_src/data/scripts/dock_solv.prm

>  <Rbt.Receptor>
prm/pocket_docking_5.prm

>  <SCORE>
-8.07604

>  <SCORE.INTER>
-0.976769

>  <SCORE.INTER.CONST>
1

>  <SCORE.INTER.POLAR>
0

>  <SCORE.INTER.ROT>
5

>  <SCORE.INTER.SOLV>
4.87996

>  <SCORE.INTER.VDW>
-9.21117

>  <SCORE.INTER.norm>
-0.0424682

>  <SCORE.INTRA>
-7.09927

>  <SCORE.INTRA.DIHEDRAL>
-11.7104

>  <SCORE.INTRA.DIHEDRAL.0>
12.4853

>  <SCORE.INTRA.POLAR>
0

>  <SCORE.INTRA.POLAR.0>
0

>  <SCORE.INTRA.REPUL>
0

>  <SCORE.INTRA.REPUL.0>
0

>  <SCORE.INTRA.SOLV>
0.507469

>  <SCORE.INTRA.SOLV.lig_0>
-31.1706

>  <SCORE.INTRA.VDW>
-1.49779

>  <SCORE.INTRA.VDW.0>
-1.16895

>  <SCORE.INTRA.norm>
-0.308664

>  <SCORE.RESTR>
0

>  <SCORE.RESTR.CAVITY>
0

>  <SCORE.RESTR.norm>
0

>  <SCORE.SYSTEM>
0

>  <SCORE.SYSTEM.CONST>
0

>  <SCORE.SYSTEM.DIHEDRAL>
0

>  <SCORE.SYSTEM.SOLV>
0

>  <SCORE.SYSTEM.norm>
0

>  <SCORE.heavy>
23

>  <SCORE.norm>
-0.351132

>  <RMSD>
5.321

$$$$
ligand
 OpenBabel11021811513D
libRbt.so/2013.1/901 2013/11/27
 23 24  0  0  0  0  0  0  0  0999 V2000
   -4.6219   -6.1841   -4.1947 C   0  0  0  0  0  0  0  0  0  0  0  0
   -5.0912   -5.2406   -5.1771 O   0  0  0  0  0  0  0  0  0  0  0  0
   -5.7964   -7.0243   -3.7140 C   0  0  2  0  0  0  0  0  0  0  0  0
   -6.8217   -6.2923   -2.8617 C   0  0  1  0  0  0  0  0  0  0  0  0
   -7.6894   -5.5362   -3.7088 O   0  0  0  0  0  0  0  0  0  0  0  0
   -7.5109   -7.4458   -2.1405 C   0  0  2  0  0  0  0  0  0  0  0  0
   -8.2062   -7.1730   -0.9181 O   0  0  0  0  0  0  0  0  0  0  0  0
   -6.3416   -8.3778   -1.8759 C   0  0  2  0  0  0  0  0  0  0  0  0
   -5.3616   -8.1199   -2.9037 O   0  0  0  0  0  0  0  0  0  0  0  0
   -6.8743   -9.8214   -1.9202 C   0  0  0  0  0  0  0  0  0  0  0  0
   -7.3961  -10.1719   -3.2096 O   0  0  0  0  0  0  0  0  0  0  0  0
   -4.4417   -8.5963   -0.4027 C   0  0  2  0  0  0  0  0  0  0  0  0
   -5.7468   -8.0305   -0.6139 O   0  0  0  0  0  0  0  0  0  0  0  0
   -4.1579   -8.5401    1.0869 C   0  0  2  0  0  0  0  0  0  0  0  0
   -5.2843   -9.0621    1.8003 O   0  0  0  0  0  0  0  0  0  0  0  0
   -3.9432   -7.1102    1.5319 C   0  0  1  0  0  0  0  0  0  0  0  0
   -3.4401   -7.1201    2.8699 O   0  0  0  0  0  0  0  0  0  0  0  0
   -2.9664   -6.4046    0.6106 C   0  0  2  0  0  0  0  0  0  0  0  0
   -2.9320   -5.0263    0.9551 O   0  0  0  0  0  0  0  0  0  0  0  0
   -3.3650   -6.5371   -0.8531 C   0  0  2  0  0  0  0  0  0  0  0  0
   -3.4305   -7.9246   -1.1537 O   0  0  0  0  0  0  0  0  0  0  0  0
   -2.3620   -5.8358   -1.7768 C   0  0  0  0  0  0  0  0  0  0  0  0
   -2.3877   -4.4064   -1.6507 O   0  0  0  0  0  0  0  0  0  0  0  0
  1  2  1  0  0  0  0
  3  1  1  1  0  0  0
  3  9  1  0  0  0  0
  3  4  1  0  0  0  0
  4  5  1  6  0  0  0
  4  6  1  0  0  0  0
  6  7  1  1  0  0  0
  6  8  1  0  0  0  0
  8  9  1  0  0  0  0
  8 10  1  6  0  0  0
  8 13  1  0  0  0  0
 10 11  1  0  0  0  0
 12 13  1  1  0  0  0
 12 14  1  0  0  0  0
 12 21  1  0  0  0  0
 14 15  1  1  0  0  0
 14 16  1  0  0  0  0
 16 17  1  1  0  0  0
 16 18  1  0  0  0  0
 18 19  1  1  0  0  0
 18 20  1  0  0  0  0
 20 21  1  0  0  0  0
 20 22  1  6  0  0  0
 22 23  1  0  0  0  0
M  END
>  <CHROM.1>
-69.90415555,62.80474821,-161.47900924,-164.89332731,-68.74031503,-5.05557855
-7.19964934,-1.31753242,-2.43352206,0.67122250,2.10448513

>  <Name>
ligand

>  <RI>
0

>  <Rbt.Current_Directory>
/home/itssahil/PROJECTS/Mol_Feturizer/New_Systems/rnas/4TS2

>  <Rbt.Executable>
rbdock ($Id: //depot/dev/client3/rdock/2013.1/src/exe/rbdock.cxx#4 $)

>  <Rbt.Library>
libRbt.so (2013.1, Build901 2013/11/27)

>  <Rbt.Parameter_File>
/export/apps/rDock/src/rDock_2013.1_src/data/scripts/dock_solv.prm

>  <Rbt.Receptor>
prm/pocket_docking_7.prm

>  <SCORE>
-9.2883

>  <SCORE.INTER>
-3.35106

>  <SCORE.INTER.CONST>
1

>  <SCORE.INTER.POLAR>
0

>  <SCORE.INTER.ROT>
5

>  <SCORE.INTER.SOLV>
11.2013

>  <SCORE.INTER.VDW>
-12.9012

>  <SCORE.INTER.norm>
-0.145698

>  <SCORE.INTRA>
-5.93724

>  <SCORE.INTRA.DIHEDRAL>
-9.32966

>  <SCORE.INTRA.DIHEDRAL.0>
12.4853

>  <SCORE.INTRA.POLAR>
0

>  <SCORE.INTRA.POLAR.0>
0

>  <SCORE.INTRA.REPUL>
0

>  <SCORE.INTRA.REPUL.0>
0

>  <SCORE.INTRA.SOLV>
0.477039

>  <SCORE.INTRA.SOLV.lig_0>
-31.1706

>  <SCORE.INTRA.VDW>
-1.51093

>  <SCORE.INTRA.VDW.0>
-1.16895

>  <SCORE.INTRA.norm>
-0.258141

>  <SCORE.RESTR>
0

>  <SCORE.RESTR.CAVITY>
0

>  <SCORE.RESTR.norm>
0

>  <SCORE.SYSTEM>
0

>  <SCORE.SYSTEM.CONST>
0

>  <SCORE.SYSTEM.DIHEDRAL>
0

>  <SCORE.SYSTEM.SOLV>
0

>  <SCORE.SYSTEM.norm>
0

>  <SCORE.heavy>
23

>  <SCORE.norm>
-0.403839

>  <RMSD>
5.351

$$$$
ligand
 OpenBabel11021811513D
libRbt.so/2013.1/901 2013/11/27
 23 24  0  0  0  0  0  0  0  0999 V2000
   -7.0105  -10.0659    2.3514 C   0  0  0  0  0  0  0  0  0  0  0  0
   -6.1394   -9.3949    3.2823 O   0  0  0  0  0  0  0  0  0  0  0  0
   -6.7715   -9.5051    0.9568 C   0  0  2  0  0  0  0  0  0  0  0  0
   -7.1075   -8.0328    0.7750 C   0  0  1  0  0  0  0  0  0  0  0  0
   -6.0415   -7.2356    1.2950 O   0  0  0  0  0  0  0  0  0  0  0  0
   -7.2740   -7.9336   -0.7376 C   0  0  2  0  0  0  0  0  0  0  0  0
   -8.0374   -6.8465   -1.2738 O   0  0  0  0  0  0  0  0  0  0  0  0
   -7.9568   -9.2528   -1.0531 C   0  0  2  0  0  0  0  0  0  0  0  0
   -7.5596  -10.1845   -0.0247 O   0  0  0  0  0  0  0  0  0  0  0  0
   -7.4983   -9.6936   -2.4549 C   0  0  0  0  0  0  0  0  0  0  0  0
   -7.7852   -8.7093   -3.4583 O   0  0  0  0  0  0  0  0  0  0  0  0
  -10.1413  -10.2690   -1.2045 C   0  0  2  0  0  0  0  0  0  0  0  0
   -9.3798   -9.0758   -0.9506 O   0  0  0  0  0  0  0  0  0  0  0  0
  -11.6069   -9.8766   -1.2260 C   0  0  2  0  0  0  0  0  0  0  0  0
  -11.7750   -8.7317   -2.0693 O   0  0  0  0  0  0  0  0  0  0  0  0
  -12.0772   -9.5080    0.1639 C   0  0  1  0  0  0  0  0  0  0  0  0
  -13.5015   -9.3871    0.1458 O   0  0  0  0  0  0  0  0  0  0  0  0
  -11.6541  -10.5626    1.1687 C   0  0  2  0  0  0  0  0  0  0  0  0
  -11.9570  -10.0924    2.4750 O   0  0  0  0  0  0  0  0  0  0  0  0
  -10.1637  -10.8639    1.0863 C   0  0  2  0  0  0  0  0  0  0  0  0
   -9.8872  -11.2909   -0.2407 O   0  0  0  0  0  0  0  0  0  0  0  0
   -9.7498  -11.9433    2.0935 C   0  0  0  0  0  0  0  0  0  0  0  0
  -10.3808  -13.2091    1.8504 O   0  0  0  0  0  0  0  0  0  0  0  0
  1  2  1  0  0  0  0
  3  1  1  1  0  0  0
  3  9  1  0  0  0  0
  3  4  1  0  0  0  0
  4  5  1  6  0  0  0
  4  6  1  0  0  0  0
  6  7  1  1  0  0  0
  6  8  1  0  0  0  0
  8  9  1  0  0  0  0
  8 10  1  6  0  0  0
  8 13  1  0  0  0  0
 10 11  1  0  0  0  0
 12 13  1  1  0  0  0
 12 14  1  0  0  0  0
 12 21  1  0  0  0  0
 14 15  1  6  0  0  0
 14 16  1  0  0  0  0
 16 17  1  6  0  0  0
 16 18  1  0  0  0  0
 18 19  1  1  0  0  0
 18 20  1  0  0  0  0
 20 21  1  0  0  0  0
 20 22  1  1  0  0  0
 22 23  1  0  0  0  0
M  END
>  <CHROM.1>
-63.50613858,-57.23852834,-173.16098589,-178.91235546,62.84743781,-9.19916321
-9.63062963,0.13329048,-0.24218516,0.31396614,2.07067330

>  <Name>
ligand

>  <RI>
0

>  <Rbt.Current_Directory>
/home/itssahil/PROJECTS/Mol_Feturizer/New_Systems/rnas/4TS2

>  <Rbt.Executable>
rbdock ($Id: //depot/dev/client3/rdock/2013.1/src/exe/rbdock.cxx#4 $)

>  <Rbt.Library>
libRbt.so (2013.1, Build901 2013/11/27)

>  <Rbt.Parameter_File>
/export/apps/rDock/src/rDock_2013.1_src/data/scripts/dock_solv.prm

>  <Rbt.Receptor>
prm/pocket_docking_4.prm

>  <SCORE>
-10.0135

>  <SCORE.INTER>
-3.0259

>  <SCORE.INTER.CONST>
1

>  <SCORE.INTER.POLAR>
0

>  <SCORE.INTER.ROT>
5

>  <SCORE.INTER.SOLV>
10.424

>  <SCORE.INTER.VDW>
-12.4253

>  <SCORE.INTER.norm>
-0.131561

>  <SCORE.INTRA>
-6.98755

>  <SCORE.INTRA.DIHEDRAL>
-12.0757

>  <SCORE.INTRA.DIHEDRAL.0>
12.4853

>  <SCORE.INTRA.POLAR>
0

>  <SCORE.INTRA.POLAR.0>
0

>  <SCORE.INTRA.REPUL>
0

>  <SCORE.INTRA.REPUL.0>
0

>  <SCORE.INTRA.SOLV>
0.485708

>  <SCORE.INTRA.SOLV.lig_0>
-31.1706

>  <SCORE.INTRA.VDW>
-1.19255

>  <SCORE.INTRA.VDW.0>
-1.16895

>  <SCORE.INTRA.norm>
-0.303807

>  <SCORE.RESTR>
0

>  <SCORE.RESTR.CAVITY>
0

>  <SCORE.RESTR.norm>
0

>  <SCORE.SYSTEM>
0

>  <SCORE.SYSTEM.CONST>
0

>  <SCORE.SYSTEM.DIHEDRAL>
0

>  <SCORE.SYSTEM.SOLV>
0

>  <SCORE.SYSTEM.norm>
0

>  <SCORE.heavy>
23

>  <SCORE.norm>
-0.435368

>  <RMSD>
5.370

$$$$
ligand
 OpenBabel11021811513D
libRbt.so/2013.1/901 2013/11/27
 23 24  0  0  0  0  0  0  0  0999 V2000
   -5.3009   -6.7060   -4.8754 C   0  0  0  0  0  0  0  0  0  0  0  0
   -5.6029   -5.4129   -5.4342 O   0  0  0  0  0  0  0  0  0  0  0  0
   -6.5403   -7.2449   -4.1754 C   0  0  2  0  0  0  0  0  0  0  0  0
   -7.0117   -6.4475   -2.9690 C   0  0  1  0  0  0  0  0  0  0  0  0
   -7.7419   -5.3023   -3.4136 O   0  0  0  0  0  0  0  0  0  0  0  0
   -7.8611   -7.4739   -2.2271 C   0  0  2  0  0  0  0  0  0  0  0  0
   -8.1025   -7.2820   -0.8281 O   0  0  0  0  0  0  0  0  0  0  0  0
   -7.0587   -8.7444   -2.4459 C   0  0  2  0  0  0  0  0  0  0  0  0
   -6.3289   -8.5697   -3.6789 O   0  0  0  0  0  0  0  0  0  0  0  0
   -8.0511   -9.9193   -2.5115 C   0  0  0  0  0  0  0  0  0  0  0  0
   -7.4202  -11.1463   -2.9041 O   0  0  0  0  0  0  0  0  0  0  0  0
   -5.2425  -10.0259   -1.5043 C   0  0  2  0  0  0  0  0  0  0  0  0
   -6.0948   -8.8736   -1.3871 O   0  0  0  0  0  0  0  0  0  0  0  0
   -4.4418  -10.1311   -0.2197 C   0  0  2  0  0  0  0  0  0  0  0  0
   -5.3284  -10.0120    0.8984 O   0  0  0  0  0  0  0  0  0  0  0  0
   -3.4272   -9.0121   -0.1344 C   0  0  1  0  0  0  0  0  0  0  0  0
   -2.5382   -9.2848    0.9513 O   0  0  0  0  0  0  0  0  0  0  0  0
   -2.6493   -8.8959   -1.4314 C   0  0  2  0  0  0  0  0  0  0  0  0
   -1.8405   -7.7289   -1.3727 O   0  0  0  0  0  0  0  0  0  0  0  0
   -3.5687   -8.7981   -2.6414 C   0  0  2  0  0  0  0  0  0  0  0  0
   -4.3907   -9.9575   -2.6477 O   0  0  0  0  0  0  0  0  0  0  0  0
   -2.7727   -8.6988   -3.9482 C   0  0  0  0  0  0  0  0  0  0  0  0
   -2.0327   -7.4746   -4.0628 O   0  0  0  0  0  0  0  0  0  0  0  0
  1  2  1  0  0  0  0
  3  1  1  1  0  0  0
  3  9  1  0  0  0  0
  3  4  1  0  0  0  0
  4  5  1  6  0  0  0
  4  6  1  0  0  0  0
  6  7  1  1  0  0  0
  6  8  1  0  0  0  0
  8  9  1  0  0  0  0
  8 10  1  6  0  0  0
  8 13  1  0  0  0  0
 10 11  1  0  0  0  0
 12 13  1  1  0  0  0
 12 14  1  0  0  0  0
 12 21  1  0  0  0  0
 14 15  1  1  0  0  0
 14 16  1  0  0  0  0
 16 17  1  1  0  0  0
 16 18  1  0  0  0  0
 18 19  1  1  0  0  0
 18 20  1  0  0  0  0
 20 21  1  0  0  0  0
 20 22  1  6  0  0  0
 22 23  1  0  0  0  0
M  END
>  <CHROM.1>
-64.41312558,171.73737241,-171.51232221,-178.30928845,-66.81368433,-5.26602136
-8.38501481,-2.30273685,-2.37139997,0.01517407,2.26145175

>  <Name>
ligand

>  <RI>
0

>  <Rbt.Current_Directory>
/home/itssahil/PROJECTS/Mol_Feturizer/New_Systems/rnas/4TS2

>  <Rbt.Executable>
rbdock ($Id: //depot/dev/client3/rdock/2013.1/src/exe/rbdock.cxx#4 $)

>  <Rbt.Library>
libRbt.so (2013.1, Build901 2013/11/27)

>  <Rbt.Parameter_File>
/export/apps/rDock/src/rDock_2013.1_src/data/scripts/dock_solv.prm

>  <Rbt.Receptor>
prm/pocket_docking_5.prm

>  <SCORE>
-9.21506

>  <SCORE.INTER>
-2.43986

>  <SCORE.INTER.CONST>
1

>  <SCORE.INTER.POLAR>
0

>  <SCORE.INTER.ROT>
5

>  <SCORE.INTER.SOLV>
7.75581

>  <SCORE.INTER.VDW>
-11.1452

>  <SCORE.INTER.norm>
-0.106081

>  <SCORE.INTRA>
-6.77521

>  <SCORE.INTRA.DIHEDRAL>
-11.6613

>  <SCORE.INTRA.DIHEDRAL.0>
12.4853

>  <SCORE.INTRA.POLAR>
0

>  <SCORE.INTRA.POLAR.0>
0

>  <SCORE.INTRA.REPUL>
0

>  <SCORE.INTRA.REPUL.0>
0

>  <SCORE.INTRA.SOLV>
0.688338

>  <SCORE.INTRA.SOLV.lig_0>
-31.1706

>  <SCORE.INTRA.VDW>
-1.28873

>  <SCORE.INTRA.VDW.0>
-1.16895

>  <SCORE.INTRA.norm>
-0.294574

>  <SCORE.RESTR>
0

>  <SCORE.RESTR.CAVITY>
0

>  <SCORE.RESTR.norm>
0

>  <SCORE.SYSTEM>
0

>  <SCORE.SYSTEM.CONST>
0

>  <SCORE.SYSTEM.DIHEDRAL>
0

>  <SCORE.SYSTEM.SOLV>
0

>  <SCORE.SYSTEM.norm>
0

>  <SCORE.heavy>
23

>  <SCORE.norm>
-0.400655

>  <RMSD>
5.387

$$$$
ligand
 OpenBabel11021811513D
libRbt.so/2013.1/901 2013/11/27
 23 24  0  0  0  0  0  0  0  0999 V2000
   -3.6653   -7.4752   -4.7581 C   0  0  0  0  0  0  0  0  0  0  0  0
   -3.4425   -6.6238   -5.8987 O   0  0  0  0  0  0  0  0  0  0  0  0
   -5.1461   -7.4558   -4.4070 C   0  0  2  0  0  0  0  0  0  0  0  0
   -5.7044   -6.1034   -3.9911 C   0  0  1  0  0  0  0  0  0  0  0  0
   -5.9546   -5.3152   -5.1566 O   0  0  0  0  0  0  0  0  0  0  0  0
   -6.9649   -6.5044   -3.2323 C   0  0  2  0  0  0  0  0  0  0  0  0
   -7.5235   -5.5787   -2.2925 O   0  0  0  0  0  0  0  0  0  0  0  0
   -6.4979   -7.7571   -2.5123 C   0  0  2  0  0  0  0  0  0  0  0  0
   -5.4371   -8.3254   -3.3091 O   0  0  0  0  0  0  0  0  0  0  0  0
   -7.7070   -8.7012   -2.3835 C   0  0  0  0  0  0  0  0  0  0  0  0
   -8.7293   -8.1666   -1.5310 O   0  0  0  0  0  0  0  0  0  0  0  0
   -5.3788   -8.4788   -0.4987 C   0  0  2  0  0  0  0  0  0  0  0  0
   -5.9333   -7.3815   -1.2446 O   0  0  0  0  0  0  0  0  0  0  0  0
   -5.1236   -7.9853    0.9133 C   0  0  2  0  0  0  0  0  0  0  0  0
   -6.2932   -7.3150    1.3960 O   0  0  0  0  0  0  0  0  0  0  0  0
   -3.9772   -6.9982    0.9305 C   0  0  1  0  0  0  0  0  0  0  0  0
   -3.6101   -6.7499    2.2896 O   0  0  0  0  0  0  0  0  0  0  0  0
   -2.7905   -7.5437    0.1591 C   0  0  2  0  0  0  0  0  0  0  0  0
   -1.8110   -6.5200    0.0494 O   0  0  0  0  0  0  0  0  0  0  0  0
   -3.1814   -8.0039   -1.2389 C   0  0  2  0  0  0  0  0  0  0  0  0
   -4.1895   -8.9954   -1.0955 O   0  0  0  0  0  0  0  0  0  0  0  0
   -1.9788   -8.5695   -2.0035 C   0  0  0  0  0  0  0  0  0  0  0  0
   -1.3787   -9.6977   -1.3503 O   0  0  0  0  0  0  0  0  0  0  0  0
  1  2  1  0  0  0  0
  3  1  1  1  0  0  0
  3  9  1  0  0  0  0
  3  4  1  0  0  0  0
  4  5  1  6  0  0  0
  4  6  1  0  0  0  0
  6  7  1  1  0  0  0
  6  8  1  0  0  0  0
  8  9  1  0  0  0  0
  8 10  1  1  0  0  0
  8 13  1  0  0  0  0
 10 11  1  0  0  0  0
 12 13  1  6  0  0  0
 12 14  1  0  0  0  0
 12 21  1  0  0  0  0
 14 15  1  6  0  0  0
 14 16  1  0  0  0  0
 16 17  1  1  0  0  0
 16 18  1  0  0  0  0
 18 19  1  6  0  0  0
 18 20  1  0  0  0  0
 20 21  1  0  0  0  0
 20 22  1  1  0  0  0
 22 23  1  0  0  0  0
M  END
>  <CHROM.1>
-62.58453900,-65.83362598,-167.23719901,-176.43331271,59.72682205,-4.88374601
-7.47977872,-1.78524781,-2.10132720,-0.14170186,1.69296055

>  <Name>
ligand

>  <RI>
0

>  <Rbt.Current_Directory>
/home/itssahil/PROJECTS/Mol_Feturizer/New_Systems/rnas/4TS2

>  <Rbt.Executable>
rbdock ($Id: //depot/dev/client3/rdock/2013.1/src/exe/rbdock.cxx#4 $)

>  <Rbt.Library>
libRbt.so (2013.1, Build901 2013/11/27)

>  <Rbt.Parameter_File>
/export/apps/rDock/src/rDock_2013.1_src/data/scripts/dock_solv.prm

>  <Rbt.Receptor>
prm/pocket_docking_6.prm

>  <SCORE>
-9.65545

>  <SCORE.INTER>
-2.65404

>  <SCORE.INTER.CONST>
1

>  <SCORE.INTER.POLAR>
0

>  <SCORE.INTER.ROT>
5

>  <SCORE.INTER.SOLV>
9.894

>  <SCORE.INTER.VDW>
-12.0007

>  <SCORE.INTER.norm>
-0.115393

>  <SCORE.INTRA>
-7.00141

>  <SCORE.INTRA.DIHEDRAL>
-11.5315

>  <SCORE.INTRA.DIHEDRAL.0>
12.4853

>  <SCORE.INTRA.POLAR>
0

>  <SCORE.INTRA.POLAR.0>
0

>  <SCORE.INTRA.REPUL>
0

>  <SCORE.INTRA.REPUL.0>
0

>  <SCORE.INTRA.SOLV>
0.550914

>  <SCORE.INTRA.SOLV.lig_0>
-31.1706

>  <SCORE.INTRA.VDW>
-1.51113

>  <SCORE.INTRA.VDW.0>
-1.16895

>  <SCORE.INTRA.norm>
-0.304409

>  <SCORE.RESTR>
0

>  <SCORE.RESTR.CAVITY>
0

>  <SCORE.RESTR.norm>
0

>  <SCORE.SYSTEM>
0

>  <SCORE.SYSTEM.CONST>
0

>  <SCORE.SYSTEM.DIHEDRAL>
0

>  <SCORE.SYSTEM.SOLV>
0

>  <SCORE.SYSTEM.norm>
0

>  <SCORE.heavy>
23

>  <SCORE.norm>
-0.419802

>  <RMSD>
5.393

$$$$
ligand
 OpenBabel11021811513D
libRbt.so/2013.1/901 2013/11/27
 23 24  0  0  0  0  0  0  0  0999 V2000
   -7.5496  -10.8215    0.8002 C   0  0  0  0  0  0  0  0  0  0  0  0
   -7.3235  -12.1160    0.2096 O   0  0  0  0  0  0  0  0  0  0  0  0
   -6.2097  -10.2134    1.1891 C   0  0  2  0  0  0  0  0  0  0  0  0
   -6.2813   -8.8896    1.9345 C   0  0  1  0  0  0  0  0  0  0  0  0
   -6.5862   -9.1353    3.3089 O   0  0  0  0  0  0  0  0  0  0  0  0
   -4.8850   -8.3226    1.7017 C   0  0  2  0  0  0  0  0  0  0  0  0
   -4.6874   -6.9099    1.8337 O   0  0  0  0  0  0  0  0  0  0  0  0
   -4.6198   -8.7523    0.2696 C   0  0  2  0  0  0  0  0  0  0  0  0
   -5.4020   -9.9434    0.0398 O   0  0  0  0  0  0  0  0  0  0  0  0
   -3.1079   -9.0054    0.1292 C   0  0  0  0  0  0  0  0  0  0  0  0
   -2.6500  -10.0653    0.9804 O   0  0  0  0  0  0  0  0  0  0  0  0
   -4.8675   -8.0018   -2.0115 C   0  0  2  0  0  0  0  0  0  0  0  0
   -5.1101   -7.7344   -0.6195 O   0  0  0  0  0  0  0  0  0  0  0  0
   -5.3208   -6.7833   -2.7938 C   0  0  2  0  0  0  0  0  0  0  0  0
   -4.7744   -5.6060   -2.1892 O   0  0  0  0  0  0  0  0  0  0  0  0
   -6.8290   -6.6671   -2.7667 C   0  0  1  0  0  0  0  0  0  0  0  0
   -7.2258   -5.6660   -3.7069 O   0  0  0  0  0  0  0  0  0  0  0  0
   -7.4739   -7.9956   -3.1131 C   0  0  2  0  0  0  0  0  0  0  0  0
   -8.8751   -7.8888   -2.9021 O   0  0  0  0  0  0  0  0  0  0  0  0
   -6.9318   -9.1331   -2.2581 C   0  0  2  0  0  0  0  0  0  0  0  0
   -5.5260   -9.1863   -2.4598 O   0  0  0  0  0  0  0  0  0  0  0  0
   -7.5771  -10.4740   -2.6281 C   0  0  0  0  0  0  0  0  0  0  0  0
   -8.9917  -10.5012   -2.3876 O   0  0  0  0  0  0  0  0  0  0  0  0
  1  2  1  0  0  0  0
  3  1  1  6  0  0  0
  3  9  1  0  0  0  0
  3  4  1  0  0  0  0
  4  5  1  1  0  0  0
  4  6  1  0  0  0  0
  6  7  1  6  0  0  0
  6  8  1  0  0  0  0
  8  9  1  0  0  0  0
  8 10  1  6  0  0  0
  8 13  1  0  0  0  0
 10 11  1  0  0  0  0
 12 13  1  1  0  0  0
 12 14  1  0  0  0  0
 12 21  1  0  0  0  0
 14 15  1  1  0  0  0
 14 16  1  0  0  0  0
 16 17  1  6  0  0  0
 16 18  1  0  0  0  0
 18 19  1  1  0  0  0
 18 20  1  0  0  0  0
 20 21  1  0  0  0  0
 20 22  1  6  0  0  0
 22 23  1  0  0  0  0
M  END
>  <CHROM.1>
-175.12404800,62.21007193,-174.67041919,177.61106093,-63.15800482,-6.04652569
-8.69284551,-0.75562429,1.08137569,0.68257903,2.30807952

>  <Name>
ligand

>  <RI>
0

>  <Rbt.Current_Directory>
/home/itssahil/PROJECTS/Mol_Feturizer/New_Systems/rnas/4TS2

>  <Rbt.Executable>
rbdock ($Id: //depot/dev/client3/rdock/2013.1/src/exe/rbdock.cxx#4 $)

>  <Rbt.Library>
libRbt.so (2013.1, Build901 2013/11/27)

>  <Rbt.Parameter_File>
/export/apps/rDock/src/rDock_2013.1_src/data/scripts/dock_solv.prm

>  <Rbt.Receptor>
prm/pocket_docking_4.prm

>  <SCORE>
-8.93471

>  <SCORE.INTER>
-1.92836

>  <SCORE.INTER.CONST>
1

>  <SCORE.INTER.POLAR>
0

>  <SCORE.INTER.ROT>
5

>  <SCORE.INTER.SOLV>
8.87684

>  <SCORE.INTER.VDW>
-11.1779

>  <SCORE.INTER.norm>
-0.0838419

>  <SCORE.INTRA>
-7.00635

>  <SCORE.INTRA.DIHEDRAL>
-12.0574

>  <SCORE.INTRA.DIHEDRAL.0>
12.4853

>  <SCORE.INTRA.POLAR>
0

>  <SCORE.INTRA.POLAR.0>
0

>  <SCORE.INTRA.REPUL>
0

>  <SCORE.INTRA.REPUL.0>
0

>  <SCORE.INTRA.SOLV>
0.697319

>  <SCORE.INTRA.SOLV.lig_0>
-31.1706

>  <SCORE.INTRA.VDW>
-1.32631

>  <SCORE.INTRA.VDW.0>
-1.16895

>  <SCORE.INTRA.norm>
-0.304624

>  <SCORE.RESTR>
0

>  <SCORE.RESTR.CAVITY>
0

>  <SCORE.RESTR.norm>
0

>  <SCORE.SYSTEM>
0

>  <SCORE.SYSTEM.CONST>
0

>  <SCORE.SYSTEM.DIHEDRAL>
0

>  <SCORE.SYSTEM.SOLV>
0

>  <SCORE.SYSTEM.norm>
0

>  <SCORE.heavy>
23

>  <SCORE.norm>
-0.388466

>  <RMSD>
5.422

$$$$
ligand
 OpenBabel11021811513D
libRbt.so/2013.1/901 2013/11/27
 23 24  0  0  0  0  0  0  0  0999 V2000
   -4.5797   -6.1149   -4.2761 C   0  0  0  0  0  0  0  0  0  0  0  0
   -5.0713   -5.1647   -5.2409 O   0  0  0  0  0  0  0  0  0  0  0  0
   -5.7391   -6.9730   -3.7905 C   0  0  2  0  0  0  0  0  0  0  0  0
   -6.7532   -6.2658   -2.9047 C   0  0  1  0  0  0  0  0  0  0  0  0
   -7.6419   -5.4992   -3.7201 O   0  0  0  0  0  0  0  0  0  0  0  0
   -7.4208   -7.4384   -2.1942 C   0  0  2  0  0  0  0  0  0  0  0  0
   -8.0949   -7.1952   -0.9538 O   0  0  0  0  0  0  0  0  0  0  0  0
   -6.2403   -8.3669   -1.9701 C   0  0  2  0  0  0  0  0  0  0  0  0
   -5.2816   -8.0815   -3.0107 O   0  0  0  0  0  0  0  0  0  0  0  0
   -6.7638   -9.8132   -2.0335 C   0  0  0  0  0  0  0  0  0  0  0  0
   -5.7194  -10.7806   -1.8571 O   0  0  0  0  0  0  0  0  0  0  0  0
   -4.2413   -8.4229   -0.6179 C   0  0  2  0  0  0  0  0  0  0  0  0
   -5.6243   -8.0406   -0.7127 O   0  0  0  0  0  0  0  0  0  0  0  0
   -3.9030   -8.5419    0.8565 C   0  0  2  0  0  0  0  0  0  0  0  0
   -4.9058   -9.3300    1.5071 O   0  0  0  0  0  0  0  0  0  0  0  0
   -3.8845   -7.1764    1.5077 C   0  0  1  0  0  0  0  0  0  0  0  0
   -3.3264   -7.3039    2.8176 O   0  0  0  0  0  0  0  0  0  0  0  0
   -3.0660   -6.2017    0.6826 C   0  0  2  0  0  0  0  0  0  0  0  0
   -3.2225   -4.8999    1.2307 O   0  0  0  0  0  0  0  0  0  0  0  0
   -3.5052   -6.1789   -0.7752 C   0  0  2  0  0  0  0  0  0  0  0  0
   -3.3762   -7.5009   -1.2806 O   0  0  0  0  0  0  0  0  0  0  0  0
   -2.6604   -5.2039   -1.6039 C   0  0  0  0  0  0  0  0  0  0  0  0
   -1.2700   -5.5573   -1.6403 O   0  0  0  0  0  0  0  0  0  0  0  0
  1  2  1  0  0  0  0
  3  1  1  1  0  0  0
  3  9  1  0  0  0  0
  3  4  1  0  0  0  0
  4  5  1  6  0  0  0
  4  6  1  0  0  0  0
  6  7  1  1  0  0  0
  6  8  1  0  0  0  0
  8  9  1  0  0  0  0
  8 10  1  6  0  0  0
  8 13  1  0  0  0  0
 10 11  1  0  0  0  0
 12 13  1  1  0  0  0
 12 14  1  0  0  0  0
 12 21  1  0  0  0  0
 14 15  1  1  0  0  0
 14 16  1  0  0  0  0
 16 17  1  1  0  0  0
 16 18  1  0  0  0  0
 18 19  1  1  0  0  0
 18 20  1  0  0  0  0
 20 21  1  0  0  0  0
 20 22  1  6  0  0  0
 22 23  1  0  0  0  0
M  END
>  <CHROM.1>
-70.50294964,178.95209324,-157.62849531,-155.81449824,61.93114100,-4.87468032
-7.21403633,-1.30036448,-2.37357302,0.67715383,2.17927992

>  <Name>
ligand

>  <RI>
0

>  <Rbt.Current_Directory>
/home/itssahil/PROJECTS/Mol_Feturizer/New_Systems/rnas/4TS2

>  <Rbt.Executable>
rbdock ($Id: //depot/dev/client3/rdock/2013.1/src/exe/rbdock.cxx#4 $)

>  <Rbt.Library>
libRbt.so (2013.1, Build901 2013/11/27)

>  <Rbt.Parameter_File>
/export/apps/rDock/src/rDock_2013.1_src/data/scripts/dock_solv.prm

>  <Rbt.Receptor>
prm/pocket_docking_5.prm

>  <SCORE>
-8.95744

>  <SCORE.INTER>
-3.75093

>  <SCORE.INTER.CONST>
1

>  <SCORE.INTER.POLAR>
0

>  <SCORE.INTER.ROT>
5

>  <SCORE.INTER.SOLV>
9.46835

>  <SCORE.INTER.VDW>
-12.5901

>  <SCORE.INTER.norm>
-0.163084

>  <SCORE.INTRA>
-5.20651

>  <SCORE.INTRA.DIHEDRAL>
-7.5958

>  <SCORE.INTRA.DIHEDRAL.0>
12.4853

>  <SCORE.INTRA.POLAR>
0

>  <SCORE.INTRA.POLAR.0>
0

>  <SCORE.INTRA.REPUL>
0

>  <SCORE.INTRA.REPUL.0>
0

>  <SCORE.INTRA.SOLV>
0.585212

>  <SCORE.INTRA.SOLV.lig_0>
-31.1706

>  <SCORE.INTRA.VDW>
-1.70121

>  <SCORE.INTRA.VDW.0>
-1.16895

>  <SCORE.INTRA.norm>
-0.22637

>  <SCORE.RESTR>
0

>  <SCORE.RESTR.CAVITY>
0

>  <SCORE.RESTR.norm>
0

>  <SCORE.SYSTEM>
0

>  <SCORE.SYSTEM.CONST>
0

>  <SCORE.SYSTEM.DIHEDRAL>
0

>  <SCORE.SYSTEM.SOLV>
0

>  <SCORE.SYSTEM.norm>
0

>  <SCORE.heavy>
23

>  <SCORE.norm>
-0.389454

>  <RMSD>
5.423

$$$$
ligand
 OpenBabel11021811513D
libRbt.so/2013.1/901 2013/11/27
 23 24  0  0  0  0  0  0  0  0999 V2000
   -7.3362  -10.8771    0.7956 C   0  0  0  0  0  0  0  0  0  0  0  0
   -7.0239  -12.1598    0.2187 O   0  0  0  0  0  0  0  0  0  0  0  0
   -6.0409  -10.1847    1.1946 C   0  0  2  0  0  0  0  0  0  0  0  0
   -6.2010   -8.8272    1.8617 C   0  0  1  0  0  0  0  0  0  0  0  0
   -6.5438   -9.0121    3.2367 O   0  0  0  0  0  0  0  0  0  0  0  0
   -4.8249   -8.2069    1.6446 C   0  0  2  0  0  0  0  0  0  0  0  0
   -4.6980   -6.7812    1.7036 O   0  0  0  0  0  0  0  0  0  0  0  0
   -4.4883   -8.7007    0.2486 C   0  0  2  0  0  0  0  0  0  0  0  0
   -5.2055   -9.9390    0.0599 O   0  0  0  0  0  0  0  0  0  0  0  0
   -2.9621   -8.8877    0.1737 C   0  0  0  0  0  0  0  0  0  0  0  0
   -2.2527   -7.6475    0.3004 O   0  0  0  0  0  0  0  0  0  0  0  0
   -4.7484   -8.1243   -2.0811 C   0  0  2  0  0  0  0  0  0  0  0  0
   -4.9926   -7.7576   -0.7122 O   0  0  0  0  0  0  0  0  0  0  0  0
   -5.1293   -6.9360   -2.9445 C   0  0  2  0  0  0  0  0  0  0  0  0
   -4.5298   -5.7522   -2.4065 O   0  0  0  0  0  0  0  0  0  0  0  0
   -6.6297   -6.7418   -2.9466 C   0  0  1  0  0  0  0  0  0  0  0  0
   -6.9637   -5.7832   -3.9531 O   0  0  0  0  0  0  0  0  0  0  0  0
   -7.3383   -8.0551   -3.2188 C   0  0  2  0  0  0  0  0  0  0  0  0
   -8.7345   -7.8642   -3.0353 O   0  0  0  0  0  0  0  0  0  0  0  0
   -6.8654   -9.1626   -2.2868 C   0  0  2  0  0  0  0  0  0  0  0  0
   -5.4621   -9.2997   -2.4643 O   0  0  0  0  0  0  0  0  0  0  0  0
   -7.5748  -10.4895   -2.5817 C   0  0  0  0  0  0  0  0  0  0  0  0
   -8.9858  -10.4408   -2.3243 O   0  0  0  0  0  0  0  0  0  0  0  0
  1  2  1  0  0  0  0
  3  1  1  6  0  0  0
  3  9  1  0  0  0  0
  3  4  1  0  0  0  0
  4  5  1  1  0  0  0
  4  6  1  0  0  0  0
  6  7  1  6  0  0  0
  6  8  1  0  0  0  0
  8  9  1  0  0  0  0
  8 10  1  6  0  0  0
  8 13  1  0  0  0  0
 10 11  1  0  0  0  0
 12 13  1  1  0  0  0
 12 14  1  0  0  0  0
 12 21  1  0  0  0  0
 14 15  1  1  0  0  0
 14 16  1  0  0  0  0
 16 17  1  6  0  0  0
 16 18  1  0  0  0  0
 18 19  1  1  0  0  0
 18 20  1  0  0  0  0
 20 21  1  0  0  0  0
 20 22  1  6  0  0  0
 22 23  1  0  0  0  0
M  END
>  <CHROM.1>
-178.24512388,-65.26326154,-170.85442694,-179.30141580,-64.82456130,-5.90261518
-8.58725419,-0.84944358,1.08415275,0.68091602,2.19176216

>  <Name>
ligand

>  <RI>
0

>  <Rbt.Current_Directory>
/home/itssahil/PROJECTS/Mol_Feturizer/New_Systems/rnas/4TS2

>  <Rbt.Executable>
rbdock ($Id: //depot/dev/client3/rdock/2013.1/src/exe/rbdock.cxx#4 $)

>  <Rbt.Library>
libRbt.so (2013.1, Build901 2013/11/27)

>  <Rbt.Parameter_File>
/export/apps/rDock/src/rDock_2013.1_src/data/scripts/dock_solv.prm

>  <Rbt.Receptor>
prm/pocket_docking_8.prm

>  <SCORE>
-9.04158

>  <SCORE.INTER>
-1.9331

>  <SCORE.INTER.CONST>
1

>  <SCORE.INTER.POLAR>
0

>  <SCORE.INTER.ROT>
5

>  <SCORE.INTER.SOLV>
8.22

>  <SCORE.INTER.VDW>
-10.9621

>  <SCORE.INTER.norm>
-0.0840478

>  <SCORE.INTRA>
-7.10848

>  <SCORE.INTRA.DIHEDRAL>
-11.8634

>  <SCORE.INTRA.DIHEDRAL.0>
12.4853

>  <SCORE.INTRA.POLAR>
0

>  <SCORE.INTRA.POLAR.0>
0

>  <SCORE.INTRA.REPUL>
0

>  <SCORE.INTRA.REPUL.0>
0

>  <SCORE.INTRA.SOLV>
0.826349

>  <SCORE.INTRA.SOLV.lig_0>
-31.1706

>  <SCORE.INTRA.VDW>
-1.58994

>  <SCORE.INTRA.VDW.0>
-1.16895

>  <SCORE.INTRA.norm>
-0.309064

>  <SCORE.RESTR>
0

>  <SCORE.RESTR.CAVITY>
0

>  <SCORE.RESTR.norm>
0

>  <SCORE.SYSTEM>
0

>  <SCORE.SYSTEM.CONST>
0

>  <SCORE.SYSTEM.DIHEDRAL>
0

>  <SCORE.SYSTEM.SOLV>
0

>  <SCORE.SYSTEM.norm>
0

>  <SCORE.heavy>
23

>  <SCORE.norm>
-0.393112

>  <RMSD>
5.429

$$$$
ligand
 OpenBabel11021811513D
libRbt.so/2013.1/901 2013/11/27
 23 24  0  0  0  0  0  0  0  0999 V2000
   -5.7924  -11.8548   -2.9311 C   0  0  0  0  0  0  0  0  0  0  0  0
   -6.3398  -13.0922   -3.4257 O   0  0  0  0  0  0  0  0  0  0  0  0
   -6.8084  -11.1975   -2.0080 C   0  0  2  0  0  0  0  0  0  0  0  0
   -8.1585  -10.8843   -2.6346 C   0  0  1  0  0  0  0  0  0  0  0  0
   -8.9475  -12.0749   -2.6806 O   0  0  0  0  0  0  0  0  0  0  0  0
   -8.7023   -9.8170   -1.6909 C   0  0  2  0  0  0  0  0  0  0  0  0
   -9.7224   -8.9328   -2.1702 O   0  0  0  0  0  0  0  0  0  0  0  0
   -7.4440   -9.0310   -1.3673 C   0  0  2  0  0  0  0  0  0  0  0  0
   -6.3339   -9.9418   -1.5138 O   0  0  0  0  0  0  0  0  0  0  0  0
   -7.5817   -8.4982    0.0704 C   0  0  0  0  0  0  0  0  0  0  0  0
   -7.6309   -9.5527    1.0415 O   0  0  0  0  0  0  0  0  0  0  0  0
   -6.2441   -7.0447   -2.0327 C   0  0  2  0  0  0  0  0  0  0  0  0
   -7.2817   -7.9900   -2.3455 O   0  0  0  0  0  0  0  0  0  0  0  0
   -6.2801   -5.9625   -3.0956 C   0  0  2  0  0  0  0  0  0  0  0  0
   -7.6286   -5.5107   -3.2615 O   0  0  0  0  0  0  0  0  0  0  0  0
   -5.8020   -6.5077   -4.4234 C   0  0  1  0  0  0  0  0  0  0  0  0
   -5.6162   -5.4139   -5.3248 O   0  0  0  0  0  0  0  0  0  0  0  0
   -4.5024   -7.2707   -4.2512 C   0  0  2  0  0  0  0  0  0  0  0  0
   -4.1862   -7.9118   -5.4794 O   0  0  0  0  0  0  0  0  0  0  0  0
   -4.5999   -8.3242   -3.1560 C   0  0  2  0  0  0  0  0  0  0  0  0
   -4.9572   -7.6573   -1.9529 O   0  0  0  0  0  0  0  0  0  0  0  0
   -3.2763   -9.0773   -2.9781 C   0  0  0  0  0  0  0  0  0  0  0  0
   -3.3294  -10.0679   -1.9410 O   0  0  0  0  0  0  0  0  0  0  0  0
  1  2  1  0  0  0  0
  3  1  1  6  0  0  0
  3  9  1  0  0  0  0
  3  4  1  0  0  0  0
  4  5  1  1  0  0  0
  4  6  1  0  0  0  0
  6  7  1  6  0  0  0
  6  8  1  0  0  0  0
  8  9  1  0  0  0  0
  8 10  1  1  0  0  0
  8 13  1  0  0  0  0
 10 11  1  0  0  0  0
 12 13  1  6  0  0  0
 12 14  1  0  0  0  0
 12 21  1  0  0  0  0
 14 15  1  6  0  0  0
 14 16  1  0  0  0  0
 16 17  1  6  0  0  0
 16 18  1  0  0  0  0
 18 19  1  6  0  0  0
 18 20  1  0  0  0  0
 20 21  1  0  0  0  0
 20 22  1  1  0  0  0
 22 23  1  0  0  0  0
M  END
>  <CHROM.1>
-58.76420855,64.40983217,-175.51874813,170.74989059,179.29887165,-6.40187047
-8.86780369,-2.59220892,-2.10387906,0.52009663,-0.19266618

>  <Name>
ligand

>  <RI>
0

>  <Rbt.Current_Directory>
/home/itssahil/PROJECTS/Mol_Feturizer/New_Systems/rnas/4TS2

>  <Rbt.Executable>
rbdock ($Id: //depot/dev/client3/rdock/2013.1/src/exe/rbdock.cxx#4 $)

>  <Rbt.Library>
libRbt.so (2013.1, Build901 2013/11/27)

>  <Rbt.Parameter_File>
/export/apps/rDock/src/rDock_2013.1_src/data/scripts/dock_solv.prm

>  <Rbt.Receptor>
prm/pocket_docking_8.prm

>  <SCORE>
-9.16304

>  <SCORE.INTER>
-2.31786

>  <SCORE.INTER.CONST>
1

>  <SCORE.INTER.POLAR>
0

>  <SCORE.INTER.ROT>
5

>  <SCORE.INTER.SOLV>
8.54488

>  <SCORE.INTER.VDW>
-11.3269

>  <SCORE.INTER.norm>
-0.100776

>  <SCORE.INTRA>
-6.84518

>  <SCORE.INTRA.DIHEDRAL>
-11.671

>  <SCORE.INTRA.DIHEDRAL.0>
12.4853

>  <SCORE.INTRA.POLAR>
0

>  <SCORE.INTRA.POLAR.0>
0

>  <SCORE.INTRA.REPUL>
0

>  <SCORE.INTRA.REPUL.0>
0

>  <SCORE.INTRA.SOLV>
0.570595

>  <SCORE.INTRA.SOLV.lig_0>
-31.1706

>  <SCORE.INTRA.VDW>
-1.295

>  <SCORE.INTRA.VDW.0>
-1.16895

>  <SCORE.INTRA.norm>
-0.297617

>  <SCORE.RESTR>
0

>  <SCORE.RESTR.CAVITY>
0

>  <SCORE.RESTR.norm>
0

>  <SCORE.SYSTEM>
0

>  <SCORE.SYSTEM.CONST>
0

>  <SCORE.SYSTEM.DIHEDRAL>
0

>  <SCORE.SYSTEM.SOLV>
0

>  <SCORE.SYSTEM.norm>
0

>  <SCORE.heavy>
23

>  <SCORE.norm>
-0.398393

>  <RMSD>
5.462

$$$$
ligand
 OpenBabel11021811513D
libRbt.so/2013.1/901 2013/11/27
 23 24  0  0  0  0  0  0  0  0999 V2000
   -3.2123   -7.1329   -4.7709 C   0  0  0  0  0  0  0  0  0  0  0  0
   -2.6317   -8.4107   -5.0960 O   0  0  0  0  0  0  0  0  0  0  0  0
   -4.7196   -7.2939   -4.6342 C   0  0  2  0  0  0  0  0  0  0  0  0
   -5.4790   -6.0413   -4.2248 C   0  0  1  0  0  0  0  0  0  0  0  0
   -5.6569   -5.2004   -5.3665 O   0  0  0  0  0  0  0  0  0  0  0  0
   -6.7770   -6.6261   -3.6782 C   0  0  2  0  0  0  0  0  0  0  0  0
   -7.5593   -5.8350   -2.7757 O   0  0  0  0  0  0  0  0  0  0  0  0
   -6.2727   -7.8725   -2.9725 C   0  0  2  0  0  0  0  0  0  0  0  0
   -5.0560   -8.2671   -3.6413 O   0  0  0  0  0  0  0  0  0  0  0  0
   -7.3729   -8.9445   -3.0724 C   0  0  0  0  0  0  0  0  0  0  0  0
   -8.5711   -8.5638   -2.3817 O   0  0  0  0  0  0  0  0  0  0  0  0
   -5.4278   -8.6363   -0.8440 C   0  0  2  0  0  0  0  0  0  0  0  0
   -5.9314   -7.5336   -1.6176 O   0  0  0  0  0  0  0  0  0  0  0  0
   -5.3500   -8.1794    0.6009 C   0  0  2  0  0  0  0  0  0  0  0  0
   -6.5884   -7.5602    0.9659 O   0  0  0  0  0  0  0  0  0  0  0  0
   -4.2467   -7.1590    0.7753 C   0  0  1  0  0  0  0  0  0  0  0  0
   -4.0436   -6.9420    2.1735 O   0  0  0  0  0  0  0  0  0  0  0  0
   -2.9630   -7.6439    0.1289 C   0  0  2  0  0  0  0  0  0  0  0  0
   -2.0124   -6.5880    0.1592 O   0  0  0  0  0  0  0  0  0  0  0  0
   -3.1783   -8.0721   -1.3165 C   0  0  2  0  0  0  0  0  0  0  0  0
   -4.1621   -9.0977   -1.3158 O   0  0  0  0  0  0  0  0  0  0  0  0
   -1.8788   -8.5769   -1.9549 C   0  0  0  0  0  0  0  0  0  0  0  0
   -1.3406   -9.7316   -1.2940 O   0  0  0  0  0  0  0  0  0  0  0  0
  1  2  1  0  0  0  0
  3  1  1  1  0  0  0
  3  9  1  0  0  0  0
  3  4  1  0  0  0  0
  4  5  1  6  0  0  0
  4  6  1  0  0  0  0
  6  7  1  1  0  0  0
  6  8  1  0  0  0  0
  8  9  1  0  0  0  0
  8 10  1  6  0  0  0
  8 13  1  0  0  0  0
 10 11  1  0  0  0  0
 12 13  1  6  0  0  0
 12 14  1  0  0  0  0
 12 21  1  0  0  0  0
 14 15  1  6  0  0  0
 14 16  1  0  0  0  0
 16 17  1  1  0  0  0
 16 18  1  0  0  0  0
 18 19  1  6  0  0  0
 18 20  1  0  0  0  0
 20 21  1  0  0  0  0
 20 22  1  1  0  0  0
 22 23  1  0  0  0  0
M  END
>  <CHROM.1>
177.18226136,-63.91391513,-170.25299941,-179.54135547,61.55190661,-4.79766887
-7.64911798,-1.99834581,-2.13028405,-0.16647644,1.66582999

>  <Name>
ligand

>  <RI>
0

>  <Rbt.Current_Directory>
/home/itssahil/PROJECTS/Mol_Feturizer/New_Systems/rnas/4TS2

>  <Rbt.Executable>
rbdock ($Id: //depot/dev/client3/rdock/2013.1/src/exe/rbdock.cxx#4 $)

>  <Rbt.Library>
libRbt.so (2013.1, Build901 2013/11/27)

>  <Rbt.Parameter_File>
/export/apps/rDock/src/rDock_2013.1_src/data/scripts/dock_solv.prm

>  <Rbt.Receptor>
prm/pocket_docking_6.prm

>  <SCORE>
-9.94681

>  <SCORE.INTER>
-2.68552

>  <SCORE.INTER.CONST>
1

>  <SCORE.INTER.POLAR>
0

>  <SCORE.INTER.ROT>
5

>  <SCORE.INTER.SOLV>
9.26071

>  <SCORE.INTER.VDW>
-11.8106

>  <SCORE.INTER.norm>
-0.116762

>  <SCORE.INTRA>
-7.26128

>  <SCORE.INTRA.DIHEDRAL>
-11.899

>  <SCORE.INTRA.DIHEDRAL.0>
12.4853

>  <SCORE.INTRA.POLAR>
0

>  <SCORE.INTRA.POLAR.0>
0

>  <SCORE.INTRA.REPUL>
0

>  <SCORE.INTRA.REPUL.0>
0

>  <SCORE.INTRA.SOLV>
0.548066

>  <SCORE.INTRA.SOLV.lig_0>
-31.1706

>  <SCORE.INTRA.VDW>
-1.58581

>  <SCORE.INTRA.VDW.0>
-1.16895

>  <SCORE.INTRA.norm>
-0.315708

>  <SCORE.RESTR>
0

>  <SCORE.RESTR.CAVITY>
0

>  <SCORE.RESTR.norm>
0

>  <SCORE.SYSTEM>
0

>  <SCORE.SYSTEM.CONST>
0

>  <SCORE.SYSTEM.DIHEDRAL>
0

>  <SCORE.SYSTEM.SOLV>
0

>  <SCORE.SYSTEM.norm>
0

>  <SCORE.heavy>
23

>  <SCORE.norm>
-0.43247

>  <RMSD>
5.486

$$$$
ligand
 OpenBabel11021811513D
libRbt.so/2013.1/901 2013/11/27
 23 24  0  0  0  0  0  0  0  0999 V2000
   -6.5436   -6.4683   -3.1177 C   0  0  0  0  0  0  0  0  0  0  0  0
   -7.6783   -7.2022   -3.6170 O   0  0  0  0  0  0  0  0  0  0  0  0
   -6.0333   -7.1448   -1.8534 C   0  0  2  0  0  0  0  0  0  0  0  0
   -5.5830   -8.5883   -2.0174 C   0  0  1  0  0  0  0  0  0  0  0  0
   -4.2696   -8.6142   -2.5799 O   0  0  0  0  0  0  0  0  0  0  0  0
   -5.6530   -9.1035   -0.5838 C   0  0  2  0  0  0  0  0  0  0  0  0
   -5.7599  -10.5155   -0.3668 O   0  0  0  0  0  0  0  0  0  0  0  0
   -6.8999   -8.4038   -0.0724 C   0  0  2  0  0  0  0  0  0  0  0  0
   -7.0399   -7.1882   -0.8381 O   0  0  0  0  0  0  0  0  0  0  0  0
   -6.7017   -8.1329    1.4299 C   0  0  0  0  0  0  0  0  0  0  0  0
   -5.6051   -7.2440    1.6849 O   0  0  0  0  0  0  0  0  0  0  0  0
   -8.5538   -9.0883   -1.6922 C   0  0  2  0  0  0  0  0  0  0  0  0
   -8.0440   -9.2273   -0.3548 O   0  0  0  0  0  0  0  0  0  0  0  0
  -10.0223   -9.4687   -1.6603 C   0  0  2  0  0  0  0  0  0  0  0  0
  -10.6628   -8.7823   -0.5792 O   0  0  0  0  0  0  0  0  0  0  0  0
  -10.1797  -10.9557   -1.4300 C   0  0  1  0  0  0  0  0  0  0  0  0
  -11.5469  -11.3090   -1.6520 O   0  0  0  0  0  0  0  0  0  0  0  0
   -9.2781  -11.7397   -2.3645 C   0  0  2  0  0  0  0  0  0  0  0  0
   -9.3236  -13.1111   -1.9947 O   0  0  0  0  0  0  0  0  0  0  0  0
   -7.8344  -11.2595   -2.3008 C   0  0  2  0  0  0  0  0  0  0  0  0
   -7.8289   -9.8781   -2.6347 O   0  0  0  0  0  0  0  0  0  0  0  0
   -6.9351  -12.0464   -3.2615 C   0  0  0  0  0  0  0  0  0  0  0  0
   -5.5580  -11.6480   -3.1942 O   0  0  0  0  0  0  0  0  0  0  0  0
  1  2  1  0  0  0  0
  3  1  1  6  0  0  0
  3  9  1  0  0  0  0
  3  4  1  0  0  0  0
  4  5  1  1  0  0  0
  4  6  1  0  0  0  0
  6  7  1  6  0  0  0
  6  8  1  0  0  0  0
  8  9  1  0  0  0  0
  8 10  1  1  0  0  0
  8 13  1  0  0  0  0
 10 11  1  0  0  0  0
 12 13  1  1  0  0  0
 12 14  1  0  0  0  0
 12 21  1  0  0  0  0
 14 15  1  1  0  0  0
 14 16  1  0  0  0  0
 16 17  1  6  0  0  0
 16 18  1  0  0  0  0
 18 19  1  1  0  0  0
 18 20  1  0  0  0  0
 20 21  1  0  0  0  0
 20 22  1  6  0  0  0
 22 23  1  0  0  0  0
M  END
>  <CHROM.1>
59.87215455,63.12945556,-154.71794342,-82.68343076,-178.07126893,-7.54241416
-9.44592523,-1.52377566,-0.74002463,-0.28609990,-2.56219807

>  <Name>
ligand

>  <RI>
0

>  <Rbt.Current_Directory>
/home/itssahil/PROJECTS/Mol_Feturizer/New_Systems/rnas/4TS2

>  <Rbt.Executable>
rbdock ($Id: //depot/dev/client3/rdock/2013.1/src/exe/rbdock.cxx#4 $)

>  <Rbt.Library>
libRbt.so (2013.1, Build901 2013/11/27)

>  <Rbt.Parameter_File>
/export/apps/rDock/src/rDock_2013.1_src/data/scripts/dock_solv.prm

>  <Rbt.Receptor>
prm/pocket_docking_7.prm

>  <SCORE>
-7.86993

>  <SCORE.INTER>
-4.69636

>  <SCORE.INTER.CONST>
1

>  <SCORE.INTER.POLAR>
0

>  <SCORE.INTER.ROT>
5

>  <SCORE.INTER.SOLV>
7.11243

>  <SCORE.INTER.VDW>
-12.435

>  <SCORE.INTER.norm>
-0.20419

>  <SCORE.INTRA>
-3.17357

>  <SCORE.INTRA.DIHEDRAL>
-7.15793

>  <SCORE.INTRA.DIHEDRAL.0>
12.4853

>  <SCORE.INTRA.POLAR>
0

>  <SCORE.INTRA.POLAR.0>
0

>  <SCORE.INTRA.REPUL>
0

>  <SCORE.INTRA.REPUL.0>
0

>  <SCORE.INTRA.SOLV>
2.35276

>  <SCORE.INTRA.SOLV.lig_0>
-31.1706

>  <SCORE.INTRA.VDW>
-0.77099

>  <SCORE.INTRA.VDW.0>
-1.16895

>  <SCORE.INTRA.norm>
-0.137981

>  <SCORE.RESTR>
0

>  <SCORE.RESTR.CAVITY>
0

>  <SCORE.RESTR.norm>
0

>  <SCORE.SYSTEM>
0

>  <SCORE.SYSTEM.CONST>
0

>  <SCORE.SYSTEM.DIHEDRAL>
0

>  <SCORE.SYSTEM.SOLV>
0

>  <SCORE.SYSTEM.norm>
0

>  <SCORE.heavy>
23

>  <SCORE.norm>
-0.342171

>  <RMSD>
5.495

$$$$
ligand
 OpenBabel11021811513D
libRbt.so/2013.1/901 2013/11/27
 23 24  0  0  0  0  0  0  0  0999 V2000
   -7.1793  -11.0038    0.9069 C   0  0  0  0  0  0  0  0  0  0  0  0
   -6.8259  -12.3146    0.4250 O   0  0  0  0  0  0  0  0  0  0  0  0
   -5.9100  -10.2618    1.3007 C   0  0  2  0  0  0  0  0  0  0  0  0
   -6.1189   -8.8991    1.9431 C   0  0  1  0  0  0  0  0  0  0  0  0
   -6.4636   -9.0714    3.3192 O   0  0  0  0  0  0  0  0  0  0  0  0
   -4.7628   -8.2372    1.7225 C   0  0  2  0  0  0  0  0  0  0  0  0
   -4.6836   -6.8073    1.7573 O   0  0  0  0  0  0  0  0  0  0  0  0
   -4.4018   -8.7436    0.3372 C   0  0  2  0  0  0  0  0  0  0  0  0
   -5.0765  -10.0082    0.1663 O   0  0  0  0  0  0  0  0  0  0  0  0
   -2.8699   -8.8811    0.2737 C   0  0  0  0  0  0  0  0  0  0  0  0
   -2.3704   -9.8596    1.1961 O   0  0  0  0  0  0  0  0  0  0  0  0
   -4.6968   -8.2343   -2.0040 C   0  0  2  0  0  0  0  0  0  0  0  0
   -4.9314   -7.8346   -0.6426 O   0  0  0  0  0  0  0  0  0  0  0  0
   -5.0994   -7.0732   -2.8940 C   0  0  2  0  0  0  0  0  0  0  0  0
   -4.5078   -5.8693   -2.3932 O   0  0  0  0  0  0  0  0  0  0  0  0
   -6.6018   -6.8955   -2.8859 C   0  0  1  0  0  0  0  0  0  0  0  0
   -6.9564   -5.9672   -3.9135 O   0  0  0  0  0  0  0  0  0  0  0  0
   -7.2984   -8.2230   -3.1166 C   0  0  2  0  0  0  0  0  0  0  0  0
   -8.6947   -8.0425   -2.9239 O   0  0  0  0  0  0  0  0  0  0  0  0
   -6.8040   -9.3005   -2.1609 C   0  0  2  0  0  0  0  0  0  0  0  0
   -5.4010   -9.4270   -2.3491 O   0  0  0  0  0  0  0  0  0  0  0  0
   -7.5014  -10.6424   -2.4140 C   0  0  0  0  0  0  0  0  0  0  0  0
   -6.9277  -11.3757   -3.5061 O   0  0  0  0  0  0  0  0  0  0  0  0
  1  2  1  0  0  0  0
  3  1  1  6  0  0  0
  3  9  1  0  0  0  0
  3  4  1  0  0  0  0
  4  5  1  1  0  0  0
  4  6  1  0  0  0  0
  6  7  1  6  0  0  0
  6  8  1  0  0  0  0
  8  9  1  0  0  0  0
  8 10  1  6  0  0  0
  8 13  1  0  0  0  0
 10 11  1  0  0  0  0
 12 13  1  1  0  0  0
 12 14  1  0  0  0  0
 12 21  1  0  0  0  0
 14 15  1  1  0  0  0
 14 16  1  0  0  0  0
 16 17  1  6  0  0  0
 16 18  1  0  0  0  0
 18 19  1  1  0  0  0
 18 20  1  0  0  0  0
 20 21  1  0  0  0  0
 20 22  1  6  0  0  0
 22 23  1  0  0  0  0
M  END
>  <CHROM.1>
-175.01333841,63.56253814,-170.58723679,-177.79404827,81.25655550,-5.74482566
-8.83294281,-0.77928284,1.05422066,0.85848280,2.30859307

>  <Name>
ligand

>  <RI>
0

>  <Rbt.Current_Directory>
/home/itssahil/PROJECTS/Mol_Feturizer/New_Systems/rnas/4TS2

>  <Rbt.Executable>
rbdock ($Id: //depot/dev/client3/rdock/2013.1/src/exe/rbdock.cxx#4 $)

>  <Rbt.Library>
libRbt.so (2013.1, Build901 2013/11/27)

>  <Rbt.Parameter_File>
/export/apps/rDock/src/rDock_2013.1_src/data/scripts/dock_solv.prm

>  <Rbt.Receptor>
prm/pocket_docking_4.prm

>  <SCORE>
-7.62789

>  <SCORE.INTER>
-1.11174

>  <SCORE.INTER.CONST>
1

>  <SCORE.INTER.POLAR>
0

>  <SCORE.INTER.ROT>
5

>  <SCORE.INTER.SOLV>
7.92364

>  <SCORE.INTER.VDW>
-10.3157

>  <SCORE.INTER.norm>
-0.0483367

>  <SCORE.INTRA>
-6.51734

>  <SCORE.INTRA.DIHEDRAL>
-10.3673

>  <SCORE.INTRA.DIHEDRAL.0>
12.4853

>  <SCORE.INTRA.POLAR>
0

>  <SCORE.INTRA.POLAR.0>
0

>  <SCORE.INTRA.REPUL>
0

>  <SCORE.INTRA.REPUL.0>
0

>  <SCORE.INTRA.SOLV>
0.290552

>  <SCORE.INTRA.SOLV.lig_0>
-31.1706

>  <SCORE.INTRA.VDW>
-1.47896

>  <SCORE.INTRA.VDW.0>
-1.16895

>  <SCORE.INTRA.norm>
-0.283363

>  <SCORE.RESTR>
0.00119828

>  <SCORE.RESTR.CAVITY>
0.00119828

>  <SCORE.RESTR.norm>
5.20991e-05

>  <SCORE.SYSTEM>
0

>  <SCORE.SYSTEM.CONST>
0

>  <SCORE.SYSTEM.DIHEDRAL>
0

>  <SCORE.SYSTEM.SOLV>
0

>  <SCORE.SYSTEM.norm>
0

>  <SCORE.heavy>
23

>  <SCORE.norm>
-0.331647

>  <RMSD>
5.517

$$$$
ligand
 OpenBabel11021811513D
libRbt.so/2013.1/901 2013/11/27
 23 24  0  0  0  0  0  0  0  0999 V2000
   -7.5023   -6.8682   -3.0262 C   0  0  0  0  0  0  0  0  0  0  0  0
   -7.7719   -6.6532   -1.6274 O   0  0  0  0  0  0  0  0  0  0  0  0
   -6.1270   -6.3068   -3.3577 C   0  0  2  0  0  0  0  0  0  0  0  0
   -5.6721   -6.4919   -4.7972 C   0  0  1  0  0  0  0  0  0  0  0  0
   -6.2917   -5.5021   -5.6211 O   0  0  0  0  0  0  0  0  0  0  0  0
   -4.1605   -6.3348   -4.6711 C   0  0  2  0  0  0  0  0  0  0  0  0
   -3.3254   -6.8913   -5.6934 O   0  0  0  0  0  0  0  0  0  0  0  0
   -3.8943   -7.0302   -3.3477 C   0  0  2  0  0  0  0  0  0  0  0  0
   -5.1045   -6.9217   -2.5686 O   0  0  0  0  0  0  0  0  0  0  0  0
   -2.7000   -6.3247   -2.6802 C   0  0  0  0  0  0  0  0  0  0  0  0
   -2.9761   -4.9497   -2.3794 O   0  0  0  0  0  0  0  0  0  0  0  0
   -3.5136   -9.2193   -2.4040 C   0  0  2  0  0  0  0  0  0  0  0  0
   -3.6627   -8.4274   -3.5951 O   0  0  0  0  0  0  0  0  0  0  0  0
   -2.8992  -10.5448   -2.8138 C   0  0  2  0  0  0  0  0  0  0  0  0
   -1.7645  -10.2983   -3.6517 O   0  0  0  0  0  0  0  0  0  0  0  0
   -3.8936  -11.3687   -3.6021 C   0  0  1  0  0  0  0  0  0  0  0  0
   -3.3715  -12.6908   -3.7533 O   0  0  0  0  0  0  0  0  0  0  0  0
   -5.2332  -11.4129   -2.8919 C   0  0  2  0  0  0  0  0  0  0  0  0
   -6.1795  -12.0402   -3.7464 O   0  0  0  0  0  0  0  0  0  0  0  0
   -5.7368  -10.0204   -2.5364 C   0  0  2  0  0  0  0  0  0  0  0  0
   -4.7511   -9.4061   -1.7174 O   0  0  0  0  0  0  0  0  0  0  0  0
   -7.0825  -10.0772   -1.8036 C   0  0  0  0  0  0  0  0  0  0  0  0
   -8.1598  -10.5198   -2.6422 O   0  0  0  0  0  0  0  0  0  0  0  0
  1  2  1  0  0  0  0
  3  1  1  6  0  0  0
  3  9  1  0  0  0  0
  3  4  1  0  0  0  0
  4  5  1  6  0  0  0
  4  6  1  0  0  0  0
  6  7  1  6  0  0  0
  6  8  1  0  0  0  0
  8  9  1  0  0  0  0
  8 10  1  1  0  0  0
  8 13  1  0  0  0  0
 10 11  1  0  0  0  0
 12 13  1  6  0  0  0
 12 14  1  0  0  0  0
 12 21  1  0  0  0  0
 14 15  1  6  0  0  0
 14 16  1  0  0  0  0
 16 17  1  1  0  0  0
 16 18  1  0  0  0  0
 18 19  1  6  0  0  0
 18 20  1  0  0  0  0
 20 21  1  0  0  0  0
 20 22  1  1  0  0  0
 22 23  1  0  0  0  0
M  END
>  <CHROM.1>
178.27443232,62.57133539,-164.31179722,-174.82148084,-68.47943757,-4.86992207
-8.53602574,-3.26099595,1.63135103,0.20360475,-0.12449794

>  <Name>
ligand

>  <RI>
0

>  <Rbt.Current_Directory>
/home/itssahil/PROJECTS/Mol_Feturizer/New_Systems/rnas/4TS2

>  <Rbt.Executable>
rbdock ($Id: //depot/dev/client3/rdock/2013.1/src/exe/rbdock.cxx#4 $)

>  <Rbt.Library>
libRbt.so (2013.1, Build901 2013/11/27)

>  <Rbt.Parameter_File>
/export/apps/rDock/src/rDock_2013.1_src/data/scripts/dock_solv.prm

>  <Rbt.Receptor>
prm/pocket_docking_6.prm

>  <SCORE>
-10.6816

>  <SCORE.INTER>
-3.79852

>  <SCORE.INTER.CONST>
1

>  <SCORE.INTER.POLAR>
0

>  <SCORE.INTER.ROT>
5

>  <SCORE.INTER.SOLV>
7.76607

>  <SCORE.INTER.VDW>
-12.0544

>  <SCORE.INTER.norm>
-0.165153

>  <SCORE.INTRA>
-6.88304

>  <SCORE.INTRA.DIHEDRAL>
-10.9076

>  <SCORE.INTRA.DIHEDRAL.0>
12.4853

>  <SCORE.INTRA.POLAR>
0

>  <SCORE.INTRA.POLAR.0>
0

>  <SCORE.INTRA.REPUL>
0

>  <SCORE.INTRA.REPUL.0>
0

>  <SCORE.INTRA.SOLV>
0.458842

>  <SCORE.INTRA.SOLV.lig_0>
-31.1706

>  <SCORE.INTRA.VDW>
-1.65868

>  <SCORE.INTRA.VDW.0>
-1.16895

>  <SCORE.INTRA.norm>
-0.299263

>  <SCORE.RESTR>
0

>  <SCORE.RESTR.CAVITY>
0

>  <SCORE.RESTR.norm>
0

>  <SCORE.SYSTEM>
0

>  <SCORE.SYSTEM.CONST>
0

>  <SCORE.SYSTEM.DIHEDRAL>
0

>  <SCORE.SYSTEM.SOLV>
0

>  <SCORE.SYSTEM.norm>
0

>  <SCORE.heavy>
23

>  <SCORE.norm>
-0.464416

>  <RMSD>
5.529

$$$$
ligand
 OpenBabel11021811513D
libRbt.so/2013.1/901 2013/11/27
 23 24  0  0  0  0  0  0  0  0999 V2000
   -7.4921   -6.6913   -3.0727 C   0  0  0  0  0  0  0  0  0  0  0  0
   -7.6321   -6.3804   -1.6730 O   0  0  0  0  0  0  0  0  0  0  0  0
   -6.0642   -6.3925   -3.5063 C   0  0  2  0  0  0  0  0  0  0  0  0
   -5.7362   -6.7190   -4.9552 C   0  0  1  0  0  0  0  0  0  0  0  0
   -6.2272   -5.6756   -5.7992 O   0  0  0  0  0  0  0  0  0  0  0  0
   -4.2151   -6.8207   -4.9172 C   0  0  2  0  0  0  0  0  0  0  0  0
   -3.5510   -7.5595   -5.9494 O   0  0  0  0  0  0  0  0  0  0  0  0
   -3.9910   -7.4905   -3.5730 C   0  0  2  0  0  0  0  0  0  0  0  0
   -5.1152   -7.1385   -2.7389 O   0  0  0  0  0  0  0  0  0  0  0  0
   -2.6554   -6.9730   -3.0090 C   0  0  0  0  0  0  0  0  0  0  0  0
   -2.4247   -7.4103   -1.6625 O   0  0  0  0  0  0  0  0  0  0  0  0
   -3.9218   -9.6672   -2.5313 C   0  0  2  0  0  0  0  0  0  0  0  0
   -4.0163   -8.9165   -3.7542 O   0  0  0  0  0  0  0  0  0  0  0  0
   -3.2748  -10.9986   -2.8645 C   0  0  2  0  0  0  0  0  0  0  0  0
   -2.1006  -10.7674   -3.6506 O   0  0  0  0  0  0  0  0  0  0  0  0
   -4.2194  -11.8588   -3.6749 C   0  0  1  0  0  0  0  0  0  0  0  0
   -3.6780  -13.1794   -3.7548 O   0  0  0  0  0  0  0  0  0  0  0  0
   -5.5935  -11.8943   -3.0335 C   0  0  2  0  0  0  0  0  0  0  0  0
   -6.4885  -12.5597   -3.9142 O   0  0  0  0  0  0  0  0  0  0  0  0
   -6.1277  -10.4965   -2.7512 C   0  0  2  0  0  0  0  0  0  0  0  0
   -5.1914   -9.8449   -1.9035 O   0  0  0  0  0  0  0  0  0  0  0  0
   -7.5089  -10.5439   -2.0871 C   0  0  0  0  0  0  0  0  0  0  0  0
   -8.0209   -9.2428   -1.7636 O   0  0  0  0  0  0  0  0  0  0  0  0
  1  2  1  0  0  0  0
  3  1  1  1  0  0  0
  3  9  1  0  0  0  0
  3  4  1  0  0  0  0
  4  5  1  6  0  0  0
  4  6  1  0  0  0  0
  6  7  1  6  0  0  0
  6  8  1  0  0  0  0
  8  9  1  0  0  0  0
  8 10  1  1  0  0  0
  8 13  1  0  0  0  0
 10 11  1  0  0  0  0
 12 13  1  6  0  0  0
 12 14  1  0  0  0  0
 12 21  1  0  0  0  0
 14 15  1  6  0  0  0
 14 16  1  0  0  0  0
 16 17  1  1  0  0  0
 16 18  1  0  0  0  0
 18 19  1  6  0  0  0
 18 20  1  0  0  0  0
 20 21  1  0  0  0  0
 20 22  1  1  0  0  0
 22 23  1  0  0  0  0
M  END
>  <CHROM.1>
177.77353143,172.54592867,-151.90558582,-175.26285708,177.90394640,-5.01569784
-8.92394752,-3.32122467,1.78695961,0.28597800,-0.16608641

>  <Name>
ligand

>  <RI>
0

>  <Rbt.Current_Directory>
/home/itssahil/PROJECTS/Mol_Feturizer/New_Systems/rnas/4TS2

>  <Rbt.Executable>
rbdock ($Id: //depot/dev/client3/rdock/2013.1/src/exe/rbdock.cxx#4 $)

>  <Rbt.Library>
libRbt.so (2013.1, Build901 2013/11/27)

>  <Rbt.Parameter_File>
/export/apps/rDock/src/rDock_2013.1_src/data/scripts/dock_solv.prm

>  <Rbt.Receptor>
prm/pocket_docking_7.prm

>  <SCORE>
-8.90839

>  <SCORE.INTER>
-3.16381

>  <SCORE.INTER.CONST>
1

>  <SCORE.INTER.POLAR>
0

>  <SCORE.INTER.ROT>
5

>  <SCORE.INTER.SOLV>
6.86519

>  <SCORE.INTER.VDW>
-11.3309

>  <SCORE.INTER.norm>
-0.137557

>  <SCORE.INTRA>
-5.74457

>  <SCORE.INTRA.DIHEDRAL>
-8.98234

>  <SCORE.INTRA.DIHEDRAL.0>
12.4853

>  <SCORE.INTRA.POLAR>
0

>  <SCORE.INTRA.POLAR.0>
0

>  <SCORE.INTRA.REPUL>
0

>  <SCORE.INTRA.REPUL.0>
0

>  <SCORE.INTRA.SOLV>
0.654719

>  <SCORE.INTRA.SOLV.lig_0>
-31.1706

>  <SCORE.INTRA.VDW>
-1.58076

>  <SCORE.INTRA.VDW.0>
-1.16895

>  <SCORE.INTRA.norm>
-0.249764

>  <SCORE.RESTR>
0

>  <SCORE.RESTR.CAVITY>
0

>  <SCORE.RESTR.norm>
0

>  <SCORE.SYSTEM>
0

>  <SCORE.SYSTEM.CONST>
0

>  <SCORE.SYSTEM.DIHEDRAL>
0

>  <SCORE.SYSTEM.SOLV>
0

>  <SCORE.SYSTEM.norm>
0

>  <SCORE.heavy>
23

>  <SCORE.norm>
-0.387321

>  <RMSD>
5.555

$$$$
ligand
 OpenBabel11021811513D
libRbt.so/2013.1/901 2013/11/27
 23 24  0  0  0  0  0  0  0  0999 V2000
   -7.5561   -6.9066   -3.1919 C   0  0  0  0  0  0  0  0  0  0  0  0
   -7.4994   -8.2715   -3.6494 O   0  0  0  0  0  0  0  0  0  0  0  0
   -6.2431   -6.2155   -3.5307 C   0  0  2  0  0  0  0  0  0  0  0  0
   -5.7836   -6.3508   -4.9743 C   0  0  1  0  0  0  0  0  0  0  0  0
   -6.5008   -5.4214   -5.7892 O   0  0  0  0  0  0  0  0  0  0  0  0
   -4.2929   -6.0509   -4.8583 C   0  0  2  0  0  0  0  0  0  0  0  0
   -3.4163   -6.5213   -5.8891 O   0  0  0  0  0  0  0  0  0  0  0  0
   -3.9517   -6.7229   -3.5400 C   0  0  2  0  0  0  0  0  0  0  0  0
   -5.1608   -6.7332   -2.7518 O   0  0  0  0  0  0  0  0  0  0  0  0
   -2.8250   -5.9094   -2.8779 C   0  0  0  0  0  0  0  0  0  0  0  0
   -1.6066   -5.9474   -3.6340 O   0  0  0  0  0  0  0  0  0  0  0  0
   -3.1451   -8.8091   -2.6318 C   0  0  2  0  0  0  0  0  0  0  0  0
   -3.5899   -8.0906   -3.7954 O   0  0  0  0  0  0  0  0  0  0  0  0
   -2.6327  -10.1585   -3.0995 C   0  0  2  0  0  0  0  0  0  0  0  0
   -1.7397   -9.9662   -4.2021 O   0  0  0  0  0  0  0  0  0  0  0  0
   -3.7789  -11.0263   -3.5707 C   0  0  1  0  0  0  0  0  0  0  0  0
   -3.2930  -12.3565   -3.7658 O   0  0  0  0  0  0  0  0  0  0  0  0
   -4.9043  -11.0240   -2.5537 C   0  0  2  0  0  0  0  0  0  0  0  0
   -6.0225  -11.6998   -3.1126 O   0  0  0  0  0  0  0  0  0  0  0  0
   -5.3234   -9.6113   -2.1697 C   0  0  2  0  0  0  0  0  0  0  0  0
   -4.1755   -8.9508   -1.6541 O   0  0  0  0  0  0  0  0  0  0  0  0
   -6.4490   -9.6201   -1.1286 C   0  0  0  0  0  0  0  0  0  0  0  0
   -7.6740  -10.1735   -1.6314 O   0  0  0  0  0  0  0  0  0  0  0  0
  1  2  1  0  0  0  0
  3  1  1  6  0  0  0
  3  9  1  0  0  0  0
  3  4  1  0  0  0  0
  4  5  1  6  0  0  0
  4  6  1  0  0  0  0
  6  7  1  6  0  0  0
  6  8  1  0  0  0  0
  8  9  1  0  0  0  0
  8 10  1  1  0  0  0
  8 13  1  0  0  0  0
 10 11  1  0  0  0  0
 12 13  1  6  0  0  0
 12 14  1  0  0  0  0
 12 21  1  0  0  0  0
 14 15  1  6  0  0  0
 14 16  1  0  0  0  0
 16 17  1  1  0  0  0
 16 18  1  0  0  0  0
 18 19  1  6  0  0  0
 18 20  1  0  0  0  0
 20 21  1  0  0  0  0
 20 22  1  1  0  0  0
 22 23  1  0  0  0  0
M  END
>  <CHROM.1>
50.89233316,-65.09964269,-172.61253589,175.49532403,-65.49372952,-4.68051759
-8.38637347,-3.40488017,1.53747342,0.18705271,-0.33132300

>  <Name>
ligand

>  <RI>
0

>  <Rbt.Current_Directory>
/home/itssahil/PROJECTS/Mol_Feturizer/New_Systems/rnas/4TS2

>  <Rbt.Executable>
rbdock ($Id: //depot/dev/client3/rdock/2013.1/src/exe/rbdock.cxx#4 $)

>  <Rbt.Library>
libRbt.so (2013.1, Build901 2013/11/27)

>  <Rbt.Parameter_File>
/export/apps/rDock/src/rDock_2013.1_src/data/scripts/dock_solv.prm

>  <Rbt.Receptor>
prm/pocket_docking_6.prm

>  <SCORE>
-9.83586

>  <SCORE.INTER>
-3.43383

>  <SCORE.INTER.CONST>
1

>  <SCORE.INTER.POLAR>
0

>  <SCORE.INTER.ROT>
5

>  <SCORE.INTER.SOLV>
6.33372

>  <SCORE.INTER.VDW>
-11.3338

>  <SCORE.INTER.norm>
-0.149297

>  <SCORE.INTRA>
-6.40203

>  <SCORE.INTRA.DIHEDRAL>
-11.5257

>  <SCORE.INTRA.DIHEDRAL.0>
12.4853

>  <SCORE.INTRA.POLAR>
0

>  <SCORE.INTRA.POLAR.0>
0

>  <SCORE.INTRA.REPUL>
0

>  <SCORE.INTRA.REPUL.0>
0

>  <SCORE.INTRA.SOLV>
1.80212

>  <SCORE.INTRA.SOLV.lig_0>
-31.1706

>  <SCORE.INTRA.VDW>
-1.54024

>  <SCORE.INTRA.VDW.0>
-1.16895

>  <SCORE.INTRA.norm>
-0.278349

>  <SCORE.RESTR>
0

>  <SCORE.RESTR.CAVITY>
0

>  <SCORE.RESTR.norm>
0

>  <SCORE.SYSTEM>
0

>  <SCORE.SYSTEM.CONST>
0

>  <SCORE.SYSTEM.DIHEDRAL>
0

>  <SCORE.SYSTEM.SOLV>
0

>  <SCORE.SYSTEM.norm>
0

>  <SCORE.heavy>
23

>  <SCORE.norm>
-0.427646

>  <RMSD>
5.558

$$$$
ligand
 OpenBabel11021811513D
libRbt.so/2013.1/901 2013/11/27
 23 24  0  0  0  0  0  0  0  0999 V2000
   -7.4994   -6.9524   -3.0257 C   0  0  0  0  0  0  0  0  0  0  0  0
   -7.8097   -6.6982   -1.6420 O   0  0  0  0  0  0  0  0  0  0  0  0
   -6.1518   -6.3261   -3.3545 C   0  0  2  0  0  0  0  0  0  0  0  0
   -5.7202   -6.4236   -4.8097 C   0  0  1  0  0  0  0  0  0  0  0  0
   -6.3909   -5.4176   -5.5715 O   0  0  0  0  0  0  0  0  0  0  0  0
   -4.2128   -6.2185   -4.7042 C   0  0  2  0  0  0  0  0  0  0  0  0
   -3.3797   -6.6935   -5.7684 O   0  0  0  0  0  0  0  0  0  0  0  0
   -3.8953   -6.9680   -3.4223 C   0  0  2  0  0  0  0  0  0  0  0  0
   -5.0924   -6.9417   -2.6162 O   0  0  0  0  0  0  0  0  0  0  0  0
   -2.7131   -6.2535   -2.7429 C   0  0  0  0  0  0  0  0  0  0  0  0
   -3.0396   -4.9147   -2.3446 O   0  0  0  0  0  0  0  0  0  0  0  0
   -3.2568   -9.1499   -2.6103 C   0  0  2  0  0  0  0  0  0  0  0  0
   -3.6198   -8.3420   -3.7432 O   0  0  0  0  0  0  0  0  0  0  0  0
   -2.5164  -10.3649   -3.1374 C   0  0  2  0  0  0  0  0  0  0  0  0
   -1.5080   -9.9378   -4.0598 O   0  0  0  0  0  0  0  0  0  0  0  0
   -3.4650  -11.2854   -3.8735 C   0  0  1  0  0  0  0  0  0  0  0  0
   -2.7918  -12.5191   -4.1349 O   0  0  0  0  0  0  0  0  0  0  0  0
   -4.7142  -11.5351   -3.0500 C   0  0  2  0  0  0  0  0  0  0  0  0
   -5.6473  -12.2521   -3.8467 O   0  0  0  0  0  0  0  0  0  0  0  0
   -5.3592  -10.2369   -2.5836 C   0  0  2  0  0  0  0  0  0  0  0  0
   -4.3889   -9.5262   -1.8264 O   0  0  0  0  0  0  0  0  0  0  0  0
   -6.6105  -10.5007   -1.7378 C   0  0  0  0  0  0  0  0  0  0  0  0
   -7.1882   -9.3014   -1.2014 O   0  0  0  0  0  0  0  0  0  0  0  0
  1  2  1  0  0  0  0
  3  1  1  6  0  0  0
  3  9  1  0  0  0  0
  3  4  1  0  0  0  0
  4  5  1  6  0  0  0
  4  6  1  0  0  0  0
  6  7  1  6  0  0  0
  6  8  1  0  0  0  0
  8  9  1  0  0  0  0
  8 10  1  1  0  0  0
  8 13  1  0  0  0  0
 10 11  1  0  0  0  0
 12 13  1  6  0  0  0
 12 14  1  0  0  0  0
 12 21  1  0  0  0  0
 14 15  1  6  0  0  0
 14 16  1  0  0  0  0
 16 17  1  1  0  0  0
 16 18  1  0  0  0  0
 18 19  1  6  0  0  0
 18 20  1  0  0  0  0
 20 21  1  0  0  0  0
 20 22  1  1  0  0  0
 22 23  1  0  0  0  0
M  END
>  <CHROM.1>
-175.98361321,63.74130508,-159.20962925,177.90923884,175.77221384,-4.65915027
-8.46183748,-3.29284753,1.87070274,0.38196477,-0.16964987

>  <Name>
ligand

>  <RI>
0

>  <Rbt.Current_Directory>
/home/itssahil/PROJECTS/Mol_Feturizer/New_Systems/rnas/4TS2

>  <Rbt.Executable>
rbdock ($Id: //depot/dev/client3/rdock/2013.1/src/exe/rbdock.cxx#4 $)

>  <Rbt.Library>
libRbt.so (2013.1, Build901 2013/11/27)

>  <Rbt.Parameter_File>
/export/apps/rDock/src/rDock_2013.1_src/data/scripts/dock_solv.prm

>  <Rbt.Receptor>
prm/pocket_docking_6.prm

>  <SCORE>
-9.60951

>  <SCORE.INTER>
-3.28581

>  <SCORE.INTER.CONST>
1

>  <SCORE.INTER.POLAR>
0

>  <SCORE.INTER.ROT>
5

>  <SCORE.INTER.SOLV>
7.03083

>  <SCORE.INTER.VDW>
-11.4675

>  <SCORE.INTER.norm>
-0.142861

>  <SCORE.INTRA>
-6.3237

>  <SCORE.INTRA.DIHEDRAL>
-10.2485

>  <SCORE.INTRA.DIHEDRAL.0>
12.4853

>  <SCORE.INTRA.POLAR>
0

>  <SCORE.INTRA.POLAR.0>
0

>  <SCORE.INTRA.REPUL>
0

>  <SCORE.INTRA.REPUL.0>
0

>  <SCORE.INTRA.SOLV>
0.589324

>  <SCORE.INTRA.SOLV.lig_0>
-31.1706

>  <SCORE.INTRA.VDW>
-1.49412

>  <SCORE.INTRA.VDW.0>
-1.16895

>  <SCORE.INTRA.norm>
-0.274943

>  <SCORE.RESTR>
0

>  <SCORE.RESTR.CAVITY>
0

>  <SCORE.RESTR.norm>
0

>  <SCORE.SYSTEM>
0

>  <SCORE.SYSTEM.CONST>
0

>  <SCORE.SYSTEM.DIHEDRAL>
0

>  <SCORE.SYSTEM.SOLV>
0

>  <SCORE.SYSTEM.norm>
0

>  <SCORE.heavy>
23

>  <SCORE.norm>
-0.417805

>  <RMSD>
5.564

$$$$
ligand
 OpenBabel11021811513D
libRbt.so/2013.1/901 2013/11/27
 23 24  0  0  0  0  0  0  0  0999 V2000
   -7.4782   -6.9873   -3.1638 C   0  0  0  0  0  0  0  0  0  0  0  0
   -7.4400   -8.3357   -3.6694 O   0  0  0  0  0  0  0  0  0  0  0  0
   -6.1267   -6.3297   -3.4038 C   0  0  2  0  0  0  0  0  0  0  0  0
   -5.6292   -6.3575   -4.8409 C   0  0  1  0  0  0  0  0  0  0  0  0
   -6.2802   -5.3278   -5.5880 O   0  0  0  0  0  0  0  0  0  0  0  0
   -4.1313   -6.1376   -4.6585 C   0  0  2  0  0  0  0  0  0  0  0  0
   -3.2445   -6.5545   -5.7035 O   0  0  0  0  0  0  0  0  0  0  0  0
   -3.8601   -6.9385   -3.3972 C   0  0  2  0  0  0  0  0  0  0  0  0
   -5.0922   -6.9632   -2.6458 O   0  0  0  0  0  0  0  0  0  0  0  0
   -2.7202   -6.2393   -2.6348 C   0  0  0  0  0  0  0  0  0  0  0  0
   -3.0962   -4.9379   -2.1630 O   0  0  0  0  0  0  0  0  0  0  0  0
   -3.1255   -9.1188   -2.6662 C   0  0  2  0  0  0  0  0  0  0  0  0
   -3.5500   -8.2934   -3.7646 O   0  0  0  0  0  0  0  0  0  0  0  0
   -2.5665  -10.4021   -3.2519 C   0  0  2  0  0  0  0  0  0  0  0  0
   -1.6437  -10.0790   -4.2980 O   0  0  0  0  0  0  0  0  0  0  0  0
   -3.6762  -11.2399   -3.8483 C   0  0  1  0  0  0  0  0  0  0  0  0
   -3.1529  -12.5327   -4.1618 O   0  0  0  0  0  0  0  0  0  0  0  0
   -4.8331  -11.3654   -2.8754 C   0  0  2  0  0  0  0  0  0  0  0  0
   -5.9166  -12.0026   -3.5382 O   0  0  0  0  0  0  0  0  0  0  0  0
   -5.2977  -10.0087   -2.3632 C   0  0  2  0  0  0  0  0  0  0  0  0
   -4.1828   -9.3816   -1.7439 O   0  0  0  0  0  0  0  0  0  0  0  0
   -6.4553  -10.1477   -1.3674 C   0  0  0  0  0  0  0  0  0  0  0  0
   -6.8811   -8.8901   -0.8227 O   0  0  0  0  0  0  0  0  0  0  0  0
  1  2  1  0  0  0  0
  3  1  1  6  0  0  0
  3  9  1  0  0  0  0
  3  4  1  0  0  0  0
  4  5  1  6  0  0  0
  4  6  1  0  0  0  0
  6  7  1  6  0  0  0
  6  8  1  0  0  0  0
  8  9  1  0  0  0  0
  8 10  1  1  0  0  0
  8 13  1  0  0  0  0
 10 11  1  0  0  0  0
 12 13  1  6  0  0  0
 12 14  1  0  0  0  0
 12 21  1  0  0  0  0
 14 15  1  6  0  0  0
 14 16  1  0  0  0  0
 16 17  1  1  0  0  0
 16 18  1  0  0  0  0
 18 19  1  6  0  0  0
 18 20  1  0  0  0  0
 20 21  1  0  0  0  0
 20 22  1  1  0  0  0
 22 23  1  0  0  0  0
M  END
>  <CHROM.1>
54.28868128,65.30621640,-168.35629894,173.33375298,177.57500684,-4.63237842
-8.46030989,-3.33362252,1.72784385,0.30658897,-0.19043992

>  <Name>
ligand

>  <RI>
0

>  <Rbt.Current_Directory>
/home/itssahil/PROJECTS/Mol_Feturizer/New_Systems/rnas/4TS2

>  <Rbt.Executable>
rbdock ($Id: //depot/dev/client3/rdock/2013.1/src/exe/rbdock.cxx#4 $)

>  <Rbt.Library>
libRbt.so (2013.1, Build901 2013/11/27)

>  <Rbt.Parameter_File>
/export/apps/rDock/src/rDock_2013.1_src/data/scripts/dock_solv.prm

>  <Rbt.Receptor>
prm/pocket_docking_7.prm

>  <SCORE>
-10.2115

>  <SCORE.INTER>
-3.59282

>  <SCORE.INTER.CONST>
1

>  <SCORE.INTER.POLAR>
0

>  <SCORE.INTER.ROT>
5

>  <SCORE.INTER.SOLV>
6.60341

>  <SCORE.INTER.VDW>
-11.5297

>  <SCORE.INTER.norm>
-0.156209

>  <SCORE.INTRA>
-6.61867

>  <SCORE.INTRA.DIHEDRAL>
-11.1866

>  <SCORE.INTRA.DIHEDRAL.0>
12.4853

>  <SCORE.INTRA.POLAR>
0

>  <SCORE.INTRA.POLAR.0>
0

>  <SCORE.INTRA.REPUL>
0

>  <SCORE.INTRA.REPUL.0>
0

>  <SCORE.INTRA.SOLV>
1.50491

>  <SCORE.INTRA.SOLV.lig_0>
-31.1706

>  <SCORE.INTRA.VDW>
-1.77782

>  <SCORE.INTRA.VDW.0>
-1.16895

>  <SCORE.INTRA.norm>
-0.287768

>  <SCORE.RESTR>
0

>  <SCORE.RESTR.CAVITY>
0

>  <SCORE.RESTR.norm>
0

>  <SCORE.SYSTEM>
0

>  <SCORE.SYSTEM.CONST>
0

>  <SCORE.SYSTEM.DIHEDRAL>
0

>  <SCORE.SYSTEM.SOLV>
0

>  <SCORE.SYSTEM.norm>
0

>  <SCORE.heavy>
23

>  <SCORE.norm>
-0.443978

>  <RMSD>
5.579

$$$$
ligand
 OpenBabel11021811513D
libRbt.so/2013.1/901 2013/11/27
 23 24  0  0  0  0  0  0  0  0999 V2000
   -7.4265   -6.9205   -3.1309 C   0  0  0  0  0  0  0  0  0  0  0  0
   -7.7200   -6.7148   -1.7355 O   0  0  0  0  0  0  0  0  0  0  0  0
   -6.1219   -6.2147   -3.4721 C   0  0  2  0  0  0  0  0  0  0  0  0
   -5.6781   -6.3211   -4.9230 C   0  0  1  0  0  0  0  0  0  0  0  0
   -6.4107   -5.3821   -5.7129 O   0  0  0  0  0  0  0  0  0  0  0  0
   -4.1882   -6.0135   -4.8186 C   0  0  2  0  0  0  0  0  0  0  0  0
   -3.3205   -6.4595   -5.8676 O   0  0  0  0  0  0  0  0  0  0  0  0
   -3.8275   -6.7066   -3.5165 C   0  0  2  0  0  0  0  0  0  0  0  0
   -5.0274   -6.7390   -2.7149 O   0  0  0  0  0  0  0  0  0  0  0  0
   -2.6985   -5.8976   -2.8528 C   0  0  0  0  0  0  0  0  0  0  0  0
   -1.4943   -5.8990   -3.6321 O   0  0  0  0  0  0  0  0  0  0  0  0
   -3.0741   -8.8268   -2.6420 C   0  0  2  0  0  0  0  0  0  0  0  0
   -3.4599   -8.0671   -3.8005 O   0  0  0  0  0  0  0  0  0  0  0  0
   -2.4607  -10.1247   -3.1336 C   0  0  2  0  0  0  0  0  0  0  0  0
   -1.4936   -9.8333   -4.1484 O   0  0  0  0  0  0  0  0  0  0  0  0
   -3.5221  -11.0162   -3.7399 C   0  0  1  0  0  0  0  0  0  0  0  0
   -2.9577  -12.3108   -3.9612 O   0  0  0  0  0  0  0  0  0  0  0  0
   -4.7233  -11.1192   -2.8195 C   0  0  2  0  0  0  0  0  0  0  0  0
   -5.7593  -11.8132   -3.5011 O   0  0  0  0  0  0  0  0  0  0  0  0
   -5.2403   -9.7495   -2.4004 C   0  0  2  0  0  0  0  0  0  0  0  0
   -4.1706   -9.0671   -1.7602 O   0  0  0  0  0  0  0  0  0  0  0  0
   -6.4431   -9.8650   -1.4566 C   0  0  0  0  0  0  0  0  0  0  0  0
   -6.1309  -10.5416   -0.2300 O   0  0  0  0  0  0  0  0  0  0  0  0
  1  2  1  0  0  0  0
  3  1  1  6  0  0  0
  3  9  1  0  0  0  0
  3  4  1  0  0  0  0
  4  5  1  6  0  0  0
  4  6  1  0  0  0  0
  6  7  1  6  0  0  0
  6  8  1  0  0  0  0
  8  9  1  0  0  0  0
  8 10  1  1  0  0  0
  8 13  1  0  0  0  0
 10 11  1  0  0  0  0
 12 13  1  6  0  0  0
 12 14  1  0  0  0  0
 12 21  1  0  0  0  0
 14 15  1  6  0  0  0
 14 16  1  0  0  0  0
 16 17  1  1  0  0  0
 16 18  1  0  0  0  0
 18 19  1  6  0  0  0
 18 20  1  0  0  0  0
 20 21  1  0  0  0  0
 20 22  1  1  0  0  0
 22 23  1  0  0  0  0
M  END
>  <CHROM.1>
-179.22134696,-64.30807884,-168.91922627,179.05503475,61.63629892,-4.49153501
-8.33912644,-3.30149123,1.70764035,0.38482396,-0.33435637

>  <Name>
ligand

>  <RI>
0

>  <Rbt.Current_Directory>
/home/itssahil/PROJECTS/Mol_Feturizer/New_Systems/rnas/4TS2

>  <Rbt.Executable>
rbdock ($Id: //depot/dev/client3/rdock/2013.1/src/exe/rbdock.cxx#4 $)

>  <Rbt.Library>
libRbt.so (2013.1, Build901 2013/11/27)

>  <Rbt.Parameter_File>
/export/apps/rDock/src/rDock_2013.1_src/data/scripts/dock_solv.prm

>  <Rbt.Receptor>
prm/pocket_docking_7.prm

>  <SCORE>
-10.4644

>  <SCORE.INTER>
-3.18006

>  <SCORE.INTER.CONST>
1

>  <SCORE.INTER.POLAR>
0

>  <SCORE.INTER.ROT>
5

>  <SCORE.INTER.SOLV>
6.50117

>  <SCORE.INTER.VDW>
-11.2204

>  <SCORE.INTER.norm>
-0.138263

>  <SCORE.INTRA>
-7.28433

>  <SCORE.INTRA.DIHEDRAL>
-11.7638

>  <SCORE.INTRA.DIHEDRAL.0>
12.4853

>  <SCORE.INTRA.POLAR>
0

>  <SCORE.INTRA.POLAR.0>
0

>  <SCORE.INTRA.REPUL>
0

>  <SCORE.INTRA.REPUL.0>
0

>  <SCORE.INTRA.SOLV>
0.467299

>  <SCORE.INTRA.SOLV.lig_0>
-31.1706

>  <SCORE.INTRA.VDW>
-1.6361

>  <SCORE.INTRA.VDW.0>
-1.16895

>  <SCORE.INTRA.norm>
-0.31671

>  <SCORE.RESTR>
0

>  <SCORE.RESTR.CAVITY>
0

>  <SCORE.RESTR.norm>
0

>  <SCORE.SYSTEM>
0

>  <SCORE.SYSTEM.CONST>
0

>  <SCORE.SYSTEM.DIHEDRAL>
0

>  <SCORE.SYSTEM.SOLV>
0

>  <SCORE.SYSTEM.norm>
0

>  <SCORE.heavy>
23

>  <SCORE.norm>
-0.454974

>  <RMSD>
5.583

$$$$
ligand
 OpenBabel11021811513D
libRbt.so/2013.1/901 2013/11/27
 23 24  0  0  0  0  0  0  0  0999 V2000
   -7.3822   -6.8381   -3.1586 C   0  0  0  0  0  0  0  0  0  0  0  0
   -7.6361   -6.5628   -1.7674 O   0  0  0  0  0  0  0  0  0  0  0  0
   -6.0948   -6.1411   -3.5746 C   0  0  2  0  0  0  0  0  0  0  0  0
   -5.6954   -6.3154   -5.0319 C   0  0  1  0  0  0  0  0  0  0  0  0
   -6.4599   -5.4212   -5.8432 O   0  0  0  0  0  0  0  0  0  0  0  0
   -4.2055   -5.9930   -4.9895 C   0  0  2  0  0  0  0  0  0  0  0  0
   -3.3672   -6.4840   -6.0422 O   0  0  0  0  0  0  0  0  0  0  0  0
   -3.7989   -6.6191   -3.6672 C   0  0  2  0  0  0  0  0  0  0  0  0
   -4.9730   -6.6203   -2.8276 O   0  0  0  0  0  0  0  0  0  0  0  0
   -2.6565   -5.7709   -3.0794 C   0  0  0  0  0  0  0  0  0  0  0  0
   -2.3207   -6.1597   -1.7401 O   0  0  0  0  0  0  0  0  0  0  0  0
   -3.0559   -8.7050   -2.7057 C   0  0  2  0  0  0  0  0  0  0  0  0
   -3.4290   -7.9894   -3.8959 O   0  0  0  0  0  0  0  0  0  0  0  0
   -2.4547  -10.0284   -3.1411 C   0  0  2  0  0  0  0  0  0  0  0  0
   -1.4806   -9.7891   -4.1629 O   0  0  0  0  0  0  0  0  0  0  0  0
   -3.5233  -10.9326   -3.7150 C   0  0  1  0  0  0  0  0  0  0  0  0
   -2.9722  -12.2412   -3.8808 O   0  0  0  0  0  0  0  0  0  0  0  0
   -4.7292  -10.9851   -2.7963 C   0  0  2  0  0  0  0  0  0  0  0  0
   -5.7700  -11.6953   -3.4534 O   0  0  0  0  0  0  0  0  0  0  0  0
   -5.2329   -9.5940   -2.4359 C   0  0  2  0  0  0  0  0  0  0  0  0
   -4.1584   -8.8974   -1.8195 O   0  0  0  0  0  0  0  0  0  0  0  0
   -6.4405   -9.6578   -1.4933 C   0  0  0  0  0  0  0  0  0  0  0  0
   -6.1539  -10.3319   -0.2591 O   0  0  0  0  0  0  0  0  0  0  0  0
  1  2  1  0  0  0  0
  3  1  1  1  0  0  0
  3  9  1  0  0  0  0
  3  4  1  0  0  0  0
  4  5  1  6  0  0  0
  4  6  1  0  0  0  0
  6  7  1  6  0  0  0
  6  8  1  0  0  0  0
  8  9  1  0  0  0  0
  8 10  1  1  0  0  0
  8 13  1  0  0  0  0
 10 11  1  0  0  0  0
 12 13  1  6  0  0  0
 12 14  1  0  0  0  0
 12 21  1  0  0  0  0
 14 15  1  6  0  0  0
 14 16  1  0  0  0  0
 16 17  1  1  0  0  0
 16 18  1  0  0  0  0
 18 19  1  6  0  0  0
 18 20  1  0  0  0  0
 20 21  1  0  0  0  0
 20 22  1  1  0  0  0
 22 23  1  0  0  0  0
M  END
>  <CHROM.1>
-179.04088659,171.72290964,-169.64868832,-178.41866308,59.41947810,-4.52327184
-8.26117602,-3.27059843,1.82237612,0.41183291,-0.36331102

>  <Name>
ligand

>  <RI>
0

>  <Rbt.Current_Directory>
/home/itssahil/PROJECTS/Mol_Feturizer/New_Systems/rnas/4TS2

>  <Rbt.Executable>
rbdock ($Id: //depot/dev/client3/rdock/2013.1/src/exe/rbdock.cxx#4 $)

>  <Rbt.Library>
libRbt.so (2013.1, Build901 2013/11/27)

>  <Rbt.Parameter_File>
/export/apps/rDock/src/rDock_2013.1_src/data/scripts/dock_solv.prm

>  <Rbt.Receptor>
prm/pocket_docking_7.prm

>  <SCORE>
-10.2529

>  <SCORE.INTER>
-3.1214

>  <SCORE.INTER.CONST>
1

>  <SCORE.INTER.POLAR>
0

>  <SCORE.INTER.ROT>
5

>  <SCORE.INTER.SOLV>
6.3049

>  <SCORE.INTER.VDW>
-11.1159

>  <SCORE.INTER.norm>
-0.135713

>  <SCORE.INTRA>
-7.13146

>  <SCORE.INTRA.DIHEDRAL>
-11.7294

>  <SCORE.INTRA.DIHEDRAL.0>
12.4853

>  <SCORE.INTRA.POLAR>
0

>  <SCORE.INTRA.POLAR.0>
0

>  <SCORE.INTRA.REPUL>
0

>  <SCORE.INTRA.REPUL.0>
0

>  <SCORE.INTRA.SOLV>
0.474444

>  <SCORE.INTRA.SOLV.lig_0>
-31.1706

>  <SCORE.INTRA.VDW>
-1.50399

>  <SCORE.INTRA.VDW.0>
-1.16895

>  <SCORE.INTRA.norm>
-0.310064

>  <SCORE.RESTR>
0

>  <SCORE.RESTR.CAVITY>
0

>  <SCORE.RESTR.norm>
0

>  <SCORE.SYSTEM>
0

>  <SCORE.SYSTEM.CONST>
0

>  <SCORE.SYSTEM.DIHEDRAL>
0

>  <SCORE.SYSTEM.SOLV>
0

>  <SCORE.SYSTEM.norm>
0

>  <SCORE.heavy>
23

>  <SCORE.norm>
-0.445777

>  <RMSD>
5.585

$$$$
ligand
 OpenBabel11021811513D
libRbt.so/2013.1/901 2013/11/27
 23 24  0  0  0  0  0  0  0  0999 V2000
   -7.5041   -6.9166   -3.0732 C   0  0  0  0  0  0  0  0  0  0  0  0
   -7.7546   -6.6628   -1.6774 O   0  0  0  0  0  0  0  0  0  0  0  0
   -6.1675   -6.2981   -3.4573 C   0  0  2  0  0  0  0  0  0  0  0  0
   -5.7397   -6.5046   -4.9022 C   0  0  1  0  0  0  0  0  0  0  0  0
   -6.4287   -5.5729   -5.7384 O   0  0  0  0  0  0  0  0  0  0  0  0
   -4.2353   -6.2688   -4.8206 C   0  0  2  0  0  0  0  0  0  0  0  0
   -3.3987   -6.8143   -5.8476 O   0  0  0  0  0  0  0  0  0  0  0  0
   -3.9016   -6.9089   -3.4846 C   0  0  2  0  0  0  0  0  0  0  0  0
   -5.0961   -6.8366   -2.6775 O   0  0  0  0  0  0  0  0  0  0  0  0
   -2.7283   -6.1246   -2.8699 C   0  0  0  0  0  0  0  0  0  0  0  0
   -1.5314   -6.2284   -3.6537 O   0  0  0  0  0  0  0  0  0  0  0  0
   -3.4041   -9.0497   -2.4862 C   0  0  2  0  0  0  0  0  0  0  0  0
   -3.6059   -8.2997   -3.6965 O   0  0  0  0  0  0  0  0  0  0  0  0
   -2.7732  -10.3745   -2.8726 C   0  0  2  0  0  0  0  0  0  0  0  0
   -1.6697  -10.1313   -3.7521 O   0  0  0  0  0  0  0  0  0  0  0  0
   -3.7724  -11.2439   -3.6039 C   0  0  1  0  0  0  0  0  0  0  0  0
   -3.2262  -12.5590   -3.7293 O   0  0  0  0  0  0  0  0  0  0  0  0
   -5.0889  -11.2934   -2.8522 C   0  0  2  0  0  0  0  0  0  0  0  0
   -6.0463  -11.9675   -3.6574 O   0  0  0  0  0  0  0  0  0  0  0  0
   -5.6122   -9.9011   -2.5256 C   0  0  2  0  0  0  0  0  0  0  0  0
   -4.6162   -9.2403   -1.7567 O   0  0  0  0  0  0  0  0  0  0  0  0
   -6.9338   -9.9625   -1.7507 C   0  0  0  0  0  0  0  0  0  0  0  0
   -8.0132  -10.5061   -2.5247 O   0  0  0  0  0  0  0  0  0  0  0  0
  1  2  1  0  0  0  0
  3  1  1  6  0  0  0
  3  9  1  0  0  0  0
  3  4  1  0  0  0  0
  4  5  1  6  0  0  0
  4  6  1  0  0  0  0
  6  7  1  6  0  0  0
  6  8  1  0  0  0  0
  8  9  1  0  0  0  0
  8 10  1  1  0  0  0
  8 13  1  0  0  0  0
 10 11  1  0  0  0  0
 12 13  1  6  0  0  0
 12 14  1  0  0  0  0
 12 21  1  0  0  0  0
 14 15  1  6  0  0  0
 14 16  1  0  0  0  0
 16 17  1  1  0  0  0
 16 18  1  0  0  0  0
 18 19  1  6  0  0  0
 18 20  1  0  0  0  0
 20 21  1  0  0  0  0
 20 22  1  1  0  0  0
 22 23  1  0  0  0  0
M  END
>  <CHROM.1>
178.74317897,-64.24798925,-166.14157917,-174.07976137,-66.04879688,-4.75358663
-8.51548636,-3.37312991,1.64921574,0.22412260,-0.21963743

>  <Name>
ligand

>  <RI>
0

>  <Rbt.Current_Directory>
/home/itssahil/PROJECTS/Mol_Feturizer/New_Systems/rnas/4TS2

>  <Rbt.Executable>
rbdock ($Id: //depot/dev/client3/rdock/2013.1/src/exe/rbdock.cxx#4 $)

>  <Rbt.Library>
libRbt.so (2013.1, Build901 2013/11/27)

>  <Rbt.Parameter_File>
/export/apps/rDock/src/rDock_2013.1_src/data/scripts/dock_solv.prm

>  <Rbt.Receptor>
prm/pocket_docking_6.prm

>  <SCORE>
-10.5096

>  <SCORE.INTER>
-3.6124

>  <SCORE.INTER.CONST>
1

>  <SCORE.INTER.POLAR>
0

>  <SCORE.INTER.ROT>
5

>  <SCORE.INTER.SOLV>
7.14403

>  <SCORE.INTER.VDW>
-11.7229

>  <SCORE.INTER.norm>
-0.157061

>  <SCORE.INTRA>
-6.89725

>  <SCORE.INTRA.DIHEDRAL>
-11.2553

>  <SCORE.INTRA.DIHEDRAL.0>
12.4853

>  <SCORE.INTRA.POLAR>
0

>  <SCORE.INTRA.POLAR.0>
0

>  <SCORE.INTRA.REPUL>
0

>  <SCORE.INTRA.REPUL.0>
0

>  <SCORE.INTRA.SOLV>
0.758827

>  <SCORE.INTRA.SOLV.lig_0>
-31.1706

>  <SCORE.INTRA.VDW>
-1.64901

>  <SCORE.INTRA.VDW.0>
-1.16895

>  <SCORE.INTRA.norm>
-0.29988

>  <SCORE.RESTR>
0

>  <SCORE.RESTR.CAVITY>
0

>  <SCORE.RESTR.norm>
0

>  <SCORE.SYSTEM>
0

>  <SCORE.SYSTEM.CONST>
0

>  <SCORE.SYSTEM.DIHEDRAL>
0

>  <SCORE.SYSTEM.SOLV>
0

>  <SCORE.SYSTEM.norm>
0

>  <SCORE.heavy>
23

>  <SCORE.norm>
-0.456941

>  <RMSD>
5.589

$$$$
ligand
 OpenBabel11021811513D
libRbt.so/2013.1/901 2013/11/27
 23 24  0  0  0  0  0  0  0  0999 V2000
   -7.3913   -6.9098   -3.2134 C   0  0  0  0  0  0  0  0  0  0  0  0
   -7.3245   -8.2687   -3.6874 O   0  0  0  0  0  0  0  0  0  0  0  0
   -6.0999   -6.1929   -3.5807 C   0  0  2  0  0  0  0  0  0  0  0  0
   -5.6786   -6.3051   -5.0379 C   0  0  1  0  0  0  0  0  0  0  0  0
   -6.4337   -5.3796   -5.8224 O   0  0  0  0  0  0  0  0  0  0  0  0
   -4.1905   -5.9812   -4.9599 C   0  0  2  0  0  0  0  0  0  0  0  0
   -3.3352   -6.4256   -6.0196 O   0  0  0  0  0  0  0  0  0  0  0  0
   -3.8015   -6.6611   -3.6590 C   0  0  2  0  0  0  0  0  0  0  0  0
   -4.9879   -6.7003   -2.8378 O   0  0  0  0  0  0  0  0  0  0  0  0
   -2.6705   -5.8356   -3.0194 C   0  0  0  0  0  0  0  0  0  0  0  0
   -2.3835   -6.2504   -1.6765 O   0  0  0  0  0  0  0  0  0  0  0  0
   -2.9225   -8.7386   -2.7994 C   0  0  2  0  0  0  0  0  0  0  0  0
   -3.4241   -8.0197   -3.9394 O   0  0  0  0  0  0  0  0  0  0  0  0
   -2.3934  -10.0701   -3.2989 C   0  0  2  0  0  0  0  0  0  0  0  0
   -1.5434   -9.8445   -4.4289 O   0  0  0  0  0  0  0  0  0  0  0  0
   -3.5334  -10.9613   -3.7406 C   0  0  1  0  0  0  0  0  0  0  0  0
   -3.0220  -12.2770   -3.9665 O   0  0  0  0  0  0  0  0  0  0  0  0
   -4.6233  -10.9972   -2.6862 C   0  0  2  0  0  0  0  0  0  0  0  0
   -5.7430  -11.6949   -3.2143 O   0  0  0  0  0  0  0  0  0  0  0  0
   -5.0635   -9.5993   -2.2727 C   0  0  2  0  0  0  0  0  0  0  0  0
   -3.9153   -8.9158   -1.7890 O   0  0  0  0  0  0  0  0  0  0  0  0
   -6.1525   -9.6466   -1.1944 C   0  0  0  0  0  0  0  0  0  0  0  0
   -5.7125  -10.2716    0.0203 O   0  0  0  0  0  0  0  0  0  0  0  0
  1  2  1  0  0  0  0
  3  1  1  6  0  0  0
  3  9  1  0  0  0  0
  3  4  1  0  0  0  0
  4  5  1  6  0  0  0
  4  6  1  0  0  0  0
  6  7  1  6  0  0  0
  6  8  1  0  0  0  0
  8  9  1  0  0  0  0
  8 10  1  1  0  0  0
  8 13  1  0  0  0  0
 10 11  1  0  0  0  0
 12 13  1  6  0  0  0
 12 14  1  0  0  0  0
 12 21  1  0  0  0  0
 14 15  1  6  0  0  0
 14 16  1  0  0  0  0
 16 17  1  1  0  0  0
 16 18  1  0  0  0  0
 18 19  1  6  0  0  0
 18 20  1  0  0  0  0
 20 21  1  0  0  0  0
 20 22  1  1  0  0  0
 22 23  1  0  0  0  0
M  END
>  <CHROM.1>
50.88990013,169.79035405,-172.19255305,174.90082821,61.94773035,-4.45039810
-8.36267625,-3.33691136,1.74674164,0.28859726,-0.40775912

>  <Name>
ligand

>  <RI>
0

>  <Rbt.Current_Directory>
/home/itssahil/PROJECTS/Mol_Feturizer/New_Systems/rnas/4TS2

>  <Rbt.Executable>
rbdock ($Id: //depot/dev/client3/rdock/2013.1/src/exe/rbdock.cxx#4 $)

>  <Rbt.Library>
libRbt.so (2013.1, Build901 2013/11/27)

>  <Rbt.Parameter_File>
/export/apps/rDock/src/rDock_2013.1_src/data/scripts/dock_solv.prm

>  <Rbt.Receptor>
prm/pocket_docking_7.prm

>  <SCORE>
-9.67637

>  <SCORE.INTER>
-3.29376

>  <SCORE.INTER.CONST>
1

>  <SCORE.INTER.POLAR>
0

>  <SCORE.INTER.ROT>
5

>  <SCORE.INTER.SOLV>
5.73901

>  <SCORE.INTER.VDW>
-11.0422

>  <SCORE.INTER.norm>
-0.143207

>  <SCORE.INTRA>
-6.38261

>  <SCORE.INTRA.DIHEDRAL>
-11.3265

>  <SCORE.INTRA.DIHEDRAL.0>
12.4853

>  <SCORE.INTRA.POLAR>
0

>  <SCORE.INTRA.POLAR.0>
0

>  <SCORE.INTRA.REPUL>
0

>  <SCORE.INTRA.REPUL.0>
0

>  <SCORE.INTRA.SOLV>
1.30735

>  <SCORE.INTRA.SOLV.lig_0>
-31.1706

>  <SCORE.INTRA.VDW>
-1.37304

>  <SCORE.INTRA.VDW.0>
-1.16895

>  <SCORE.INTRA.norm>
-0.277505

>  <SCORE.RESTR>
0

>  <SCORE.RESTR.CAVITY>
0

>  <SCORE.RESTR.norm>
0

>  <SCORE.SYSTEM>
0

>  <SCORE.SYSTEM.CONST>
0

>  <SCORE.SYSTEM.DIHEDRAL>
0

>  <SCORE.SYSTEM.SOLV>
0

>  <SCORE.SYSTEM.norm>
0

>  <SCORE.heavy>
23

>  <SCORE.norm>
-0.420712

>  <RMSD>
5.601

$$$$
ligand
 OpenBabel11021811513D
libRbt.so/2013.1/901 2013/11/27
 23 24  0  0  0  0  0  0  0  0999 V2000
   -4.2321  -10.4568   -2.2110 C   0  0  0  0  0  0  0  0  0  0  0  0
   -2.9531  -10.6906   -1.5905 O   0  0  0  0  0  0  0  0  0  0  0  0
   -4.7660   -9.1073   -1.7525 C   0  0  2  0  0  0  0  0  0  0  0  0
   -4.9964   -8.9668   -0.2556 C   0  0  1  0  0  0  0  0  0  0  0  0
   -3.7493   -8.7115    0.3940 O   0  0  0  0  0  0  0  0  0  0  0  0
   -5.9756   -7.7992   -0.1972 C   0  0  2  0  0  0  0  0  0  0  0  0
   -6.7947   -7.6486    0.9684 O   0  0  0  0  0  0  0  0  0  0  0  0
   -6.8455   -8.0740   -1.4111 C   0  0  2  0  0  0  0  0  0  0  0  0
   -6.0336   -8.8143   -2.3472 O   0  0  0  0  0  0  0  0  0  0  0  0
   -7.3039   -6.7171   -1.9752 C   0  0  0  0  0  0  0  0  0  0  0  0
   -7.9879   -6.8496   -3.2291 O   0  0  0  0  0  0  0  0  0  0  0  0
   -8.7432   -9.3903   -2.1136 C   0  0  2  0  0  0  0  0  0  0  0  0
   -7.9367   -8.9236   -1.0183 O   0  0  0  0  0  0  0  0  0  0  0  0
  -10.0402   -9.9188   -1.5297 C   0  0  2  0  0  0  0  0  0  0  0  0
  -10.5716   -8.9543   -0.6145 O   0  0  0  0  0  0  0  0  0  0  0  0
   -9.7940  -11.2022   -0.7673 C   0  0  1  0  0  0  0  0  0  0  0  0
  -11.0565  -11.7923   -0.4488 O   0  0  0  0  0  0  0  0  0  0  0  0
   -8.9604  -12.1632   -1.5934 C   0  0  2  0  0  0  0  0  0  0  0  0
   -8.6047  -13.2717   -0.7785 O   0  0  0  0  0  0  0  0  0  0  0  0
   -7.6894  -11.5097   -2.1190 C   0  0  2  0  0  0  0  0  0  0  0  0
   -8.0776  -10.3833   -2.8938 O   0  0  0  0  0  0  0  0  0  0  0  0
   -6.8632  -12.4840   -2.9670 C   0  0  0  0  0  0  0  0  0  0  0  0
   -7.6021  -13.0372   -4.0659 O   0  0  0  0  0  0  0  0  0  0  0  0
  1  2  1  0  0  0  0
  3  1  1  1  0  0  0
  3  9  1  0  0  0  0
  3  4  1  0  0  0  0
  4  5  1  1  0  0  0
  4  6  1  0  0  0  0
  6  7  1  1  0  0  0
  6  8  1  0  0  0  0
  8  9  1  0  0  0  0
  8 10  1  6  0  0  0
  8 13  1  0  0  0  0
 10 11  1  0  0  0  0
 12 13  1  1  0  0  0
 12 14  1  0  0  0  0
 12 21  1  0  0  0  0
 14 15  1  1  0  0  0
 14 16  1  0  0  0  0
 16 17  1  6  0  0  0
 16 18  1  0  0  0  0
 18 19  1  1  0  0  0
 18 20  1  0  0  0  0
 20 21  1  0  0  0  0
 20 22  1  6  0  0  0
 22 23  1  0  0  0  0
M  END
>  <CHROM.1>
-60.88722192,172.28466822,-164.09758315,-172.79511435,56.30431139,-7.28778486
-9.87449194,-1.50111797,-0.56505164,-0.05428741,-2.85747643

>  <Name>
ligand

>  <RI>
0

>  <Rbt.Current_Directory>
/home/itssahil/PROJECTS/Mol_Feturizer/New_Systems/rnas/4TS2

>  <Rbt.Executable>
rbdock ($Id: //depot/dev/client3/rdock/2013.1/src/exe/rbdock.cxx#4 $)

>  <Rbt.Library>
libRbt.so (2013.1, Build901 2013/11/27)

>  <Rbt.Parameter_File>
/export/apps/rDock/src/rDock_2013.1_src/data/scripts/dock_solv.prm

>  <Rbt.Receptor>
prm/pocket_docking_4.prm

>  <SCORE>
-8.09091

>  <SCORE.INTER>
-1.35256

>  <SCORE.INTER.CONST>
1

>  <SCORE.INTER.POLAR>
0

>  <SCORE.INTER.ROT>
5

>  <SCORE.INTER.SOLV>
5.48009

>  <SCORE.INTER.VDW>
-9.66174

>  <SCORE.INTER.norm>
-0.0588069

>  <SCORE.INTRA>
-6.73835

>  <SCORE.INTRA.DIHEDRAL>
-10.8916

>  <SCORE.INTRA.DIHEDRAL.0>
12.4853

>  <SCORE.INTRA.POLAR>
0

>  <SCORE.INTRA.POLAR.0>
0

>  <SCORE.INTRA.REPUL>
0

>  <SCORE.INTRA.REPUL.0>
0

>  <SCORE.INTRA.SOLV>
0.49073

>  <SCORE.INTRA.SOLV.lig_0>
-31.1706

>  <SCORE.INTRA.VDW>
-1.53793

>  <SCORE.INTRA.VDW.0>
-1.16895

>  <SCORE.INTRA.norm>
-0.292972

>  <SCORE.RESTR>
0

>  <SCORE.RESTR.CAVITY>
0

>  <SCORE.RESTR.norm>
0

>  <SCORE.SYSTEM>
0

>  <SCORE.SYSTEM.CONST>
0

>  <SCORE.SYSTEM.DIHEDRAL>
0

>  <SCORE.SYSTEM.SOLV>
0

>  <SCORE.SYSTEM.norm>
0

>  <SCORE.heavy>
23

>  <SCORE.norm>
-0.351779

>  <RMSD>
5.607

$$$$
ligand
 OpenBabel11021811513D
libRbt.so/2013.1/901 2013/11/27
 23 24  0  0  0  0  0  0  0  0999 V2000
   -6.0543   -7.6626    1.4651 C   0  0  0  0  0  0  0  0  0  0  0  0
   -5.4449   -8.0868    0.2305 O   0  0  0  0  0  0  0  0  0  0  0  0
   -6.6058   -8.8819    2.1900 C   0  0  2  0  0  0  0  0  0  0  0  0
   -5.6128  -10.0094    2.4269 C   0  0  1  0  0  0  0  0  0  0  0  0
   -4.7936   -9.6908    3.5536 O   0  0  0  0  0  0  0  0  0  0  0  0
   -6.5384  -11.2005    2.6512 C   0  0  2  0  0  0  0  0  0  0  0  0
   -6.0200  -12.5202    2.4469 O   0  0  0  0  0  0  0  0  0  0  0  0
   -7.6439  -10.9162    1.6497 C   0  0  2  0  0  0  0  0  0  0  0  0
   -7.6786   -9.4855    1.4614 O   0  0  0  0  0  0  0  0  0  0  0  0
   -8.9580  -11.4643    2.2349 C   0  0  0  0  0  0  0  0  0  0  0  0
   -8.9414  -12.8921    2.3721 O   0  0  0  0  0  0  0  0  0  0  0  0
   -8.3402  -11.4650   -0.5957 C   0  0  2  0  0  0  0  0  0  0  0  0
   -7.2926  -11.5103    0.3885 O   0  0  0  0  0  0  0  0  0  0  0  0
   -7.8342  -12.1862   -1.8311 C   0  0  2  0  0  0  0  0  0  0  0  0
   -7.2746  -13.4461   -1.4442 O   0  0  0  0  0  0  0  0  0  0  0  0
   -6.7482  -11.3793   -2.5082 C   0  0  1  0  0  0  0  0  0  0  0  0
   -6.4760  -11.9625   -3.7847 O   0  0  0  0  0  0  0  0  0  0  0  0
   -7.1801   -9.9348   -2.6741 C   0  0  2  0  0  0  0  0  0  0  0  0
   -6.0719   -9.1809   -3.1462 O   0  0  0  0  0  0  0  0  0  0  0  0
   -7.6653   -9.3302   -1.3633 C   0  0  2  0  0  0  0  0  0  0  0  0
   -8.7442  -10.1297   -0.8980 O   0  0  0  0  0  0  0  0  0  0  0  0
   -8.1159   -7.8760   -1.5454 C   0  0  0  0  0  0  0  0  0  0  0  0
   -7.0432   -6.9987   -1.9190 O   0  0  0  0  0  0  0  0  0  0  0  0
  1  2  1  0  0  0  0
  3  1  1  6  0  0  0
  3  9  1  0  0  0  0
  3  4  1  0  0  0  0
  4  5  1  1  0  0  0
  4  6  1  0  0  0  0
  6  7  1  6  0  0  0
  6  8  1  0  0  0  0
  8  9  1  0  0  0  0
  8 10  1  1  0  0  0
  8 13  1  0  0  0  0
 10 11  1  0  0  0  0
 12 13  1  1  0  0  0
 12 14  1  0  0  0  0
 12 21  1  0  0  0  0
 14 15  1  1  0  0  0
 14 16  1  0  0  0  0
 16 17  1  6  0  0  0
 16 18  1  0  0  0  0
 18 19  1  1  0  0  0
 18 20  1  0  0  0  0
 20 21  1  0  0  0  0
 20 22  1  6  0  0  0
 22 23  1  0  0  0  0
M  END
>  <CHROM.1>
53.98680253,-64.90378992,-177.30823576,172.11976840,-64.87947215,-7.07454904
-10.36063004,0.04794401,-1.32124792,-1.25815649,-1.20374148

>  <Name>
ligand

>  <RI>
0

>  <Rbt.Current_Directory>
/home/itssahil/PROJECTS/Mol_Feturizer/New_Systems/rnas/4TS2

>  <Rbt.Executable>
rbdock ($Id: //depot/dev/client3/rdock/2013.1/src/exe/rbdock.cxx#4 $)

>  <Rbt.Library>
libRbt.so (2013.1, Build901 2013/11/27)

>  <Rbt.Parameter_File>
/export/apps/rDock/src/rDock_2013.1_src/data/scripts/dock_solv.prm

>  <Rbt.Receptor>
prm/pocket_docking_7.prm

>  <SCORE>
-6.60151

>  <SCORE.INTER>
-0.125528

>  <SCORE.INTER.CONST>
1

>  <SCORE.INTER.POLAR>
0

>  <SCORE.INTER.ROT>
5

>  <SCORE.INTER.SOLV>
5.32367

>  <SCORE.INTER.VDW>
-8.79157

>  <SCORE.INTER.norm>
-0.00545774

>  <SCORE.INTRA>
-6.47598

>  <SCORE.INTRA.DIHEDRAL>
-11.7009

>  <SCORE.INTRA.DIHEDRAL.0>
12.4853

>  <SCORE.INTRA.POLAR>
0

>  <SCORE.INTRA.POLAR.0>
0

>  <SCORE.INTRA.REPUL>
0

>  <SCORE.INTRA.REPUL.0>
0

>  <SCORE.INTRA.SOLV>
1.76376

>  <SCORE.INTRA.SOLV.lig_0>
-31.1706

>  <SCORE.INTRA.VDW>
-1.5074

>  <SCORE.INTRA.VDW.0>
-1.16895

>  <SCORE.INTRA.norm>
-0.281564

>  <SCORE.RESTR>
0

>  <SCORE.RESTR.CAVITY>
0

>  <SCORE.RESTR.norm>
0

>  <SCORE.SYSTEM>
0

>  <SCORE.SYSTEM.CONST>
0

>  <SCORE.SYSTEM.DIHEDRAL>
0

>  <SCORE.SYSTEM.SOLV>
0

>  <SCORE.SYSTEM.norm>
0

>  <SCORE.heavy>
23

>  <SCORE.norm>
-0.287022

>  <RMSD>
5.622

$$$$
ligand
 OpenBabel11021811513D
libRbt.so/2013.1/901 2013/11/27
 23 24  0  0  0  0  0  0  0  0999 V2000
   -7.3150   -6.5158   -3.2178 C   0  0  0  0  0  0  0  0  0  0  0  0
   -6.3848   -6.5832   -4.3159 O   0  0  0  0  0  0  0  0  0  0  0  0
   -6.7022   -7.2038   -2.0064 C   0  0  2  0  0  0  0  0  0  0  0  0
   -6.3157   -8.6614   -2.2052 C   0  0  1  0  0  0  0  0  0  0  0  0
   -5.0665   -8.7307   -2.8958 O   0  0  0  0  0  0  0  0  0  0  0  0
   -6.2580   -9.1693   -0.7684 C   0  0  2  0  0  0  0  0  0  0  0  0
   -6.3865  -10.5765   -0.5326 O   0  0  0  0  0  0  0  0  0  0  0  0
   -7.4252   -8.4288   -0.1396 C   0  0  2  0  0  0  0  0  0  0  0  0
   -7.6031   -7.2120   -0.8954 O   0  0  0  0  0  0  0  0  0  0  0  0
   -7.0694   -8.1593    1.3336 C   0  0  0  0  0  0  0  0  0  0  0  0
   -5.9277   -7.3020    1.4720 O   0  0  0  0  0  0  0  0  0  0  0  0
   -9.2006   -9.1393   -1.6130 C   0  0  2  0  0  0  0  0  0  0  0  0
   -8.6168   -9.2167   -0.3010 O   0  0  0  0  0  0  0  0  0  0  0  0
  -10.6828   -9.4299   -1.4685 C   0  0  2  0  0  0  0  0  0  0  0  0
  -11.2164   -8.6352   -0.4037 O   0  0  0  0  0  0  0  0  0  0  0  0
  -10.9062  -10.8860   -1.1237 C   0  0  1  0  0  0  0  0  0  0  0  0
  -12.3018  -11.1728   -1.2398 O   0  0  0  0  0  0  0  0  0  0  0  0
  -10.1085  -11.7833   -2.0508 C   0  0  2  0  0  0  0  0  0  0  0  0
  -10.2055  -13.1213   -1.5819 O   0  0  0  0  0  0  0  0  0  0  0  0
   -8.6397  -11.3854   -2.1058 C   0  0  2  0  0  0  0  0  0  0  0  0
   -8.5798  -10.0326   -2.5373 O   0  0  0  0  0  0  0  0  0  0  0  0
   -7.8461  -12.2872   -3.0587 C   0  0  0  0  0  0  0  0  0  0  0  0
   -6.4710  -11.8966   -3.1860 O   0  0  0  0  0  0  0  0  0  0  0  0
  1  2  1  0  0  0  0
  3  1  1  6  0  0  0
  3  9  1  0  0  0  0
  3  4  1  0  0  0  0
  4  5  1  1  0  0  0
  4  6  1  0  0  0  0
  6  7  1  6  0  0  0
  6  8  1  0  0  0  0
  8  9  1  0  0  0  0
  8 10  1  1  0  0  0
  8 13  1  0  0  0  0
 10 11  1  0  0  0  0
 12 13  1  1  0  0  0
 12 14  1  0  0  0  0
 12 21  1  0  0  0  0
 14 15  1  1  0  0  0
 14 16  1  0  0  0  0
 16 17  1  6  0  0  0
 16 18  1  0  0  0  0
 18 19  1  1  0  0  0
 18 20  1  0  0  0  0
 20 21  1  0  0  0  0
 20 22  1  6  0  0  0
 22 23  1  0  0  0  0
M  END
>  <CHROM.1>
-58.23977560,63.27132728,-153.84894904,-78.51688950,177.02563515,-8.12895361
-9.46060066,-1.51801456,-0.58745955,-0.48060042,-2.52827967

>  <Name>
ligand

>  <RI>
0

>  <Rbt.Current_Directory>
/home/itssahil/PROJECTS/Mol_Feturizer/New_Systems/rnas/4TS2

>  <Rbt.Executable>
rbdock ($Id: //depot/dev/client3/rdock/2013.1/src/exe/rbdock.cxx#4 $)

>  <Rbt.Library>
libRbt.so (2013.1, Build901 2013/11/27)

>  <Rbt.Parameter_File>
/export/apps/rDock/src/rDock_2013.1_src/data/scripts/dock_solv.prm

>  <Rbt.Receptor>
prm/pocket_docking_3.prm

>  <SCORE>
-9.42194

>  <SCORE.INTER>
-5.91044

>  <SCORE.INTER.CONST>
1

>  <SCORE.INTER.POLAR>
0

>  <SCORE.INTER.ROT>
5

>  <SCORE.INTER.SOLV>
7.51712

>  <SCORE.INTER.VDW>
-13.3793

>  <SCORE.INTER.norm>
-0.256976

>  <SCORE.INTRA>
-3.51293

>  <SCORE.INTRA.DIHEDRAL>
-7.67754

>  <SCORE.INTRA.DIHEDRAL.0>
12.4853

>  <SCORE.INTRA.POLAR>
0

>  <SCORE.INTRA.POLAR.0>
0

>  <SCORE.INTRA.REPUL>
0

>  <SCORE.INTRA.REPUL.0>
0

>  <SCORE.INTRA.SOLV>
1.64815

>  <SCORE.INTRA.SOLV.lig_0>
-31.1706

>  <SCORE.INTRA.VDW>
-0.49823

>  <SCORE.INTRA.VDW.0>
-1.16895

>  <SCORE.INTRA.norm>
-0.152736

>  <SCORE.RESTR>
0.00142121

>  <SCORE.RESTR.CAVITY>
0.00142121

>  <SCORE.RESTR.norm>
6.17917e-05

>  <SCORE.SYSTEM>
0

>  <SCORE.SYSTEM.CONST>
0

>  <SCORE.SYSTEM.DIHEDRAL>
0

>  <SCORE.SYSTEM.SOLV>
0

>  <SCORE.SYSTEM.norm>
0

>  <SCORE.heavy>
23

>  <SCORE.norm>
-0.40965

>  <RMSD>
5.629

$$$$
ligand
 OpenBabel11021811513D
libRbt.so/2013.1/901 2013/11/27
 23 24  0  0  0  0  0  0  0  0999 V2000
   -7.5137   -6.9348   -3.2773 C   0  0  0  0  0  0  0  0  0  0  0  0
   -7.3882   -8.2998   -3.7207 O   0  0  0  0  0  0  0  0  0  0  0  0
   -6.2316   -6.1856   -3.6107 C   0  0  2  0  0  0  0  0  0  0  0  0
   -5.7741   -6.2793   -5.0583 C   0  0  1  0  0  0  0  0  0  0  0  0
   -6.5326   -5.3672   -5.8551 O   0  0  0  0  0  0  0  0  0  0  0  0
   -4.2963   -5.9210   -4.9440 C   0  0  2  0  0  0  0  0  0  0  0  0
   -3.4065   -6.3390   -5.9860 O   0  0  0  0  0  0  0  0  0  0  0  0
   -3.9215   -6.5992   -3.6381 C   0  0  2  0  0  0  0  0  0  0  0  0
   -5.1252   -6.6711   -2.8449 O   0  0  0  0  0  0  0  0  0  0  0  0
   -2.8254   -5.7511   -2.9680 C   0  0  0  0  0  0  0  0  0  0  0  0
   -2.5807   -6.1475   -1.6113 O   0  0  0  0  0  0  0  0  0  0  0  0
   -3.0049   -8.6573   -2.7712 C   0  0  2  0  0  0  0  0  0  0  0  0
   -3.5057   -7.9469   -3.9169 O   0  0  0  0  0  0  0  0  0  0  0  0
   -2.3480   -9.9284   -3.2765 C   0  0  2  0  0  0  0  0  0  0  0  0
   -1.4645   -9.6044   -4.3557 O   0  0  0  0  0  0  0  0  0  0  0  0
   -3.3907  -10.8926   -3.7980 C   0  0  1  0  0  0  0  0  0  0  0  0
   -2.7660  -12.1572   -4.0306 O   0  0  0  0  0  0  0  0  0  0  0  0
   -4.5244  -11.0441   -2.8017 C   0  0  2  0  0  0  0  0  0  0  0  0
   -5.5581  -11.8114   -3.4035 O   0  0  0  0  0  0  0  0  0  0  0  0
   -5.0939   -9.6975   -2.3762 C   0  0  2  0  0  0  0  0  0  0  0  0
   -4.0285   -8.9407   -1.8176 O   0  0  0  0  0  0  0  0  0  0  0  0
   -6.2270   -9.8610   -1.3562 C   0  0  0  0  0  0  0  0  0  0  0  0
   -6.7300   -8.6076   -0.8707 O   0  0  0  0  0  0  0  0  0  0  0  0
  1  2  1  0  0  0  0
  3  1  1  6  0  0  0
  3  9  1  0  0  0  0
  3  4  1  0  0  0  0
  4  5  1  6  0  0  0
  4  6  1  0  0  0  0
  6  7  1  6  0  0  0
  6  8  1  0  0  0  0
  8  9  1  0  0  0  0
  8 10  1  1  0  0  0
  8 13  1  0  0  0  0
 10 11  1  0  0  0  0
 12 13  1  6  0  0  0
 12 14  1  0  0  0  0
 12 21  1  0  0  0  0
 14 15  1  6  0  0  0
 14 16  1  0  0  0  0
 16 17  1  1  0  0  0
 16 18  1  0  0  0  0
 18 19  1  6  0  0  0
 18 20  1  0  0  0  0
 20 21  1  0  0  0  0
 20 22  1  1  0  0  0
 22 23  1  0  0  0  0
M  END
>  <CHROM.1>
52.60613719,168.48248455,-168.31070188,174.48091959,176.32739616,-4.53602812
-8.25441779,-3.40395939,1.90797485,0.25800787,-0.32555730

>  <Name>
ligand

>  <RI>
0

>  <Rbt.Current_Directory>
/home/itssahil/PROJECTS/Mol_Feturizer/New_Systems/rnas/4TS2

>  <Rbt.Executable>
rbdock ($Id: //depot/dev/client3/rdock/2013.1/src/exe/rbdock.cxx#4 $)

>  <Rbt.Library>
libRbt.so (2013.1, Build901 2013/11/27)

>  <Rbt.Parameter_File>
/export/apps/rDock/src/rDock_2013.1_src/data/scripts/dock_solv.prm

>  <Rbt.Receptor>
prm/pocket_docking_6.prm

>  <SCORE>
-9.71642

>  <SCORE.INTER>
-3.46678

>  <SCORE.INTER.CONST>
1

>  <SCORE.INTER.POLAR>
0

>  <SCORE.INTER.ROT>
5

>  <SCORE.INTER.SOLV>
6.1605

>  <SCORE.INTER.VDW>
-11.298

>  <SCORE.INTER.norm>
-0.150729

>  <SCORE.INTRA>
-6.24965

>  <SCORE.INTRA.DIHEDRAL>
-10.9239

>  <SCORE.INTRA.DIHEDRAL.0>
12.4853

>  <SCORE.INTRA.POLAR>
0

>  <SCORE.INTRA.POLAR.0>
0

>  <SCORE.INTRA.REPUL>
0

>  <SCORE.INTRA.REPUL.0>
0

>  <SCORE.INTRA.SOLV>
1.73648

>  <SCORE.INTRA.SOLV.lig_0>
-31.1706

>  <SCORE.INTRA.VDW>
-1.65593

>  <SCORE.INTRA.VDW.0>
-1.16895

>  <SCORE.INTRA.norm>
-0.271724

>  <SCORE.RESTR>
0

>  <SCORE.RESTR.CAVITY>
0

>  <SCORE.RESTR.norm>
0

>  <SCORE.SYSTEM>
0

>  <SCORE.SYSTEM.CONST>
0

>  <SCORE.SYSTEM.DIHEDRAL>
0

>  <SCORE.SYSTEM.SOLV>
0

>  <SCORE.SYSTEM.norm>
0

>  <SCORE.heavy>
23

>  <SCORE.norm>
-0.422453

>  <RMSD>
5.641

$$$$
ligand
 OpenBabel11021811513D
libRbt.so/2013.1/901 2013/11/27
 23 24  0  0  0  0  0  0  0  0999 V2000
   -7.4526   -6.7630   -3.2129 C   0  0  0  0  0  0  0  0  0  0  0  0
   -7.6647   -6.4710   -1.8182 O   0  0  0  0  0  0  0  0  0  0  0  0
   -6.1517   -6.1137   -3.6628 C   0  0  2  0  0  0  0  0  0  0  0  0
   -5.7555   -6.3708   -5.1087 C   0  0  1  0  0  0  0  0  0  0  0  0
   -6.5022   -5.5050   -5.9660 O   0  0  0  0  0  0  0  0  0  0  0  0
   -4.2596   -6.0757   -5.0811 C   0  0  2  0  0  0  0  0  0  0  0  0
   -3.4308   -6.6367   -6.1061 O   0  0  0  0  0  0  0  0  0  0  0  0
   -3.8656   -6.6405   -3.7277 C   0  0  2  0  0  0  0  0  0  0  0  0
   -5.0397   -6.5754   -2.8907 O   0  0  0  0  0  0  0  0  0  0  0  0
   -2.7070   -5.7855   -3.1832 C   0  0  0  0  0  0  0  0  0  0  0  0
   -2.4069   -6.0818   -1.8121 O   0  0  0  0  0  0  0  0  0  0  0  0
   -3.2296   -8.7053   -2.6508 C   0  0  2  0  0  0  0  0  0  0  0  0
   -3.5225   -8.0277   -3.8850 O   0  0  0  0  0  0  0  0  0  0  0  0
   -2.5630  -10.0221   -3.0027 C   0  0  2  0  0  0  0  0  0  0  0  0
   -1.5155   -9.7812   -3.9487 O   0  0  0  0  0  0  0  0  0  0  0  0
   -3.5593  -10.9674   -3.6374 C   0  0  1  0  0  0  0  0  0  0  0  0
   -2.9647  -12.2644   -3.7250 O   0  0  0  0  0  0  0  0  0  0  0  0
   -4.8339  -11.0302   -2.8175 C   0  0  2  0  0  0  0  0  0  0  0  0
   -5.8004  -11.7828   -3.5378 O   0  0  0  0  0  0  0  0  0  0  0  0
   -5.3989   -9.6448   -2.5341 C   0  0  2  0  0  0  0  0  0  0  0  0
   -4.3951   -8.9058   -1.8514 O   0  0  0  0  0  0  0  0  0  0  0  0
   -6.6769   -9.7184   -1.6902 C   0  0  0  0  0  0  0  0  0  0  0  0
   -7.7783  -10.3150   -2.3908 O   0  0  0  0  0  0  0  0  0  0  0  0
  1  2  1  0  0  0  0
  3  1  1  1  0  0  0
  3  9  1  0  0  0  0
  3  4  1  0  0  0  0
  4  5  1  6  0  0  0
  4  6  1  0  0  0  0
  6  7  1  6  0  0  0
  6  8  1  0  0  0  0
  8  9  1  0  0  0  0
  8 10  1  1  0  0  0
  8 13  1  0  0  0  0
 10 11  1  0  0  0  0
 12 13  1  6  0  0  0
 12 14  1  0  0  0  0
 12 21  1  0  0  0  0
 14 15  1  6  0  0  0
 14 16  1  0  0  0  0
 16 17  1  1  0  0  0
 16 18  1  0  0  0  0
 18 19  1  6  0  0  0
 18 20  1  0  0  0  0
 20 21  1  0  0  0  0
 20 22  1  1  0  0  0
 22 23  1  0  0  0  0
M  END
>  <CHROM.1>
177.89328335,169.89100726,-166.11940880,-175.42502181,-67.45554872,-4.68034219
-8.27851588,-3.39897338,1.81925909,0.20968775,-0.25254831

>  <Name>
ligand

>  <RI>
0

>  <Rbt.Current_Directory>
/home/itssahil/PROJECTS/Mol_Feturizer/New_Systems/rnas/4TS2

>  <Rbt.Executable>
rbdock ($Id: //depot/dev/client3/rdock/2013.1/src/exe/rbdock.cxx#4 $)

>  <Rbt.Library>
libRbt.so (2013.1, Build901 2013/11/27)

>  <Rbt.Parameter_File>
/export/apps/rDock/src/rDock_2013.1_src/data/scripts/dock_solv.prm

>  <Rbt.Receptor>
prm/pocket_docking_7.prm

>  <SCORE>
-10.2083

>  <SCORE.INTER>
-3.40119

>  <SCORE.INTER.CONST>
1

>  <SCORE.INTER.POLAR>
0

>  <SCORE.INTER.ROT>
5

>  <SCORE.INTER.SOLV>
7.02733

>  <SCORE.INTER.VDW>
-11.5432

>  <SCORE.INTER.norm>
-0.147878

>  <SCORE.INTRA>
-6.8071

>  <SCORE.INTRA.DIHEDRAL>
-10.9801

>  <SCORE.INTRA.DIHEDRAL.0>
12.4853

>  <SCORE.INTRA.POLAR>
0

>  <SCORE.INTRA.POLAR.0>
0

>  <SCORE.INTRA.REPUL>
0

>  <SCORE.INTRA.REPUL.0>
0

>  <SCORE.INTRA.SOLV>
0.677481

>  <SCORE.INTRA.SOLV.lig_0>
-31.1706

>  <SCORE.INTRA.VDW>
-1.65579

>  <SCORE.INTRA.VDW.0>
-1.16895

>  <SCORE.INTRA.norm>
-0.295961

>  <SCORE.RESTR>
0

>  <SCORE.RESTR.CAVITY>
0

>  <SCORE.RESTR.norm>
0

>  <SCORE.SYSTEM>
0

>  <SCORE.SYSTEM.CONST>
0

>  <SCORE.SYSTEM.DIHEDRAL>
0

>  <SCORE.SYSTEM.SOLV>
0

>  <SCORE.SYSTEM.norm>
0

>  <SCORE.heavy>
23

>  <SCORE.norm>
-0.443839

>  <RMSD>
5.650

$$$$
ligand
 OpenBabel11021811513D
libRbt.so/2013.1/901 2013/11/27
 23 24  0  0  0  0  0  0  0  0999 V2000
   -7.3403   -6.2458   -3.1989 C   0  0  0  0  0  0  0  0  0  0  0  0
   -6.3583   -6.0508   -4.2348 O   0  0  0  0  0  0  0  0  0  0  0  0
   -6.6883   -6.9661   -2.0274 C   0  0  2  0  0  0  0  0  0  0  0  0
   -6.1763   -8.3678   -2.3214 C   0  0  1  0  0  0  0  0  0  0  0  0
   -4.9162   -8.2818   -2.9898 O   0  0  0  0  0  0  0  0  0  0  0  0
   -6.0959   -8.9720   -0.9235 C   0  0  2  0  0  0  0  0  0  0  0  0
   -6.1075  -10.3983   -0.7910 O   0  0  0  0  0  0  0  0  0  0  0  0
   -7.3305   -8.3795   -0.2673 C   0  0  2  0  0  0  0  0  0  0  0  0
   -7.6007   -7.1303   -0.9381 O   0  0  0  0  0  0  0  0  0  0  0  0
   -7.0198   -8.1887    1.2282 C   0  0  0  0  0  0  0  0  0  0  0  0
   -5.9024   -7.3162    1.4472 O   0  0  0  0  0  0  0  0  0  0  0  0
   -8.9576   -9.1973   -1.8522 C   0  0  2  0  0  0  0  0  0  0  0  0
   -8.4484   -9.2508   -0.5083 O   0  0  0  0  0  0  0  0  0  0  0  0
  -10.4310   -9.5552   -1.7943 C   0  0  2  0  0  0  0  0  0  0  0  0
  -11.0613   -8.7877   -0.7629 O   0  0  0  0  0  0  0  0  0  0  0  0
  -10.6077  -11.0206   -1.4622 C   0  0  1  0  0  0  0  0  0  0  0  0
  -11.9797  -11.3702   -1.6594 O   0  0  0  0  0  0  0  0  0  0  0  0
   -9.7173  -11.8789   -2.3406 C   0  0  2  0  0  0  0  0  0  0  0  0
   -9.7806  -13.2208   -1.8774 O   0  0  0  0  0  0  0  0  0  0  0  0
   -8.2674  -11.4145   -2.3100 C   0  0  2  0  0  0  0  0  0  0  0  0
   -8.2440  -10.0596   -2.7382 O   0  0  0  0  0  0  0  0  0  0  0  0
   -7.3795  -12.2774   -3.2144 C   0  0  0  0  0  0  0  0  0  0  0  0
   -7.2924  -13.6419   -2.7783 O   0  0  0  0  0  0  0  0  0  0  0  0
  1  2  1  0  0  0  0
  3  1  1  6  0  0  0
  3  9  1  0  0  0  0
  3  4  1  0  0  0  0
  4  5  1  1  0  0  0
  4  6  1  0  0  0  0
  6  7  1  6  0  0  0
  6  8  1  0  0  0  0
  8  9  1  0  0  0  0
  8 10  1  1  0  0  0
  8 13  1  0  0  0  0
 10 11  1  0  0  0  0
 12 13  1  1  0  0  0
 12 14  1  0  0  0  0
 12 21  1  0  0  0  0
 14 15  1  1  0  0  0
 14 16  1  0  0  0  0
 16 17  1  6  0  0  0
 16 18  1  0  0  0  0
 18 19  1  1  0  0  0
 18 20  1  0  0  0  0
 20 21  1  0  0  0  0
 20 22  1  6  0  0  0
 22 23  1  0  0  0  0
M  END
>  <CHROM.1>
-63.23283926,59.58716600,-152.05836230,-74.28805800,-64.39204630,-7.98088690
-9.48642534,-1.66625475,0.89096014,0.36994433,0.38439474

>  <Name>
ligand

>  <RI>
0

>  <Rbt.Current_Directory>
/home/itssahil/PROJECTS/Mol_Feturizer/New_Systems/rnas/4TS2

>  <Rbt.Executable>
rbdock ($Id: //depot/dev/client3/rdock/2013.1/src/exe/rbdock.cxx#4 $)

>  <Rbt.Library>
libRbt.so (2013.1, Build901 2013/11/27)

>  <Rbt.Parameter_File>
/export/apps/rDock/src/rDock_2013.1_src/data/scripts/dock_solv.prm

>  <Rbt.Receptor>
prm/pocket_docking_5.prm

>  <SCORE>
-9.37303

>  <SCORE.INTER>
-6.01902

>  <SCORE.INTER.CONST>
1

>  <SCORE.INTER.POLAR>
0

>  <SCORE.INTER.ROT>
5

>  <SCORE.INTER.SOLV>
7.15845

>  <SCORE.INTER.VDW>
-13.3322

>  <SCORE.INTER.norm>
-0.261697

>  <SCORE.INTRA>
-3.35401

>  <SCORE.INTRA.DIHEDRAL>
-7.97978

>  <SCORE.INTRA.DIHEDRAL.0>
12.4853

>  <SCORE.INTRA.POLAR>
0

>  <SCORE.INTRA.POLAR.0>
0

>  <SCORE.INTRA.REPUL>
0

>  <SCORE.INTRA.REPUL.0>
0

>  <SCORE.INTRA.SOLV>
1.27141

>  <SCORE.INTRA.SOLV.lig_0>
-31.1706

>  <SCORE.INTRA.VDW>
0.000178533

>  <SCORE.INTRA.VDW.0>
-1.16895

>  <SCORE.INTRA.norm>
-0.145826

>  <SCORE.RESTR>
0

>  <SCORE.RESTR.CAVITY>
0

>  <SCORE.RESTR.norm>
0

>  <SCORE.SYSTEM>
0

>  <SCORE.SYSTEM.CONST>
0

>  <SCORE.SYSTEM.DIHEDRAL>
0

>  <SCORE.SYSTEM.SOLV>
0

>  <SCORE.SYSTEM.norm>
0

>  <SCORE.heavy>
23

>  <SCORE.norm>
-0.407523

>  <RMSD>
5.651

$$$$
ligand
 OpenBabel11021811513D
libRbt.so/2013.1/901 2013/11/27
 23 24  0  0  0  0  0  0  0  0999 V2000
   -5.7475   -6.3290   -4.4442 C   0  0  0  0  0  0  0  0  0  0  0  0
   -6.7661   -7.2885   -4.7868 O   0  0  0  0  0  0  0  0  0  0  0  0
   -4.9171   -6.8777   -3.2927 C   0  0  2  0  0  0  0  0  0  0  0  0
   -4.2991   -8.2482   -3.5238 C   0  0  1  0  0  0  0  0  0  0  0  0
   -3.1241   -8.1092   -4.3253 O   0  0  0  0  0  0  0  0  0  0  0  0
   -4.0246   -8.7130   -2.0976 C   0  0  2  0  0  0  0  0  0  0  0  0
   -3.8814  -10.1165   -1.8491 O   0  0  0  0  0  0  0  0  0  0  0  0
   -5.2430   -8.1779   -1.3662 C   0  0  2  0  0  0  0  0  0  0  0  0
   -5.6995   -7.0245   -2.1042 O   0  0  0  0  0  0  0  0  0  0  0  0
   -4.8100   -7.8245    0.0682 C   0  0  0  0  0  0  0  0  0  0  0  0
   -5.9094   -7.3858    0.8784 O   0  0  0  0  0  0  0  0  0  0  0  0
   -6.9583   -9.2469   -2.6863 C   0  0  2  0  0  0  0  0  0  0  0  0
   -6.2867   -9.1653   -1.4173 O   0  0  0  0  0  0  0  0  0  0  0  0
   -8.3614   -8.7024   -2.4934 C   0  0  2  0  0  0  0  0  0  0  0  0
   -8.2891   -7.4488   -1.8054 O   0  0  0  0  0  0  0  0  0  0  0  0
   -9.1872   -9.6513   -1.6528 C   0  0  1  0  0  0  0  0  0  0  0  0
  -10.5530   -9.2322   -1.7015 O   0  0  0  0  0  0  0  0  0  0  0  0
   -9.0570  -11.0724   -2.1671 C   0  0  2  0  0  0  0  0  0  0  0  0
   -9.6984  -11.9477   -1.2495 O   0  0  0  0  0  0  0  0  0  0  0  0
   -7.6015  -11.4944   -2.3158 C   0  0  2  0  0  0  0  0  0  0  0  0
   -6.9796  -10.5766   -3.2050 O   0  0  0  0  0  0  0  0  0  0  0  0
   -7.4809  -12.9255   -2.8526 C   0  0  0  0  0  0  0  0  0  0  0  0
   -8.1233  -13.1040   -4.1235 O   0  0  0  0  0  0  0  0  0  0  0  0
  1  2  1  0  0  0  0
  3  1  1  6  0  0  0
  3  9  1  0  0  0  0
  3  4  1  0  0  0  0
  4  5  1  6  0  0  0
  4  6  1  0  0  0  0
  6  7  1  6  0  0  0
  6  8  1  0  0  0  0
  8  9  1  0  0  0  0
  8 10  1  1  0  0  0
  8 13  1  0  0  0  0
 10 11  1  0  0  0  0
 12 13  1  1  0  0  0
 12 14  1  0  0  0  0
 12 21  1  0  0  0  0
 14 15  1  1  0  0  0
 14 16  1  0  0  0  0
 16 17  1  6  0  0  0
 16 18  1  0  0  0  0
 18 19  1  1  0  0  0
 18 20  1  0  0  0  0
 20 21  1  0  0  0  0
 20 22  1  6  0  0  0
 22 23  1  0  0  0  0
M  END
>  <CHROM.1>
54.99037614,-176.30279306,-110.00197376,-76.42114394,58.21776201,-6.66961795
-9.16676131,-2.37012456,-0.60296153,-0.45449771,-2.65091033

>  <Name>
ligand

>  <RI>
0

>  <Rbt.Current_Directory>
/home/itssahil/PROJECTS/Mol_Feturizer/New_Systems/rnas/4TS2

>  <Rbt.Executable>
rbdock ($Id: //depot/dev/client3/rdock/2013.1/src/exe/rbdock.cxx#4 $)

>  <Rbt.Library>
libRbt.so (2013.1, Build901 2013/11/27)

>  <Rbt.Parameter_File>
/export/apps/rDock/src/rDock_2013.1_src/data/scripts/dock_solv.prm

>  <Rbt.Receptor>
prm/pocket_docking_6.prm

>  <SCORE>
-5.20325

>  <SCORE.INTER>
-3.15449

>  <SCORE.INTER.CONST>
1

>  <SCORE.INTER.POLAR>
0

>  <SCORE.INTER.ROT>
5

>  <SCORE.INTER.SOLV>
7.5711

>  <SCORE.INTER.VDW>
-11.56

>  <SCORE.INTER.norm>
-0.137152

>  <SCORE.INTRA>
-2.04876

>  <SCORE.INTRA.DIHEDRAL>
-4.1263

>  <SCORE.INTRA.DIHEDRAL.0>
12.4853

>  <SCORE.INTRA.POLAR>
0

>  <SCORE.INTRA.POLAR.0>
0

>  <SCORE.INTRA.REPUL>
0

>  <SCORE.INTRA.REPUL.0>
0

>  <SCORE.INTRA.SOLV>
1.78374

>  <SCORE.INTRA.SOLV.lig_0>
-31.1706

>  <SCORE.INTRA.VDW>
-0.877477

>  <SCORE.INTRA.VDW.0>
-1.16895

>  <SCORE.INTRA.norm>
-0.0890765

>  <SCORE.RESTR>
0

>  <SCORE.RESTR.CAVITY>
0

>  <SCORE.RESTR.norm>
0

>  <SCORE.SYSTEM>
0

>  <SCORE.SYSTEM.CONST>
0

>  <SCORE.SYSTEM.DIHEDRAL>
0

>  <SCORE.SYSTEM.SOLV>
0

>  <SCORE.SYSTEM.norm>
0

>  <SCORE.heavy>
23

>  <SCORE.norm>
-0.226228

>  <RMSD>
5.656

$$$$
ligand
 OpenBabel11021811513D
libRbt.so/2013.1/901 2013/11/27
 23 24  0  0  0  0  0  0  0  0999 V2000
   -4.8239   -8.4334    2.3942 C   0  0  0  0  0  0  0  0  0  0  0  0
   -3.9389   -8.0606    1.3203 O   0  0  0  0  0  0  0  0  0  0  0  0
   -6.1095   -8.9952    1.8043 C   0  0  2  0  0  0  0  0  0  0  0  0
   -5.9523  -10.2577    0.9707 C   0  0  1  0  0  0  0  0  0  0  0  0
   -5.8383  -11.3875    1.8382 O   0  0  0  0  0  0  0  0  0  0  0  0
   -7.2288  -10.2436    0.1365 C   0  0  2  0  0  0  0  0  0  0  0  0
   -7.2563  -10.9866   -1.0880 O   0  0  0  0  0  0  0  0  0  0  0  0
   -7.3842   -8.7609   -0.1523 C   0  0  2  0  0  0  0  0  0  0  0  0
   -6.7411   -8.0554    0.9303 O   0  0  0  0  0  0  0  0  0  0  0  0
   -8.8906   -8.4565   -0.2399 C   0  0  0  0  0  0  0  0  0  0  0  0
   -9.5322   -9.1744   -1.3031 O   0  0  0  0  0  0  0  0  0  0  0  0
   -6.5443   -7.0361   -1.6176 C   0  0  2  0  0  0  0  0  0  0  0  0
   -6.6700   -8.4452   -1.3594 O   0  0  0  0  0  0  0  0  0  0  0  0
   -7.0717   -6.7820   -3.0174 C   0  0  2  0  0  0  0  0  0  0  0  0
   -8.3441   -7.4221   -3.1641 O   0  0  0  0  0  0  0  0  0  0  0  0
   -6.1326   -7.3636   -4.0512 C   0  0  1  0  0  0  0  0  0  0  0  0
   -6.5289   -6.8943   -5.3420 O   0  0  0  0  0  0  0  0  0  0  0  0
   -4.7006   -6.9551   -3.7626 C   0  0  2  0  0  0  0  0  0  0  0  0
   -3.8400   -7.6633   -4.6442 O   0  0  0  0  0  0  0  0  0  0  0  0
   -4.2976   -7.2634   -2.3268 C   0  0  2  0  0  0  0  0  0  0  0  0
   -5.2011   -6.5750   -1.4727 O   0  0  0  0  0  0  0  0  0  0  0  0
   -2.8548   -6.8307   -2.0405 C   0  0  0  0  0  0  0  0  0  0  0  0
   -1.8886   -7.5447   -2.8257 O   0  0  0  0  0  0  0  0  0  0  0  0
  1  2  1  0  0  0  0
  3  1  1  6  0  0  0
  3  9  1  0  0  0  0
  3  4  1  0  0  0  0
  4  5  1  1  0  0  0
  4  6  1  0  0  0  0
  6  7  1  6  0  0  0
  6  8  1  0  0  0  0
  8  9  1  0  0  0  0
  8 10  1  6  0  0  0
  8 13  1  0  0  0  0
 10 11  1  0  0  0  0
 12 13  1  6  0  0  0
 12 14  1  0  0  0  0
 12 21  1  0  0  0  0
 14 15  1  1  0  0  0
 14 16  1  0  0  0  0
 16 17  1  6  0  0  0
 16 18  1  0  0  0  0
 18 19  1  6  0  0  0
 18 20  1  0  0  0  0
 20 21  1  0  0  0  0
 20 22  1  1  0  0  0
 22 23  1  0  0  0  0
M  END
>  <CHROM.1>
62.20275536,-61.68968234,-126.36422196,-169.74993824,-63.57899431,-5.98059761
-8.25203075,-1.28186796,-1.89220709,-0.21710178,-1.15020139

>  <Name>
ligand

>  <RI>
0

>  <Rbt.Current_Directory>
/home/itssahil/PROJECTS/Mol_Feturizer/New_Systems/rnas/4TS2

>  <Rbt.Executable>
rbdock ($Id: //depot/dev/client3/rdock/2013.1/src/exe/rbdock.cxx#4 $)

>  <Rbt.Library>
libRbt.so (2013.1, Build901 2013/11/27)

>  <Rbt.Parameter_File>
/export/apps/rDock/src/rDock_2013.1_src/data/scripts/dock_solv.prm

>  <Rbt.Receptor>
prm/pocket_docking_5.prm

>  <SCORE>
-6.71471

>  <SCORE.INTER>
-3.37773

>  <SCORE.INTER.CONST>
1

>  <SCORE.INTER.POLAR>
0

>  <SCORE.INTER.ROT>
5

>  <SCORE.INTER.SOLV>
8.12397

>  <SCORE.INTER.VDW>
-11.8931

>  <SCORE.INTER.norm>
-0.146858

>  <SCORE.INTRA>
-3.33698

>  <SCORE.INTRA.DIHEDRAL>
-5.04418

>  <SCORE.INTRA.DIHEDRAL.0>
12.4853

>  <SCORE.INTRA.POLAR>
0

>  <SCORE.INTRA.POLAR.0>
0

>  <SCORE.INTRA.REPUL>
0

>  <SCORE.INTRA.REPUL.0>
0

>  <SCORE.INTRA.SOLV>
1.21195

>  <SCORE.INTRA.SOLV.lig_0>
-31.1706

>  <SCORE.INTRA.VDW>
-1.42087

>  <SCORE.INTRA.VDW.0>
-1.16895

>  <SCORE.INTRA.norm>
-0.145086

>  <SCORE.RESTR>
0

>  <SCORE.RESTR.CAVITY>
0

>  <SCORE.RESTR.norm>
0

>  <SCORE.SYSTEM>
0

>  <SCORE.SYSTEM.CONST>
0

>  <SCORE.SYSTEM.DIHEDRAL>
0

>  <SCORE.SYSTEM.SOLV>
0

>  <SCORE.SYSTEM.norm>
0

>  <SCORE.heavy>
23

>  <SCORE.norm>
-0.291944

>  <RMSD>
5.679

$$$$
ligand
 OpenBabel11021811513D
libRbt.so/2013.1/901 2013/11/27
 23 24  0  0  0  0  0  0  0  0999 V2000
   -5.4396   -7.6352    1.2661 C   0  0  0  0  0  0  0  0  0  0  0  0
   -5.0474   -8.5064    2.3443 O   0  0  0  0  0  0  0  0  0  0  0  0
   -6.3657   -8.3949    0.3271 C   0  0  2  0  0  0  0  0  0  0  0  0
   -5.7370   -9.5695   -0.4066 C   0  0  1  0  0  0  0  0  0  0  0  0
   -5.6746  -10.6971    0.4691 O   0  0  0  0  0  0  0  0  0  0  0  0
   -6.6902   -9.7510   -1.5830 C   0  0  2  0  0  0  0  0  0  0  0  0
   -6.2164  -10.4317   -2.7511 O   0  0  0  0  0  0  0  0  0  0  0  0
   -7.0277   -8.3100   -1.9229 C   0  0  2  0  0  0  0  0  0  0  0  0
   -6.8757   -7.5479   -0.7066 O   0  0  0  0  0  0  0  0  0  0  0  0
   -8.4705   -8.2811   -2.4586 C   0  0  0  0  0  0  0  0  0  0  0  0
   -9.4197   -8.7657   -1.4985 O   0  0  0  0  0  0  0  0  0  0  0  0
   -6.1138   -6.3943   -3.0730 C   0  0  2  0  0  0  0  0  0  0  0  0
   -6.0617   -7.8165   -2.8664 O   0  0  0  0  0  0  0  0  0  0  0  0
   -5.8160   -6.1369   -4.5384 C   0  0  2  0  0  0  0  0  0  0  0  0
   -6.6245   -7.0033   -5.3420 O   0  0  0  0  0  0  0  0  0  0  0  0
   -4.3643   -6.4337   -4.8441 C   0  0  1  0  0  0  0  0  0  0  0  0
   -4.0666   -5.9489   -6.1556 O   0  0  0  0  0  0  0  0  0  0  0  0
   -3.4572   -5.7733   -3.8235 C   0  0  2  0  0  0  0  0  0  0  0  0
   -2.1265   -6.2217   -4.0414 O   0  0  0  0  0  0  0  0  0  0  0  0
   -3.8637   -6.1113   -2.3954 C   0  0  2  0  0  0  0  0  0  0  0  0
   -5.2097   -5.6885   -2.2233 O   0  0  0  0  0  0  0  0  0  0  0  0
   -2.9517   -5.4249   -1.3717 C   0  0  0  0  0  0  0  0  0  0  0  0
   -3.3201   -5.7074   -0.0137 O   0  0  0  0  0  0  0  0  0  0  0  0
  1  2  1  0  0  0  0
  3  1  1  6  0  0  0
  3  9  1  0  0  0  0
  3  4  1  0  0  0  0
  4  5  1  1  0  0  0
  4  6  1  0  0  0  0
  6  7  1  6  0  0  0
  6  8  1  0  0  0  0
  8  9  1  0  0  0  0
  8 10  1  6  0  0  0
  8 13  1  0  0  0  0
 10 11  1  0  0  0  0
 12 13  1  6  0  0  0
 12 14  1  0  0  0  0
 12 21  1  0  0  0  0
 14 15  1  6  0  0  0
 14 16  1  0  0  0  0
 16 17  1  6  0  0  0
 16 18  1  0  0  0  0
 18 19  1  6  0  0  0
 18 20  1  0  0  0  0
 20 21  1  0  0  0  0
 20 22  1  1  0  0  0
 22 23  1  0  0  0  0
M  END
>  <CHROM.1>
-65.10951192,60.09333446,-143.67713527,-168.60096562,179.14995219,-5.51490034
-7.51243580,-2.05954879,-2.08414970,-0.59602910,-1.27195081

>  <Name>
ligand

>  <RI>
0

>  <Rbt.Current_Directory>
/home/itssahil/PROJECTS/Mol_Feturizer/New_Systems/rnas/4TS2

>  <Rbt.Executable>
rbdock ($Id: //depot/dev/client3/rdock/2013.1/src/exe/rbdock.cxx#4 $)

>  <Rbt.Library>
libRbt.so (2013.1, Build901 2013/11/27)

>  <Rbt.Parameter_File>
/export/apps/rDock/src/rDock_2013.1_src/data/scripts/dock_solv.prm

>  <Rbt.Receptor>
prm/pocket_docking_6.prm

>  <SCORE>
-10.8656

>  <SCORE.INTER>
-5.87876

>  <SCORE.INTER.CONST>
1

>  <SCORE.INTER.POLAR>
0

>  <SCORE.INTER.ROT>
5

>  <SCORE.INTER.SOLV>
10.0365

>  <SCORE.INTER.VDW>
-14.198

>  <SCORE.INTER.norm>
-0.255598

>  <SCORE.INTRA>
-4.98679

>  <SCORE.INTRA.DIHEDRAL>
-7.12064

>  <SCORE.INTRA.DIHEDRAL.0>
12.4853

>  <SCORE.INTRA.POLAR>
0

>  <SCORE.INTRA.POLAR.0>
0

>  <SCORE.INTRA.REPUL>
0

>  <SCORE.INTRA.REPUL.0>
0

>  <SCORE.INTRA.SOLV>
0.249435

>  <SCORE.INTRA.SOLV.lig_0>
-31.1706

>  <SCORE.INTRA.VDW>
-1.55119

>  <SCORE.INTRA.VDW.0>
-1.16895

>  <SCORE.INTRA.norm>
-0.216817

>  <SCORE.RESTR>
0

>  <SCORE.RESTR.CAVITY>
0

>  <SCORE.RESTR.norm>
0

>  <SCORE.SYSTEM>
0

>  <SCORE.SYSTEM.CONST>
0

>  <SCORE.SYSTEM.DIHEDRAL>
0

>  <SCORE.SYSTEM.SOLV>
0

>  <SCORE.SYSTEM.norm>
0

>  <SCORE.heavy>
23

>  <SCORE.norm>
-0.472415

>  <RMSD>
5.767

$$$$
ligand
 OpenBabel11021811513D
libRbt.so/2013.1/901 2013/11/27
 23 24  0  0  0  0  0  0  0  0999 V2000
   -8.0291   -7.4649   -1.4297 C   0  0  0  0  0  0  0  0  0  0  0  0
   -7.4595   -6.3320   -2.1136 O   0  0  0  0  0  0  0  0  0  0  0  0
   -6.9916   -8.5766   -1.3634 C   0  0  2  0  0  0  0  0  0  0  0  0
   -6.5398   -9.1336   -2.7047 C   0  0  1  0  0  0  0  0  0  0  0  0
   -5.5784   -8.2499   -3.2854 O   0  0  0  0  0  0  0  0  0  0  0  0
   -5.9714  -10.4910   -2.3051 C   0  0  2  0  0  0  0  0  0  0  0  0
   -5.8701  -11.5132   -3.3037 O   0  0  0  0  0  0  0  0  0  0  0  0
   -6.9453  -10.9187   -1.2214 C   0  0  2  0  0  0  0  0  0  0  0  0
   -7.4821   -9.7104   -0.6424 O   0  0  0  0  0  0  0  0  0  0  0  0
   -6.1655  -11.7648   -0.1987 C   0  0  0  0  0  0  0  0  0  0  0  0
   -5.1235  -11.0191    0.4461 O   0  0  0  0  0  0  0  0  0  0  0  0
   -8.9846  -12.1684   -0.8939 C   0  0  2  0  0  0  0  0  0  0  0  0
   -8.0368  -11.6286   -1.8311 O   0  0  0  0  0  0  0  0  0  0  0  0
   -9.9026  -13.1006   -1.6624 C   0  0  2  0  0  0  0  0  0  0  0  0
   -9.1114  -13.9846   -2.4642 O   0  0  0  0  0  0  0  0  0  0  0  0
  -10.8057  -12.3126   -2.5857 C   0  0  1  0  0  0  0  0  0  0  0  0
  -11.8102  -13.1906   -3.0992 O   0  0  0  0  0  0  0  0  0  0  0  0
  -11.4501  -11.1566   -1.8447 C   0  0  2  0  0  0  0  0  0  0  0  0
  -12.1422  -10.3449   -2.7836 O   0  0  0  0  0  0  0  0  0  0  0  0
  -10.4218  -10.3011   -1.1169 C   0  0  2  0  0  0  0  0  0  0  0  0
   -9.7205  -11.1493   -0.2176 O   0  0  0  0  0  0  0  0  0  0  0  0
  -11.0849   -9.1462   -0.3569 C   0  0  0  0  0  0  0  0  0  0  0  0
  -11.9519   -9.5921    0.6962 O   0  0  0  0  0  0  0  0  0  0  0  0
  1  2  1  0  0  0  0
  3  1  1  6  0  0  0
  3  9  1  0  0  0  0
  3  4  1  0  0  0  0
  4  5  1  1  0  0  0
  4  6  1  0  0  0  0
  6  7  1  6  0  0  0
  6  8  1  0  0  0  0
  8  9  1  0  0  0  0
  8 10  1  1  0  0  0
  8 13  1  0  0  0  0
 10 11  1  0  0  0  0
 12 13  1  6  0  0  0
 12 14  1  0  0  0  0
 12 21  1  0  0  0  0
 14 15  1  6  0  0  0
 14 16  1  0  0  0  0
 16 17  1  1  0  0  0
 16 18  1  0  0  0  0
 18 19  1  6  0  0  0
 18 20  1  0  0  0  0
 20 21  1  0  0  0  0
 20 22  1  1  0  0  0
 22 23  1  0  0  0  0
M  END
>  <CHROM.1>
-62.89977020,62.45878521,-169.12812090,175.91194394,63.96587367,-8.59201388
-10.56830268,-1.58139047,0.46349462,0.07290053,0.12752715

>  <Name>
ligand

>  <RI>
0

>  <Rbt.Current_Directory>
/home/itssahil/PROJECTS/Mol_Feturizer/New_Systems/rnas/4TS2

>  <Rbt.Executable>
rbdock ($Id: //depot/dev/client3/rdock/2013.1/src/exe/rbdock.cxx#4 $)

>  <Rbt.Library>
libRbt.so (2013.1, Build901 2013/11/27)

>  <Rbt.Parameter_File>
/export/apps/rDock/src/rDock_2013.1_src/data/scripts/dock_solv.prm

>  <Rbt.Receptor>
prm/pocket_docking_6.prm

>  <SCORE>
-7.26593

>  <SCORE.INTER>
-0.354772

>  <SCORE.INTER.CONST>
1

>  <SCORE.INTER.POLAR>
0

>  <SCORE.INTER.ROT>
5

>  <SCORE.INTER.SOLV>
5.65331

>  <SCORE.INTER.VDW>
-9.05429

>  <SCORE.INTER.norm>
-0.0154249

>  <SCORE.INTRA>
-6.91116

>  <SCORE.INTRA.DIHEDRAL>
-11.5838

>  <SCORE.INTRA.DIHEDRAL.0>
12.4853

>  <SCORE.INTRA.POLAR>
0

>  <SCORE.INTRA.POLAR.0>
0

>  <SCORE.INTRA.REPUL>
0

>  <SCORE.INTRA.REPUL.0>
0

>  <SCORE.INTRA.SOLV>
0.284322

>  <SCORE.INTRA.SOLV.lig_0>
-31.1706

>  <SCORE.INTRA.VDW>
-1.26142

>  <SCORE.INTRA.VDW.0>
-1.16895

>  <SCORE.INTRA.norm>
-0.300485

>  <SCORE.RESTR>
0

>  <SCORE.RESTR.CAVITY>
0

>  <SCORE.RESTR.norm>
0

>  <SCORE.SYSTEM>
0

>  <SCORE.SYSTEM.CONST>
0

>  <SCORE.SYSTEM.DIHEDRAL>
0

>  <SCORE.SYSTEM.SOLV>
0

>  <SCORE.SYSTEM.norm>
0

>  <SCORE.heavy>
23

>  <SCORE.norm>
-0.31591

>  <RMSD>
5.782

$$$$
ligand
 OpenBabel11021811513D
libRbt.so/2013.1/901 2013/11/27
 23 24  0  0  0  0  0  0  0  0999 V2000
   -4.0114   -7.8979   -4.0099 C   0  0  0  0  0  0  0  0  0  0  0  0
   -3.2765   -8.5085   -5.0882 O   0  0  0  0  0  0  0  0  0  0  0  0
   -3.3584   -8.2767   -2.6883 C   0  0  2  0  0  0  0  0  0  0  0  0
   -3.3976   -9.7561   -2.3371 C   0  0  1  0  0  0  0  0  0  0  0  0
   -2.3719  -10.4418   -3.0581 O   0  0  0  0  0  0  0  0  0  0  0  0
   -3.1796   -9.7260   -0.8281 C   0  0  2  0  0  0  0  0  0  0  0  0
   -3.6058  -10.8513   -0.0508 O   0  0  0  0  0  0  0  0  0  0  0  0
   -3.9720   -8.4922   -0.4333 C   0  0  2  0  0  0  0  0  0  0  0  0
   -3.9887   -7.6212   -1.5842 O   0  0  0  0  0  0  0  0  0  0  0  0
   -3.2697   -7.8527    0.7781 C   0  0  0  0  0  0  0  0  0  0  0  0
   -3.8542   -6.5960    1.1479 O   0  0  0  0  0  0  0  0  0  0  0  0
   -6.1925   -7.7862    0.1982 C   0  0  2  0  0  0  0  0  0  0  0  0
   -5.3302   -8.8788   -0.1634 O   0  0  0  0  0  0  0  0  0  0  0  0
   -7.4171   -8.3777    0.8712 C   0  0  2  0  0  0  0  0  0  0  0  0
   -6.9986   -9.3150    1.8695 O   0  0  0  0  0  0  0  0  0  0  0  0
   -8.2708   -9.1160   -0.1362 C   0  0  1  0  0  0  0  0  0  0  0  0
   -9.5208   -9.4406    0.4768 O   0  0  0  0  0  0  0  0  0  0  0  0
   -8.4986   -8.2640   -1.3703 C   0  0  2  0  0  0  0  0  0  0  0  0
   -9.1477   -9.0563   -2.3554 O   0  0  0  0  0  0  0  0  0  0  0  0
   -7.1928   -7.7332   -1.9463 C   0  0  2  0  0  0  0  0  0  0  0  0
   -6.5501   -6.9817   -0.9255 O   0  0  0  0  0  0  0  0  0  0  0  0
   -7.4353   -6.8592   -3.1826 C   0  0  0  0  0  0  0  0  0  0  0  0
   -6.2547   -6.1741   -3.6258 O   0  0  0  0  0  0  0  0  0  0  0  0
  1  2  1  0  0  0  0
  3  1  1  6  0  0  0
  3  9  1  0  0  0  0
  3  4  1  0  0  0  0
  4  5  1  6  0  0  0
  4  6  1  0  0  0  0
  6  7  1  1  0  0  0
  6  8  1  0  0  0  0
  8  9  1  0  0  0  0
  8 10  1  1  0  0  0
  8 13  1  0  0  0  0
 10 11  1  0  0  0  0
 12 13  1  6  0  0  0
 12 14  1  0  0  0  0
 12 21  1  0  0  0  0
 14 15  1  1  0  0  0
 14 16  1  0  0  0  0
 16 17  1  1  0  0  0
 16 18  1  0  0  0  0
 18 19  1  6  0  0  0
 18 20  1  0  0  0  0
 20 21  1  0  0  0  0
 20 22  1  6  0  0  0
 22 23  1  0  0  0  0
M  END
>  <CHROM.1>
-64.53619042,173.76254246,-162.00744338,-178.85207455,170.79962348,-5.52596970
-8.43627177,-1.24498466,0.41653278,0.16707817,-1.34270675

>  <Name>
ligand

>  <RI>
0

>  <Rbt.Current_Directory>
/home/itssahil/PROJECTS/Mol_Feturizer/New_Systems/rnas/4TS2

>  <Rbt.Executable>
rbdock ($Id: //depot/dev/client3/rdock/2013.1/src/exe/rbdock.cxx#4 $)

>  <Rbt.Library>
libRbt.so (2013.1, Build901 2013/11/27)

>  <Rbt.Parameter_File>
/export/apps/rDock/src/rDock_2013.1_src/data/scripts/dock_solv.prm

>  <Rbt.Receptor>
prm/pocket_docking_8.prm

>  <SCORE>
-7.90255

>  <SCORE.INTER>
-1.76361

>  <SCORE.INTER.CONST>
1

>  <SCORE.INTER.POLAR>
0

>  <SCORE.INTER.ROT>
5

>  <SCORE.INTER.SOLV>
7.42433

>  <SCORE.INTER.VDW>
-10.5839

>  <SCORE.INTER.norm>
-0.0766787

>  <SCORE.INTRA>
-6.13894

>  <SCORE.INTRA.DIHEDRAL>
-10.4842

>  <SCORE.INTRA.DIHEDRAL.0>
12.4853

>  <SCORE.INTRA.POLAR>
0

>  <SCORE.INTRA.POLAR.0>
0

>  <SCORE.INTRA.REPUL>
0

>  <SCORE.INTRA.REPUL.0>
0

>  <SCORE.INTRA.SOLV>
0.713397

>  <SCORE.INTRA.SOLV.lig_0>
-31.1706

>  <SCORE.INTRA.VDW>
-1.25355

>  <SCORE.INTRA.VDW.0>
-1.16895

>  <SCORE.INTRA.norm>
-0.26691

>  <SCORE.RESTR>
0

>  <SCORE.RESTR.CAVITY>
0

>  <SCORE.RESTR.norm>
0

>  <SCORE.SYSTEM>
0

>  <SCORE.SYSTEM.CONST>
0

>  <SCORE.SYSTEM.DIHEDRAL>
0

>  <SCORE.SYSTEM.SOLV>
0

>  <SCORE.SYSTEM.norm>
0

>  <SCORE.heavy>
23

>  <SCORE.norm>
-0.343589

>  <RMSD>
5.806

$$$$
ligand
 OpenBabel11021811513D
libRbt.so/2013.1/901 2013/11/27
 23 24  0  0  0  0  0  0  0  0999 V2000
   -5.3921   -7.6071    1.2454 C   0  0  0  0  0  0  0  0  0  0  0  0
   -4.9641   -8.4909    2.2995 O   0  0  0  0  0  0  0  0  0  0  0  0
   -6.3164   -8.3679    0.3055 C   0  0  2  0  0  0  0  0  0  0  0  0
   -5.6838   -9.5377   -0.4325 C   0  0  1  0  0  0  0  0  0  0  0  0
   -5.6155  -10.6676    0.4398 O   0  0  0  0  0  0  0  0  0  0  0  0
   -6.6379   -9.7198   -1.6081 C   0  0  2  0  0  0  0  0  0  0  0  0
   -6.1629  -10.3951   -2.7789 O   0  0  0  0  0  0  0  0  0  0  0  0
   -6.9819   -8.2792   -1.9433 C   0  0  2  0  0  0  0  0  0  0  0  0
   -6.8314   -7.5200   -0.7250 O   0  0  0  0  0  0  0  0  0  0  0  0
   -8.4256   -8.2548   -2.4769 C   0  0  0  0  0  0  0  0  0  0  0  0
   -9.3766   -8.7025   -1.5008 O   0  0  0  0  0  0  0  0  0  0  0  0
   -6.0896   -6.3588   -3.1025 C   0  0  2  0  0  0  0  0  0  0  0  0
   -6.0193   -7.7789   -2.8867 O   0  0  0  0  0  0  0  0  0  0  0  0
   -5.8050   -6.1080   -4.5716 C   0  0  2  0  0  0  0  0  0  0  0  0
   -6.6089   -6.9892   -5.3637 O   0  0  0  0  0  0  0  0  0  0  0  0
   -4.3521   -6.3899   -4.8857 C   0  0  1  0  0  0  0  0  0  0  0  0
   -4.0692   -5.9106   -6.2024 O   0  0  0  0  0  0  0  0  0  0  0  0
   -3.4457   -5.7120   -3.8759 C   0  0  2  0  0  0  0  0  0  0  0  0
   -2.1113   -6.1463   -4.1002 O   0  0  0  0  0  0  0  0  0  0  0  0
   -3.8383   -6.0450   -2.4427 C   0  0  2  0  0  0  0  0  0  0  0  0
   -5.1878   -5.6368   -2.2640 O   0  0  0  0  0  0  0  0  0  0  0  0
   -2.9272   -5.3411   -1.4301 C   0  0  0  0  0  0  0  0  0  0  0  0
   -3.2629   -5.6438   -0.0680 O   0  0  0  0  0  0  0  0  0  0  0  0
  1  2  1  0  0  0  0
  3  1  1  6  0  0  0
  3  9  1  0  0  0  0
  3  4  1  0  0  0  0
  4  5  1  1  0  0  0
  4  6  1  0  0  0  0
  6  7  1  6  0  0  0
  6  8  1  0  0  0  0
  8  9  1  0  0  0  0
  8 10  1  6  0  0  0
  8 13  1  0  0  0  0
 10 11  1  0  0  0  0
 12 13  1  6  0  0  0
 12 14  1  0  0  0  0
 12 21  1  0  0  0  0
 14 15  1  6  0  0  0
 14 16  1  0  0  0  0
 16 17  1  6  0  0  0
 16 18  1  0  0  0  0
 18 19  1  6  0  0  0
 18 20  1  0  0  0  0
 20 21  1  0  0  0  0
 20 22  1  1  0  0  0
 22 23  1  0  0  0  0
M  END
>  <CHROM.1>
-63.47705104,62.11834224,-143.07547239,-169.39028797,-179.46046975,-5.47830984
-7.47112551,-2.09262820,-2.07501784,-0.60022418,-1.26566254

>  <Name>
ligand

>  <RI>
0

>  <Rbt.Current_Directory>
/home/itssahil/PROJECTS/Mol_Feturizer/New_Systems/rnas/4TS2

>  <Rbt.Executable>
rbdock ($Id: //depot/dev/client3/rdock/2013.1/src/exe/rbdock.cxx#4 $)

>  <Rbt.Library>
libRbt.so (2013.1, Build901 2013/11/27)

>  <Rbt.Parameter_File>
/export/apps/rDock/src/rDock_2013.1_src/data/scripts/dock_solv.prm

>  <Rbt.Receptor>
prm/pocket_docking_8.prm

>  <SCORE>
-10.9179

>  <SCORE.INTER>
-5.90922

>  <SCORE.INTER.CONST>
1

>  <SCORE.INTER.POLAR>
0

>  <SCORE.INTER.ROT>
5

>  <SCORE.INTER.SOLV>
10.156

>  <SCORE.INTER.VDW>
-14.2581

>  <SCORE.INTER.norm>
-0.256923

>  <SCORE.INTRA>
-5.00871

>  <SCORE.INTRA.DIHEDRAL>
-7.10835

>  <SCORE.INTRA.DIHEDRAL.0>
12.4853

>  <SCORE.INTRA.POLAR>
0

>  <SCORE.INTRA.POLAR.0>
0

>  <SCORE.INTRA.REPUL>
0

>  <SCORE.INTRA.REPUL.0>
0

>  <SCORE.INTRA.SOLV>
0.218681

>  <SCORE.INTRA.SOLV.lig_0>
-31.1706

>  <SCORE.INTRA.VDW>
-1.56387

>  <SCORE.INTRA.VDW.0>
-1.16895

>  <SCORE.INTRA.norm>
-0.21777

>  <SCORE.RESTR>
0

>  <SCORE.RESTR.CAVITY>
0

>  <SCORE.RESTR.norm>
0

>  <SCORE.SYSTEM>
0

>  <SCORE.SYSTEM.CONST>
0

>  <SCORE.SYSTEM.DIHEDRAL>
0

>  <SCORE.SYSTEM.SOLV>
0

>  <SCORE.SYSTEM.norm>
0

>  <SCORE.heavy>
23

>  <SCORE.norm>
-0.474693

>  <RMSD>
5.819

$$$$
ligand
 OpenBabel11021811513D
libRbt.so/2013.1/901 2013/11/27
 23 24  0  0  0  0  0  0  0  0999 V2000
   -3.3863   -8.8686   -1.7163 C   0  0  0  0  0  0  0  0  0  0  0  0
   -4.4783   -9.2880   -2.5572 O   0  0  0  0  0  0  0  0  0  0  0  0
   -3.6810   -9.2781   -0.2804 C   0  0  2  0  0  0  0  0  0  0  0  0
   -4.0176  -10.7468   -0.0727 C   0  0  1  0  0  0  0  0  0  0  0  0
   -2.8110  -11.5124   -0.0597 O   0  0  0  0  0  0  0  0  0  0  0  0
   -4.7454  -10.7152    1.2670 C   0  0  2  0  0  0  0  0  0  0  0  0
   -5.6235  -11.7982    1.5963 O   0  0  0  0  0  0  0  0  0  0  0  0
   -5.5352   -9.4235    1.1509 C   0  0  2  0  0  0  0  0  0  0  0  0
   -4.8034   -8.5666    0.2489 O   0  0  0  0  0  0  0  0  0  0  0  0
   -5.6592   -8.8221    2.5625 C   0  0  0  0  0  0  0  0  0  0  0  0
   -6.4837   -9.6182    3.4251 O   0  0  0  0  0  0  0  0  0  0  0  0
   -7.7079   -8.5891    0.5096 C   0  0  2  0  0  0  0  0  0  0  0  0
   -6.8058   -9.7086    0.5416 O   0  0  0  0  0  0  0  0  0  0  0  0
   -9.0234   -9.0821   -0.0637 C   0  0  2  0  0  0  0  0  0  0  0  0
   -9.4073  -10.2870    0.6080 O   0  0  0  0  0  0  0  0  0  0  0  0
   -8.8759   -9.3936   -1.5369 C   0  0  1  0  0  0  0  0  0  0  0  0
  -10.1762   -9.6132   -2.0886 O   0  0  0  0  0  0  0  0  0  0  0  0
   -8.1872   -8.2509   -2.2585 C   0  0  2  0  0  0  0  0  0  0  0  0
   -7.9102   -8.6573   -3.5918 O   0  0  0  0  0  0  0  0  0  0  0  0
   -6.8817   -7.8535   -1.5829 C   0  0  2  0  0  0  0  0  0  0  0  0
   -7.1872   -7.4933   -0.2425 O   0  0  0  0  0  0  0  0  0  0  0  0
   -6.2027   -6.6866   -2.3096 C   0  0  0  0  0  0  0  0  0  0  0  0
   -7.0496   -5.5348   -2.4352 O   0  0  0  0  0  0  0  0  0  0  0  0
  1  2  1  0  0  0  0
  3  1  1  6  0  0  0
  3  9  1  0  0  0  0
  3  4  1  0  0  0  0
  4  5  1  1  0  0  0
  4  6  1  0  0  0  0
  6  7  1  6  0  0  0
  6  8  1  0  0  0  0
  8  9  1  0  0  0  0
  8 10  1  1  0  0  0
  8 13  1  0  0  0  0
 10 11  1  0  0  0  0
 12 13  1  6  0  0  0
 12 14  1  0  0  0  0
 12 21  1  0  0  0  0
 14 15  1  1  0  0  0
 14 16  1  0  0  0  0
 16 17  1  6  0  0  0
 16 18  1  0  0  0  0
 18 19  1  6  0  0  0
 18 20  1  0  0  0  0
 20 21  1  0  0  0  0
 20 22  1  6  0  0  0
 22 23  1  0  0  0  0
M  END
>  <CHROM.1>
53.30922783,-67.65111283,-175.85892905,173.50590768,55.94874070,-6.38969405
-9.12685286,-0.39462791,-0.75890194,0.09799608,-1.02940191

>  <Name>
ligand

>  <RI>
0

>  <Rbt.Current_Directory>
/home/itssahil/PROJECTS/Mol_Feturizer/New_Systems/rnas/4TS2

>  <Rbt.Executable>
rbdock ($Id: //depot/dev/client3/rdock/2013.1/src/exe/rbdock.cxx#4 $)

>  <Rbt.Library>
libRbt.so (2013.1, Build901 2013/11/27)

>  <Rbt.Parameter_File>
/export/apps/rDock/src/rDock_2013.1_src/data/scripts/dock_solv.prm

>  <Rbt.Receptor>
prm/pocket_docking_5.prm

>  <SCORE>
-7.76108

>  <SCORE.INTER>
-1.10495

>  <SCORE.INTER.CONST>
1

>  <SCORE.INTER.POLAR>
0

>  <SCORE.INTER.ROT>
5

>  <SCORE.INTER.SOLV>
8.24885

>  <SCORE.INTER.VDW>
-10.4196

>  <SCORE.INTER.norm>
-0.0480413

>  <SCORE.INTRA>
-6.65613

>  <SCORE.INTRA.DIHEDRAL>
-11.6639

>  <SCORE.INTRA.DIHEDRAL.0>
12.4853

>  <SCORE.INTRA.POLAR>
0

>  <SCORE.INTRA.POLAR.0>
0

>  <SCORE.INTRA.REPUL>
0

>  <SCORE.INTRA.REPUL.0>
0

>  <SCORE.INTRA.SOLV>
1.34498

>  <SCORE.INTRA.SOLV.lig_0>
-31.1706

>  <SCORE.INTRA.VDW>
-1.49665

>  <SCORE.INTRA.VDW.0>
-1.16895

>  <SCORE.INTRA.norm>
-0.289397

>  <SCORE.RESTR>
0

>  <SCORE.RESTR.CAVITY>
0

>  <SCORE.RESTR.norm>
0

>  <SCORE.SYSTEM>
0

>  <SCORE.SYSTEM.CONST>
0

>  <SCORE.SYSTEM.DIHEDRAL>
0

>  <SCORE.SYSTEM.SOLV>
0

>  <SCORE.SYSTEM.norm>
0

>  <SCORE.heavy>
23

>  <SCORE.norm>
-0.337438

>  <RMSD>
5.827

$$$$
ligand
 OpenBabel11021811513D
libRbt.so/2013.1/901 2013/11/27
 23 24  0  0  0  0  0  0  0  0999 V2000
   -7.1298   -8.8087   -2.3582 C   0  0  0  0  0  0  0  0  0  0  0  0
   -7.2183   -8.4680   -3.7552 O   0  0  0  0  0  0  0  0  0  0  0  0
   -8.5296   -8.8171   -1.7606 C   0  0  2  0  0  0  0  0  0  0  0  0
   -8.6038   -9.0930   -0.2666 C   0  0  1  0  0  0  0  0  0  0  0  0
   -8.2873   -7.8991    0.4522 O   0  0  0  0  0  0  0  0  0  0  0  0
  -10.0497   -9.5494   -0.1034 C   0  0  2  0  0  0  0  0  0  0  0  0
  -10.3953  -10.3368    1.0423 O   0  0  0  0  0  0  0  0  0  0  0  0
  -10.2553  -10.3593   -1.3713 C   0  0  2  0  0  0  0  0  0  0  0  0
   -9.3506   -9.8234   -2.3601 O   0  0  0  0  0  0  0  0  0  0  0  0
  -11.7310  -10.2148   -1.7848 C   0  0  0  0  0  0  0  0  0  0  0  0
  -12.0948   -8.8518   -2.0443 O   0  0  0  0  0  0  0  0  0  0  0  0
   -9.8612  -12.5558   -2.2922 C   0  0  2  0  0  0  0  0  0  0  0  0
   -9.8663  -11.7206   -1.1215 O   0  0  0  0  0  0  0  0  0  0  0  0
   -9.8579  -13.9982   -1.8211 C   0  0  2  0  0  0  0  0  0  0  0  0
  -10.8744  -14.1709   -0.8276 O   0  0  0  0  0  0  0  0  0  0  0  0
   -8.5260  -14.3480   -1.1945 C   0  0  1  0  0  0  0  0  0  0  0  0
   -8.4749  -15.7622   -0.9924 O   0  0  0  0  0  0  0  0  0  0  0  0
   -7.3825  -13.9051   -2.0873 C   0  0  2  0  0  0  0  0  0  0  0  0
   -6.1608  -14.0891   -1.3851 O   0  0  0  0  0  0  0  0  0  0  0  0
   -7.5052  -12.4411   -2.4878 C   0  0  2  0  0  0  0  0  0  0  0  0
   -8.7530  -12.2827   -3.1494 O   0  0  0  0  0  0  0  0  0  0  0  0
   -6.3545  -12.0084   -3.4040 C   0  0  0  0  0  0  0  0  0  0  0  0
   -5.0799  -12.0132   -2.7444 O   0  0  0  0  0  0  0  0  0  0  0  0
  1  2  1  0  0  0  0
  3  1  1  6  0  0  0
  3  9  1  0  0  0  0
  3  4  1  0  0  0  0
  4  5  1  1  0  0  0
  4  6  1  0  0  0  0
  6  7  1  1  0  0  0
  6  8  1  0  0  0  0
  8  9  1  0  0  0  0
  8 10  1  6  0  0  0
  8 13  1  0  0  0  0
 10 11  1  0  0  0  0
 12 13  1  1  0  0  0
 12 14  1  0  0  0  0
 12 21  1  0  0  0  0
 14 15  1  1  0  0  0
 14 16  1  0  0  0  0
 16 17  1  6  0  0  0
 16 18  1  0  0  0  0
 18 19  1  1  0  0  0
 18 20  1  0  0  0  0
 20 21  1  0  0  0  0
 20 22  1  6  0  0  0
 22 23  1  0  0  0  0
M  END
>  <CHROM.1>
-177.07441890,60.23401648,-162.91113391,-172.84986597,-66.62444908,-8.78760511
-11.36713219,-1.64223211,-1.91808519,-0.38361117,3.11861603

>  <Name>
ligand

>  <RI>
0

>  <Rbt.Current_Directory>
/home/itssahil/PROJECTS/Mol_Feturizer/New_Systems/rnas/4TS2

>  <Rbt.Executable>
rbdock ($Id: //depot/dev/client3/rdock/2013.1/src/exe/rbdock.cxx#4 $)

>  <Rbt.Library>
libRbt.so (2013.1, Build901 2013/11/27)

>  <Rbt.Parameter_File>
/export/apps/rDock/src/rDock_2013.1_src/data/scripts/dock_solv.prm

>  <Rbt.Receptor>
prm/pocket_docking_5.prm

>  <SCORE>
-7.92989

>  <SCORE.INTER>
-1.12651

>  <SCORE.INTER.CONST>
1

>  <SCORE.INTER.POLAR>
0

>  <SCORE.INTER.ROT>
5

>  <SCORE.INTER.SOLV>
6.74481

>  <SCORE.INTER.VDW>
-9.93261

>  <SCORE.INTER.norm>
-0.0489786

>  <SCORE.INTRA>
-6.80338

>  <SCORE.INTRA.DIHEDRAL>
-10.738

>  <SCORE.INTRA.DIHEDRAL.0>
12.4853

>  <SCORE.INTRA.POLAR>
0

>  <SCORE.INTRA.POLAR.0>
0

>  <SCORE.INTRA.REPUL>
0

>  <SCORE.INTRA.REPUL.0>
0

>  <SCORE.INTRA.SOLV>
0.33475

>  <SCORE.INTRA.SOLV.lig_0>
-31.1706

>  <SCORE.INTRA.VDW>
-1.60175

>  <SCORE.INTRA.VDW.0>
-1.16895

>  <SCORE.INTRA.norm>
-0.295799

>  <SCORE.RESTR>
0

>  <SCORE.RESTR.CAVITY>
0

>  <SCORE.RESTR.norm>
0

>  <SCORE.SYSTEM>
0

>  <SCORE.SYSTEM.CONST>
0

>  <SCORE.SYSTEM.DIHEDRAL>
0

>  <SCORE.SYSTEM.SOLV>
0

>  <SCORE.SYSTEM.norm>
0

>  <SCORE.heavy>
23

>  <SCORE.norm>
-0.344778

>  <RMSD>
5.829

$$$$
ligand
 OpenBabel11021811513D
libRbt.so/2013.1/901 2013/11/27
 23 24  0  0  0  0  0  0  0  0999 V2000
   -5.2820   -7.5909    1.2135 C   0  0  0  0  0  0  0  0  0  0  0  0
   -4.8098   -8.4774    2.2463 O   0  0  0  0  0  0  0  0  0  0  0  0
   -6.2208   -8.3579    0.2932 C   0  0  2  0  0  0  0  0  0  0  0  0
   -5.5960   -9.5233   -0.4584 C   0  0  1  0  0  0  0  0  0  0  0  0
   -5.5015  -10.6527    0.4119 O   0  0  0  0  0  0  0  0  0  0  0  0
   -6.5736   -9.7116   -1.6136 C   0  0  2  0  0  0  0  0  0  0  0  0
   -6.1191  -10.3835   -2.7943 O   0  0  0  0  0  0  0  0  0  0  0  0
   -6.9345   -8.2734   -1.9409 C   0  0  2  0  0  0  0  0  0  0  0  0
   -6.7634   -7.5134   -0.7258 O   0  0  0  0  0  0  0  0  0  0  0  0
   -8.3894   -8.2588   -2.4437 C   0  0  0  0  0  0  0  0  0  0  0  0
   -9.3112   -8.7567   -1.4639 O   0  0  0  0  0  0  0  0  0  0  0  0
   -6.0562   -6.3419   -3.0923 C   0  0  2  0  0  0  0  0  0  0  0  0
   -5.9956   -7.7664   -2.9044 O   0  0  0  0  0  0  0  0  0  0  0  0
   -5.7621   -6.0637   -4.5546 C   0  0  2  0  0  0  0  0  0  0  0  0
   -6.5670   -6.9241   -5.3683 O   0  0  0  0  0  0  0  0  0  0  0  0
   -4.3092   -6.3482   -4.8664 C   0  0  1  0  0  0  0  0  0  0  0  0
   -4.0163   -5.8447   -6.1719 O   0  0  0  0  0  0  0  0  0  0  0  0
   -3.4043   -5.6961   -3.8386 C   0  0  2  0  0  0  0  0  0  0  0  0
   -2.0714   -6.1340   -4.0643 O   0  0  0  0  0  0  0  0  0  0  0  0
   -3.8067   -6.0550   -2.4144 C   0  0  2  0  0  0  0  0  0  0  0  0
   -5.1547   -5.6422   -2.2348 O   0  0  0  0  0  0  0  0  0  0  0  0
   -2.8969   -5.3769   -1.3832 C   0  0  0  0  0  0  0  0  0  0  0  0
   -3.2453   -5.7002   -0.0290 O   0  0  0  0  0  0  0  0  0  0  0  0
  1  2  1  0  0  0  0
  3  1  1  6  0  0  0
  3  9  1  0  0  0  0
  3  4  1  0  0  0  0
  4  5  1  1  0  0  0
  4  6  1  0  0  0  0
  6  7  1  6  0  0  0
  6  8  1  0  0  0  0
  8  9  1  0  0  0  0
  8 10  1  6  0  0  0
  8 13  1  0  0  0  0
 10 11  1  0  0  0  0
 12 13  1  6  0  0  0
 12 14  1  0  0  0  0
 12 21  1  0  0  0  0
 14 15  1  6  0  0  0
 14 16  1  0  0  0  0
 16 17  1  6  0  0  0
 16 18  1  0  0  0  0
 18 19  1  6  0  0  0
 18 20  1  0  0  0  0
 20 21  1  0  0  0  0
 20 22  1  1  0  0  0
 22 23  1  0  0  0  0
M  END
>  <CHROM.1>
-62.62297840,60.09720809,-145.17069582,-167.83298585,-179.70116200,-5.42072579
-7.46226336,-2.08538261,-2.06210410,-0.59584644,-1.24901549

>  <Name>
ligand

>  <RI>
0

>  <Rbt.Current_Directory>
/home/itssahil/PROJECTS/Mol_Feturizer/New_Systems/rnas/4TS2

>  <Rbt.Executable>
rbdock ($Id: //depot/dev/client3/rdock/2013.1/src/exe/rbdock.cxx#4 $)

>  <Rbt.Library>
libRbt.so (2013.1, Build901 2013/11/27)

>  <Rbt.Parameter_File>
/export/apps/rDock/src/rDock_2013.1_src/data/scripts/dock_solv.prm

>  <Rbt.Receptor>
prm/pocket_docking_8.prm

>  <SCORE>
-10.7999

>  <SCORE.INTER>
-5.76797

>  <SCORE.INTER.CONST>
1

>  <SCORE.INTER.POLAR>
0

>  <SCORE.INTER.ROT>
5

>  <SCORE.INTER.SOLV>
9.84965

>  <SCORE.INTER.VDW>
-14.0619

>  <SCORE.INTER.norm>
-0.250781

>  <SCORE.INTRA>
-5.03198

>  <SCORE.INTRA.DIHEDRAL>
-7.3859

>  <SCORE.INTRA.DIHEDRAL.0>
12.4853

>  <SCORE.INTRA.POLAR>
0

>  <SCORE.INTRA.POLAR.0>
0

>  <SCORE.INTRA.REPUL>
0

>  <SCORE.INTRA.REPUL.0>
0

>  <SCORE.INTRA.SOLV>
0.345852

>  <SCORE.INTRA.SOLV.lig_0>
-31.1706

>  <SCORE.INTRA.VDW>
-1.51195

>  <SCORE.INTRA.VDW.0>
-1.16895

>  <SCORE.INTRA.norm>
-0.218782

>  <SCORE.RESTR>
0

>  <SCORE.RESTR.CAVITY>
0

>  <SCORE.RESTR.norm>
0

>  <SCORE.SYSTEM>
0

>  <SCORE.SYSTEM.CONST>
0

>  <SCORE.SYSTEM.DIHEDRAL>
0

>  <SCORE.SYSTEM.SOLV>
0

>  <SCORE.SYSTEM.norm>
0

>  <SCORE.heavy>
23

>  <SCORE.norm>
-0.469563

>  <RMSD>
5.831

$$$$
ligand
 OpenBabel11021811513D
libRbt.so/2013.1/901 2013/11/27
 23 24  0  0  0  0  0  0  0  0999 V2000
   -8.6400   -8.8934   -1.0212 C   0  0  0  0  0  0  0  0  0  0  0  0
   -8.7480   -7.9364    0.0502 O   0  0  0  0  0  0  0  0  0  0  0  0
   -9.9897   -9.5678   -1.2211 C   0  0  2  0  0  0  0  0  0  0  0  0
  -10.5176  -10.3468   -0.0261 C   0  0  1  0  0  0  0  0  0  0  0  0
  -11.0935   -9.4386    0.9150 O   0  0  0  0  0  0  0  0  0  0  0  0
  -11.5279  -11.2816   -0.6826 C   0  0  2  0  0  0  0  0  0  0  0  0
  -11.9013  -12.4809    0.0063 O   0  0  0  0  0  0  0  0  0  0  0  0
  -10.8198  -11.6275   -1.9806 C   0  0  2  0  0  0  0  0  0  0  0  0
   -9.9488  -10.5186   -2.2890 O   0  0  0  0  0  0  0  0  0  0  0  0
  -11.8975  -11.8461   -3.0578 C   0  0  0  0  0  0  0  0  0  0  0  0
  -12.7708  -10.7164   -3.1941 O   0  0  0  0  0  0  0  0  0  0  0  0
   -9.2989  -13.2384   -2.9396 C   0  0  2  0  0  0  0  0  0  0  0  0
   -9.9907  -12.7820   -1.7644 O   0  0  0  0  0  0  0  0  0  0  0  0
   -8.7164  -14.6031   -2.6225 C   0  0  2  0  0  0  0  0  0  0  0  0
   -9.7311  -15.4217   -2.0306 O   0  0  0  0  0  0  0  0  0  0  0  0
   -7.5794  -14.4769   -1.6324 C   0  0  1  0  0  0  0  0  0  0  0  0
   -6.9046  -15.7345   -1.5508 O   0  0  0  0  0  0  0  0  0  0  0  0
   -6.6123  -13.3911   -2.0644 C   0  0  2  0  0  0  0  0  0  0  0  0
   -5.6664  -13.1854   -1.0241 O   0  0  0  0  0  0  0  0  0  0  0  0
   -7.3230  -12.0753   -2.3518 C   0  0  2  0  0  0  0  0  0  0  0  0
   -8.2885  -12.3240   -3.3647 O   0  0  0  0  0  0  0  0  0  0  0  0
   -6.3393  -10.9898   -2.8045 C   0  0  0  0  0  0  0  0  0  0  0  0
   -6.9900   -9.7769   -3.2107 O   0  0  0  0  0  0  0  0  0  0  0  0
  1  2  1  0  0  0  0
  3  1  1  1  0  0  0
  3  9  1  0  0  0  0
  3  4  1  0  0  0  0
  4  5  1  1  0  0  0
  4  6  1  0  0  0  0
  6  7  1  1  0  0  0
  6  8  1  0  0  0  0
  8  9  1  0  0  0  0
  8 10  1  6  0  0  0
  8 13  1  0  0  0  0
 10 11  1  0  0  0  0
 12 13  1  1  0  0  0
 12 14  1  0  0  0  0
 12 21  1  0  0  0  0
 14 15  1  1  0  0  0
 14 16  1  0  0  0  0
 16 17  1  6  0  0  0
 16 18  1  0  0  0  0
 18 19  1  1  0  0  0
 18 20  1  0  0  0  0
 20 21  1  0  0  0  0
 20 22  1  6  0  0  0
 22 23  1  0  0  0  0
M  END
>  <CHROM.1>
-61.22562955,55.57755081,-168.32056892,177.96212125,174.18307499,-9.18850716
-11.84286034,-1.72311258,-2.23927448,-0.09175123,-2.93828788

>  <Name>
ligand

>  <RI>
0

>  <Rbt.Current_Directory>
/home/itssahil/PROJECTS/Mol_Feturizer/New_Systems/rnas/4TS2

>  <Rbt.Executable>
rbdock ($Id: //depot/dev/client3/rdock/2013.1/src/exe/rbdock.cxx#4 $)

>  <Rbt.Library>
libRbt.so (2013.1, Build901 2013/11/27)

>  <Rbt.Parameter_File>
/export/apps/rDock/src/rDock_2013.1_src/data/scripts/dock_solv.prm

>  <Rbt.Receptor>
prm/pocket_docking_7.prm

>  <SCORE>
-5.46674

>  <SCORE.INTER>
1.1855

>  <SCORE.INTER.CONST>
1

>  <SCORE.INTER.POLAR>
0

>  <SCORE.INTER.ROT>
5

>  <SCORE.INTER.SOLV>
6.01619

>  <SCORE.INTER.VDW>
-8.1484

>  <SCORE.INTER.norm>
0.0515433

>  <SCORE.INTRA>
-6.65224

>  <SCORE.INTRA.DIHEDRAL>
-11.5502

>  <SCORE.INTRA.DIHEDRAL.0>
12.4853

>  <SCORE.INTRA.POLAR>
0

>  <SCORE.INTRA.POLAR.0>
0

>  <SCORE.INTRA.REPUL>
0

>  <SCORE.INTRA.REPUL.0>
0

>  <SCORE.INTRA.SOLV>
0.629277

>  <SCORE.INTRA.SOLV.lig_0>
-31.1706

>  <SCORE.INTRA.VDW>
-1.19178

>  <SCORE.INTRA.VDW.0>
-1.16895

>  <SCORE.INTRA.norm>
-0.289228

>  <SCORE.RESTR>
0

>  <SCORE.RESTR.CAVITY>
0

>  <SCORE.RESTR.norm>
0

>  <SCORE.SYSTEM>
0

>  <SCORE.SYSTEM.CONST>
0

>  <SCORE.SYSTEM.DIHEDRAL>
0

>  <SCORE.SYSTEM.SOLV>
0

>  <SCORE.SYSTEM.norm>
0

>  <SCORE.heavy>
23

>  <SCORE.norm>
-0.237684

>  <RMSD>
5.853

$$$$
ligand
 OpenBabel11021811513D
libRbt.so/2013.1/901 2013/11/27
 23 24  0  0  0  0  0  0  0  0999 V2000
   -4.0024   -8.2474   -0.1778 C   0  0  0  0  0  0  0  0  0  0  0  0
   -4.4371   -6.8856    0.0013 O   0  0  0  0  0  0  0  0  0  0  0  0
   -4.4567   -9.0737    1.0168 C   0  0  2  0  0  0  0  0  0  0  0  0
   -4.3803  -10.5823    0.8386 C   0  0  1  0  0  0  0  0  0  0  0  0
   -3.0321  -11.0149    1.0325 O   0  0  0  0  0  0  0  0  0  0  0  0
   -5.3485  -11.0741    1.9091 C   0  0  2  0  0  0  0  0  0  0  0  0
   -5.9161  -12.3823    1.7721 O   0  0  0  0  0  0  0  0  0  0  0  0
   -6.4419  -10.0232    1.8327 C   0  0  2  0  0  0  0  0  0  0  0  0
   -5.8239   -8.8127    1.3466 O   0  0  0  0  0  0  0  0  0  0  0  0
   -7.0306   -9.8566    3.2453 C   0  0  0  0  0  0  0  0  0  0  0  0
   -6.0162   -9.8168    4.2587 O   0  0  0  0  0  0  0  0  0  0  0  0
   -8.5274   -9.5341    0.7195 C   0  0  2  0  0  0  0  0  0  0  0  0
   -7.4146  -10.4345    0.8571 O   0  0  0  0  0  0  0  0  0  0  0  0
   -9.5533  -10.2125   -0.1693 C   0  0  2  0  0  0  0  0  0  0  0  0
   -9.7714  -11.5480    0.2988 O   0  0  0  0  0  0  0  0  0  0  0  0
   -9.0505  -10.2917   -1.5940 C   0  0  1  0  0  0  0  0  0  0  0  0
  -10.1296  -10.7048   -2.4357 O   0  0  0  0  0  0  0  0  0  0  0  0
   -8.5177   -8.9461   -2.0484 C   0  0  2  0  0  0  0  0  0  0  0  0
   -7.8971   -9.1083   -3.3164 O   0  0  0  0  0  0  0  0  0  0  0  0
   -7.4994   -8.3758   -1.0703 C   0  0  2  0  0  0  0  0  0  0  0  0
   -8.1378   -8.2652    0.1946 O   0  0  0  0  0  0  0  0  0  0  0  0
   -6.9804   -7.0081   -1.5298 C   0  0  0  0  0  0  0  0  0  0  0  0
   -6.0362   -7.0991   -2.6067 O   0  0  0  0  0  0  0  0  0  0  0  0
  1  2  1  0  0  0  0
  3  1  1  6  0  0  0
  3  9  1  0  0  0  0
  3  4  1  0  0  0  0
  4  5  1  1  0  0  0
  4  6  1  0  0  0  0
  6  7  1  6  0  0  0
  6  8  1  0  0  0  0
  8  9  1  0  0  0  0
  8 10  1  1  0  0  0
  8 13  1  0  0  0  0
 10 11  1  0  0  0  0
 12 13  1  6  0  0  0
 12 14  1  0  0  0  0
 12 21  1  0  0  0  0
 14 15  1  1  0  0  0
 14 16  1  0  0  0  0
 16 17  1  6  0  0  0
 16 18  1  0  0  0  0
 18 19  1  6  0  0  0
 18 20  1  0  0  0  0
 20 21  1  0  0  0  0
 20 22  1  6  0  0  0
 22 23  1  0  0  0  0
M  END
>  <CHROM.1>
165.77287589,43.26819501,-171.15726119,178.30997315,-75.82583569,-6.79225155
-9.53329260,0.18203516,-0.68941925,-0.42223652,-0.92424564

>  <Name>
ligand

>  <RI>
0

>  <Rbt.Current_Directory>
/home/itssahil/PROJECTS/Mol_Feturizer/New_Systems/rnas/4TS2

>  <Rbt.Executable>
rbdock ($Id: //depot/dev/client3/rdock/2013.1/src/exe/rbdock.cxx#4 $)

>  <Rbt.Library>
libRbt.so (2013.1, Build901 2013/11/27)

>  <Rbt.Parameter_File>
/export/apps/rDock/src/rDock_2013.1_src/data/scripts/dock_solv.prm

>  <Rbt.Receptor>
prm/pocket_docking_2.prm

>  <SCORE>
-2.91571

>  <SCORE.INTER>
1.6178

>  <SCORE.INTER.CONST>
1

>  <SCORE.INTER.POLAR>
0

>  <SCORE.INTER.ROT>
5

>  <SCORE.INTER.SOLV>
6.18198

>  <SCORE.INTER.VDW>
-7.91546

>  <SCORE.INTER.norm>
0.070339

>  <SCORE.INTRA>
-5.48769

>  <SCORE.INTRA.DIHEDRAL>
-9.637

>  <SCORE.INTRA.DIHEDRAL.0>
12.4853

>  <SCORE.INTRA.POLAR>
0

>  <SCORE.INTRA.POLAR.0>
0

>  <SCORE.INTRA.REPUL>
0

>  <SCORE.INTRA.REPUL.0>
0

>  <SCORE.INTRA.SOLV>
0.99369

>  <SCORE.INTRA.SOLV.lig_0>
-31.1706

>  <SCORE.INTRA.VDW>
-1.16603

>  <SCORE.INTRA.VDW.0>
-1.16895

>  <SCORE.INTRA.norm>
-0.238595

>  <SCORE.RESTR>
0.954181

>  <SCORE.RESTR.CAVITY>
0.954181

>  <SCORE.RESTR.norm>
0.0414861

>  <SCORE.SYSTEM>
0

>  <SCORE.SYSTEM.CONST>
0

>  <SCORE.SYSTEM.DIHEDRAL>
0

>  <SCORE.SYSTEM.SOLV>
0

>  <SCORE.SYSTEM.norm>
0

>  <SCORE.heavy>
23

>  <SCORE.norm>
-0.12677

>  <RMSD>
5.861

$$$$
ligand
 OpenBabel11021811513D
libRbt.so/2013.1/901 2013/11/27
 23 24  0  0  0  0  0  0  0  0999 V2000
   -6.8657   -8.7130    1.1806 C   0  0  0  0  0  0  0  0  0  0  0  0
   -7.2991   -7.6567    0.3021 O   0  0  0  0  0  0  0  0  0  0  0  0
   -5.4020   -9.0217    0.9001 C   0  0  2  0  0  0  0  0  0  0  0  0
   -4.4383   -7.8603    1.0894 C   0  0  1  0  0  0  0  0  0  0  0  0
   -4.1542   -7.7020    2.4810 O   0  0  0  0  0  0  0  0  0  0  0  0
   -3.2400   -8.3086    0.2597 C   0  0  2  0  0  0  0  0  0  0  0  0
   -2.3167   -7.3162   -0.2039 O   0  0  0  0  0  0  0  0  0  0  0  0
   -3.9232   -8.9745   -0.9217 C   0  0  2  0  0  0  0  0  0  0  0  0
   -5.2043   -9.4450   -0.4519 O   0  0  0  0  0  0  0  0  0  0  0  0
   -3.0154  -10.1213   -1.4018 C   0  0  0  0  0  0  0  0  0  0  0  0
   -1.7619   -9.6481   -1.9141 O   0  0  0  0  0  0  0  0  0  0  0  0
   -4.6716   -8.5195   -3.1713 C   0  0  2  0  0  0  0  0  0  0  0  0
   -4.1705   -7.9842   -1.9342 O   0  0  0  0  0  0  0  0  0  0  0  0
   -4.5062   -7.4460   -4.2308 C   0  0  2  0  0  0  0  0  0  0  0  0
   -3.1741   -6.9245   -4.1682 O   0  0  0  0  0  0  0  0  0  0  0  0
   -5.4682   -6.3048   -3.9836 C   0  0  1  0  0  0  0  0  0  0  0  0
   -5.4566   -5.4438   -5.1246 O   0  0  0  0  0  0  0  0  0  0  0  0
   -6.8698   -6.8307   -3.7390 C   0  0  2  0  0  0  0  0  0  0  0  0
   -7.6974   -5.7476   -3.3373 O   0  0  0  0  0  0  0  0  0  0  0  0
   -6.8970   -7.9002   -2.6554 C   0  0  2  0  0  0  0  0  0  0  0  0
   -6.0293   -8.9477   -3.0676 O   0  0  0  0  0  0  0  0  0  0  0  0
   -8.3150   -8.4375   -2.4283 C   0  0  0  0  0  0  0  0  0  0  0  0
   -8.3614   -9.5170   -1.4838 O   0  0  0  0  0  0  0  0  0  0  0  0
  1  2  1  0  0  0  0
  3  1  1  6  0  0  0
  3  9  1  0  0  0  0
  3  4  1  0  0  0  0
  4  5  1  1  0  0  0
  4  6  1  0  0  0  0
  6  7  1  6  0  0  0
  6  8  1  0  0  0  0
  8  9  1  0  0  0  0
  8 10  1  6  0  0  0
  8 13  1  0  0  0  0
 10 11  1  0  0  0  0
 12 13  1  1  0  0  0
 12 14  1  0  0  0  0
 12 21  1  0  0  0  0
 14 15  1  1  0  0  0
 14 16  1  0  0  0  0
 16 17  1  6  0  0  0
 16 18  1  0  0  0  0
 18 19  1  1  0  0  0
 18 20  1  0  0  0  0
 20 21  1  0  0  0  0
 20 22  1  6  0  0  0
 22 23  1  0  0  0  0
M  END
>  <CHROM.1>
59.42466563,-64.74765539,-164.23006189,172.99313588,175.64366199,-5.18353514
-8.02208921,-1.65408166,1.15202853,-0.07636293,1.91037523

>  <Name>
ligand

>  <RI>
0

>  <Rbt.Current_Directory>
/home/itssahil/PROJECTS/Mol_Feturizer/New_Systems/rnas/4TS2

>  <Rbt.Executable>
rbdock ($Id: //depot/dev/client3/rdock/2013.1/src/exe/rbdock.cxx#4 $)

>  <Rbt.Library>
libRbt.so (2013.1, Build901 2013/11/27)

>  <Rbt.Parameter_File>
/export/apps/rDock/src/rDock_2013.1_src/data/scripts/dock_solv.prm

>  <Rbt.Receptor>
prm/pocket_docking_7.prm

>  <SCORE>
-9.52127

>  <SCORE.INTER>
-3.19367

>  <SCORE.INTER.CONST>
1

>  <SCORE.INTER.POLAR>
0

>  <SCORE.INTER.ROT>
5

>  <SCORE.INTER.SOLV>
7.33808

>  <SCORE.INTER.VDW>
-11.5085

>  <SCORE.INTER.norm>
-0.138855

>  <SCORE.INTRA>
-6.3276

>  <SCORE.INTRA.DIHEDRAL>
-10.811

>  <SCORE.INTRA.DIHEDRAL.0>
12.4853

>  <SCORE.INTRA.POLAR>
0

>  <SCORE.INTRA.POLAR.0>
0

>  <SCORE.INTRA.REPUL>
0

>  <SCORE.INTRA.REPUL.0>
0

>  <SCORE.INTRA.SOLV>
1.73295

>  <SCORE.INTRA.SOLV.lig_0>
-31.1706

>  <SCORE.INTRA.VDW>
-1.78856

>  <SCORE.INTRA.VDW.0>
-1.16895

>  <SCORE.INTRA.norm>
-0.275113

>  <SCORE.RESTR>
0

>  <SCORE.RESTR.CAVITY>
0

>  <SCORE.RESTR.norm>
0

>  <SCORE.SYSTEM>
0

>  <SCORE.SYSTEM.CONST>
0

>  <SCORE.SYSTEM.DIHEDRAL>
0

>  <SCORE.SYSTEM.SOLV>
0

>  <SCORE.SYSTEM.norm>
0

>  <SCORE.heavy>
23

>  <SCORE.norm>
-0.413968

>  <RMSD>
5.888

$$$$
ligand
 OpenBabel11021811513D
libRbt.so/2013.1/901 2013/11/27
 23 24  0  0  0  0  0  0  0  0999 V2000
   -5.1163   -7.5631    1.0891 C   0  0  0  0  0  0  0  0  0  0  0  0
   -4.5623   -8.4271    2.1001 O   0  0  0  0  0  0  0  0  0  0  0  0
   -6.1215   -8.3506    0.2610 C   0  0  2  0  0  0  0  0  0  0  0  0
   -5.5528   -9.5277   -0.5164 C   0  0  1  0  0  0  0  0  0  0  0  0
   -5.3836  -10.6402    0.3645 O   0  0  0  0  0  0  0  0  0  0  0  0
   -6.6183   -9.7412   -1.5862 C   0  0  2  0  0  0  0  0  0  0  0  0
   -6.2558  -10.4336   -2.7868 O   0  0  0  0  0  0  0  0  0  0  0  0
   -7.0112   -8.3107   -1.9104 C   0  0  2  0  0  0  0  0  0  0  0  0
   -6.7477   -7.5273   -0.7271 O   0  0  0  0  0  0  0  0  0  0  0  0
   -8.5015   -8.3106   -2.2959 C   0  0  0  0  0  0  0  0  0  0  0  0
   -9.3441   -8.7482   -1.2206 O   0  0  0  0  0  0  0  0  0  0  0  0
   -6.2031   -6.3925   -3.1332 C   0  0  2  0  0  0  0  0  0  0  0  0
   -6.1545   -7.8187   -2.9549 O   0  0  0  0  0  0  0  0  0  0  0  0
   -5.8341   -6.1024   -4.5761 C   0  0  2  0  0  0  0  0  0  0  0  0
   -6.5975   -6.9542   -5.4374 O   0  0  0  0  0  0  0  0  0  0  0  0
   -4.3676   -6.3872   -4.8156 C   0  0  1  0  0  0  0  0  0  0  0  0
   -4.0074   -5.8730   -6.0999 O   0  0  0  0  0  0  0  0  0  0  0  0
   -3.5154   -5.7456   -3.7371 C   0  0  2  0  0  0  0  0  0  0  0  0
   -2.1734   -6.1843   -3.8980 O   0  0  0  0  0  0  0  0  0  0  0  0
   -3.9908   -6.1159   -2.3386 C   0  0  2  0  0  0  0  0  0  0  0  0
   -5.3456   -5.7019   -2.2247 O   0  0  0  0  0  0  0  0  0  0  0  0
   -3.1341   -5.4485   -1.2563 C   0  0  0  0  0  0  0  0  0  0  0  0
   -1.7768   -5.9148   -1.2483 O   0  0  0  0  0  0  0  0  0  0  0  0
  1  2  1  0  0  0  0
  3  1  1  6  0  0  0
  3  9  1  0  0  0  0
  3  4  1  0  0  0  0
  4  5  1  1  0  0  0
  4  6  1  0  0  0  0
  6  7  1  6  0  0  0
  6  8  1  0  0  0  0
  8  9  1  0  0  0  0
  8 10  1  6  0  0  0
  8 13  1  0  0  0  0
 10 11  1  0  0  0  0
 12 13  1  1  0  0  0
 12 14  1  0  0  0  0
 12 21  1  0  0  0  0
 14 15  1  6  0  0  0
 14 16  1  0  0  0  0
 16 17  1  6  0  0  0
 16 18  1  0  0  0  0
 18 19  1  6  0  0  0
 18 20  1  0  0  0  0
 20 21  1  0  0  0  0
 20 22  1  1  0  0  0
 22 23  1  0  0  0  0
M  END
>  <CHROM.1>
-62.81013870,62.17018381,-153.44294961,-165.83289368,-65.49459080,-5.39192145
-7.49845630,-2.12348314,-2.12197338,-0.50581894,-1.18891860

>  <Name>
ligand

>  <RI>
0

>  <Rbt.Current_Directory>
/home/itssahil/PROJECTS/Mol_Feturizer/New_Systems/rnas/4TS2

>  <Rbt.Executable>
rbdock ($Id: //depot/dev/client3/rdock/2013.1/src/exe/rbdock.cxx#4 $)

>  <Rbt.Library>
libRbt.so (2013.1, Build901 2013/11/27)

>  <Rbt.Parameter_File>
/export/apps/rDock/src/rDock_2013.1_src/data/scripts/dock_solv.prm

>  <Rbt.Receptor>
prm/pocket_docking_7.prm

>  <SCORE>
-10.7114

>  <SCORE.INTER>
-5.16078

>  <SCORE.INTER.CONST>
1

>  <SCORE.INTER.POLAR>
0

>  <SCORE.INTER.ROT>
5

>  <SCORE.INTER.SOLV>
9.28051

>  <SCORE.INTER.VDW>
-13.4674

>  <SCORE.INTER.norm>
-0.224382

>  <SCORE.INTRA>
-5.55062

>  <SCORE.INTRA.DIHEDRAL>
-8.56082

>  <SCORE.INTRA.DIHEDRAL.0>
12.4853

>  <SCORE.INTRA.POLAR>
0

>  <SCORE.INTRA.POLAR.0>
0

>  <SCORE.INTRA.REPUL>
0

>  <SCORE.INTRA.REPUL.0>
0

>  <SCORE.INTRA.SOLV>
0.336507

>  <SCORE.INTRA.SOLV.lig_0>
-31.1706

>  <SCORE.INTRA.VDW>
-1.43847

>  <SCORE.INTRA.VDW.0>
-1.16895

>  <SCORE.INTRA.norm>
-0.241331

>  <SCORE.RESTR>
0

>  <SCORE.RESTR.CAVITY>
0

>  <SCORE.RESTR.norm>
0

>  <SCORE.SYSTEM>
0

>  <SCORE.SYSTEM.CONST>
0

>  <SCORE.SYSTEM.DIHEDRAL>
0

>  <SCORE.SYSTEM.SOLV>
0

>  <SCORE.SYSTEM.norm>
0

>  <SCORE.heavy>
23

>  <SCORE.norm>
-0.465713

>  <RMSD>
5.890

$$$$
ligand
 OpenBabel11021811513D
libRbt.so/2013.1/901 2013/11/27
 23 24  0  0  0  0  0  0  0  0999 V2000
   -3.9741   -7.6887   -4.3526 C   0  0  0  0  0  0  0  0  0  0  0  0
   -3.3836   -8.2518   -5.5399 O   0  0  0  0  0  0  0  0  0  0  0  0
   -3.3132   -8.3075   -3.1292 C   0  0  2  0  0  0  0  0  0  0  0  0
   -3.5011   -9.8085   -2.9703 C   0  0  1  0  0  0  0  0  0  0  0  0
   -2.5881  -10.4942   -3.8296 O   0  0  0  0  0  0  0  0  0  0  0  0
   -3.2192  -10.0043   -1.4845 C   0  0  2  0  0  0  0  0  0  0  0  0
   -3.7348  -11.1733   -0.8366 O   0  0  0  0  0  0  0  0  0  0  0  0
   -3.8534   -8.7590   -0.8904 C   0  0  2  0  0  0  0  0  0  0  0  0
   -3.8211   -7.7443   -1.9164 O   0  0  0  0  0  0  0  0  0  0  0  0
   -3.0355   -8.3647    0.3526 C   0  0  0  0  0  0  0  0  0  0  0  0
   -1.6752   -8.0415    0.0317 O   0  0  0  0  0  0  0  0  0  0  0  0
   -5.9546   -7.9167   -0.0518 C   0  0  2  0  0  0  0  0  0  0  0  0
   -5.2337   -9.0349   -0.5978 O   0  0  0  0  0  0  0  0  0  0  0  0
   -7.1527   -8.4705    0.6967 C   0  0  2  0  0  0  0  0  0  0  0  0
   -6.7206   -9.5287    1.5590 O   0  0  0  0  0  0  0  0  0  0  0  0
   -8.1660   -9.0396   -0.2719 C   0  0  1  0  0  0  0  0  0  0  0  0
   -9.3716   -9.3209    0.4429 O   0  0  0  0  0  0  0  0  0  0  0  0
   -8.4406   -8.0587   -1.3958 C   0  0  2  0  0  0  0  0  0  0  0  0
   -9.2536   -8.6997   -2.3693 O   0  0  0  0  0  0  0  0  0  0  0  0
   -7.1576   -7.5807   -2.0624 C   0  0  2  0  0  0  0  0  0  0  0  0
   -6.3509   -6.9831   -1.0563 O   0  0  0  0  0  0  0  0  0  0  0  0
   -7.4451   -6.5767   -3.1849 C   0  0  0  0  0  0  0  0  0  0  0  0
   -6.2535   -6.0116   -3.7510 O   0  0  0  0  0  0  0  0  0  0  0  0
  1  2  1  0  0  0  0
  3  1  1  6  0  0  0
  3  9  1  0  0  0  0
  3  4  1  0  0  0  0
  4  5  1  6  0  0  0
  4  6  1  0  0  0  0
  6  7  1  1  0  0  0
  6  8  1  0  0  0  0
  8  9  1  0  0  0  0
  8 10  1  1  0  0  0
  8 13  1  0  0  0  0
 10 11  1  0  0  0  0
 12 13  1  6  0  0  0
 12 14  1  0  0  0  0
 12 21  1  0  0  0  0
 14 15  1  1  0  0  0
 14 16  1  0  0  0  0
 16 17  1  1  0  0  0
 16 18  1  0  0  0  0
 18 19  1  6  0  0  0
 18 20  1  0  0  0  0
 20 21  1  0  0  0  0
 20 22  1  6  0  0  0
 22 23  1  0  0  0  0
M  END
>  <CHROM.1>
-62.83638405,61.91449056,-157.79081546,-178.81015788,174.53425212,-5.36698879
-8.52047815,-1.60420071,0.34378471,0.23853043,-1.20675968

>  <Name>
ligand

>  <RI>
0

>  <Rbt.Current_Directory>
/home/itssahil/PROJECTS/Mol_Feturizer/New_Systems/rnas/4TS2

>  <Rbt.Executable>
rbdock ($Id: //depot/dev/client3/rdock/2013.1/src/exe/rbdock.cxx#4 $)

>  <Rbt.Library>
libRbt.so (2013.1, Build901 2013/11/27)

>  <Rbt.Parameter_File>
/export/apps/rDock/src/rDock_2013.1_src/data/scripts/dock_solv.prm

>  <Rbt.Receptor>
prm/pocket_docking_7.prm

>  <SCORE>
-7.87349

>  <SCORE.INTER>
-1.73212

>  <SCORE.INTER.CONST>
1

>  <SCORE.INTER.POLAR>
0

>  <SCORE.INTER.ROT>
5

>  <SCORE.INTER.SOLV>
6.86331

>  <SCORE.INTER.VDW>
-10.3759

>  <SCORE.INTER.norm>
-0.0753097

>  <SCORE.INTRA>
-6.14136

>  <SCORE.INTRA.DIHEDRAL>
-10.1039

>  <SCORE.INTRA.DIHEDRAL.0>
12.4853

>  <SCORE.INTRA.POLAR>
0

>  <SCORE.INTRA.POLAR.0>
0

>  <SCORE.INTRA.REPUL>
0

>  <SCORE.INTRA.REPUL.0>
0

>  <SCORE.INTRA.SOLV>
0.489149

>  <SCORE.INTRA.SOLV.lig_0>
-31.1706

>  <SCORE.INTRA.VDW>
-1.334

>  <SCORE.INTRA.VDW.0>
-1.16895

>  <SCORE.INTRA.norm>
-0.267016

>  <SCORE.RESTR>
0

>  <SCORE.RESTR.CAVITY>
0

>  <SCORE.RESTR.norm>
0

>  <SCORE.SYSTEM>
0

>  <SCORE.SYSTEM.CONST>
0

>  <SCORE.SYSTEM.DIHEDRAL>
0

>  <SCORE.SYSTEM.SOLV>
0

>  <SCORE.SYSTEM.norm>
0

>  <SCORE.heavy>
23

>  <SCORE.norm>
-0.342325

>  <RMSD>
5.912

$$$$
ligand
 OpenBabel11021811513D
libRbt.so/2013.1/901 2013/11/27
 23 24  0  0  0  0  0  0  0  0999 V2000
   -4.9562   -7.6598    0.9655 C   0  0  0  0  0  0  0  0  0  0  0  0
   -4.3825   -8.5359    1.9549 O   0  0  0  0  0  0  0  0  0  0  0  0
   -6.0027   -8.4277    0.1708 C   0  0  2  0  0  0  0  0  0  0  0  0
   -5.4774   -9.5960   -0.6492 C   0  0  1  0  0  0  0  0  0  0  0  0
   -5.2771  -10.7234    0.2059 O   0  0  0  0  0  0  0  0  0  0  0  0
   -6.5908   -9.7859   -1.6737 C   0  0  2  0  0  0  0  0  0  0  0  0
   -6.2869  -10.4616   -2.8998 O   0  0  0  0  0  0  0  0  0  0  0  0
   -6.9876   -8.3480   -1.9579 C   0  0  2  0  0  0  0  0  0  0  0  0
   -6.6663   -7.5850   -0.7755 O   0  0  0  0  0  0  0  0  0  0  0  0
   -8.4936   -8.3323   -2.2766 C   0  0  0  0  0  0  0  0  0  0  0  0
   -9.2917   -8.7650   -1.1660 O   0  0  0  0  0  0  0  0  0  0  0  0
   -6.2013   -6.4138   -3.1697 C   0  0  2  0  0  0  0  0  0  0  0  0
   -6.1748   -7.8450   -3.0317 O   0  0  0  0  0  0  0  0  0  0  0  0
   -5.8449   -6.0895   -4.6085 C   0  0  2  0  0  0  0  0  0  0  0  0
   -6.6331   -6.9039   -5.4835 O   0  0  0  0  0  0  0  0  0  0  0  0
   -4.3865   -6.3917   -4.8742 C   0  0  1  0  0  0  0  0  0  0  0  0
   -4.0332   -5.8477   -6.1481 O   0  0  0  0  0  0  0  0  0  0  0  0
   -3.5106   -5.7949   -3.7891 C   0  0  2  0  0  0  0  0  0  0  0  0
   -2.1783   -6.2511   -3.9791 O   0  0  0  0  0  0  0  0  0  0  0  0
   -3.9752   -6.1964   -2.3956 C   0  0  2  0  0  0  0  0  0  0  0  0
   -5.3213   -5.7633   -2.2531 O   0  0  0  0  0  0  0  0  0  0  0  0
   -3.0942   -5.5739   -1.3059 C   0  0  0  0  0  0  0  0  0  0  0  0
   -1.7446   -6.0615   -1.3291 O   0  0  0  0  0  0  0  0  0  0  0  0
  1  2  1  0  0  0  0
  3  1  1  6  0  0  0
  3  9  1  0  0  0  0
  3  4  1  0  0  0  0
  4  5  1  1  0  0  0
  4  6  1  0  0  0  0
  6  7  1  6  0  0  0
  6  8  1  0  0  0  0
  8  9  1  0  0  0  0
  8 10  1  6  0  0  0
  8 13  1  0  0  0  0
 10 11  1  0  0  0  0
 12 13  1  6  0  0  0
 12 14  1  0  0  0  0
 12 21  1  0  0  0  0
 14 15  1  6  0  0  0
 14 16  1  0  0  0  0
 16 17  1  6  0  0  0
 16 18  1  0  0  0  0
 18 19  1  6  0  0  0
 18 20  1  0  0  0  0
 20 21  1  0  0  0  0
 20 22  1  1  0  0  0
 22 23  1  0  0  0  0
M  END
>  <CHROM.1>
-63.92774474,62.92186839,-155.68389877,-164.71541377,-65.42185495,-5.35683588
-7.54787298,-2.18991861,-2.09442063,-0.48297057,-1.15521328

>  <Name>
ligand

>  <RI>
0

>  <Rbt.Current_Directory>
/home/itssahil/PROJECTS/Mol_Feturizer/New_Systems/rnas/4TS2

>  <Rbt.Executable>
rbdock ($Id: //depot/dev/client3/rdock/2013.1/src/exe/rbdock.cxx#4 $)

>  <Rbt.Library>
libRbt.so (2013.1, Build901 2013/11/27)

>  <Rbt.Parameter_File>
/export/apps/rDock/src/rDock_2013.1_src/data/scripts/dock_solv.prm

>  <Rbt.Receptor>
prm/pocket_docking_8.prm

>  <SCORE>
-10.6557

>  <SCORE.INTER>
-4.96568

>  <SCORE.INTER.CONST>
1

>  <SCORE.INTER.POLAR>
0

>  <SCORE.INTER.ROT>
5

>  <SCORE.INTER.SOLV>
8.91658

>  <SCORE.INTER.VDW>
-13.216

>  <SCORE.INTER.norm>
-0.215899

>  <SCORE.INTRA>
-5.68997

>  <SCORE.INTRA.DIHEDRAL>
-8.79111

>  <SCORE.INTRA.DIHEDRAL.0>
12.4853

>  <SCORE.INTRA.POLAR>
0

>  <SCORE.INTRA.POLAR.0>
0

>  <SCORE.INTRA.REPUL>
0

>  <SCORE.INTRA.REPUL.0>
0

>  <SCORE.INTRA.SOLV>
0.382263

>  <SCORE.INTRA.SOLV.lig_0>
-31.1706

>  <SCORE.INTRA.VDW>
-1.48554

>  <SCORE.INTRA.VDW.0>
-1.16895

>  <SCORE.INTRA.norm>
-0.24739

>  <SCORE.RESTR>
0

>  <SCORE.RESTR.CAVITY>
0

>  <SCORE.RESTR.norm>
0

>  <SCORE.SYSTEM>
0

>  <SCORE.SYSTEM.CONST>
0

>  <SCORE.SYSTEM.DIHEDRAL>
0

>  <SCORE.SYSTEM.SOLV>
0

>  <SCORE.SYSTEM.norm>
0

>  <SCORE.heavy>
23

>  <SCORE.norm>
-0.463289

>  <RMSD>
5.914

$$$$
ligand
 OpenBabel11021811513D
libRbt.so/2013.1/901 2013/11/27
 23 24  0  0  0  0  0  0  0  0999 V2000
   -4.9951   -7.6259    0.9500 C   0  0  0  0  0  0  0  0  0  0  0  0
   -4.4190   -8.5109    1.9300 O   0  0  0  0  0  0  0  0  0  0  0  0
   -6.0493   -8.3843    0.1564 C   0  0  2  0  0  0  0  0  0  0  0  0
   -5.5380   -9.5680   -0.6504 C   0  0  1  0  0  0  0  0  0  0  0  0
   -5.3601  -10.6907    0.2157 O   0  0  0  0  0  0  0  0  0  0  0  0
   -6.6488   -9.7495   -1.6793 C   0  0  2  0  0  0  0  0  0  0  0  0
   -6.3490  -10.4407   -2.8977 O   0  0  0  0  0  0  0  0  0  0  0  0
   -7.0215   -8.3081   -1.9783 C   0  0  2  0  0  0  0  0  0  0  0  0
   -6.6945   -7.5398   -0.8010 O   0  0  0  0  0  0  0  0  0  0  0  0
   -8.5253   -8.2717   -2.3054 C   0  0  0  0  0  0  0  0  0  0  0  0
   -9.3330   -8.7382   -1.2156 O   0  0  0  0  0  0  0  0  0  0  0  0
   -6.2056   -6.3980   -3.2086 C   0  0  2  0  0  0  0  0  0  0  0  0
   -6.1950   -7.8275   -3.0520 O   0  0  0  0  0  0  0  0  0  0  0  0
   -5.8394   -6.0962   -4.6498 C   0  0  2  0  0  0  0  0  0  0  0  0
   -6.6325   -6.9134   -5.5177 O   0  0  0  0  0  0  0  0  0  0  0  0
   -4.3832   -6.4174   -4.9050 C   0  0  1  0  0  0  0  0  0  0  0  0
   -4.0185   -5.8938   -6.1842 O   0  0  0  0  0  0  0  0  0  0  0  0
   -3.5057   -5.8161   -3.8238 C   0  0  2  0  0  0  0  0  0  0  0  0
   -2.1775   -6.2890   -4.0019 O   0  0  0  0  0  0  0  0  0  0  0  0
   -3.9806   -6.1945   -2.4273 C   0  0  2  0  0  0  0  0  0  0  0  0
   -5.3226   -5.7452   -2.2965 O   0  0  0  0  0  0  0  0  0  0  0  0
   -3.0977   -5.5675   -1.3418 C   0  0  0  0  0  0  0  0  0  0  0  0
   -1.7475   -6.0531   -1.3670 O   0  0  0  0  0  0  0  0  0  0  0  0
  1  2  1  0  0  0  0
  3  1  1  6  0  0  0
  3  9  1  0  0  0  0
  3  4  1  0  0  0  0
  4  5  1  1  0  0  0
  4  6  1  0  0  0  0
  6  7  1  6  0  0  0
  6  8  1  0  0  0  0
  8  9  1  0  0  0  0
  8 10  1  6  0  0  0
  8 13  1  0  0  0  0
 10 11  1  0  0  0  0
 12 13  1  6  0  0  0
 12 14  1  0  0  0  0
 12 21  1  0  0  0  0
 14 15  1  6  0  0  0
 14 16  1  0  0  0  0
 16 17  1  6  0  0  0
 16 18  1  0  0  0  0
 18 19  1  6  0  0  0
 18 20  1  0  0  0  0
 20 21  1  0  0  0  0
 20 22  1  1  0  0  0
 22 23  1  0  0  0  0
M  END
>  <CHROM.1>
-62.62668503,60.33793215,-155.48763740,-165.12086135,-64.43241904,-5.37985530
-7.53455610,-2.21527998,-2.10921081,-0.47660584,-1.16866761

>  <Name>
ligand

>  <RI>
0

>  <Rbt.Current_Directory>
/home/itssahil/PROJECTS/Mol_Feturizer/New_Systems/rnas/4TS2

>  <Rbt.Executable>
rbdock ($Id: //depot/dev/client3/rdock/2013.1/src/exe/rbdock.cxx#4 $)

>  <Rbt.Library>
libRbt.so (2013.1, Build901 2013/11/27)

>  <Rbt.Parameter_File>
/export/apps/rDock/src/rDock_2013.1_src/data/scripts/dock_solv.prm

>  <Rbt.Receptor>
prm/pocket_docking_6.prm

>  <SCORE>
-10.5628

>  <SCORE.INTER>
-4.86937

>  <SCORE.INTER.CONST>
1

>  <SCORE.INTER.POLAR>
0

>  <SCORE.INTER.ROT>
5

>  <SCORE.INTER.SOLV>
9.078

>  <SCORE.INTER.VDW>
-13.2056

>  <SCORE.INTER.norm>
-0.211712

>  <SCORE.INTRA>
-5.69957

>  <SCORE.INTRA.DIHEDRAL>
-8.91841

>  <SCORE.INTRA.DIHEDRAL.0>
12.4853

>  <SCORE.INTRA.POLAR>
0

>  <SCORE.INTRA.POLAR.0>
0

>  <SCORE.INTRA.REPUL>
0

>  <SCORE.INTRA.REPUL.0>
0

>  <SCORE.INTRA.SOLV>
0.390947

>  <SCORE.INTRA.SOLV.lig_0>
-31.1706

>  <SCORE.INTRA.VDW>
-1.43584

>  <SCORE.INTRA.VDW.0>
-1.16895

>  <SCORE.INTRA.norm>
-0.247807

>  <SCORE.RESTR>
0.0061544

>  <SCORE.RESTR.CAVITY>
0.0061544

>  <SCORE.RESTR.norm>
0.000267582

>  <SCORE.SYSTEM>
0

>  <SCORE.SYSTEM.CONST>
0

>  <SCORE.SYSTEM.DIHEDRAL>
0

>  <SCORE.SYSTEM.SOLV>
0

>  <SCORE.SYSTEM.norm>
0

>  <SCORE.heavy>
23

>  <SCORE.norm>
-0.459252

>  <RMSD>
5.920

$$$$
ligand
 OpenBabel11021811513D
libRbt.so/2013.1/901 2013/11/27
 23 24  0  0  0  0  0  0  0  0999 V2000
   -4.9043   -7.6609    0.9453 C   0  0  0  0  0  0  0  0  0  0  0  0
   -4.3539   -8.5269    1.9566 O   0  0  0  0  0  0  0  0  0  0  0  0
   -5.9711   -8.4203    0.1697 C   0  0  2  0  0  0  0  0  0  0  0  0
   -5.4703   -9.5941   -0.6578 C   0  0  1  0  0  0  0  0  0  0  0  0
   -5.2654  -10.7223    0.1951 O   0  0  0  0  0  0  0  0  0  0  0  0
   -6.6028   -9.7752   -1.6628 C   0  0  2  0  0  0  0  0  0  0  0  0
   -6.3260  -10.4548   -2.8931 O   0  0  0  0  0  0  0  0  0  0  0  0
   -6.9917   -8.3341   -1.9419 C   0  0  2  0  0  0  0  0  0  0  0  0
   -6.6434   -7.5728   -0.7661 O   0  0  0  0  0  0  0  0  0  0  0  0
   -8.5028   -8.3054   -2.2347 C   0  0  0  0  0  0  0  0  0  0  0  0
   -9.2849   -8.7398   -1.1135 O   0  0  0  0  0  0  0  0  0  0  0  0
   -6.2249   -6.4097   -3.1815 C   0  0  2  0  0  0  0  0  0  0  0  0
   -6.1930   -7.8394   -3.0301 O   0  0  0  0  0  0  0  0  0  0  0  0
   -5.8606   -6.0971   -4.6209 C   0  0  2  0  0  0  0  0  0  0  0  0
   -6.6395   -6.9230   -5.4934 O   0  0  0  0  0  0  0  0  0  0  0  0
   -4.3992   -6.3954   -4.8744 C   0  0  1  0  0  0  0  0  0  0  0  0
   -4.0400   -5.8616   -6.1510 O   0  0  0  0  0  0  0  0  0  0  0  0
   -3.5329   -5.7848   -3.7892 C   0  0  2  0  0  0  0  0  0  0  0  0
   -2.1974   -6.2369   -3.9664 O   0  0  0  0  0  0  0  0  0  0  0  0
   -4.0048   -6.1754   -2.3951 C   0  0  2  0  0  0  0  0  0  0  0  0
   -5.3536   -5.7470   -2.2653 O   0  0  0  0  0  0  0  0  0  0  0  0
   -3.1335   -5.5391   -1.3056 C   0  0  0  0  0  0  0  0  0  0  0  0
   -1.7784   -6.0112   -1.3240 O   0  0  0  0  0  0  0  0  0  0  0  0
  1  2  1  0  0  0  0
  3  1  1  6  0  0  0
  3  9  1  0  0  0  0
  3  4  1  0  0  0  0
  4  5  1  1  0  0  0
  4  6  1  0  0  0  0
  6  7  1  6  0  0  0
  6  8  1  0  0  0  0
  8  9  1  0  0  0  0
  8 10  1  6  0  0  0
  8 13  1  0  0  0  0
 10 11  1  0  0  0  0
 12 13  1  6  0  0  0
 12 14  1  0  0  0  0
 12 21  1  0  0  0  0
 14 15  1  6  0  0  0
 14 16  1  0  0  0  0
 16 17  1  6  0  0  0
 16 18  1  0  0  0  0
 18 19  1  6  0  0  0
 18 20  1  0  0  0  0
 20 21  1  0  0  0  0
 20 22  1  1  0  0  0
 22 23  1  0  0  0  0
M  END
>  <CHROM.1>
-65.90188681,62.46167966,-156.74466754,-165.58129770,-64.84279446,-5.36394249
-7.53795736,-2.18671764,-2.08751582,-0.48701998,-1.15519974

>  <Name>
ligand

>  <RI>
0

>  <Rbt.Current_Directory>
/home/itssahil/PROJECTS/Mol_Feturizer/New_Systems/rnas/4TS2

>  <Rbt.Executable>
rbdock ($Id: //depot/dev/client3/rdock/2013.1/src/exe/rbdock.cxx#4 $)

>  <Rbt.Library>
libRbt.so (2013.1, Build901 2013/11/27)

>  <Rbt.Parameter_File>
/export/apps/rDock/src/rDock_2013.1_src/data/scripts/dock_solv.prm

>  <Rbt.Receptor>
prm/pocket_docking_8.prm

>  <SCORE>
-10.6634

>  <SCORE.INTER>
-4.83223

>  <SCORE.INTER.CONST>
1

>  <SCORE.INTER.POLAR>
0

>  <SCORE.INTER.ROT>
5

>  <SCORE.INTER.SOLV>
9.01207

>  <SCORE.INTER.VDW>
-13.1588

>  <SCORE.INTER.norm>
-0.210097

>  <SCORE.INTRA>
-5.83116

>  <SCORE.INTRA.DIHEDRAL>
-9.04684

>  <SCORE.INTRA.DIHEDRAL.0>
12.4853

>  <SCORE.INTRA.POLAR>
0

>  <SCORE.INTRA.POLAR.0>
0

>  <SCORE.INTRA.REPUL>
0

>  <SCORE.INTRA.REPUL.0>
0

>  <SCORE.INTRA.SOLV>
0.388434

>  <SCORE.INTRA.SOLV.lig_0>
-31.1706

>  <SCORE.INTRA.VDW>
-1.50195

>  <SCORE.INTRA.VDW.0>
-1.16895

>  <SCORE.INTRA.norm>
-0.253529

>  <SCORE.RESTR>
0

>  <SCORE.RESTR.CAVITY>
0

>  <SCORE.RESTR.norm>
0

>  <SCORE.SYSTEM>
0

>  <SCORE.SYSTEM.CONST>
0

>  <SCORE.SYSTEM.DIHEDRAL>
0

>  <SCORE.SYSTEM.SOLV>
0

>  <SCORE.SYSTEM.norm>
0

>  <SCORE.heavy>
23

>  <SCORE.norm>
-0.463625

>  <RMSD>
5.921

$$$$
ligand
 OpenBabel11021811513D
libRbt.so/2013.1/901 2013/11/27
 23 24  0  0  0  0  0  0  0  0999 V2000
   -4.8792   -7.6760    0.9393 C   0  0  0  0  0  0  0  0  0  0  0  0
   -4.2868   -8.5659    1.9050 O   0  0  0  0  0  0  0  0  0  0  0  0
   -5.9523   -8.4282    0.1653 C   0  0  2  0  0  0  0  0  0  0  0  0
   -5.4591   -9.5989   -0.6712 C   0  0  1  0  0  0  0  0  0  0  0  0
   -5.2529  -10.7322    0.1745 O   0  0  0  0  0  0  0  0  0  0  0  0
   -6.5975   -9.7714   -1.6712 C   0  0  2  0  0  0  0  0  0  0  0  0
   -6.3292  -10.4451   -2.9066 O   0  0  0  0  0  0  0  0  0  0  0  0
   -6.9839   -8.3277   -1.9404 C   0  0  2  0  0  0  0  0  0  0  0  0
   -6.6271   -7.5738   -0.7624 O   0  0  0  0  0  0  0  0  0  0  0  0
   -8.4963   -8.2932   -2.2249 C   0  0  0  0  0  0  0  0  0  0  0  0
   -9.2749   -8.7040   -1.0924 O   0  0  0  0  0  0  0  0  0  0  0  0
   -6.2354   -6.4006   -3.1870 C   0  0  2  0  0  0  0  0  0  0  0  0
   -6.1896   -7.8294   -3.0302 O   0  0  0  0  0  0  0  0  0  0  0  0
   -5.8619   -6.0892   -4.6243 C   0  0  2  0  0  0  0  0  0  0  0  0
   -6.6243   -6.9266   -5.5005 O   0  0  0  0  0  0  0  0  0  0  0  0
   -4.3952   -6.3726   -4.8639 C   0  0  1  0  0  0  0  0  0  0  0  0
   -4.0306   -5.8396   -6.1393 O   0  0  0  0  0  0  0  0  0  0  0  0
   -3.5451   -5.7489   -3.7735 C   0  0  2  0  0  0  0  0  0  0  0  0
   -2.2033   -6.1872   -3.9374 O   0  0  0  0  0  0  0  0  0  0  0  0
   -4.0250   -6.1397   -2.3821 C   0  0  2  0  0  0  0  0  0  0  0  0
   -5.3794   -5.7253   -2.2657 O   0  0  0  0  0  0  0  0  0  0  0  0
   -3.1702   -5.4902   -1.2874 C   0  0  0  0  0  0  0  0  0  0  0  0
   -1.8215   -5.9802   -1.2639 O   0  0  0  0  0  0  0  0  0  0  0  0
  1  2  1  0  0  0  0
  3  1  1  6  0  0  0
  3  9  1  0  0  0  0
  3  4  1  0  0  0  0
  4  5  1  1  0  0  0
  4  6  1  0  0  0  0
  6  7  1  6  0  0  0
  6  8  1  0  0  0  0
  8  9  1  0  0  0  0
  8 10  1  6  0  0  0
  8 13  1  0  0  0  0
 10 11  1  0  0  0  0
 12 13  1  6  0  0  0
 12 14  1  0  0  0  0
 12 21  1  0  0  0  0
 14 15  1  6  0  0  0
 14 16  1  0  0  0  0
 16 17  1  6  0  0  0
 16 18  1  0  0  0  0
 18 19  1  6  0  0  0
 18 20  1  0  0  0  0
 20 21  1  0  0  0  0
 20 22  1  1  0  0  0
 22 23  1  0  0  0  0
M  END
>  <CHROM.1>
-63.50246682,63.72758046,-157.22342471,-166.53722565,-66.77988236,-5.36138155
-7.52575705,-2.18403130,-2.08134971,-0.49315404,-1.14652354

>  <Name>
ligand

>  <RI>
0

>  <Rbt.Current_Directory>
/home/itssahil/PROJECTS/Mol_Feturizer/New_Systems/rnas/4TS2

>  <Rbt.Executable>
rbdock ($Id: //depot/dev/client3/rdock/2013.1/src/exe/rbdock.cxx#4 $)

>  <Rbt.Library>
libRbt.so (2013.1, Build901 2013/11/27)

>  <Rbt.Parameter_File>
/export/apps/rDock/src/rDock_2013.1_src/data/scripts/dock_solv.prm

>  <Rbt.Receptor>
prm/pocket_docking_8.prm

>  <SCORE>
-10.6916

>  <SCORE.INTER>
-4.74555

>  <SCORE.INTER.CONST>
1

>  <SCORE.INTER.POLAR>
0

>  <SCORE.INTER.ROT>
5

>  <SCORE.INTER.SOLV>
9.07755

>  <SCORE.INTER.VDW>
-13.1229

>  <SCORE.INTER.norm>
-0.206328

>  <SCORE.INTRA>
-5.94604

>  <SCORE.INTRA.DIHEDRAL>
-9.20414

>  <SCORE.INTRA.DIHEDRAL.0>
12.4853

>  <SCORE.INTRA.POLAR>
0

>  <SCORE.INTRA.POLAR.0>
0

>  <SCORE.INTRA.REPUL>
0

>  <SCORE.INTRA.REPUL.0>
0

>  <SCORE.INTRA.SOLV>
0.395966

>  <SCORE.INTRA.SOLV.lig_0>
-31.1706

>  <SCORE.INTRA.VDW>
-1.54195

>  <SCORE.INTRA.VDW.0>
-1.16895

>  <SCORE.INTRA.norm>
-0.258523

>  <SCORE.RESTR>
0

>  <SCORE.RESTR.CAVITY>
0

>  <SCORE.RESTR.norm>
0

>  <SCORE.SYSTEM>
0

>  <SCORE.SYSTEM.CONST>
0

>  <SCORE.SYSTEM.DIHEDRAL>
0

>  <SCORE.SYSTEM.SOLV>
0

>  <SCORE.SYSTEM.norm>
0

>  <SCORE.heavy>
23

>  <SCORE.norm>
-0.464852

>  <RMSD>
5.923

$$$$
ligand
 OpenBabel11021811513D
libRbt.so/2013.1/901 2013/11/27
 23 24  0  0  0  0  0  0  0  0999 V2000
   -4.0578   -6.9147   -3.5597 C   0  0  0  0  0  0  0  0  0  0  0  0
   -3.0199   -7.2021   -4.5166 O   0  0  0  0  0  0  0  0  0  0  0  0
   -3.4836   -7.0339   -2.1552 C   0  0  2  0  0  0  0  0  0  0  0  0
   -2.9481   -8.4071   -1.7795 C   0  0  1  0  0  0  0  0  0  0  0  0
   -1.6461   -8.5786   -2.3430 O   0  0  0  0  0  0  0  0  0  0  0  0
   -2.9599   -8.3422   -0.2559 C   0  0  2  0  0  0  0  0  0  0  0  0
   -2.9754   -9.5694    0.4828 O   0  0  0  0  0  0  0  0  0  0  0  0
   -4.2381   -7.5642    0.0029 C   0  0  2  0  0  0  0  0  0  0  0  0
   -4.4669   -6.7391   -1.1590 O   0  0  0  0  0  0  0  0  0  0  0  0
   -4.0295   -6.7337    1.2821 C   0  0  0  0  0  0  0  0  0  0  0  0
   -2.9944   -5.7518    1.1334 O   0  0  0  0  0  0  0  0  0  0  0  0
   -6.6085   -7.8695    0.3426 C   0  0  2  0  0  0  0  0  0  0  0  0
   -5.3341   -8.4896    0.0992 O   0  0  0  0  0  0  0  0  0  0  0  0
   -7.5550   -8.9518    0.8277 C   0  0  2  0  0  0  0  0  0  0  0  0
   -6.9180   -9.7023    1.8676 O   0  0  0  0  0  0  0  0  0  0  0  0
   -7.8925   -9.9043   -0.2982 C   0  0  1  0  0  0  0  0  0  0  0  0
   -8.9642  -10.7499    0.1261 O   0  0  0  0  0  0  0  0  0  0  0  0
   -8.2922   -9.1382   -1.5448 C   0  0  2  0  0  0  0  0  0  0  0  0
   -8.4256  -10.0580   -2.6197 O   0  0  0  0  0  0  0  0  0  0  0  0
   -7.2598   -8.0845   -1.9227 C   0  0  2  0  0  0  0  0  0  0  0  0
   -7.1199   -7.2069   -0.8136 O   0  0  0  0  0  0  0  0  0  0  0  0
   -7.6817   -7.3042   -3.1733 C   0  0  0  0  0  0  0  0  0  0  0  0
   -6.8368   -6.1757   -3.4421 O   0  0  0  0  0  0  0  0  0  0  0  0
  1  2  1  0  0  0  0
  3  1  1  6  0  0  0
  3  9  1  0  0  0  0
  3  4  1  0  0  0  0
  4  5  1  6  0  0  0
  4  6  1  0  0  0  0
  6  7  1  1  0  0  0
  6  8  1  0  0  0  0
  8  9  1  0  0  0  0
  8 10  1  1  0  0  0
  8 13  1  0  0  0  0
 10 11  1  0  0  0  0
 12 13  1  6  0  0  0
 12 14  1  0  0  0  0
 12 21  1  0  0  0  0
 14 15  1  1  0  0  0
 14 16  1  0  0  0  0
 16 17  1  1  0  0  0
 16 18  1  0  0  0  0
 18 19  1  6  0  0  0
 18 20  1  0  0  0  0
 20 21  1  0  0  0  0
 20 22  1  6  0  0  0
 22 23  1  0  0  0  0
M  END
>  <CHROM.1>
-61.25811599,63.70345249,-163.22689262,-179.89626765,171.23969050,-5.45470874
-8.10822843,-1.02838228,0.27932304,-0.30458571,-1.28652582

>  <Name>
ligand

>  <RI>
0

>  <Rbt.Current_Directory>
/home/itssahil/PROJECTS/Mol_Feturizer/New_Systems/rnas/4TS2

>  <Rbt.Executable>
rbdock ($Id: //depot/dev/client3/rdock/2013.1/src/exe/rbdock.cxx#4 $)

>  <Rbt.Library>
libRbt.so (2013.1, Build901 2013/11/27)

>  <Rbt.Parameter_File>
/export/apps/rDock/src/rDock_2013.1_src/data/scripts/dock_solv.prm

>  <Rbt.Receptor>
prm/pocket_docking_7.prm

>  <SCORE>
-8.59468

>  <SCORE.INTER>
-2.14673

>  <SCORE.INTER.CONST>
1

>  <SCORE.INTER.POLAR>
0

>  <SCORE.INTER.ROT>
5

>  <SCORE.INTER.SOLV>
6.31773

>  <SCORE.INTER.VDW>
-10.4704

>  <SCORE.INTER.norm>
-0.0933361

>  <SCORE.INTRA>
-6.44795

>  <SCORE.INTRA.DIHEDRAL>
-10.7692

>  <SCORE.INTRA.DIHEDRAL.0>
12.4853

>  <SCORE.INTRA.POLAR>
0

>  <SCORE.INTRA.POLAR.0>
0

>  <SCORE.INTRA.REPUL>
0

>  <SCORE.INTRA.REPUL.0>
0

>  <SCORE.INTRA.SOLV>
0.562268

>  <SCORE.INTRA.SOLV.lig_0>
-31.1706

>  <SCORE.INTRA.VDW>
-1.3445

>  <SCORE.INTRA.VDW.0>
-1.16895

>  <SCORE.INTRA.norm>
-0.280346

>  <SCORE.RESTR>
0

>  <SCORE.RESTR.CAVITY>
0

>  <SCORE.RESTR.norm>
0

>  <SCORE.SYSTEM>
0

>  <SCORE.SYSTEM.CONST>
0

>  <SCORE.SYSTEM.DIHEDRAL>
0

>  <SCORE.SYSTEM.SOLV>
0

>  <SCORE.SYSTEM.norm>
0

>  <SCORE.heavy>
23

>  <SCORE.norm>
-0.373682

>  <RMSD>
5.927

$$$$
ligand
 OpenBabel11021811513D
libRbt.so/2013.1/901 2013/11/27
 23 24  0  0  0  0  0  0  0  0999 V2000
   -5.3239   -7.4129    1.3726 C   0  0  0  0  0  0  0  0  0  0  0  0
   -3.9449   -7.0247    1.5246 O   0  0  0  0  0  0  0  0  0  0  0  0
   -5.5755   -8.6755    2.1843 C   0  0  2  0  0  0  0  0  0  0  0  0
   -4.8371   -9.9182    1.7111 C   0  0  1  0  0  0  0  0  0  0  0  0
   -3.4858   -9.8716    2.1737 O   0  0  0  0  0  0  0  0  0  0  0  0
   -5.6677  -11.0338    2.3365 C   0  0  2  0  0  0  0  0  0  0  0  0
   -5.5944  -12.3458    1.7661 O   0  0  0  0  0  0  0  0  0  0  0  0
   -7.0745  -10.4814    2.1891 C   0  0  2  0  0  0  0  0  0  0  0  0
   -6.9579   -9.0429    2.1692 O   0  0  0  0  0  0  0  0  0  0  0  0
   -7.9036  -10.9878    3.3831 C   0  0  0  0  0  0  0  0  0  0  0  0
   -7.4403  -10.4590    4.6335 O   0  0  0  0  0  0  0  0  0  0  0  0
   -8.8894  -10.3272    0.6048 C   0  0  2  0  0  0  0  0  0  0  0  0
   -7.6034  -10.8904    0.9163 O   0  0  0  0  0  0  0  0  0  0  0  0
   -9.4984  -11.1696   -0.5006 C   0  0  2  0  0  0  0  0  0  0  0  0
   -9.3933  -12.5537   -0.1496 O   0  0  0  0  0  0  0  0  0  0  0  0
   -8.7530  -10.9579   -1.8000 C   0  0  1  0  0  0  0  0  0  0  0  0
   -9.4981  -11.5666   -2.8572 O   0  0  0  0  0  0  0  0  0  0  0  0
   -8.5678   -9.4777   -2.0750 C   0  0  2  0  0  0  0  0  0  0  0  0
   -7.7147   -9.3285   -3.2017 O   0  0  0  0  0  0  0  0  0  0  0  0
   -7.9498   -8.7498   -0.8888 C   0  0  2  0  0  0  0  0  0  0  0  0
   -8.8039   -8.9528    0.2288 O   0  0  0  0  0  0  0  0  0  0  0  0
   -7.7832   -7.2519   -1.1705 C   0  0  0  0  0  0  0  0  0  0  0  0
   -6.8543   -6.9801   -2.2302 O   0  0  0  0  0  0  0  0  0  0  0  0
  1  2  1  0  0  0  0
  3  1  1  6  0  0  0
  3  9  1  0  0  0  0
  3  4  1  0  0  0  0
  4  5  1  1  0  0  0
  4  6  1  0  0  0  0
  6  7  1  6  0  0  0
  6  8  1  0  0  0  0
  8  9  1  0  0  0  0
  8 10  1  1  0  0  0
  8 13  1  0  0  0  0
 10 11  1  0  0  0  0
 12 13  1  6  0  0  0
 12 14  1  0  0  0  0
 12 21  1  0  0  0  0
 14 15  1  1  0  0  0
 14 16  1  0  0  0  0
 16 17  1  6  0  0  0
 16 18  1  0  0  0  0
 18 19  1  6  0  0  0
 18 20  1  0  0  0  0
 20 21  1  0  0  0  0
 20 22  1  6  0  0  0
 22 23  1  0  0  0  0
M  END
>  <CHROM.1>
-65.61328108,65.47740116,-162.01279783,-174.64355654,-64.69229114,-7.16268168
-9.79982796,0.52843926,-0.60394765,-0.75800366,-0.90158733

>  <Name>
ligand

>  <RI>
0

>  <Rbt.Current_Directory>
/home/itssahil/PROJECTS/Mol_Feturizer/New_Systems/rnas/4TS2

>  <Rbt.Executable>
rbdock ($Id: //depot/dev/client3/rdock/2013.1/src/exe/rbdock.cxx#4 $)

>  <Rbt.Library>
libRbt.so (2013.1, Build901 2013/11/27)

>  <Rbt.Parameter_File>
/export/apps/rDock/src/rDock_2013.1_src/data/scripts/dock_solv.prm

>  <Rbt.Receptor>
prm/pocket_docking_4.prm

>  <SCORE>
-7.70015

>  <SCORE.INTER>
-1.16745

>  <SCORE.INTER.CONST>
1

>  <SCORE.INTER.POLAR>
0

>  <SCORE.INTER.ROT>
5

>  <SCORE.INTER.SOLV>
6.93484

>  <SCORE.INTER.VDW>
-10.0232

>  <SCORE.INTER.norm>
-0.0507586

>  <SCORE.INTRA>
-6.5327

>  <SCORE.INTRA.DIHEDRAL>
-10.5441

>  <SCORE.INTRA.DIHEDRAL.0>
12.4853

>  <SCORE.INTRA.POLAR>
0

>  <SCORE.INTRA.POLAR.0>
0

>  <SCORE.INTRA.REPUL>
0

>  <SCORE.INTRA.REPUL.0>
0

>  <SCORE.INTRA.SOLV>
0.389407

>  <SCORE.INTRA.SOLV.lig_0>
-31.1706

>  <SCORE.INTRA.VDW>
-1.45536

>  <SCORE.INTRA.VDW.0>
-1.16895

>  <SCORE.INTRA.norm>
-0.284031

>  <SCORE.RESTR>
0

>  <SCORE.RESTR.CAVITY>
0

>  <SCORE.RESTR.norm>
0

>  <SCORE.SYSTEM>
0

>  <SCORE.SYSTEM.CONST>
0

>  <SCORE.SYSTEM.DIHEDRAL>
0

>  <SCORE.SYSTEM.SOLV>
0

>  <SCORE.SYSTEM.norm>
0

>  <SCORE.heavy>
23

>  <SCORE.norm>
-0.334789

>  <RMSD>
5.936

$$$$
ligand
 OpenBabel11021811513D
libRbt.so/2013.1/901 2013/11/27
 23 24  0  0  0  0  0  0  0  0999 V2000
   -5.4309   -7.6380    1.2870 C   0  0  0  0  0  0  0  0  0  0  0  0
   -4.3180   -7.1055    0.5430 O   0  0  0  0  0  0  0  0  0  0  0  0
   -6.3462   -8.3950    0.3354 C   0  0  2  0  0  0  0  0  0  0  0  0
   -5.7069   -9.5626   -0.4005 C   0  0  1  0  0  0  0  0  0  0  0  0
   -5.6477  -10.6955    0.4685 O   0  0  0  0  0  0  0  0  0  0  0  0
   -6.6495   -9.7400   -1.5861 C   0  0  2  0  0  0  0  0  0  0  0  0
   -6.1633  -10.4114   -2.7544 O   0  0  0  0  0  0  0  0  0  0  0  0
   -6.9895   -8.2981   -1.9196 C   0  0  2  0  0  0  0  0  0  0  0  0
   -6.8507   -7.5433   -0.6971 O   0  0  0  0  0  0  0  0  0  0  0  0
   -8.4279   -8.2711   -2.4672 C   0  0  0  0  0  0  0  0  0  0  0  0
   -9.3862   -8.7419   -1.5093 O   0  0  0  0  0  0  0  0  0  0  0  0
   -6.1056   -6.3791   -3.0873 C   0  0  2  0  0  0  0  0  0  0  0  0
   -6.0175   -7.7949   -2.8517 O   0  0  0  0  0  0  0  0  0  0  0  0
   -5.8150   -6.1444   -4.5579 C   0  0  2  0  0  0  0  0  0  0  0  0
   -6.6017   -7.0472   -5.3429 O   0  0  0  0  0  0  0  0  0  0  0  0
   -4.3564   -6.4107   -4.8589 C   0  0  1  0  0  0  0  0  0  0  0  0
   -4.0716   -5.9455   -6.1803 O   0  0  0  0  0  0  0  0  0  0  0  0
   -3.4658   -5.7068   -3.8529 C   0  0  2  0  0  0  0  0  0  0  0  0
   -2.1242   -6.1258   -4.0628 O   0  0  0  0  0  0  0  0  0  0  0  0
   -3.8631   -6.0255   -2.4178 C   0  0  2  0  0  0  0  0  0  0  0  0
   -5.2191   -5.6334   -2.2532 O   0  0  0  0  0  0  0  0  0  0  0  0
   -2.9682   -5.2955   -1.4092 C   0  0  0  0  0  0  0  0  0  0  0  0
   -1.5966   -5.7134   -1.4708 O   0  0  0  0  0  0  0  0  0  0  0  0
  1  2  1  0  0  0  0
  3  1  1  6  0  0  0
  3  9  1  0  0  0  0
  3  4  1  0  0  0  0
  4  5  1  1  0  0  0
  4  6  1  0  0  0  0
  6  7  1  6  0  0  0
  6  8  1  0  0  0  0
  8  9  1  0  0  0  0
  8 10  1  6  0  0  0
  8 13  1  0  0  0  0
 10 11  1  0  0  0  0
 12 13  1  1  0  0  0
 12 14  1  0  0  0  0
 12 21  1  0  0  0  0
 14 15  1  6  0  0  0
 14 16  1  0  0  0  0
 16 17  1  6  0  0  0
 16 18  1  0  0  0  0
 18 19  1  6  0  0  0
 18 20  1  0  0  0  0
 20 21  1  0  0  0  0
 20 22  1  1  0  0  0
 22 23  1  0  0  0  0
M  END
>  <CHROM.1>
59.62019012,61.18754918,-142.37671224,-170.79524068,-64.18599434,-5.38151517
-7.42293274,-2.22317083,-2.31423914,-0.53604400,-1.23297582

>  <Name>
ligand

>  <RI>
0

>  <Rbt.Current_Directory>
/home/itssahil/PROJECTS/Mol_Feturizer/New_Systems/rnas/4TS2

>  <Rbt.Executable>
rbdock ($Id: //depot/dev/client3/rdock/2013.1/src/exe/rbdock.cxx#4 $)

>  <Rbt.Library>
libRbt.so (2013.1, Build901 2013/11/27)

>  <Rbt.Parameter_File>
/export/apps/rDock/src/rDock_2013.1_src/data/scripts/dock_solv.prm

>  <Rbt.Receptor>
prm/pocket_docking_6.prm

>  <SCORE>
-10.0622

>  <SCORE.INTER>
-5.58216

>  <SCORE.INTER.CONST>
1

>  <SCORE.INTER.POLAR>
0

>  <SCORE.INTER.ROT>
5

>  <SCORE.INTER.SOLV>
9.65319

>  <SCORE.INTER.VDW>
-13.8725

>  <SCORE.INTER.norm>
-0.242703

>  <SCORE.INTRA>
-4.48

>  <SCORE.INTRA.DIHEDRAL>
-7.09716

>  <SCORE.INTRA.DIHEDRAL.0>
12.4853

>  <SCORE.INTRA.POLAR>
0

>  <SCORE.INTRA.POLAR.0>
0

>  <SCORE.INTRA.REPUL>
0

>  <SCORE.INTRA.REPUL.0>
0

>  <SCORE.INTRA.SOLV>
1.07698

>  <SCORE.INTRA.SOLV.lig_0>
-31.1706

>  <SCORE.INTRA.VDW>
-1.46992

>  <SCORE.INTRA.VDW.0>
-1.16895

>  <SCORE.INTRA.norm>
-0.194783

>  <SCORE.RESTR>
0

>  <SCORE.RESTR.CAVITY>
0

>  <SCORE.RESTR.norm>
0

>  <SCORE.SYSTEM>
0

>  <SCORE.SYSTEM.CONST>
0

>  <SCORE.SYSTEM.DIHEDRAL>
0

>  <SCORE.SYSTEM.SOLV>
0

>  <SCORE.SYSTEM.norm>
0

>  <SCORE.heavy>
23

>  <SCORE.norm>
-0.437485

>  <RMSD>
5.947

$$$$
ligand
 OpenBabel11021811513D
libRbt.so/2013.1/901 2013/11/27
 23 24  0  0  0  0  0  0  0  0999 V2000
   -3.3035   -8.9077   -1.9770 C   0  0  0  0  0  0  0  0  0  0  0  0
   -2.2450   -9.7272   -2.5093 O   0  0  0  0  0  0  0  0  0  0  0  0
   -3.5815   -9.3285   -0.5410 C   0  0  2  0  0  0  0  0  0  0  0  0
   -4.0379  -10.7675   -0.3554 C   0  0  1  0  0  0  0  0  0  0  0  0
   -2.9034  -11.6350   -0.4063 O   0  0  0  0  0  0  0  0  0  0  0  0
   -4.7119  -10.7089    1.0113 C   0  0  2  0  0  0  0  0  0  0  0  0
   -5.6691  -11.7201    1.3480 O   0  0  0  0  0  0  0  0  0  0  0  0
   -5.3891   -9.3509    0.9557 C   0  0  2  0  0  0  0  0  0  0  0  0
   -4.6176   -8.5369    0.0471 O   0  0  0  0  0  0  0  0  0  0  0  0
   -5.4094   -8.7791    2.3848 C   0  0  0  0  0  0  0  0  0  0  0  0
   -4.0906   -8.5494    2.9002 O   0  0  0  0  0  0  0  0  0  0  0  0
   -7.4937   -8.3087    0.3969 C   0  0  2  0  0  0  0  0  0  0  0  0
   -6.7007   -9.5084    0.3885 O   0  0  0  0  0  0  0  0  0  0  0  0
   -8.8746   -8.6735   -0.1155 C   0  0  2  0  0  0  0  0  0  0  0  0
   -9.3394   -9.8392    0.5738 O   0  0  0  0  0  0  0  0  0  0  0  0
   -8.8242   -8.9921   -1.5936 C   0  0  1  0  0  0  0  0  0  0  0  0
  -10.1632   -9.0862   -2.0853 O   0  0  0  0  0  0  0  0  0  0  0  0
   -8.0643   -7.9167   -2.3467 C   0  0  2  0  0  0  0  0  0  0  0  0
   -7.8878   -8.3425   -3.6909 O   0  0  0  0  0  0  0  0  0  0  0  0
   -6.6978   -7.6466   -1.7315 C   0  0  2  0  0  0  0  0  0  0  0  0
   -6.9067   -7.2641   -0.3788 O   0  0  0  0  0  0  0  0  0  0  0  0
   -5.9455   -6.5462   -2.4893 C   0  0  0  0  0  0  0  0  0  0  0  0
   -4.6878   -6.2088   -1.8859 O   0  0  0  0  0  0  0  0  0  0  0  0
  1  2  1  0  0  0  0
  3  1  1  6  0  0  0
  3  9  1  0  0  0  0
  3  4  1  0  0  0  0
  4  5  1  1  0  0  0
  4  6  1  0  0  0  0
  6  7  1  6  0  0  0
  6  8  1  0  0  0  0
  8  9  1  0  0  0  0
  8 10  1  1  0  0  0
  8 13  1  0  0  0  0
 10 11  1  0  0  0  0
 12 13  1  6  0  0  0
 12 14  1  0  0  0  0
 12 21  1  0  0  0  0
 14 15  1  1  0  0  0
 14 16  1  0  0  0  0
 16 17  1  6  0  0  0
 16 18  1  0  0  0  0
 18 19  1  6  0  0  0
 18 20  1  0  0  0  0
 20 21  1  0  0  0  0
 20 22  1  6  0  0  0
 22 23  1  0  0  0  0
M  END
>  <CHROM.1>
-61.03475960,63.30217034,-175.05087628,174.48800954,176.37284857,-5.96699557
-8.97770166,-0.53129721,-0.42497052,0.10323435,-1.05290195

>  <Name>
ligand

>  <RI>
0

>  <Rbt.Current_Directory>
/home/itssahil/PROJECTS/Mol_Feturizer/New_Systems/rnas/4TS2

>  <Rbt.Executable>
rbdock ($Id: //depot/dev/client3/rdock/2013.1/src/exe/rbdock.cxx#4 $)

>  <Rbt.Library>
libRbt.so (2013.1, Build901 2013/11/27)

>  <Rbt.Parameter_File>
/export/apps/rDock/src/rDock_2013.1_src/data/scripts/dock_solv.prm

>  <Rbt.Receptor>
prm/pocket_docking_7.prm

>  <SCORE>
-8.63532

>  <SCORE.INTER>
-1.59765

>  <SCORE.INTER.CONST>
1

>  <SCORE.INTER.POLAR>
0

>  <SCORE.INTER.ROT>
5

>  <SCORE.INTER.SOLV>
7.74966

>  <SCORE.INTER.VDW>
-10.5817

>  <SCORE.INTER.norm>
-0.0694632

>  <SCORE.INTRA>
-7.03766

>  <SCORE.INTRA.DIHEDRAL>
-11.9539

>  <SCORE.INTRA.DIHEDRAL.0>
12.4853

>  <SCORE.INTRA.POLAR>
0

>  <SCORE.INTRA.POLAR.0>
0

>  <SCORE.INTRA.REPUL>
0

>  <SCORE.INTRA.REPUL.0>
0

>  <SCORE.INTRA.SOLV>
0.624684

>  <SCORE.INTRA.SOLV.lig_0>
-31.1706

>  <SCORE.INTRA.VDW>
-1.37305

>  <SCORE.INTRA.VDW.0>
-1.16895

>  <SCORE.INTRA.norm>
-0.305985

>  <SCORE.RESTR>
0

>  <SCORE.RESTR.CAVITY>
0

>  <SCORE.RESTR.norm>
0

>  <SCORE.SYSTEM>
0

>  <SCORE.SYSTEM.CONST>
0

>  <SCORE.SYSTEM.DIHEDRAL>
0

>  <SCORE.SYSTEM.SOLV>
0

>  <SCORE.SYSTEM.norm>
0

>  <SCORE.heavy>
23

>  <SCORE.norm>
-0.375449

>  <RMSD>
5.948

$$$$
ligand
 OpenBabel11021811513D
libRbt.so/2013.1/901 2013/11/27
 23 24  0  0  0  0  0  0  0  0999 V2000
   -4.2809   -7.3404    1.6372 C   0  0  0  0  0  0  0  0  0  0  0  0
   -3.6498   -8.1570    2.6423 O   0  0  0  0  0  0  0  0  0  0  0  0
   -5.4937   -8.0786    1.0889 C   0  0  2  0  0  0  0  0  0  0  0  0
   -5.1983   -9.3937    0.3842 C   0  0  1  0  0  0  0  0  0  0  0  0
   -4.9959  -10.4188    1.3591 O   0  0  0  0  0  0  0  0  0  0  0  0
   -6.4518   -9.5839   -0.4633 C   0  0  2  0  0  0  0  0  0  0  0  0
   -6.3813  -10.4399   -1.6098 O   0  0  0  0  0  0  0  0  0  0  0  0
   -6.7418   -8.1578   -0.8971 C   0  0  2  0  0  0  0  0  0  0  0  0
   -6.1930   -7.2927    0.1196 O   0  0  0  0  0  0  0  0  0  0  0  0
   -8.2681   -8.0112   -1.0329 C   0  0  0  0  0  0  0  0  0  0  0  0
   -8.8002   -8.8042   -2.1032 O   0  0  0  0  0  0  0  0  0  0  0  0
   -6.1705   -6.5410   -2.5963 C   0  0  2  0  0  0  0  0  0  0  0  0
   -6.0347   -7.8911   -2.1202 O   0  0  0  0  0  0  0  0  0  0  0  0
   -6.1152   -6.5862   -4.1120 C   0  0  2  0  0  0  0  0  0  0  0  0
   -7.0072   -7.6013   -4.5853 O   0  0  0  0  0  0  0  0  0  0  0  0
   -4.7193   -6.9332   -4.5812 C   0  0  1  0  0  0  0  0  0  0  0  0
   -4.6483   -6.7244   -5.9936 O   0  0  0  0  0  0  0  0  0  0  0  0
   -3.6885   -6.0751   -3.8727 C   0  0  2  0  0  0  0  0  0  0  0  0
   -2.3927   -6.5531   -4.2072 O   0  0  0  0  0  0  0  0  0  0  0  0
   -3.8540   -6.1169   -2.3595 C   0  0  2  0  0  0  0  0  0  0  0  0
   -5.1710   -5.6733   -2.0618 O   0  0  0  0  0  0  0  0  0  0  0  0
   -2.8188   -5.2328   -1.6541 C   0  0  0  0  0  0  0  0  0  0  0  0
   -2.9265   -5.2750   -0.2236 O   0  0  0  0  0  0  0  0  0  0  0  0
  1  2  1  0  0  0  0
  3  1  1  6  0  0  0
  3  9  1  0  0  0  0
  3  4  1  0  0  0  0
  4  5  1  1  0  0  0
  4  6  1  0  0  0  0
  6  7  1  6  0  0  0
  6  8  1  0  0  0  0
  8  9  1  0  0  0  0
  8 10  1  6  0  0  0
  8 13  1  0  0  0  0
 10 11  1  0  0  0  0
 12 13  1  1  0  0  0
 12 14  1  0  0  0  0
 12 21  1  0  0  0  0
 14 15  1  1  0  0  0
 14 16  1  0  0  0  0
 16 17  1  6  0  0  0
 16 18  1  0  0  0  0
 18 19  1  1  0  0  0
 18 20  1  0  0  0  0
 20 21  1  0  0  0  0
 20 22  1  1  0  0  0
 22 23  1  0  0  0  0
M  END
>  <CHROM.1>
-62.60210938,-66.51740996,-148.17308467,-176.72400905,-178.57409746,-5.29712026
-7.52789207,-1.61861515,-1.73425780,-0.58659804,-1.24440653

>  <Name>
ligand

>  <RI>
0

>  <Rbt.Current_Directory>
/home/itssahil/PROJECTS/Mol_Feturizer/New_Systems/rnas/4TS2

>  <Rbt.Executable>
rbdock ($Id: //depot/dev/client3/rdock/2013.1/src/exe/rbdock.cxx#4 $)

>  <Rbt.Library>
libRbt.so (2013.1, Build901 2013/11/27)

>  <Rbt.Parameter_File>
/export/apps/rDock/src/rDock_2013.1_src/data/scripts/dock_solv.prm

>  <Rbt.Receptor>
prm/pocket_docking_8.prm

>  <SCORE>
-10.0767

>  <SCORE.INTER>
-4.55751

>  <SCORE.INTER.CONST>
1

>  <SCORE.INTER.POLAR>
0

>  <SCORE.INTER.ROT>
5

>  <SCORE.INTER.SOLV>
10.4142

>  <SCORE.INTER.VDW>
-13.4431

>  <SCORE.INTER.norm>
-0.198153

>  <SCORE.INTRA>
-5.51916

>  <SCORE.INTRA.DIHEDRAL>
-8.36232

>  <SCORE.INTRA.DIHEDRAL.0>
12.4853

>  <SCORE.INTRA.POLAR>
0

>  <SCORE.INTRA.POLAR.0>
0

>  <SCORE.INTRA.REPUL>
0

>  <SCORE.INTRA.REPUL.0>
0

>  <SCORE.INTRA.SOLV>
0.676243

>  <SCORE.INTRA.SOLV.lig_0>
-31.1706

>  <SCORE.INTRA.VDW>
-1.67612

>  <SCORE.INTRA.VDW.0>
-1.16895

>  <SCORE.INTRA.norm>
-0.239964

>  <SCORE.RESTR>
0

>  <SCORE.RESTR.CAVITY>
0

>  <SCORE.RESTR.norm>
0

>  <SCORE.SYSTEM>
0

>  <SCORE.SYSTEM.CONST>
0

>  <SCORE.SYSTEM.DIHEDRAL>
0

>  <SCORE.SYSTEM.SOLV>
0

>  <SCORE.SYSTEM.norm>
0

>  <SCORE.heavy>
23

>  <SCORE.norm>
-0.438116

>  <RMSD>
5.951

$$$$
ligand
 OpenBabel11021811513D
libRbt.so/2013.1/901 2013/11/27
 23 24  0  0  0  0  0  0  0  0999 V2000
   -4.9986   -7.6032    1.0135 C   0  0  0  0  0  0  0  0  0  0  0  0
   -4.4529   -8.4812    2.0169 O   0  0  0  0  0  0  0  0  0  0  0  0
   -6.0582   -8.3550    0.2206 C   0  0  2  0  0  0  0  0  0  0  0  0
   -5.5598   -9.5590   -0.5639 C   0  0  1  0  0  0  0  0  0  0  0  0
   -5.4097  -10.6717    0.3201 O   0  0  0  0  0  0  0  0  0  0  0  0
   -6.6637   -9.7364   -1.6009 C   0  0  2  0  0  0  0  0  0  0  0  0
   -6.3643  -10.4505   -2.8062 O   0  0  0  0  0  0  0  0  0  0  0  0
   -7.0084   -8.2933   -1.9245 C   0  0  2  0  0  0  0  0  0  0  0  0
   -6.6795   -7.5136   -0.7552 O   0  0  0  0  0  0  0  0  0  0  0  0
   -8.5082   -8.2359   -2.2668 C   0  0  0  0  0  0  0  0  0  0  0  0
   -9.3360   -8.6276   -1.1628 O   0  0  0  0  0  0  0  0  0  0  0  0
   -6.1246   -6.4140   -3.1551 C   0  0  2  0  0  0  0  0  0  0  0  0
   -6.1636   -7.8428   -2.9969 O   0  0  0  0  0  0  0  0  0  0  0  0
   -5.8119   -6.1268   -4.6119 C   0  0  2  0  0  0  0  0  0  0  0  0
   -6.6750   -6.9118   -5.4419 O   0  0  0  0  0  0  0  0  0  0  0  0
   -4.3825   -6.5054   -4.9317 C   0  0  1  0  0  0  0  0  0  0  0  0
   -4.0553   -5.9965   -6.2269 O   0  0  0  0  0  0  0  0  0  0  0  0
   -3.4341   -5.9394   -3.8920 C   0  0  2  0  0  0  0  0  0  0  0  0
   -2.1351   -6.4645   -4.1288 O   0  0  0  0  0  0  0  0  0  0  0  0
   -3.8605   -6.2988   -2.4750 C   0  0  2  0  0  0  0  0  0  0  0  0
   -5.1764   -5.7968   -2.2848 O   0  0  0  0  0  0  0  0  0  0  0  0
   -2.9055   -5.7074   -1.4313 C   0  0  0  0  0  0  0  0  0  0  0  0
   -2.6780   -4.3019   -1.6117 O   0  0  0  0  0  0  0  0  0  0  0  0
  1  2  1  0  0  0  0
  3  1  1  6  0  0  0
  3  9  1  0  0  0  0
  3  4  1  0  0  0  0
  4  5  1  1  0  0  0
  4  6  1  0  0  0  0
  6  7  1  6  0  0  0
  6  8  1  0  0  0  0
  8  9  1  0  0  0  0
  8 10  1  6  0  0  0
  8 13  1  0  0  0  0
 10 11  1  0  0  0  0
 12 13  1  6  0  0  0
 12 14  1  0  0  0  0
 12 21  1  0  0  0  0
 14 15  1  6  0  0  0
 14 16  1  0  0  0  0
 16 17  1  6  0  0  0
 16 18  1  0  0  0  0
 18 19  1  6  0  0  0
 18 20  1  0  0  0  0
 20 21  1  0  0  0  0
 20 22  1  1  0  0  0
 22 23  1  0  0  0  0
M  END
>  <CHROM.1>
-62.96138977,62.38713780,-152.76529544,-163.80654155,51.19074482,-5.40276027
-7.47374791,-2.20063131,-2.13959467,-0.57068863,-1.21734011

>  <Name>
ligand

>  <RI>
0

>  <Rbt.Current_Directory>
/home/itssahil/PROJECTS/Mol_Feturizer/New_Systems/rnas/4TS2

>  <Rbt.Executable>
rbdock ($Id: //depot/dev/client3/rdock/2013.1/src/exe/rbdock.cxx#4 $)

>  <Rbt.Library>
libRbt.so (2013.1, Build901 2013/11/27)

>  <Rbt.Parameter_File>
/export/apps/rDock/src/rDock_2013.1_src/data/scripts/dock_solv.prm

>  <Rbt.Receptor>
prm/pocket_docking_6.prm

>  <SCORE>
-10.5489

>  <SCORE.INTER>
-5.20368

>  <SCORE.INTER.CONST>
1

>  <SCORE.INTER.POLAR>
0

>  <SCORE.INTER.ROT>
5

>  <SCORE.INTER.SOLV>
10.3092

>  <SCORE.INTER.VDW>
-13.8389

>  <SCORE.INTER.norm>
-0.226247

>  <SCORE.INTRA>
-5.3452

>  <SCORE.INTRA.DIHEDRAL>
-8.01051

>  <SCORE.INTRA.DIHEDRAL.0>
12.4853

>  <SCORE.INTRA.POLAR>
0

>  <SCORE.INTRA.POLAR.0>
0

>  <SCORE.INTRA.REPUL>
0

>  <SCORE.INTRA.REPUL.0>
0

>  <SCORE.INTRA.SOLV>
0.339602

>  <SCORE.INTRA.SOLV.lig_0>
-31.1706

>  <SCORE.INTRA.VDW>
-1.50975

>  <SCORE.INTRA.VDW.0>
-1.16895

>  <SCORE.INTRA.norm>
-0.2324

>  <SCORE.RESTR>
0

>  <SCORE.RESTR.CAVITY>
0

>  <SCORE.RESTR.norm>
0

>  <SCORE.SYSTEM>
0

>  <SCORE.SYSTEM.CONST>
0

>  <SCORE.SYSTEM.DIHEDRAL>
0

>  <SCORE.SYSTEM.SOLV>
0

>  <SCORE.SYSTEM.norm>
0

>  <SCORE.heavy>
23

>  <SCORE.norm>
-0.458647

>  <RMSD>
5.976

$$$$
ligand
 OpenBabel11021811513D
libRbt.so/2013.1/901 2013/11/27
 23 24  0  0  0  0  0  0  0  0999 V2000
   -4.4354   -7.5351    1.7462 C   0  0  0  0  0  0  0  0  0  0  0  0
   -3.4567   -7.3252    0.7101 O   0  0  0  0  0  0  0  0  0  0  0  0
   -5.6685   -8.1879    1.1381 C   0  0  2  0  0  0  0  0  0  0  0  0
   -5.4263   -9.5070    0.4205 C   0  0  1  0  0  0  0  0  0  0  0  0
   -5.3251  -10.5586    1.3828 O   0  0  0  0  0  0  0  0  0  0  0  0
   -6.6548   -9.6055   -0.4777 C   0  0  2  0  0  0  0  0  0  0  0  0
   -6.5916  -10.4452   -1.6366 O   0  0  0  0  0  0  0  0  0  0  0  0
   -6.8401   -8.1574   -0.8952 C   0  0  2  0  0  0  0  0  0  0  0  0
   -6.2799   -7.3446    0.1578 O   0  0  0  0  0  0  0  0  0  0  0  0
   -8.3482   -7.9147   -1.0864 C   0  0  0  0  0  0  0  0  0  0  0  0
   -8.8999   -8.7105   -2.1446 O   0  0  0  0  0  0  0  0  0  0  0  0
   -6.0948   -6.5483   -2.5333 C   0  0  2  0  0  0  0  0  0  0  0  0
   -6.0707   -7.9146   -2.0851 O   0  0  0  0  0  0  0  0  0  0  0  0
   -6.0369   -6.5665   -4.0494 C   0  0  2  0  0  0  0  0  0  0  0  0
   -7.0063   -7.4961   -4.5461 O   0  0  0  0  0  0  0  0  0  0  0  0
   -4.6718   -7.0157   -4.5223 C   0  0  1  0  0  0  0  0  0  0  0  0
   -4.5783   -6.7842   -5.9299 O   0  0  0  0  0  0  0  0  0  0  0  0
   -3.5779   -6.2588   -3.7935 C   0  0  2  0  0  0  0  0  0  0  0  0
   -2.3237   -6.8332   -4.1347 O   0  0  0  0  0  0  0  0  0  0  0  0
   -3.7525   -6.3183   -2.2819 C   0  0  2  0  0  0  0  0  0  0  0  0
   -5.0305   -5.7757   -1.9782 O   0  0  0  0  0  0  0  0  0  0  0  0
   -2.6521   -5.5357   -1.5556 C   0  0  0  0  0  0  0  0  0  0  0  0
   -2.6118   -4.1497   -1.9256 O   0  0  0  0  0  0  0  0  0  0  0  0
  1  2  1  0  0  0  0
  3  1  1  6  0  0  0
  3  9  1  0  0  0  0
  3  4  1  0  0  0  0
  4  5  1  1  0  0  0
  4  6  1  0  0  0  0
  6  7  1  6  0  0  0
  6  8  1  0  0  0  0
  8  9  1  0  0  0  0
  8 10  1  6  0  0  0
  8 13  1  0  0  0  0
 10 11  1  0  0  0  0
 12 13  1  1  0  0  0
 12 14  1  0  0  0  0
 12 21  1  0  0  0  0
 14 15  1  6  0  0  0
 14 16  1  0  0  0  0
 16 17  1  6  0  0  0
 16 18  1  0  0  0  0
 18 19  1  1  0  0  0
 18 20  1  0  0  0  0
 20 21  1  0  0  0  0
 20 22  1  1  0  0  0
 22 23  1  0  0  0  0
M  END
>  <CHROM.1>
57.23512100,-63.34913316,-146.13297790,-176.15708826,59.00559071,-5.30972865
-7.50047277,-1.75619699,-2.11662721,-0.57056295,-1.25081754

>  <Name>
ligand

>  <RI>
0

>  <Rbt.Current_Directory>
/home/itssahil/PROJECTS/Mol_Feturizer/New_Systems/rnas/4TS2

>  <Rbt.Executable>
rbdock ($Id: //depot/dev/client3/rdock/2013.1/src/exe/rbdock.cxx#4 $)

>  <Rbt.Library>
libRbt.so (2013.1, Build901 2013/11/27)

>  <Rbt.Parameter_File>
/export/apps/rDock/src/rDock_2013.1_src/data/scripts/dock_solv.prm

>  <Rbt.Receptor>
prm/pocket_docking_8.prm

>  <SCORE>
-9.36431

>  <SCORE.INTER>
-4.2652

>  <SCORE.INTER.CONST>
1

>  <SCORE.INTER.POLAR>
0

>  <SCORE.INTER.ROT>
5

>  <SCORE.INTER.SOLV>
10.607

>  <SCORE.INTER.VDW>
-13.3125

>  <SCORE.INTER.norm>
-0.185443

>  <SCORE.INTRA>
-5.09911

>  <SCORE.INTRA.DIHEDRAL>
-8.05892

>  <SCORE.INTRA.DIHEDRAL.0>
12.4853

>  <SCORE.INTRA.POLAR>
0

>  <SCORE.INTRA.POLAR.0>
0

>  <SCORE.INTRA.REPUL>
0

>  <SCORE.INTRA.REPUL.0>
0

>  <SCORE.INTRA.SOLV>
1.29643

>  <SCORE.INTRA.SOLV.lig_0>
-31.1706

>  <SCORE.INTRA.VDW>
-1.71786

>  <SCORE.INTRA.VDW.0>
-1.16895

>  <SCORE.INTRA.norm>
-0.2217

>  <SCORE.RESTR>
0

>  <SCORE.RESTR.CAVITY>
0

>  <SCORE.RESTR.norm>
0

>  <SCORE.SYSTEM>
0

>  <SCORE.SYSTEM.CONST>
0

>  <SCORE.SYSTEM.DIHEDRAL>
0

>  <SCORE.SYSTEM.SOLV>
0

>  <SCORE.SYSTEM.norm>
0

>  <SCORE.heavy>
23

>  <SCORE.norm>
-0.407144

>  <RMSD>
5.994

$$$$
ligand
 OpenBabel11021811513D
libRbt.so/2013.1/901 2013/11/27
 23 24  0  0  0  0  0  0  0  0999 V2000
   -4.2039   -7.4157    1.3261 C   0  0  0  0  0  0  0  0  0  0  0  0
   -3.5450   -8.2391    2.3076 O   0  0  0  0  0  0  0  0  0  0  0  0
   -5.4749   -8.1149    0.8655 C   0  0  2  0  0  0  0  0  0  0  0  0
   -5.2725   -9.4490    0.1636 C   0  0  1  0  0  0  0  0  0  0  0  0
   -5.0468  -10.4686    1.1392 O   0  0  0  0  0  0  0  0  0  0  0  0
   -6.5828   -9.6029   -0.6012 C   0  0  2  0  0  0  0  0  0  0  0  0
   -6.6158  -10.4754   -1.7369 O   0  0  0  0  0  0  0  0  0  0  0  0
   -6.8473   -8.1727   -1.0375 C   0  0  2  0  0  0  0  0  0  0  0  0
   -6.2044   -7.3158   -0.0700 O   0  0  0  0  0  0  0  0  0  0  0  0
   -8.3727   -7.9708   -1.0800 C   0  0  0  0  0  0  0  0  0  0  0  0
   -9.0042   -8.7861   -2.0771 O   0  0  0  0  0  0  0  0  0  0  0  0
   -6.1809   -6.5697   -2.7151 C   0  0  2  0  0  0  0  0  0  0  0  0
   -6.2092   -7.9481   -2.3061 O   0  0  0  0  0  0  0  0  0  0  0  0
   -6.0057   -6.5467   -4.2221 C   0  0  2  0  0  0  0  0  0  0  0  0
   -6.9454   -7.4473   -4.8188 O   0  0  0  0  0  0  0  0  0  0  0  0
   -4.6139   -7.0029   -4.6009 C   0  0  1  0  0  0  0  0  0  0  0  0
   -4.4083   -6.7338   -5.9897 O   0  0  0  0  0  0  0  0  0  0  0  0
   -3.5702   -6.2831   -3.7681 C   0  0  2  0  0  0  0  0  0  0  0  0
   -2.3008   -6.8666   -4.0279 O   0  0  0  0  0  0  0  0  0  0  0  0
   -3.8625   -6.3820   -2.2769 C   0  0  2  0  0  0  0  0  0  0  0  0
   -5.1531   -5.8290   -2.0573 O   0  0  0  0  0  0  0  0  0  0  0  0
   -2.8118   -5.6365   -1.4454 C   0  0  0  0  0  0  0  0  0  0  0  0
   -2.6720   -4.2589   -1.8225 O   0  0  0  0  0  0  0  0  0  0  0  0
  1  2  1  0  0  0  0
  3  1  1  6  0  0  0
  3  9  1  0  0  0  0
  3  4  1  0  0  0  0
  4  5  1  1  0  0  0
  4  6  1  0  0  0  0
  6  7  1  6  0  0  0
  6  8  1  0  0  0  0
  8  9  1  0  0  0  0
  8 10  1  6  0  0  0
  8 13  1  0  0  0  0
 10 11  1  0  0  0  0
 12 13  1  1  0  0  0
 12 14  1  0  0  0  0
 12 21  1  0  0  0  0
 14 15  1  6  0  0  0
 14 16  1  0  0  0  0
 16 17  1  6  0  0  0
 16 18  1  0  0  0  0
 18 19  1  1  0  0  0
 18 20  1  0  0  0  0
 20 21  1  0  0  0  0
 20 22  1  1  0  0  0
 22 23  1  0  0  0  0
M  END
>  <CHROM.1>
-62.92481243,-64.81719254,-158.05594845,-169.43232437,55.70973824,-5.29221183
-7.54974342,-1.78306245,-1.93341207,-0.54615311,-1.21716875

>  <Name>
ligand

>  <RI>
0

>  <Rbt.Current_Directory>
/home/itssahil/PROJECTS/Mol_Feturizer/New_Systems/rnas/4TS2

>  <Rbt.Executable>
rbdock ($Id: //depot/dev/client3/rdock/2013.1/src/exe/rbdock.cxx#4 $)

>  <Rbt.Library>
libRbt.so (2013.1, Build901 2013/11/27)

>  <Rbt.Parameter_File>
/export/apps/rDock/src/rDock_2013.1_src/data/scripts/dock_solv.prm

>  <Rbt.Receptor>
prm/pocket_docking_6.prm

>  <SCORE>
-10.1323

>  <SCORE.INTER>
-3.80335

>  <SCORE.INTER.CONST>
1

>  <SCORE.INTER.POLAR>
0

>  <SCORE.INTER.ROT>
5

>  <SCORE.INTER.SOLV>
10.5559

>  <SCORE.INTER.VDW>
-12.9876

>  <SCORE.INTER.norm>
-0.165363

>  <SCORE.INTRA>
-6.32896

>  <SCORE.INTRA.DIHEDRAL>
-9.77086

>  <SCORE.INTRA.DIHEDRAL.0>
12.4853

>  <SCORE.INTRA.POLAR>
0

>  <SCORE.INTRA.POLAR.0>
0

>  <SCORE.INTRA.REPUL>
0

>  <SCORE.INTRA.REPUL.0>
0

>  <SCORE.INTRA.SOLV>
0.586627

>  <SCORE.INTRA.SOLV.lig_0>
-31.1706

>  <SCORE.INTRA.VDW>
-1.73685

>  <SCORE.INTRA.VDW.0>
-1.16895

>  <SCORE.INTRA.norm>
-0.275172

>  <SCORE.RESTR>
0

>  <SCORE.RESTR.CAVITY>
0

>  <SCORE.RESTR.norm>
0

>  <SCORE.SYSTEM>
0

>  <SCORE.SYSTEM.CONST>
0

>  <SCORE.SYSTEM.DIHEDRAL>
0

>  <SCORE.SYSTEM.SOLV>
0

>  <SCORE.SYSTEM.norm>
0

>  <SCORE.heavy>
23

>  <SCORE.norm>
-0.440535

>  <RMSD>
5.996

$$$$
ligand
 OpenBabel11021811513D
libRbt.so/2013.1/901 2013/11/27
 23 24  0  0  0  0  0  0  0  0999 V2000
   -4.5257   -8.0365    0.6440 C   0  0  0  0  0  0  0  0  0  0  0  0
   -4.9757   -7.0048    1.5432 O   0  0  0  0  0  0  0  0  0  0  0  0
   -5.7335   -8.6516   -0.0486 C   0  0  2  0  0  0  0  0  0  0  0  0
   -5.4346   -9.8220   -0.9728 C   0  0  1  0  0  0  0  0  0  0  0  0
   -5.2577  -11.0074   -0.1946 O   0  0  0  0  0  0  0  0  0  0  0  0
   -6.6734   -9.8438   -1.8618 C   0  0  2  0  0  0  0  0  0  0  0  0
   -6.5879  -10.4809   -3.1421 O   0  0  0  0  0  0  0  0  0  0  0  0
   -6.9450   -8.3601   -2.0374 C   0  0  2  0  0  0  0  0  0  0  0  0
   -6.4089   -7.6972   -0.8727 O   0  0  0  0  0  0  0  0  0  0  0  0
   -8.4674   -8.1755   -2.1704 C   0  0  0  0  0  0  0  0  0  0  0  0
   -9.1738   -8.5977   -0.9955 O   0  0  0  0  0  0  0  0  0  0  0  0
   -6.1589   -6.4530   -3.2914 C   0  0  2  0  0  0  0  0  0  0  0  0
   -6.2134   -7.8858   -3.1805 O   0  0  0  0  0  0  0  0  0  0  0  0
   -5.8512   -6.1210   -4.7397 C   0  0  2  0  0  0  0  0  0  0  0  0
   -6.7279   -6.8682   -5.5902 O   0  0  0  0  0  0  0  0  0  0  0  0
   -4.4281   -6.5049   -5.0806 C   0  0  1  0  0  0  0  0  0  0  0  0
   -4.1024   -5.9570   -6.3601 O   0  0  0  0  0  0  0  0  0  0  0  0
   -3.4674   -5.9845   -4.0283 C   0  0  2  0  0  0  0  0  0  0  0  0
   -2.1758   -6.5161   -4.2903 O   0  0  0  0  0  0  0  0  0  0  0  0
   -3.8898   -6.3861   -2.6215 C   0  0  2  0  0  0  0  0  0  0  0  0
   -5.1988   -5.8758   -2.4068 O   0  0  0  0  0  0  0  0  0  0  0  0
   -2.9223   -5.8405   -1.5645 C   0  0  0  0  0  0  0  0  0  0  0  0
   -2.7701   -4.4148   -1.6259 O   0  0  0  0  0  0  0  0  0  0  0  0
  1  2  1  0  0  0  0
  3  1  1  6  0  0  0
  3  9  1  0  0  0  0
  3  4  1  0  0  0  0
  4  5  1  1  0  0  0
  4  6  1  0  0  0  0
  6  7  1  6  0  0  0
  6  8  1  0  0  0  0
  8  9  1  0  0  0  0
  8 10  1  6  0  0  0
  8 13  1  0  0  0  0
 10 11  1  0  0  0  0
 12 13  1  6  0  0  0
 12 14  1  0  0  0  0
 12 21  1  0  0  0  0
 14 15  1  6  0  0  0
 14 16  1  0  0  0  0
 16 17  1  6  0  0  0
 16 18  1  0  0  0  0
 18 19  1  6  0  0  0
 18 20  1  0  0  0  0
 20 21  1  0  0  0  0
 20 22  1  1  0  0  0
 22 23  1  0  0  0  0
M  END
>  <CHROM.1>
-176.37090202,62.25799162,-158.82379198,-167.60319565,56.31198540,-5.39190756
-7.49374717,-2.38295072,-2.21243442,-0.63978592,-1.26196448

>  <Name>
ligand

>  <RI>
0

>  <Rbt.Current_Directory>
/home/itssahil/PROJECTS/Mol_Feturizer/New_Systems/rnas/4TS2

>  <Rbt.Executable>
rbdock ($Id: //depot/dev/client3/rdock/2013.1/src/exe/rbdock.cxx#4 $)

>  <Rbt.Library>
libRbt.so (2013.1, Build901 2013/11/27)

>  <Rbt.Parameter_File>
/export/apps/rDock/src/rDock_2013.1_src/data/scripts/dock_solv.prm

>  <Rbt.Receptor>
prm/pocket_docking_7.prm

>  <SCORE>
-10.6242

>  <SCORE.INTER>
-4.15017

>  <SCORE.INTER.CONST>
1

>  <SCORE.INTER.POLAR>
0

>  <SCORE.INTER.ROT>
5

>  <SCORE.INTER.SOLV>
11.0269

>  <SCORE.INTER.VDW>
-13.3758

>  <SCORE.INTER.norm>
-0.180442

>  <SCORE.INTRA>
-6.47404

>  <SCORE.INTRA.DIHEDRAL>
-9.74385

>  <SCORE.INTRA.DIHEDRAL.0>
12.4853

>  <SCORE.INTRA.POLAR>
0

>  <SCORE.INTRA.POLAR.0>
0

>  <SCORE.INTRA.REPUL>
0

>  <SCORE.INTRA.REPUL.0>
0

>  <SCORE.INTRA.SOLV>
0.174543

>  <SCORE.INTRA.SOLV.lig_0>
-31.1706

>  <SCORE.INTRA.VDW>
-1.68938

>  <SCORE.INTRA.VDW.0>
-1.16895

>  <SCORE.INTRA.norm>
-0.28148

>  <SCORE.RESTR>
0

>  <SCORE.RESTR.CAVITY>
0

>  <SCORE.RESTR.norm>
0

>  <SCORE.SYSTEM>
0

>  <SCORE.SYSTEM.CONST>
0

>  <SCORE.SYSTEM.DIHEDRAL>
0

>  <SCORE.SYSTEM.SOLV>
0

>  <SCORE.SYSTEM.norm>
0

>  <SCORE.heavy>
23

>  <SCORE.norm>
-0.461922

>  <RMSD>
6.014

$$$$
ligand
 OpenBabel11021811513D
libRbt.so/2013.1/901 2013/11/27
 23 24  0  0  0  0  0  0  0  0999 V2000
   -4.8333   -7.6004    0.8715 C   0  0  0  0  0  0  0  0  0  0  0  0
   -4.2515   -8.4757    1.8569 O   0  0  0  0  0  0  0  0  0  0  0  0
   -5.9279   -8.3511    0.1266 C   0  0  2  0  0  0  0  0  0  0  0  0
   -5.4657   -9.5540   -0.6813 C   0  0  1  0  0  0  0  0  0  0  0  0
   -5.2756  -10.6680    0.1934 O   0  0  0  0  0  0  0  0  0  0  0  0
   -6.6155   -9.7301   -1.6674 C   0  0  2  0  0  0  0  0  0  0  0  0
   -6.3712  -10.4425   -2.8860 O   0  0  0  0  0  0  0  0  0  0  0  0
   -6.9745   -8.2866   -1.9730 C   0  0  2  0  0  0  0  0  0  0  0  0
   -6.5927   -7.5084   -0.8188 O   0  0  0  0  0  0  0  0  0  0  0  0
   -8.4882   -8.2286   -2.2468 C   0  0  0  0  0  0  0  0  0  0  0  0
   -9.2646   -8.6445   -1.1145 O   0  0  0  0  0  0  0  0  0  0  0  0
   -6.1345   -6.4049   -3.2305 C   0  0  2  0  0  0  0  0  0  0  0  0
   -6.1792   -7.8346   -3.0821 O   0  0  0  0  0  0  0  0  0  0  0  0
   -5.8000   -6.1091   -4.6807 C   0  0  2  0  0  0  0  0  0  0  0  0
   -6.6527   -6.8867   -5.5283 O   0  0  0  0  0  0  0  0  0  0  0  0
   -4.3669   -6.4892   -4.9821 C   0  0  1  0  0  0  0  0  0  0  0  0
   -4.0196   -5.9728   -6.2691 O   0  0  0  0  0  0  0  0  0  0  0  0
   -3.4325   -5.9322   -3.9250 C   0  0  2  0  0  0  0  0  0  0  0  0
   -2.1313   -6.4590   -4.1463 O   0  0  0  0  0  0  0  0  0  0  0  0
   -3.8803   -6.2997   -2.5167 C   0  0  2  0  0  0  0  0  0  0  0  0
   -5.1976   -5.7956   -2.3425 O   0  0  0  0  0  0  0  0  0  0  0  0
   -2.9393   -5.7173   -1.4555 C   0  0  0  0  0  0  0  0  0  0  0  0
   -2.7153   -4.3089   -1.6164 O   0  0  0  0  0  0  0  0  0  0  0  0
  1  2  1  0  0  0  0
  3  1  1  6  0  0  0
  3  9  1  0  0  0  0
  3  4  1  0  0  0  0
  4  5  1  1  0  0  0
  4  6  1  0  0  0  0
  6  7  1  6  0  0  0
  6  8  1  0  0  0  0
  8  9  1  0  0  0  0
  8 10  1  6  0  0  0
  8 13  1  0  0  0  0
 10 11  1  0  0  0  0
 12 13  1  6  0  0  0
 12 14  1  0  0  0  0
 12 21  1  0  0  0  0
 14 15  1  6  0  0  0
 14 16  1  0  0  0  0
 16 17  1  6  0  0  0
 16 18  1  0  0  0  0
 18 19  1  6  0  0  0
 18 20  1  0  0  0  0
 20 21  1  0  0  0  0
 20 22  1  1  0  0  0
 22 23  1  0  0  0  0
M  END
>  <CHROM.1>
-63.51563653,61.35416445,-156.44506746,-163.10931564,51.71343139,-5.36188131
-7.46801162,-2.26216914,-2.12177369,-0.56802447,-1.19790183

>  <Name>
ligand

>  <RI>
0

>  <Rbt.Current_Directory>
/home/itssahil/PROJECTS/Mol_Feturizer/New_Systems/rnas/4TS2

>  <Rbt.Executable>
rbdock ($Id: //depot/dev/client3/rdock/2013.1/src/exe/rbdock.cxx#4 $)

>  <Rbt.Library>
libRbt.so (2013.1, Build901 2013/11/27)

>  <Rbt.Parameter_File>
/export/apps/rDock/src/rDock_2013.1_src/data/scripts/dock_solv.prm

>  <Rbt.Receptor>
prm/pocket_docking_7.prm

>  <SCORE>
-10.637

>  <SCORE.INTER>
-4.97277

>  <SCORE.INTER.CONST>
1

>  <SCORE.INTER.POLAR>
0

>  <SCORE.INTER.ROT>
5

>  <SCORE.INTER.SOLV>
10.2316

>  <SCORE.INTER.VDW>
-13.659

>  <SCORE.INTER.norm>
-0.216207

>  <SCORE.INTRA>
-5.66426

>  <SCORE.INTRA.DIHEDRAL>
-8.62369

>  <SCORE.INTRA.DIHEDRAL.0>
12.4853

>  <SCORE.INTRA.POLAR>
0

>  <SCORE.INTRA.POLAR.0>
0

>  <SCORE.INTRA.REPUL>
0

>  <SCORE.INTRA.REPUL.0>
0

>  <SCORE.INTRA.SOLV>
0.391303

>  <SCORE.INTRA.SOLV.lig_0>
-31.1706

>  <SCORE.INTRA.VDW>
-1.54806

>  <SCORE.INTRA.VDW.0>
-1.16895

>  <SCORE.INTRA.norm>
-0.246272

>  <SCORE.RESTR>
0

>  <SCORE.RESTR.CAVITY>
0

>  <SCORE.RESTR.norm>
0

>  <SCORE.SYSTEM>
0

>  <SCORE.SYSTEM.CONST>
0

>  <SCORE.SYSTEM.DIHEDRAL>
0

>  <SCORE.SYSTEM.SOLV>
0

>  <SCORE.SYSTEM.norm>
0

>  <SCORE.heavy>
23

>  <SCORE.norm>
-0.462479

>  <RMSD>
6.017

$$$$
ligand
 OpenBabel11021811513D
libRbt.so/2013.1/901 2013/11/27
 23 24  0  0  0  0  0  0  0  0999 V2000
   -3.4674   -7.2623   -0.5162 C   0  0  0  0  0  0  0  0  0  0  0  0
   -3.4150   -5.9449    0.0643 O   0  0  0  0  0  0  0  0  0  0  0  0
   -3.7799   -8.2736    0.5775 C   0  0  2  0  0  0  0  0  0  0  0  0
   -3.7397   -9.7335    0.1525 C   0  0  1  0  0  0  0  0  0  0  0  0
   -2.3820  -10.1773    0.1086 O   0  0  0  0  0  0  0  0  0  0  0  0
   -4.5743  -10.4001    1.2408 C   0  0  2  0  0  0  0  0  0  0  0  0
   -5.1664  -11.6755    0.9668 O   0  0  0  0  0  0  0  0  0  0  0  0
   -5.6591   -9.3620    1.4674 C   0  0  2  0  0  0  0  0  0  0  0  0
   -5.0941   -8.0830    1.1092 O   0  0  0  0  0  0  0  0  0  0  0  0
   -6.0691   -9.4294    2.9497 C   0  0  0  0  0  0  0  0  0  0  0  0
   -4.9687   -9.1721    3.8332 O   0  0  0  0  0  0  0  0  0  0  0  0
   -7.7333   -8.5766    0.5141 C   0  0  2  0  0  0  0  0  0  0  0  0
   -6.7475   -9.6224    0.5649 O   0  0  0  0  0  0  0  0  0  0  0  0
   -8.9996   -9.1741   -0.0706 C   0  0  2  0  0  0  0  0  0  0  0  0
   -9.2968  -10.4007    0.6056 O   0  0  0  0  0  0  0  0  0  0  0  0
   -8.8106   -9.4829   -1.5396 C   0  0  1  0  0  0  0  0  0  0  0  0
  -10.0832   -9.8065   -2.1045 O   0  0  0  0  0  0  0  0  0  0  0  0
   -8.2041   -8.2948   -2.2618 C   0  0  2  0  0  0  0  0  0  0  0  0
   -7.8803   -8.6871   -3.5887 O   0  0  0  0  0  0  0  0  0  0  0  0
   -6.9415   -7.7928   -1.5741 C   0  0  2  0  0  0  0  0  0  0  0  0
   -7.2902   -7.4486   -0.2400 O   0  0  0  0  0  0  0  0  0  0  0  0
   -6.3465   -6.5814   -2.3017 C   0  0  0  0  0  0  0  0  0  0  0  0
   -7.2552   -5.4735   -2.3827 O   0  0  0  0  0  0  0  0  0  0  0  0
  1  2  1  0  0  0  0
  3  1  1  6  0  0  0
  3  9  1  0  0  0  0
  3  4  1  0  0  0  0
  4  5  1  1  0  0  0
  4  6  1  0  0  0  0
  6  7  1  6  0  0  0
  6  8  1  0  0  0  0
  8  9  1  0  0  0  0
  8 10  1  1  0  0  0
  8 13  1  0  0  0  0
 10 11  1  0  0  0  0
 12 13  1  6  0  0  0
 12 14  1  0  0  0  0
 12 21  1  0  0  0  0
 14 15  1  1  0  0  0
 14 16  1  0  0  0  0
 16 17  1  6  0  0  0
 16 18  1  0  0  0  0
 18 19  1  6  0  0  0
 18 20  1  0  0  0  0
 20 21  1  0  0  0  0
 20 22  1  6  0  0  0
 22 23  1  0  0  0  0
M  END
>  <CHROM.1>
-174.40046161,59.33053069,-160.87020850,-169.62754793,59.07684176,-6.25654702
-8.72594477,-0.10797683,-0.52112877,-0.36913854,-0.80078877

>  <Name>
ligand

>  <RI>
0

>  <Rbt.Current_Directory>
/home/itssahil/PROJECTS/Mol_Feturizer/New_Systems/rnas/4TS2

>  <Rbt.Executable>
rbdock ($Id: //depot/dev/client3/rdock/2013.1/src/exe/rbdock.cxx#4 $)

>  <Rbt.Library>
libRbt.so (2013.1, Build901 2013/11/27)

>  <Rbt.Parameter_File>
/export/apps/rDock/src/rDock_2013.1_src/data/scripts/dock_solv.prm

>  <Rbt.Receptor>
prm/pocket_docking_3.prm

>  <SCORE>
-8.51373

>  <SCORE.INTER>
-1.81004

>  <SCORE.INTER.CONST>
1

>  <SCORE.INTER.POLAR>
0

>  <SCORE.INTER.ROT>
5

>  <SCORE.INTER.SOLV>
9.37426

>  <SCORE.INTER.VDW>
-11.2648

>  <SCORE.INTER.norm>
-0.0786973

>  <SCORE.INTRA>
-6.7037

>  <SCORE.INTRA.DIHEDRAL>
-10.2824

>  <SCORE.INTRA.DIHEDRAL.0>
12.4853

>  <SCORE.INTRA.POLAR>
0

>  <SCORE.INTRA.POLAR.0>
0

>  <SCORE.INTRA.REPUL>
0

>  <SCORE.INTRA.REPUL.0>
0

>  <SCORE.INTRA.SOLV>
0.182045

>  <SCORE.INTRA.SOLV.lig_0>
-31.1706

>  <SCORE.INTRA.VDW>
-1.65353

>  <SCORE.INTRA.VDW.0>
-1.16895

>  <SCORE.INTRA.norm>
-0.291465

>  <SCORE.RESTR>
0

>  <SCORE.RESTR.CAVITY>
0

>  <SCORE.RESTR.norm>
0

>  <SCORE.SYSTEM>
0

>  <SCORE.SYSTEM.CONST>
0

>  <SCORE.SYSTEM.DIHEDRAL>
0

>  <SCORE.SYSTEM.SOLV>
0

>  <SCORE.SYSTEM.norm>
0

>  <SCORE.heavy>
23

>  <SCORE.norm>
-0.370162

>  <RMSD>
6.020

$$$$
ligand
 OpenBabel11021811513D
libRbt.so/2013.1/901 2013/11/27
 23 24  0  0  0  0  0  0  0  0999 V2000
   -4.8574   -7.6577    0.8116 C   0  0  0  0  0  0  0  0  0  0  0  0
   -4.2862   -8.5429    1.7943 O   0  0  0  0  0  0  0  0  0  0  0  0
   -5.9469   -8.3994    0.0504 C   0  0  2  0  0  0  0  0  0  0  0  0
   -5.4772   -9.5841   -0.7799 C   0  0  1  0  0  0  0  0  0  0  0  0
   -5.2830  -10.7138    0.0735 O   0  0  0  0  0  0  0  0  0  0  0  0
   -6.6245   -9.7468   -1.7712 C   0  0  2  0  0  0  0  0  0  0  0  0
   -6.3746  -10.4343   -3.0029 O   0  0  0  0  0  0  0  0  0  0  0  0
   -6.9904   -8.2995   -2.0494 C   0  0  2  0  0  0  0  0  0  0  0  0
   -6.6145   -7.5419   -0.8797 O   0  0  0  0  0  0  0  0  0  0  0  0
   -8.5039   -8.2439   -2.3247 C   0  0  0  0  0  0  0  0  0  0  0  0
   -9.2799   -8.6903   -1.2038 O   0  0  0  0  0  0  0  0  0  0  0  0
   -6.1461   -6.3892   -3.2601 C   0  0  2  0  0  0  0  0  0  0  0  0
   -6.1955   -7.8221   -3.1481 O   0  0  0  0  0  0  0  0  0  0  0  0
   -5.8230   -6.0575   -4.7051 C   0  0  2  0  0  0  0  0  0  0  0  0
   -6.6863   -6.8096   -5.5649 O   0  0  0  0  0  0  0  0  0  0  0  0
   -4.3943   -6.4354   -5.0289 C   0  0  1  0  0  0  0  0  0  0  0  0
   -4.0561   -5.8874   -6.3051 O   0  0  0  0  0  0  0  0  0  0  0  0
   -3.4483   -5.9096   -3.9661 C   0  0  2  0  0  0  0  0  0  0  0  0
   -2.1514   -6.4356   -4.2123 O   0  0  0  0  0  0  0  0  0  0  0  0
   -3.8853   -6.3114   -2.5638 C   0  0  2  0  0  0  0  0  0  0  0  0
   -5.1990   -5.8067   -2.3651 O   0  0  0  0  0  0  0  0  0  0  0  0
   -2.9326   -5.7603   -1.4963 C   0  0  0  0  0  0  0  0  0  0  0  0
   -2.7317   -4.3432   -1.6013 O   0  0  0  0  0  0  0  0  0  0  0  0
  1  2  1  0  0  0  0
  3  1  1  6  0  0  0
  3  9  1  0  0  0  0
  3  4  1  0  0  0  0
  4  5  1  1  0  0  0
  4  6  1  0  0  0  0
  6  7  1  6  0  0  0
  6  8  1  0  0  0  0
  8  9  1  0  0  0  0
  8 10  1  6  0  0  0
  8 13  1  0  0  0  0
 10 11  1  0  0  0  0
 12 13  1  6  0  0  0
 12 14  1  0  0  0  0
 12 21  1  0  0  0  0
 14 15  1  6  0  0  0
 14 16  1  0  0  0  0
 16 17  1  6  0  0  0
 16 18  1  0  0  0  0
 18 19  1  6  0  0  0
 18 20  1  0  0  0  0
 20 21  1  0  0  0  0
 20 22  1  1  0  0  0
 22 23  1  0  0  0  0
M  END
>  <CHROM.1>
-64.35147049,61.13528562,-156.04790622,-162.47114990,53.25577907,-5.37850822
-7.47338620,-2.32230326,-2.11807824,-0.56629268,-1.17870141

>  <Name>
ligand

>  <RI>
0

>  <Rbt.Current_Directory>
/home/itssahil/PROJECTS/Mol_Feturizer/New_Systems/rnas/4TS2

>  <Rbt.Executable>
rbdock ($Id: //depot/dev/client3/rdock/2013.1/src/exe/rbdock.cxx#4 $)

>  <Rbt.Library>
libRbt.so (2013.1, Build901 2013/11/27)

>  <Rbt.Parameter_File>
/export/apps/rDock/src/rDock_2013.1_src/data/scripts/dock_solv.prm

>  <Rbt.Receptor>
prm/pocket_docking_7.prm

>  <SCORE>
-10.7

>  <SCORE.INTER>
-5.06743

>  <SCORE.INTER.CONST>
1

>  <SCORE.INTER.POLAR>
0

>  <SCORE.INTER.ROT>
5

>  <SCORE.INTER.SOLV>
10.1933

>  <SCORE.INTER.VDW>
-13.7094

>  <SCORE.INTER.norm>
-0.220323

>  <SCORE.INTRA>
-5.6326

>  <SCORE.INTRA.DIHEDRAL>
-8.52732

>  <SCORE.INTRA.DIHEDRAL.0>
12.4853

>  <SCORE.INTRA.POLAR>
0

>  <SCORE.INTRA.POLAR.0>
0

>  <SCORE.INTRA.REPUL>
0

>  <SCORE.INTRA.REPUL.0>
0

>  <SCORE.INTRA.SOLV>
0.381579

>  <SCORE.INTRA.SOLV.lig_0>
-31.1706

>  <SCORE.INTRA.VDW>
-1.55973

>  <SCORE.INTRA.VDW.0>
-1.16895

>  <SCORE.INTRA.norm>
-0.244896

>  <SCORE.RESTR>
0

>  <SCORE.RESTR.CAVITY>
0

>  <SCORE.RESTR.norm>
0

>  <SCORE.SYSTEM>
0

>  <SCORE.SYSTEM.CONST>
0

>  <SCORE.SYSTEM.DIHEDRAL>
0

>  <SCORE.SYSTEM.SOLV>
0

>  <SCORE.SYSTEM.norm>
0

>  <SCORE.heavy>
23

>  <SCORE.norm>
-0.465219

>  <RMSD>
6.027

$$$$
ligand
 OpenBabel11021811513D
libRbt.so/2013.1/901 2013/11/27
 23 24  0  0  0  0  0  0  0  0999 V2000
   -6.9829   -8.0313   -2.7542 C   0  0  0  0  0  0  0  0  0  0  0  0
   -8.2320   -7.3935   -3.0833 O   0  0  0  0  0  0  0  0  0  0  0  0
   -5.8384   -7.0948   -3.1140 C   0  0  2  0  0  0  0  0  0  0  0  0
   -5.6748   -6.7976   -4.5967 C   0  0  1  0  0  0  0  0  0  0  0  0
   -6.6283   -5.8085   -4.9900 O   0  0  0  0  0  0  0  0  0  0  0  0
   -4.2270   -6.3234   -4.6637 C   0  0  2  0  0  0  0  0  0  0  0  0
   -3.5409   -6.3896   -5.9194 O   0  0  0  0  0  0  0  0  0  0  0  0
   -3.5605   -7.2461   -3.6586 C   0  0  2  0  0  0  0  0  0  0  0  0
   -4.5753   -7.6278   -2.7058 O   0  0  0  0  0  0  0  0  0  0  0  0
   -2.4032   -6.4691   -3.0055 C   0  0  0  0  0  0  0  0  0  0  0  0
   -1.3576   -6.1603   -3.9377 O   0  0  0  0  0  0  0  0  0  0  0  0
   -2.4072   -9.3612   -3.5035 C   0  0  2  0  0  0  0  0  0  0  0  0
   -3.1321   -8.4396   -4.3361 O   0  0  0  0  0  0  0  0  0  0  0  0
   -1.9109  -10.4846   -4.3946 C   0  0  2  0  0  0  0  0  0  0  0  0
   -1.2813   -9.9238   -5.5519 O   0  0  0  0  0  0  0  0  0  0  0  0
   -3.0671  -11.3424   -4.8596 C   0  0  1  0  0  0  0  0  0  0  0  0
   -2.5415  -12.5168   -5.4824 O   0  0  0  0  0  0  0  0  0  0  0  0
   -3.9547  -11.7229   -3.6899 C   0  0  2  0  0  0  0  0  0  0  0  0
   -5.1150  -12.3712   -4.1925 O   0  0  0  0  0  0  0  0  0  0  0  0
   -4.3817  -10.5071   -2.8784 C   0  0  2  0  0  0  0  0  0  0  0  0
   -3.2003   -9.8593   -2.4262 O   0  0  0  0  0  0  0  0  0  0  0  0
   -5.2637  -10.9042   -1.6887 C   0  0  0  0  0  0  0  0  0  0  0  0
   -4.5846  -11.7419   -0.7418 O   0  0  0  0  0  0  0  0  0  0  0  0
  1  2  1  0  0  0  0
  3  1  1  6  0  0  0
  3  9  1  0  0  0  0
  3  4  1  0  0  0  0
  4  5  1  1  0  0  0
  4  6  1  0  0  0  0
  6  7  1  6  0  0  0
  6  8  1  0  0  0  0
  8  9  1  0  0  0  0
  8 10  1  1  0  0  0
  8 13  1  0  0  0  0
 10 11  1  0  0  0  0
 12 13  1  6  0  0  0
 12 14  1  0  0  0  0
 12 21  1  0  0  0  0
 14 15  1  6  0  0  0
 14 16  1  0  0  0  0
 16 17  1  1  0  0  0
 16 18  1  0  0  0  0
 18 19  1  6  0  0  0
 18 20  1  0  0  0  0
 20 21  1  0  0  0  0
 20 22  1  1  0  0  0
 22 23  1  0  0  0  0
M  END
>  <CHROM.1>
-65.30086036,-66.10144411,-174.32796314,176.26498599,62.81270325,-4.08349679
-8.89691649,-3.75475427,1.97724665,0.40798348,-0.22196239

>  <Name>
ligand

>  <RI>
0

>  <Rbt.Current_Directory>
/home/itssahil/PROJECTS/Mol_Feturizer/New_Systems/rnas/4TS2

>  <Rbt.Executable>
rbdock ($Id: //depot/dev/client3/rdock/2013.1/src/exe/rbdock.cxx#4 $)

>  <Rbt.Library>
libRbt.so (2013.1, Build901 2013/11/27)

>  <Rbt.Parameter_File>
/export/apps/rDock/src/rDock_2013.1_src/data/scripts/dock_solv.prm

>  <Rbt.Receptor>
prm/pocket_docking_8.prm

>  <SCORE>
-8.60847

>  <SCORE.INTER>
-1.537

>  <SCORE.INTER.CONST>
1

>  <SCORE.INTER.POLAR>
0

>  <SCORE.INTER.ROT>
5

>  <SCORE.INTER.SOLV>
6.51859

>  <SCORE.INTER.VDW>
-10.1309

>  <SCORE.INTER.norm>
-0.066826

>  <SCORE.INTRA>
-7.07148

>  <SCORE.INTRA.DIHEDRAL>
-11.9186

>  <SCORE.INTRA.DIHEDRAL.0>
12.4853

>  <SCORE.INTRA.POLAR>
0

>  <SCORE.INTRA.POLAR.0>
0

>  <SCORE.INTRA.REPUL>
0

>  <SCORE.INTRA.REPUL.0>
0

>  <SCORE.INTRA.SOLV>
0.48997

>  <SCORE.INTRA.SOLV.lig_0>
-31.1706

>  <SCORE.INTRA.VDW>
-1.35718

>  <SCORE.INTRA.VDW.0>
-1.16895

>  <SCORE.INTRA.norm>
-0.307456

>  <SCORE.RESTR>
0

>  <SCORE.RESTR.CAVITY>
0

>  <SCORE.RESTR.norm>
0

>  <SCORE.SYSTEM>
0

>  <SCORE.SYSTEM.CONST>
0

>  <SCORE.SYSTEM.DIHEDRAL>
0

>  <SCORE.SYSTEM.SOLV>
0

>  <SCORE.SYSTEM.norm>
0

>  <SCORE.heavy>
23

>  <SCORE.norm>
-0.374282

>  <RMSD>
6.027

$$$$
ligand
 OpenBabel11021811513D
libRbt.so/2013.1/901 2013/11/27
 23 24  0  0  0  0  0  0  0  0999 V2000
   -4.0528   -6.8829   -0.8462 C   0  0  0  0  0  0  0  0  0  0  0  0
   -2.6658   -6.9204   -1.2339 O   0  0  0  0  0  0  0  0  0  0  0  0
   -4.2429   -7.7389    0.3978 C   0  0  2  0  0  0  0  0  0  0  0  0
   -3.8615   -9.2039    0.2510 C   0  0  1  0  0  0  0  0  0  0  0  0
   -2.4427   -9.3374    0.3571 O   0  0  0  0  0  0  0  0  0  0  0  0
   -4.6316   -9.8452    1.4004 C   0  0  2  0  0  0  0  0  0  0  0  0
   -4.9179  -11.2474    1.3364 O   0  0  0  0  0  0  0  0  0  0  0  0
   -5.9249   -9.0497    1.3780 C   0  0  2  0  0  0  0  0  0  0  0  0
   -5.6097   -7.7567    0.8193 O   0  0  0  0  0  0  0  0  0  0  0  0
   -6.4413   -8.9550    2.8250 C   0  0  0  0  0  0  0  0  0  0  0  0
   -6.8077  -10.2348    3.3593 O   0  0  0  0  0  0  0  0  0  0  0  0
   -8.1173   -9.0220    0.3680 C   0  0  2  0  0  0  0  0  0  0  0  0
   -6.8507   -9.6927    0.4856 O   0  0  0  0  0  0  0  0  0  0  0  0
   -9.0461   -9.9381   -0.4070 C   0  0  2  0  0  0  0  0  0  0  0  0
   -8.9864  -11.2535    0.1554 O   0  0  0  0  0  0  0  0  0  0  0  0
   -8.6158  -10.0274   -1.8547 C   0  0  1  0  0  0  0  0  0  0  0  0
   -9.6436  -10.6896   -2.5954 O   0  0  0  0  0  0  0  0  0  0  0  0
   -8.3680   -8.6439   -2.4250 C   0  0  2  0  0  0  0  0  0  0  0  0
   -7.7981   -8.7819   -3.7195 O   0  0  0  0  0  0  0  0  0  0  0  0
   -7.4216   -7.8287   -1.5541 C   0  0  2  0  0  0  0  0  0  0  0  0
   -7.9995   -7.7447   -0.2584 O   0  0  0  0  0  0  0  0  0  0  0  0
   -7.1918   -6.4264   -2.1299 C   0  0  0  0  0  0  0  0  0  0  0  0
   -6.5441   -6.4449   -3.4104 O   0  0  0  0  0  0  0  0  0  0  0  0
  1  2  1  0  0  0  0
  3  1  1  6  0  0  0
  3  9  1  0  0  0  0
  3  4  1  0  0  0  0
  4  5  1  1  0  0  0
  4  6  1  0  0  0  0
  6  7  1  6  0  0  0
  6  8  1  0  0  0  0
  8  9  1  0  0  0  0
  8 10  1  1  0  0  0
  8 13  1  0  0  0  0
 10 11  1  0  0  0  0
 12 13  1  6  0  0  0
 12 14  1  0  0  0  0
 12 21  1  0  0  0  0
 14 15  1  1  0  0  0
 14 16  1  0  0  0  0
 16 17  1  6  0  0  0
 16 18  1  0  0  0  0
 18 19  1  6  0  0  0
 18 20  1  0  0  0  0
 20 21  1  0  0  0  0
 20 22  1  6  0  0  0
 22 23  1  0  0  0  0
M  END
>  <CHROM.1>
-59.49578919,-65.07755719,-170.52707222,-179.42733744,-63.59196051,-6.43390991
-8.86554524,-0.33096273,-0.41902990,-0.40314746,-0.98772961

>  <Name>
ligand

>  <RI>
0

>  <Rbt.Current_Directory>
/home/itssahil/PROJECTS/Mol_Feturizer/New_Systems/rnas/4TS2

>  <Rbt.Executable>
rbdock ($Id: //depot/dev/client3/rdock/2013.1/src/exe/rbdock.cxx#4 $)

>  <Rbt.Library>
libRbt.so (2013.1, Build901 2013/11/27)

>  <Rbt.Parameter_File>
/export/apps/rDock/src/rDock_2013.1_src/data/scripts/dock_solv.prm

>  <Rbt.Receptor>
prm/pocket_docking_3.prm

>  <SCORE>
-8.71028

>  <SCORE.INTER>
-1.75779

>  <SCORE.INTER.CONST>
1

>  <SCORE.INTER.POLAR>
0

>  <SCORE.INTER.ROT>
5

>  <SCORE.INTER.SOLV>
7.62437

>  <SCORE.INTER.VDW>
-10.6467

>  <SCORE.INTER.norm>
-0.0764259

>  <SCORE.INTRA>
-6.95248

>  <SCORE.INTRA.DIHEDRAL>
-11.8865

>  <SCORE.INTRA.DIHEDRAL.0>
12.4853

>  <SCORE.INTRA.POLAR>
0

>  <SCORE.INTRA.POLAR.0>
0

>  <SCORE.INTRA.REPUL>
0

>  <SCORE.INTRA.REPUL.0>
0

>  <SCORE.INTRA.SOLV>
0.711714

>  <SCORE.INTRA.SOLV.lig_0>
-31.1706

>  <SCORE.INTRA.VDW>
-1.36509

>  <SCORE.INTRA.VDW.0>
-1.16895

>  <SCORE.INTRA.norm>
-0.302282

>  <SCORE.RESTR>
0

>  <SCORE.RESTR.CAVITY>
0

>  <SCORE.RESTR.norm>
0

>  <SCORE.SYSTEM>
0

>  <SCORE.SYSTEM.CONST>
0

>  <SCORE.SYSTEM.DIHEDRAL>
0

>  <SCORE.SYSTEM.SOLV>
0

>  <SCORE.SYSTEM.norm>
0

>  <SCORE.heavy>
23

>  <SCORE.norm>
-0.378708

>  <RMSD>
6.029

$$$$
ligand
 OpenBabel11021811513D
libRbt.so/2013.1/901 2013/11/27
 23 24  0  0  0  0  0  0  0  0999 V2000
   -6.6990   -7.9632    1.1651 C   0  0  0  0  0  0  0  0  0  0  0  0
   -7.5258   -9.1371    1.2826 O   0  0  0  0  0  0  0  0  0  0  0  0
   -5.2664   -8.3924    0.8822 C   0  0  2  0  0  0  0  0  0  0  0  0
   -4.2272   -7.2829    0.9300 C   0  0  1  0  0  0  0  0  0  0  0  0
   -3.8917   -7.0058    2.2912 O   0  0  0  0  0  0  0  0  0  0  0  0
   -3.0847   -7.8883    0.1215 C   0  0  2  0  0  0  0  0  0  0  0  0
   -2.1161   -7.0089   -0.4622 O   0  0  0  0  0  0  0  0  0  0  0  0
   -3.8434   -8.6226   -0.9698 C   0  0  2  0  0  0  0  0  0  0  0  0
   -5.1364   -8.9601   -0.4243 O   0  0  0  0  0  0  0  0  0  0  0  0
   -3.0237   -9.8679   -1.3531 C   0  0  0  0  0  0  0  0  0  0  0  0
   -2.8793  -10.7849   -0.2594 O   0  0  0  0  0  0  0  0  0  0  0  0
   -4.6138   -8.3496   -3.2413 C   0  0  2  0  0  0  0  0  0  0  0  0
   -4.0594   -7.7240   -2.0711 O   0  0  0  0  0  0  0  0  0  0  0  0
   -4.4877   -7.3625   -4.3868 C   0  0  2  0  0  0  0  0  0  0  0  0
   -3.1519   -6.8480   -4.4196 O   0  0  0  0  0  0  0  0  0  0  0  0
   -5.4335   -6.1983   -4.1897 C   0  0  1  0  0  0  0  0  0  0  0  0
   -5.4654   -5.4282   -5.3936 O   0  0  0  0  0  0  0  0  0  0  0  0
   -6.8261   -6.6929   -3.8477 C   0  0  2  0  0  0  0  0  0  0  0  0
   -7.6314   -5.5756   -3.4976 O   0  0  0  0  0  0  0  0  0  0  0  0
   -6.8131   -7.6751   -2.6841 C   0  0  2  0  0  0  0  0  0  0  0  0
   -5.9680   -8.7579   -3.0491 O   0  0  0  0  0  0  0  0  0  0  0  0
   -8.2228   -8.1823   -2.3580 C   0  0  0  0  0  0  0  0  0  0  0  0
   -8.2329   -9.1997   -1.3460 O   0  0  0  0  0  0  0  0  0  0  0  0
  1  2  1  0  0  0  0
  3  1  1  6  0  0  0
  3  9  1  0  0  0  0
  3  4  1  0  0  0  0
  4  5  1  1  0  0  0
  4  6  1  0  0  0  0
  6  7  1  6  0  0  0
  6  8  1  0  0  0  0
  8  9  1  0  0  0  0
  8 10  1  6  0  0  0
  8 13  1  0  0  0  0
 10 11  1  0  0  0  0
 12 13  1  1  0  0  0
 12 14  1  0  0  0  0
 12 21  1  0  0  0  0
 14 15  1  1  0  0  0
 14 16  1  0  0  0  0
 16 17  1  6  0  0  0
 16 18  1  0  0  0  0
 18 19  1  1  0  0  0
 18 20  1  0  0  0  0
 20 21  1  0  0  0  0
 20 22  1  6  0  0  0
 22 23  1  0  0  0  0
M  END
>  <CHROM.1>
-171.46714479,62.63252253,-167.48510113,172.22226142,174.74967110,-5.16202757
-7.86975581,-1.61160050,1.28005250,-0.00242759,1.94033455

>  <Name>
ligand

>  <RI>
0

>  <Rbt.Current_Directory>
/home/itssahil/PROJECTS/Mol_Feturizer/New_Systems/rnas/4TS2

>  <Rbt.Executable>
rbdock ($Id: //depot/dev/client3/rdock/2013.1/src/exe/rbdock.cxx#4 $)

>  <Rbt.Library>
libRbt.so (2013.1, Build901 2013/11/27)

>  <Rbt.Parameter_File>
/export/apps/rDock/src/rDock_2013.1_src/data/scripts/dock_solv.prm

>  <Rbt.Receptor>
prm/pocket_docking_5.prm

>  <SCORE>
-10.657

>  <SCORE.INTER>
-4.08079

>  <SCORE.INTER.CONST>
1

>  <SCORE.INTER.POLAR>
0

>  <SCORE.INTER.ROT>
5

>  <SCORE.INTER.SOLV>
7.95876

>  <SCORE.INTER.VDW>
-12.3068

>  <SCORE.INTER.norm>
-0.177426

>  <SCORE.INTRA>
-6.57619

>  <SCORE.INTRA.DIHEDRAL>
-10.8711

>  <SCORE.INTRA.DIHEDRAL.0>
12.4853

>  <SCORE.INTRA.POLAR>
0

>  <SCORE.INTRA.POLAR.0>
0

>  <SCORE.INTRA.REPUL>
0

>  <SCORE.INTRA.REPUL.0>
0

>  <SCORE.INTRA.SOLV>
0.653024

>  <SCORE.INTRA.SOLV.lig_0>
-31.1706

>  <SCORE.INTRA.VDW>
-1.46713

>  <SCORE.INTRA.VDW.0>
-1.16895

>  <SCORE.INTRA.norm>
-0.285921

>  <SCORE.RESTR>
0

>  <SCORE.RESTR.CAVITY>
0

>  <SCORE.RESTR.norm>
0

>  <SCORE.SYSTEM>
0

>  <SCORE.SYSTEM.CONST>
0

>  <SCORE.SYSTEM.DIHEDRAL>
0

>  <SCORE.SYSTEM.SOLV>
0

>  <SCORE.SYSTEM.norm>
0

>  <SCORE.heavy>
23

>  <SCORE.norm>
-0.463347

>  <RMSD>
6.030

$$$$
ligand
 OpenBabel11021811513D
libRbt.so/2013.1/901 2013/11/27
 23 24  0  0  0  0  0  0  0  0999 V2000
   -3.2630   -8.4278   -1.6738 C   0  0  0  0  0  0  0  0  0  0  0  0
   -2.0979   -9.0867   -2.2068 O   0  0  0  0  0  0  0  0  0  0  0  0
   -3.5831   -9.0160   -0.3071 C   0  0  2  0  0  0  0  0  0  0  0  0
   -3.9606  -10.4894   -0.2987 C   0  0  1  0  0  0  0  0  0  0  0  0
   -2.7750  -11.2831   -0.3797 O   0  0  0  0  0  0  0  0  0  0  0  0
   -4.7011  -10.6159    1.0284 C   0  0  2  0  0  0  0  0  0  0  0  0
   -5.6109  -11.7084    1.2049 O   0  0  0  0  0  0  0  0  0  0  0  0
   -5.4552   -9.2989    1.0798 C   0  0  2  0  0  0  0  0  0  0  0  0
   -4.6917   -8.3505    0.3046 O   0  0  0  0  0  0  0  0  0  0  0  0
   -5.5777   -8.8871    2.5580 C   0  0  0  0  0  0  0  0  0  0  0  0
   -6.3649   -9.8132    3.3198 O   0  0  0  0  0  0  0  0  0  0  0  0
   -7.5347   -8.2762    0.4033 C   0  0  2  0  0  0  0  0  0  0  0  0
   -6.7266   -9.4655    0.4296 O   0  0  0  0  0  0  0  0  0  0  0  0
   -8.8994   -8.6663   -0.1331 C   0  0  2  0  0  0  0  0  0  0  0  0
   -9.3642   -9.8278    0.5633 O   0  0  0  0  0  0  0  0  0  0  0  0
   -8.8132   -9.0056   -1.6049 C   0  0  1  0  0  0  0  0  0  0  0  0
  -10.1399   -9.1242   -2.1237 O   0  0  0  0  0  0  0  0  0  0  0  0
   -8.0510   -7.9315   -2.3574 C   0  0  2  0  0  0  0  0  0  0  0  0
   -7.8401   -8.3744   -3.6911 O   0  0  0  0  0  0  0  0  0  0  0  0
   -6.7015   -7.6348   -1.7172 C   0  0  2  0  0  0  0  0  0  0  0  0
   -6.9444   -7.2354   -0.3750 O   0  0  0  0  0  0  0  0  0  0  0  0
   -5.9471   -6.5358   -2.4748 C   0  0  0  0  0  0  0  0  0  0  0  0
   -5.5682   -6.9282   -3.8023 O   0  0  0  0  0  0  0  0  0  0  0  0
  1  2  1  0  0  0  0
  3  1  1  6  0  0  0
  3  9  1  0  0  0  0
  3  4  1  0  0  0  0
  4  5  1  1  0  0  0
  4  6  1  0  0  0  0
  6  7  1  6  0  0  0
  6  8  1  0  0  0  0
  8  9  1  0  0  0  0
  8 10  1  1  0  0  0
  8 13  1  0  0  0  0
 10 11  1  0  0  0  0
 12 13  1  6  0  0  0
 12 14  1  0  0  0  0
 12 21  1  0  0  0  0
 14 15  1  1  0  0  0
 14 16  1  0  0  0  0
 16 17  1  6  0  0  0
 16 18  1  0  0  0  0
 18 19  1  6  0  0  0
 18 20  1  0  0  0  0
 20 21  1  0  0  0  0
 20 22  1  6  0  0  0
 22 23  1  0  0  0  0
M  END
>  <CHROM.1>
-63.48681468,-64.06724351,-172.21243913,-179.51443816,-65.70851168,-6.11261108
-8.96957346,-0.54560353,-0.51914348,0.11083442,-1.09259333

>  <Name>
ligand

>  <RI>
0

>  <Rbt.Current_Directory>
/home/itssahil/PROJECTS/Mol_Feturizer/New_Systems/rnas/4TS2

>  <Rbt.Executable>
rbdock ($Id: //depot/dev/client3/rdock/2013.1/src/exe/rbdock.cxx#4 $)

>  <Rbt.Library>
libRbt.so (2013.1, Build901 2013/11/27)

>  <Rbt.Parameter_File>
/export/apps/rDock/src/rDock_2013.1_src/data/scripts/dock_solv.prm

>  <Rbt.Receptor>
prm/pocket_docking_8.prm

>  <SCORE>
-8.96687

>  <SCORE.INTER>
-1.98434

>  <SCORE.INTER.CONST>
1

>  <SCORE.INTER.POLAR>
0

>  <SCORE.INTER.ROT>
5

>  <SCORE.INTER.SOLV>
7.51104

>  <SCORE.INTER.VDW>
-10.7599

>  <SCORE.INTER.norm>
-0.0862757

>  <SCORE.INTRA>
-6.98253

>  <SCORE.INTRA.DIHEDRAL>
-11.9336

>  <SCORE.INTRA.DIHEDRAL.0>
12.4853

>  <SCORE.INTRA.POLAR>
0

>  <SCORE.INTRA.POLAR.0>
0

>  <SCORE.INTRA.REPUL>
0

>  <SCORE.INTRA.REPUL.0>
0

>  <SCORE.INTRA.SOLV>
0.69413

>  <SCORE.INTRA.SOLV.lig_0>
-31.1706

>  <SCORE.INTRA.VDW>
-1.3628

>  <SCORE.INTRA.VDW.0>
-1.16895

>  <SCORE.INTRA.norm>
-0.303588

>  <SCORE.RESTR>
0

>  <SCORE.RESTR.CAVITY>
0

>  <SCORE.RESTR.norm>
0

>  <SCORE.SYSTEM>
0

>  <SCORE.SYSTEM.CONST>
0

>  <SCORE.SYSTEM.DIHEDRAL>
0

>  <SCORE.SYSTEM.SOLV>
0

>  <SCORE.SYSTEM.norm>
0

>  <SCORE.heavy>
23

>  <SCORE.norm>
-0.389864

>  <RMSD>
6.030

$$$$
ligand
 OpenBabel11021811513D
libRbt.so/2013.1/901 2013/11/27
 23 24  0  0  0  0  0  0  0  0999 V2000
   -6.5618   -7.8904    1.2930 C   0  0  0  0  0  0  0  0  0  0  0  0
   -7.4153   -9.0489    1.3625 O   0  0  0  0  0  0  0  0  0  0  0  0
   -5.1495   -8.3358    0.9415 C   0  0  2  0  0  0  0  0  0  0  0  0
   -4.0991   -7.2358    0.9257 C   0  0  1  0  0  0  0  0  0  0  0  0
   -3.6921   -6.9497    2.2653 O   0  0  0  0  0  0  0  0  0  0  0  0
   -3.0050   -7.8593    0.0657 C   0  0  2  0  0  0  0  0  0  0  0  0
   -2.0596   -6.9944   -0.5749 O   0  0  0  0  0  0  0  0  0  0  0  0
   -3.8251   -8.5961   -0.9785 C   0  0  2  0  0  0  0  0  0  0  0  0
   -5.0915   -8.9163   -0.3646 O   0  0  0  0  0  0  0  0  0  0  0  0
   -3.0373   -9.8526   -1.3913 C   0  0  0  0  0  0  0  0  0  0  0  0
   -2.8163  -10.7451   -0.2903 O   0  0  0  0  0  0  0  0  0  0  0  0
   -4.6998   -8.3379   -3.2136 C   0  0  2  0  0  0  0  0  0  0  0  0
   -4.0889   -7.7054   -2.0757 O   0  0  0  0  0  0  0  0  0  0  0  0
   -4.6224   -7.3610   -4.3721 C   0  0  2  0  0  0  0  0  0  0  0  0
   -3.2873   -6.8534   -4.4711 O   0  0  0  0  0  0  0  0  0  0  0  0
   -5.5528   -6.1905   -4.1413 C   0  0  1  0  0  0  0  0  0  0  0  0
   -5.6369   -5.4303   -5.3490 O   0  0  0  0  0  0  0  0  0  0  0  0
   -6.9303   -6.6754   -3.7310 C   0  0  2  0  0  0  0  0  0  0  0  0
   -7.7134   -5.5512   -3.3535 O   0  0  0  0  0  0  0  0  0  0  0  0
   -6.8678   -7.6479   -2.5609 C   0  0  2  0  0  0  0  0  0  0  0  0
   -6.0455   -8.7380   -2.9554 O   0  0  0  0  0  0  0  0  0  0  0  0
   -8.2632   -8.1454   -2.1656 C   0  0  0  0  0  0  0  0  0  0  0  0
   -8.2284   -9.1957   -1.1882 O   0  0  0  0  0  0  0  0  0  0  0  0
  1  2  1  0  0  0  0
  3  1  1  6  0  0  0
  3  9  1  0  0  0  0
  3  4  1  0  0  0  0
  4  5  1  1  0  0  0
  4  6  1  0  0  0  0
  6  7  1  6  0  0  0
  6  8  1  0  0  0  0
  8  9  1  0  0  0  0
  8 10  1  6  0  0  0
  8 13  1  0  0  0  0
 10 11  1  0  0  0  0
 12 13  1  1  0  0  0
 12 14  1  0  0  0  0
 12 21  1  0  0  0  0
 14 15  1  1  0  0  0
 14 16  1  0  0  0  0
 16 17  1  6  0  0  0
 16 18  1  0  0  0  0
 18 19  1  1  0  0  0
 18 20  1  0  0  0  0
 20 21  1  0  0  0  0
 20 22  1  6  0  0  0
 22 23  1  0  0  0  0
M  END
>  <CHROM.1>
-175.83778160,61.16079064,-167.43161495,171.82741223,172.16824971,-5.16545054
-7.84139786,-1.57025727,1.22499339,-0.01881831,1.93148135

>  <Name>
ligand

>  <RI>
0

>  <Rbt.Current_Directory>
/home/itssahil/PROJECTS/Mol_Feturizer/New_Systems/rnas/4TS2

>  <Rbt.Executable>
rbdock ($Id: //depot/dev/client3/rdock/2013.1/src/exe/rbdock.cxx#4 $)

>  <Rbt.Library>
libRbt.so (2013.1, Build901 2013/11/27)

>  <Rbt.Parameter_File>
/export/apps/rDock/src/rDock_2013.1_src/data/scripts/dock_solv.prm

>  <Rbt.Receptor>
prm/pocket_docking_7.prm

>  <SCORE>
-10.6486

>  <SCORE.INTER>
-4.10559

>  <SCORE.INTER.CONST>
1

>  <SCORE.INTER.POLAR>
0

>  <SCORE.INTER.ROT>
5

>  <SCORE.INTER.SOLV>
7.93066

>  <SCORE.INTER.VDW>
-12.3139

>  <SCORE.INTER.norm>
-0.178504

>  <SCORE.INTRA>
-6.543

>  <SCORE.INTRA.DIHEDRAL>
-10.9354

>  <SCORE.INTRA.DIHEDRAL.0>
12.4853

>  <SCORE.INTRA.POLAR>
0

>  <SCORE.INTRA.POLAR.0>
0

>  <SCORE.INTRA.REPUL>
0

>  <SCORE.INTRA.REPUL.0>
0

>  <SCORE.INTRA.SOLV>
0.690605

>  <SCORE.INTRA.SOLV.lig_0>
-31.1706

>  <SCORE.INTRA.VDW>
-1.42062

>  <SCORE.INTRA.VDW.0>
-1.16895

>  <SCORE.INTRA.norm>
-0.284478

>  <SCORE.RESTR>
0

>  <SCORE.RESTR.CAVITY>
0

>  <SCORE.RESTR.norm>
0

>  <SCORE.SYSTEM>
0

>  <SCORE.SYSTEM.CONST>
0

>  <SCORE.SYSTEM.DIHEDRAL>
0

>  <SCORE.SYSTEM.SOLV>
0

>  <SCORE.SYSTEM.norm>
0

>  <SCORE.heavy>
23

>  <SCORE.norm>
-0.462982

>  <RMSD>
6.032

$$$$
ligand
 OpenBabel11021811513D
libRbt.so/2013.1/901 2013/11/27
 23 24  0  0  0  0  0  0  0  0999 V2000
   -4.1987   -8.9038    1.6272 C   0  0  0  0  0  0  0  0  0  0  0  0
   -4.4838   -7.9145    2.6350 O   0  0  0  0  0  0  0  0  0  0  0  0
   -5.5057   -9.3510    0.9882 C   0  0  2  0  0  0  0  0  0  0  0  0
   -5.3772  -10.4071   -0.0988 C   0  0  1  0  0  0  0  0  0  0  0  0
   -5.2150  -11.6920    0.5054 O   0  0  0  0  0  0  0  0  0  0  0  0
   -6.6906  -10.2399   -0.8553 C   0  0  2  0  0  0  0  0  0  0  0  0
   -6.7685  -10.7092   -2.2066 O   0  0  0  0  0  0  0  0  0  0  0  0
   -6.8703   -8.7325   -0.8182 C   0  0  2  0  0  0  0  0  0  0  0  0
   -6.1838   -8.2594    0.3600 O   0  0  0  0  0  0  0  0  0  0  0  0
   -8.3815   -8.4422   -0.7746 C   0  0  0  0  0  0  0  0  0  0  0  0
   -9.0209   -9.0436    0.3599 O   0  0  0  0  0  0  0  0  0  0  0  0
   -6.1983   -6.7199   -1.9696 C   0  0  2  0  0  0  0  0  0  0  0  0
   -6.2145   -8.1579   -1.9613 O   0  0  0  0  0  0  0  0  0  0  0  0
   -6.8573   -6.2656   -3.2586 C   0  0  2  0  0  0  0  0  0  0  0  0
   -8.0957   -6.9647   -3.4257 O   0  0  0  0  0  0  0  0  0  0  0  0
   -5.9753   -6.5847   -4.4457 C   0  0  1  0  0  0  0  0  0  0  0  0
   -6.5079   -5.9283   -5.5985 O   0  0  0  0  0  0  0  0  0  0  0  0
   -4.5519   -6.1257   -4.1929 C   0  0  2  0  0  0  0  0  0  0  0  0
   -3.7272   -6.6016   -5.2478 O   0  0  0  0  0  0  0  0  0  0  0  0
   -4.0102   -6.6489   -2.8693 C   0  0  2  0  0  0  0  0  0  0  0  0
   -4.8786   -6.1909   -1.8418 O   0  0  0  0  0  0  0  0  0  0  0  0
   -2.5777   -6.1649   -2.6151 C   0  0  0  0  0  0  0  0  0  0  0  0
   -2.4898   -4.7444   -2.4307 O   0  0  0  0  0  0  0  0  0  0  0  0
  1  2  1  0  0  0  0
  3  1  1  6  0  0  0
  3  9  1  0  0  0  0
  3  4  1  0  0  0  0
  4  5  1  1  0  0  0
  4  6  1  0  0  0  0
  6  7  1  6  0  0  0
  6  8  1  0  0  0  0
  8  9  1  0  0  0  0
  8 10  1  1  0  0  0
  8 13  1  0  0  0  0
 10 11  1  0  0  0  0
 12 13  1  6  0  0  0
 12 14  1  0  0  0  0
 12 21  1  0  0  0  0
 14 15  1  6  0  0  0
 14 16  1  0  0  0  0
 16 17  1  6  0  0  0
 16 18  1  0  0  0  0
 18 19  1  6  0  0  0
 18 20  1  0  0  0  0
 20 21  1  0  0  0  0
 20 22  1  1  0  0  0
 22 23  1  0  0  0  0
M  END
>  <CHROM.1>
-179.67753165,58.52318350,-123.02699350,-174.07682589,65.82808756,-5.68606837
-7.85539890,-1.65635194,-1.82320054,-0.43268640,-1.01211060

>  <Name>
ligand

>  <RI>
0

>  <Rbt.Current_Directory>
/home/itssahil/PROJECTS/Mol_Feturizer/New_Systems/rnas/4TS2

>  <Rbt.Executable>
rbdock ($Id: //depot/dev/client3/rdock/2013.1/src/exe/rbdock.cxx#4 $)

>  <Rbt.Library>
libRbt.so (2013.1, Build901 2013/11/27)

>  <Rbt.Parameter_File>
/export/apps/rDock/src/rDock_2013.1_src/data/scripts/dock_solv.prm

>  <Rbt.Receptor>
prm/pocket_docking_6.prm

>  <SCORE>
-6.32587

>  <SCORE.INTER>
-2.80294

>  <SCORE.INTER.CONST>
1

>  <SCORE.INTER.POLAR>
0

>  <SCORE.INTER.ROT>
5

>  <SCORE.INTER.SOLV>
9.63321

>  <SCORE.INTER.VDW>
-12.013

>  <SCORE.INTER.norm>
-0.121867

>  <SCORE.INTRA>
-3.52293

>  <SCORE.INTRA.DIHEDRAL>
-5.11049

>  <SCORE.INTRA.DIHEDRAL.0>
12.4853

>  <SCORE.INTRA.POLAR>
0

>  <SCORE.INTRA.POLAR.0>
0

>  <SCORE.INTRA.REPUL>
0

>  <SCORE.INTRA.REPUL.0>
0

>  <SCORE.INTRA.SOLV>
-0.189468

>  <SCORE.INTRA.SOLV.lig_0>
-31.1706

>  <SCORE.INTRA.VDW>
-0.872956

>  <SCORE.INTRA.VDW.0>
-1.16895

>  <SCORE.INTRA.norm>
-0.153171

>  <SCORE.RESTR>
0

>  <SCORE.RESTR.CAVITY>
0

>  <SCORE.RESTR.norm>
0

>  <SCORE.SYSTEM>
0

>  <SCORE.SYSTEM.CONST>
0

>  <SCORE.SYSTEM.DIHEDRAL>
0

>  <SCORE.SYSTEM.SOLV>
0

>  <SCORE.SYSTEM.norm>
0

>  <SCORE.heavy>
23

>  <SCORE.norm>
-0.275038

>  <RMSD>
6.038

$$$$
ligand
 OpenBabel11021811513D
libRbt.so/2013.1/901 2013/11/27
 23 24  0  0  0  0  0  0  0  0999 V2000
   -3.2598   -8.5018   -1.5825 C   0  0  0  0  0  0  0  0  0  0  0  0
   -2.1256   -9.2133   -2.1144 O   0  0  0  0  0  0  0  0  0  0  0  0
   -3.6182   -9.0859   -0.2235 C   0  0  2  0  0  0  0  0  0  0  0  0
   -4.0179  -10.5535   -0.2246 C   0  0  1  0  0  0  0  0  0  0  0  0
   -2.8428  -11.3648   -0.2806 O   0  0  0  0  0  0  0  0  0  0  0  0
   -4.7888  -10.6696    1.0860 C   0  0  2  0  0  0  0  0  0  0  0  0
   -5.7184  -11.7483    1.2418 O   0  0  0  0  0  0  0  0  0  0  0  0
   -5.5240   -9.3414    1.1222 C   0  0  2  0  0  0  0  0  0  0  0  0
   -4.7297   -8.4041    0.3646 O   0  0  0  0  0  0  0  0  0  0  0  0
   -5.6722   -8.9286    2.5978 C   0  0  0  0  0  0  0  0  0  0  0  0
   -4.4048   -8.7387    3.2421 O   0  0  0  0  0  0  0  0  0  0  0  0
   -7.5749   -8.2885    0.4061 C   0  0  2  0  0  0  0  0  0  0  0  0
   -6.7833   -9.4885    0.4445 O   0  0  0  0  0  0  0  0  0  0  0  0
   -8.9359   -8.6599   -0.1525 C   0  0  2  0  0  0  0  0  0  0  0  0
   -9.4274   -9.8155    0.5355 O   0  0  0  0  0  0  0  0  0  0  0  0
   -8.8305   -8.9996   -1.6230 C   0  0  1  0  0  0  0  0  0  0  0  0
  -10.1502   -9.1002   -2.1631 O   0  0  0  0  0  0  0  0  0  0  0  0
   -8.0420   -7.9354   -2.3623 C   0  0  2  0  0  0  0  0  0  0  0  0
   -7.8156   -8.3804   -3.6927 O   0  0  0  0  0  0  0  0  0  0  0  0
   -6.6992   -7.6571   -1.7002 C   0  0  2  0  0  0  0  0  0  0  0  0
   -6.9582   -7.2553   -0.3619 O   0  0  0  0  0  0  0  0  0  0  0  0
   -5.9180   -6.5680   -2.4448 C   0  0  0  0  0  0  0  0  0  0  0  0
   -5.5368   -6.9588   -3.7721 O   0  0  0  0  0  0  0  0  0  0  0  0
  1  2  1  0  0  0  0
  3  1  1  6  0  0  0
  3  9  1  0  0  0  0
  3  4  1  0  0  0  0
  4  5  1  1  0  0  0
  4  6  1  0  0  0  0
  6  7  1  6  0  0  0
  6  8  1  0  0  0  0
  8  9  1  0  0  0  0
  8 10  1  1  0  0  0
  8 13  1  0  0  0  0
 10 11  1  0  0  0  0
 12 13  1  6  0  0  0
 12 14  1  0  0  0  0
 12 21  1  0  0  0  0
 14 15  1  1  0  0  0
 14 16  1  0  0  0  0
 16 17  1  6  0  0  0
 16 18  1  0  0  0  0
 18 19  1  6  0  0  0
 18 20  1  0  0  0  0
 20 21  1  0  0  0  0
 20 22  1  6  0  0  0
 22 23  1  0  0  0  0
M  END
>  <CHROM.1>
-61.24097436,61.73799152,-171.85762818,-179.73334617,-65.01319229,-6.04984655
-8.95070322,-0.52024442,-0.55299749,0.08018386,-1.13410942

>  <Name>
ligand

>  <RI>
0

>  <Rbt.Current_Directory>
/home/itssahil/PROJECTS/Mol_Feturizer/New_Systems/rnas/4TS2

>  <Rbt.Executable>
rbdock ($Id: //depot/dev/client3/rdock/2013.1/src/exe/rbdock.cxx#4 $)

>  <Rbt.Library>
libRbt.so (2013.1, Build901 2013/11/27)

>  <Rbt.Parameter_File>
/export/apps/rDock/src/rDock_2013.1_src/data/scripts/dock_solv.prm

>  <Rbt.Receptor>
prm/pocket_docking_6.prm

>  <SCORE>
-8.95712

>  <SCORE.INTER>
-1.99916

>  <SCORE.INTER.CONST>
1

>  <SCORE.INTER.POLAR>
0

>  <SCORE.INTER.ROT>
5

>  <SCORE.INTER.SOLV>
7.63925

>  <SCORE.INTER.VDW>
-10.8125

>  <SCORE.INTER.norm>
-0.0869199

>  <SCORE.INTRA>
-6.95796

>  <SCORE.INTRA.DIHEDRAL>
-11.9758

>  <SCORE.INTRA.DIHEDRAL.0>
12.4853

>  <SCORE.INTRA.POLAR>
0

>  <SCORE.INTRA.POLAR.0>
0

>  <SCORE.INTRA.REPUL>
0

>  <SCORE.INTRA.REPUL.0>
0

>  <SCORE.INTRA.SOLV>
0.530181

>  <SCORE.INTRA.SOLV.lig_0>
-31.1706

>  <SCORE.INTRA.VDW>
-1.23517

>  <SCORE.INTRA.VDW.0>
-1.16895

>  <SCORE.INTRA.norm>
-0.30252

>  <SCORE.RESTR>
0

>  <SCORE.RESTR.CAVITY>
0

>  <SCORE.RESTR.norm>
0

>  <SCORE.SYSTEM>
0

>  <SCORE.SYSTEM.CONST>
0

>  <SCORE.SYSTEM.DIHEDRAL>
0

>  <SCORE.SYSTEM.SOLV>
0

>  <SCORE.SYSTEM.norm>
0

>  <SCORE.heavy>
23

>  <SCORE.norm>
-0.38944

>  <RMSD>
6.039

$$$$
ligand
 OpenBabel11021811513D
libRbt.so/2013.1/901 2013/11/27
 23 24  0  0  0  0  0  0  0  0999 V2000
   -6.6093   -7.8918    1.1804 C   0  0  0  0  0  0  0  0  0  0  0  0
   -7.4359   -9.0636    1.3180 O   0  0  0  0  0  0  0  0  0  0  0  0
   -5.1857   -8.3244    0.8599 C   0  0  2  0  0  0  0  0  0  0  0  0
   -4.1433   -7.2169    0.8782 C   0  0  1  0  0  0  0  0  0  0  0  0
   -3.7709   -6.9387    2.2295 O   0  0  0  0  0  0  0  0  0  0  0  0
   -3.0241   -7.8258    0.0402 C   0  0  2  0  0  0  0  0  0  0  0  0
   -2.0698   -6.9492   -0.5705 O   0  0  0  0  0  0  0  0  0  0  0  0
   -3.8133   -8.5601   -1.0293 C   0  0  2  0  0  0  0  0  0  0  0  0
   -5.0920   -8.8941   -0.4488 O   0  0  0  0  0  0  0  0  0  0  0  0
   -3.0067   -9.8076   -1.4326 C   0  0  0  0  0  0  0  0  0  0  0  0
   -1.7498   -9.4735   -2.0378 O   0  0  0  0  0  0  0  0  0  0  0  0
   -4.6334   -8.2906   -3.2838 C   0  0  2  0  0  0  0  0  0  0  0  0
   -4.0570   -7.6625   -2.1257 O   0  0  0  0  0  0  0  0  0  0  0  0
   -4.5564   -7.2950   -4.4262 C   0  0  2  0  0  0  0  0  0  0  0  0
   -3.2309   -6.7576   -4.4932 O   0  0  0  0  0  0  0  0  0  0  0  0
   -5.5158   -6.1482   -4.1952 C   0  0  1  0  0  0  0  0  0  0  0  0
   -5.5945   -5.3718   -5.3930 O   0  0  0  0  0  0  0  0  0  0  0  0
   -6.8896   -6.6684   -3.8174 C   0  0  2  0  0  0  0  0  0  0  0  0
   -7.7035   -5.5671   -3.4378 O   0  0  0  0  0  0  0  0  0  0  0  0
   -6.8272   -7.6570   -2.6608 C   0  0  2  0  0  0  0  0  0  0  0  0
   -5.9746   -8.7232   -3.0561 O   0  0  0  0  0  0  0  0  0  0  0  0
   -8.2185   -8.1900   -2.2984 C   0  0  0  0  0  0  0  0  0  0  0  0
   -8.1869   -9.1807   -1.2606 O   0  0  0  0  0  0  0  0  0  0  0  0
  1  2  1  0  0  0  0
  3  1  1  6  0  0  0
  3  9  1  0  0  0  0
  3  4  1  0  0  0  0
  4  5  1  1  0  0  0
  4  6  1  0  0  0  0
  6  7  1  6  0  0  0
  6  8  1  0  0  0  0
  8  9  1  0  0  0  0
  8 10  1  6  0  0  0
  8 13  1  0  0  0  0
 10 11  1  0  0  0  0
 12 13  1  1  0  0  0
 12 14  1  0  0  0  0
 12 21  1  0  0  0  0
 14 15  1  1  0  0  0
 14 16  1  0  0  0  0
 16 17  1  6  0  0  0
 16 18  1  0  0  0  0
 18 19  1  1  0  0  0
 18 20  1  0  0  0  0
 20 21  1  0  0  0  0
 20 22  1  6  0  0  0
 22 23  1  0  0  0  0
M  END
>  <CHROM.1>
-171.62774741,-63.96197112,-168.36609197,171.72972267,176.74652316,-5.10009048
-7.75764405,-1.71353699,1.25791174,-0.02535644,1.87447182

>  <Name>
ligand

>  <RI>
0

>  <Rbt.Current_Directory>
/home/itssahil/PROJECTS/Mol_Feturizer/New_Systems/rnas/4TS2

>  <Rbt.Executable>
rbdock ($Id: //depot/dev/client3/rdock/2013.1/src/exe/rbdock.cxx#4 $)

>  <Rbt.Library>
libRbt.so (2013.1, Build901 2013/11/27)

>  <Rbt.Parameter_File>
/export/apps/rDock/src/rDock_2013.1_src/data/scripts/dock_solv.prm

>  <Rbt.Receptor>
prm/pocket_docking_5.prm

>  <SCORE>
-10.7337

>  <SCORE.INTER>
-4.12142

>  <SCORE.INTER.CONST>
1

>  <SCORE.INTER.POLAR>
0

>  <SCORE.INTER.ROT>
5

>  <SCORE.INTER.SOLV>
8.07648

>  <SCORE.INTER.VDW>
-12.3731

>  <SCORE.INTER.norm>
-0.179192

>  <SCORE.INTRA>
-6.61231

>  <SCORE.INTRA.DIHEDRAL>
-11.0109

>  <SCORE.INTRA.DIHEDRAL.0>
12.4853

>  <SCORE.INTRA.POLAR>
0

>  <SCORE.INTRA.POLAR.0>
0

>  <SCORE.INTRA.REPUL>
0

>  <SCORE.INTRA.REPUL.0>
0

>  <SCORE.INTRA.SOLV>
0.911779

>  <SCORE.INTRA.SOLV.lig_0>
-31.1706

>  <SCORE.INTRA.VDW>
-1.56272

>  <SCORE.INTRA.VDW.0>
-1.16895

>  <SCORE.INTRA.norm>
-0.287492

>  <SCORE.RESTR>
0

>  <SCORE.RESTR.CAVITY>
0

>  <SCORE.RESTR.norm>
0

>  <SCORE.SYSTEM>
0

>  <SCORE.SYSTEM.CONST>
0

>  <SCORE.SYSTEM.DIHEDRAL>
0

>  <SCORE.SYSTEM.SOLV>
0

>  <SCORE.SYSTEM.norm>
0

>  <SCORE.heavy>
23

>  <SCORE.norm>
-0.466684

>  <RMSD>
6.055

$$$$
ligand
 OpenBabel11021811513D
libRbt.so/2013.1/901 2013/11/27
 23 24  0  0  0  0  0  0  0  0999 V2000
   -3.6547   -6.8546   -0.1195 C   0  0  0  0  0  0  0  0  0  0  0  0
   -2.2650   -6.9308   -0.4918 O   0  0  0  0  0  0  0  0  0  0  0  0
   -3.9483   -7.9257    0.9211 C   0  0  2  0  0  0  0  0  0  0  0  0
   -3.7578   -9.3616    0.4569 C   0  0  1  0  0  0  0  0  0  0  0  0
   -2.3673   -9.6897    0.4890 O   0  0  0  0  0  0  0  0  0  0  0  0
   -4.5995  -10.1324    1.4683 C   0  0  2  0  0  0  0  0  0  0  0  0
   -5.0630  -11.4421    1.1188 O   0  0  0  0  0  0  0  0  0  0  0  0
   -5.7806   -9.1961    1.6539 C   0  0  2  0  0  0  0  0  0  0  0  0
   -5.3046   -7.8631    1.3711 O   0  0  0  0  0  0  0  0  0  0  0  0
   -6.2755   -9.3487    3.1035 C   0  0  0  0  0  0  0  0  0  0  0  0
   -6.8198  -10.6507    3.3609 O   0  0  0  0  0  0  0  0  0  0  0  0
   -7.8102   -8.5158    0.5378 C   0  0  2  0  0  0  0  0  0  0  0  0
   -6.7841   -9.5141    0.6748 O   0  0  0  0  0  0  0  0  0  0  0  0
   -9.0238   -9.1925   -0.0718 C   0  0  2  0  0  0  0  0  0  0  0  0
   -9.2977  -10.4016    0.6447 O   0  0  0  0  0  0  0  0  0  0  0  0
   -8.7589   -9.5540   -1.5168 C   0  0  1  0  0  0  0  0  0  0  0  0
   -9.9913   -9.9568   -2.1190 O   0  0  0  0  0  0  0  0  0  0  0  0
   -8.1726   -8.3717   -2.2648 C   0  0  2  0  0  0  0  0  0  0  0  0
   -7.7758   -8.8047   -3.5588 O   0  0  0  0  0  0  0  0  0  0  0  0
   -6.9632   -7.7861   -1.5484 C   0  0  2  0  0  0  0  0  0  0  0  0
   -7.3831   -7.4019   -0.2461 O   0  0  0  0  0  0  0  0  0  0  0  0
   -6.3891   -6.5813   -2.3032 C   0  0  0  0  0  0  0  0  0  0  0  0
   -7.3246   -5.5001   -2.4287 O   0  0  0  0  0  0  0  0  0  0  0  0
  1  2  1  0  0  0  0
  3  1  1  6  0  0  0
  3  9  1  0  0  0  0
  3  4  1  0  0  0  0
  4  5  1  1  0  0  0
  4  6  1  0  0  0  0
  6  7  1  6  0  0  0
  6  8  1  0  0  0  0
  8  9  1  0  0  0  0
  8 10  1  1  0  0  0
  8 13  1  0  0  0  0
 10 11  1  0  0  0  0
 12 13  1  6  0  0  0
 12 14  1  0  0  0  0
 12 21  1  0  0  0  0
 14 15  1  1  0  0  0
 14 16  1  0  0  0  0
 16 17  1  6  0  0  0
 16 18  1  0  0  0  0
 18 19  1  6  0  0  0
 18 20  1  0  0  0  0
 20 21  1  0  0  0  0
 20 22  1  6  0  0  0
 22 23  1  0  0  0  0
M  END
>  <CHROM.1>
-62.78765846,-65.98786547,-158.15504092,-166.33468711,61.14756823,-6.32716028
-8.74452739,-0.04732152,-0.45344321,-0.31799464,-0.89008164

>  <Name>
ligand

>  <RI>
0

>  <Rbt.Current_Directory>
/home/itssahil/PROJECTS/Mol_Feturizer/New_Systems/rnas/4TS2

>  <Rbt.Executable>
rbdock ($Id: //depot/dev/client3/rdock/2013.1/src/exe/rbdock.cxx#4 $)

>  <Rbt.Library>
libRbt.so (2013.1, Build901 2013/11/27)

>  <Rbt.Parameter_File>
/export/apps/rDock/src/rDock_2013.1_src/data/scripts/dock_solv.prm

>  <Rbt.Receptor>
prm/pocket_docking_8.prm

>  <SCORE>
-8.56009

>  <SCORE.INTER>
-2.35457

>  <SCORE.INTER.CONST>
1

>  <SCORE.INTER.POLAR>
0

>  <SCORE.INTER.ROT>
5

>  <SCORE.INTER.SOLV>
8.76274

>  <SCORE.INTER.VDW>
-11.424

>  <SCORE.INTER.norm>
-0.102372

>  <SCORE.INTRA>
-6.20552

>  <SCORE.INTRA.DIHEDRAL>
-9.51153

>  <SCORE.INTRA.DIHEDRAL.0>
12.4853

>  <SCORE.INTRA.POLAR>
0

>  <SCORE.INTRA.POLAR.0>
0

>  <SCORE.INTRA.REPUL>
0

>  <SCORE.INTRA.REPUL.0>
0

>  <SCORE.INTRA.SOLV>
0.609127

>  <SCORE.INTRA.SOLV.lig_0>
-31.1706

>  <SCORE.INTRA.VDW>
-1.75432

>  <SCORE.INTRA.VDW.0>
-1.16895

>  <SCORE.INTRA.norm>
-0.269805

>  <SCORE.RESTR>
0

>  <SCORE.RESTR.CAVITY>
0

>  <SCORE.RESTR.norm>
0

>  <SCORE.SYSTEM>
0

>  <SCORE.SYSTEM.CONST>
0

>  <SCORE.SYSTEM.DIHEDRAL>
0

>  <SCORE.SYSTEM.SOLV>
0

>  <SCORE.SYSTEM.norm>
0

>  <SCORE.heavy>
23

>  <SCORE.norm>
-0.372178

>  <RMSD>
6.077

$$$$
ligand
 OpenBabel11021811513D
libRbt.so/2013.1/901 2013/11/27
 23 24  0  0  0  0  0  0  0  0999 V2000
   -6.7799   -8.2494    0.7804 C   0  0  0  0  0  0  0  0  0  0  0  0
   -6.9977   -7.8289    2.1410 O   0  0  0  0  0  0  0  0  0  0  0  0
   -5.3029   -8.5632    0.5893 C   0  0  2  0  0  0  0  0  0  0  0  0
   -4.3552   -7.3846    0.7511 C   0  0  1  0  0  0  0  0  0  0  0  0
   -4.1386   -7.1380    2.1420 O   0  0  0  0  0  0  0  0  0  0  0  0
   -3.1163   -7.8741    0.0087 C   0  0  2  0  0  0  0  0  0  0  0  0
   -2.1770   -6.9051   -0.4718 O   0  0  0  0  0  0  0  0  0  0  0  0
   -3.7390   -8.6175   -1.1598 C   0  0  2  0  0  0  0  0  0  0  0  0
   -5.0387   -9.0682   -0.7227 O   0  0  0  0  0  0  0  0  0  0  0  0
   -2.8037   -9.7847   -1.5239 C   0  0  0  0  0  0  0  0  0  0  0  0
   -2.6690  -10.7311   -0.4544 O   0  0  0  0  0  0  0  0  0  0  0  0
   -4.4958   -8.2904   -3.4287 C   0  0  2  0  0  0  0  0  0  0  0  0
   -3.9427   -7.6941   -2.2428 O   0  0  0  0  0  0  0  0  0  0  0  0
   -4.4278   -7.2522   -4.5332 C   0  0  2  0  0  0  0  0  0  0  0  0
   -3.1126   -6.6870   -4.5673 O   0  0  0  0  0  0  0  0  0  0  0  0
   -5.4118   -6.1335   -4.2702 C   0  0  1  0  0  0  0  0  0  0  0  0
   -5.4947   -5.3154   -5.4395 O   0  0  0  0  0  0  0  0  0  0  0  0
   -6.7785   -6.6938   -3.9254 C   0  0  2  0  0  0  0  0  0  0  0  0
   -7.6176   -5.6231   -3.5141 O   0  0  0  0  0  0  0  0  0  0  0  0
   -6.7074   -7.7228   -2.8051 C   0  0  2  0  0  0  0  0  0  0  0  0
   -5.8302   -8.7569   -3.2305 O   0  0  0  0  0  0  0  0  0  0  0  0
   -8.0911   -8.2956   -2.4765 C   0  0  0  0  0  0  0  0  0  0  0  0
   -8.0350   -9.4286   -1.5974 O   0  0  0  0  0  0  0  0  0  0  0  0
  1  2  1  0  0  0  0
  3  1  1  6  0  0  0
  3  9  1  0  0  0  0
  3  4  1  0  0  0  0
  4  5  1  1  0  0  0
  4  6  1  0  0  0  0
  6  7  1  6  0  0  0
  6  8  1  0  0  0  0
  8  9  1  0  0  0  0
  8 10  1  6  0  0  0
  8 13  1  0  0  0  0
 10 11  1  0  0  0  0
 12 13  1  1  0  0  0
 12 14  1  0  0  0  0
 12 21  1  0  0  0  0
 14 15  1  1  0  0  0
 14 16  1  0  0  0  0
 16 17  1  6  0  0  0
 16 18  1  0  0  0  0
 18 19  1  1  0  0  0
 18 20  1  0  0  0  0
 20 21  1  0  0  0  0
 20 22  1  6  0  0  0
 22 23  1  0  0  0  0
M  END
>  <CHROM.1>
-64.07408219,62.61867504,-170.60820572,178.31822372,169.70503793,-5.09271615
-7.82567833,-1.72248172,1.32248064,-0.09906992,1.88934956

>  <Name>
ligand

>  <RI>
0

>  <Rbt.Current_Directory>
/home/itssahil/PROJECTS/Mol_Feturizer/New_Systems/rnas/4TS2

>  <Rbt.Executable>
rbdock ($Id: //depot/dev/client3/rdock/2013.1/src/exe/rbdock.cxx#4 $)

>  <Rbt.Library>
libRbt.so (2013.1, Build901 2013/11/27)

>  <Rbt.Parameter_File>
/export/apps/rDock/src/rDock_2013.1_src/data/scripts/dock_solv.prm

>  <Rbt.Receptor>
prm/pocket_docking_5.prm

>  <SCORE>
-10.4813

>  <SCORE.INTER>
-3.67976

>  <SCORE.INTER.CONST>
1

>  <SCORE.INTER.POLAR>
0

>  <SCORE.INTER.ROT>
5

>  <SCORE.INTER.SOLV>
8.99847

>  <SCORE.INTER.VDW>
-12.386

>  <SCORE.INTER.norm>
-0.15999

>  <SCORE.INTRA>
-6.8015

>  <SCORE.INTRA.DIHEDRAL>
-11.4722

>  <SCORE.INTRA.DIHEDRAL.0>
12.4853

>  <SCORE.INTRA.POLAR>
0

>  <SCORE.INTRA.POLAR.0>
0

>  <SCORE.INTRA.REPUL>
0

>  <SCORE.INTRA.REPUL.0>
0

>  <SCORE.INTRA.SOLV>
0.612046

>  <SCORE.INTRA.SOLV.lig_0>
-31.1706

>  <SCORE.INTRA.VDW>
-1.37143

>  <SCORE.INTRA.VDW.0>
-1.16895

>  <SCORE.INTRA.norm>
-0.295717

>  <SCORE.RESTR>
0

>  <SCORE.RESTR.CAVITY>
0

>  <SCORE.RESTR.norm>
0

>  <SCORE.SYSTEM>
0

>  <SCORE.SYSTEM.CONST>
0

>  <SCORE.SYSTEM.DIHEDRAL>
0

>  <SCORE.SYSTEM.SOLV>
0

>  <SCORE.SYSTEM.norm>
0

>  <SCORE.heavy>
23

>  <SCORE.norm>
-0.455707

>  <RMSD>
6.092

$$$$
ligand
 OpenBabel11021811513D
libRbt.so/2013.1/901 2013/11/27
 23 24  0  0  0  0  0  0  0  0999 V2000
   -3.7136   -6.9627   -5.2669 C   0  0  0  0  0  0  0  0  0  0  0  0
   -3.8440   -6.1193   -6.4276 O   0  0  0  0  0  0  0  0  0  0  0  0
   -5.0961   -7.2244   -4.6867 C   0  0  2  0  0  0  0  0  0  0  0  0
   -5.8572   -5.9920   -4.2226 C   0  0  1  0  0  0  0  0  0  0  0  0
   -6.4384   -5.3399   -5.3536 O   0  0  0  0  0  0  0  0  0  0  0  0
   -6.8778   -6.5961   -3.2640 C   0  0  2  0  0  0  0  0  0  0  0  0
   -7.4714   -5.7505   -2.2717 O   0  0  0  0  0  0  0  0  0  0  0  0
   -6.0562   -7.6840   -2.5950 C   0  0  2  0  0  0  0  0  0  0  0  0
   -5.0309   -8.0699   -3.5348 O   0  0  0  0  0  0  0  0  0  0  0  0
   -7.0073   -8.8450   -2.2526 C   0  0  0  0  0  0  0  0  0  0  0  0
   -7.9824   -8.4797   -1.2660 O   0  0  0  0  0  0  0  0  0  0  0  0
   -4.3808   -7.9735   -0.8813 C   0  0  2  0  0  0  0  0  0  0  0  0
   -5.4002   -7.1286   -1.4426 O   0  0  0  0  0  0  0  0  0  0  0  0
   -4.1475   -7.5165    0.5466 C   0  0  2  0  0  0  0  0  0  0  0  0
   -5.4093   -7.3856    1.2108 O   0  0  0  0  0  0  0  0  0  0  0  0
   -3.4655   -6.1662    0.5662 C   0  0  1  0  0  0  0  0  0  0  0  0
   -3.0443   -5.8878    1.9036 O   0  0  0  0  0  0  0  0  0  0  0  0
   -2.2729   -6.1561   -0.3710 C   0  0  2  0  0  0  0  0  0  0  0  0
   -1.7744   -4.8281   -0.4571 O   0  0  0  0  0  0  0  0  0  0  0  0
   -2.6413   -6.6360   -1.7685 C   0  0  2  0  0  0  0  0  0  0  0  0
   -3.1737   -7.9476   -1.6429 O   0  0  0  0  0  0  0  0  0  0  0  0
   -1.4255   -6.6387   -2.7029 C   0  0  0  0  0  0  0  0  0  0  0  0
   -0.9447   -5.3199   -3.0018 O   0  0  0  0  0  0  0  0  0  0  0  0
  1  2  1  0  0  0  0
  3  1  1  1  0  0  0
  3  9  1  0  0  0  0
  3  4  1  0  0  0  0
  4  5  1  6  0  0  0
  4  6  1  0  0  0  0
  6  7  1  1  0  0  0
  6  8  1  0  0  0  0
  8  9  1  0  0  0  0
  8 10  1  1  0  0  0
  8 13  1  0  0  0  0
 10 11  1  0  0  0  0
 12 13  1  6  0  0  0
 12 14  1  0  0  0  0
 12 21  1  0  0  0  0
 14 15  1  1  0  0  0
 14 16  1  0  0  0  0
 16 17  1  1  0  0  0
 16 18  1  0  0  0  0
 18 19  1  6  0  0  0
 18 20  1  0  0  0  0
 20 21  1  0  0  0  0
 20 22  1  6  0  0  0
 22 23  1  0  0  0  0
M  END
>  <CHROM.1>
-60.93796803,-65.66089273,-160.05587859,-167.84161753,-67.80190663,-4.49852934
-6.79049235,-2.13743313,-2.18287307,0.30935715,1.69095556

>  <Name>
ligand

>  <RI>
0

>  <Rbt.Current_Directory>
/home/itssahil/PROJECTS/Mol_Feturizer/New_Systems/rnas/4TS2

>  <Rbt.Executable>
rbdock ($Id: //depot/dev/client3/rdock/2013.1/src/exe/rbdock.cxx#4 $)

>  <Rbt.Library>
libRbt.so (2013.1, Build901 2013/11/27)

>  <Rbt.Parameter_File>
/export/apps/rDock/src/rDock_2013.1_src/data/scripts/dock_solv.prm

>  <Rbt.Receptor>
prm/pocket_docking_6.prm

>  <SCORE>
-9.61282

>  <SCORE.INTER>
-3.39774

>  <SCORE.INTER.CONST>
1

>  <SCORE.INTER.POLAR>
0

>  <SCORE.INTER.ROT>
5

>  <SCORE.INTER.SOLV>
9.9611

>  <SCORE.INTER.VDW>
-12.5189

>  <SCORE.INTER.norm>
-0.147728

>  <SCORE.INTRA>
-6.21664

>  <SCORE.INTRA.DIHEDRAL>
-9.80812

>  <SCORE.INTRA.DIHEDRAL.0>
12.4853

>  <SCORE.INTRA.POLAR>
0

>  <SCORE.INTRA.POLAR.0>
0

>  <SCORE.INTRA.REPUL>
0

>  <SCORE.INTRA.REPUL.0>
0

>  <SCORE.INTRA.SOLV>
0.705603

>  <SCORE.INTRA.SOLV.lig_0>
-31.1706

>  <SCORE.INTRA.VDW>
-1.66538

>  <SCORE.INTRA.VDW.0>
-1.16895

>  <SCORE.INTRA.norm>
-0.270288

>  <SCORE.RESTR>
0.0015487

>  <SCORE.RESTR.CAVITY>
0.0015487

>  <SCORE.RESTR.norm>
6.73349e-05

>  <SCORE.SYSTEM>
0

>  <SCORE.SYSTEM.CONST>
0

>  <SCORE.SYSTEM.DIHEDRAL>
0

>  <SCORE.SYSTEM.SOLV>
0

>  <SCORE.SYSTEM.norm>
0

>  <SCORE.heavy>
23

>  <SCORE.norm>
-0.417949

>  <RMSD>
6.094

$$$$
ligand
 OpenBabel11021811513D
libRbt.so/2013.1/901 2013/11/27
 23 24  0  0  0  0  0  0  0  0999 V2000
   -6.6249   -8.4665    0.8171 C   0  0  0  0  0  0  0  0  0  0  0  0
   -6.8887   -8.0381    2.1671 O   0  0  0  0  0  0  0  0  0  0  0  0
   -5.1220   -8.6169    0.6297 C   0  0  2  0  0  0  0  0  0  0  0  0
   -4.3111   -7.3384    0.7764 C   0  0  1  0  0  0  0  0  0  0  0  0
   -4.1250   -7.0517    2.1640 O   0  0  0  0  0  0  0  0  0  0  0  0
   -3.0247   -7.6968    0.0401 C   0  0  2  0  0  0  0  0  0  0  0  0
   -2.1981   -6.6357   -0.4529 O   0  0  0  0  0  0  0  0  0  0  0  0
   -3.5595   -8.5194   -1.1188 C   0  0  2  0  0  0  0  0  0  0  0  0
   -4.8018   -9.1060   -0.6758 O   0  0  0  0  0  0  0  0  0  0  0  0
   -2.5000   -9.5802   -1.4681 C   0  0  0  0  0  0  0  0  0  0  0  0
   -2.2960  -10.5199   -0.4037 O   0  0  0  0  0  0  0  0  0  0  0  0
   -4.3511   -8.3065   -3.3894 C   0  0  2  0  0  0  0  0  0  0  0  0
   -3.8631   -7.6382   -2.2133 O   0  0  0  0  0  0  0  0  0  0  0  0
   -4.4881   -7.2621   -4.4815 C   0  0  2  0  0  0  0  0  0  0  0  0
   -3.2835   -6.4910   -4.5489 O   0  0  0  0  0  0  0  0  0  0  0  0
   -5.6309   -6.3198   -4.1732 C   0  0  1  0  0  0  0  0  0  0  0  0
   -5.8833   -5.5164   -5.3284 O   0  0  0  0  0  0  0  0  0  0  0  0
   -6.8770   -7.0969   -3.7937 C   0  0  2  0  0  0  0  0  0  0  0  0
   -7.8641   -6.1797   -3.3423 O   0  0  0  0  0  0  0  0  0  0  0  0
   -6.6037   -8.1098   -2.6899 C   0  0  2  0  0  0  0  0  0  0  0  0
   -5.5854   -8.9847   -3.1561 O   0  0  0  0  0  0  0  0  0  0  0  0
   -7.8651   -8.9019   -2.3261 C   0  0  0  0  0  0  0  0  0  0  0  0
   -8.8516   -8.1073   -1.6515 O   0  0  0  0  0  0  0  0  0  0  0  0
  1  2  1  0  0  0  0
  3  1  1  6  0  0  0
  3  9  1  0  0  0  0
  3  4  1  0  0  0  0
  4  5  1  1  0  0  0
  4  6  1  0  0  0  0
  6  7  1  6  0  0  0
  6  8  1  0  0  0  0
  8  9  1  0  0  0  0
  8 10  1  6  0  0  0
  8 13  1  0  0  0  0
 10 11  1  0  0  0  0
 12 13  1  1  0  0  0
 12 14  1  0  0  0  0
 12 21  1  0  0  0  0
 14 15  1  1  0  0  0
 14 16  1  0  0  0  0
 16 17  1  6  0  0  0
 16 18  1  0  0  0  0
 18 19  1  1  0  0  0
 18 20  1  0  0  0  0
 20 21  1  0  0  0  0
 20 22  1  6  0  0  0
 22 23  1  0  0  0  0
M  END
>  <CHROM.1>
-63.30487424,64.63602149,-174.45059126,178.59653353,-69.85077587,-5.07832484
-7.83707976,-1.66540055,1.16870427,-0.07660252,1.83768264

>  <Name>
ligand

>  <RI>
0

>  <Rbt.Current_Directory>
/home/itssahil/PROJECTS/Mol_Feturizer/New_Systems/rnas/4TS2

>  <Rbt.Executable>
rbdock ($Id: //depot/dev/client3/rdock/2013.1/src/exe/rbdock.cxx#4 $)

>  <Rbt.Library>
libRbt.so (2013.1, Build901 2013/11/27)

>  <Rbt.Parameter_File>
/export/apps/rDock/src/rDock_2013.1_src/data/scripts/dock_solv.prm

>  <Rbt.Receptor>
prm/pocket_docking_6.prm

>  <SCORE>
-10.0017

>  <SCORE.INTER>
-3.10535

>  <SCORE.INTER.CONST>
1

>  <SCORE.INTER.POLAR>
0

>  <SCORE.INTER.ROT>
5

>  <SCORE.INTER.SOLV>
9.04626

>  <SCORE.INTER.VDW>
-12.019

>  <SCORE.INTER.norm>
-0.135015

>  <SCORE.INTRA>
-6.89637

>  <SCORE.INTRA.DIHEDRAL>
-11.7414

>  <SCORE.INTRA.DIHEDRAL.0>
12.4853

>  <SCORE.INTRA.POLAR>
0

>  <SCORE.INTRA.POLAR.0>
0

>  <SCORE.INTRA.REPUL>
0

>  <SCORE.INTRA.REPUL.0>
0

>  <SCORE.INTRA.SOLV>
0.538727

>  <SCORE.INTRA.SOLV.lig_0>
-31.1706

>  <SCORE.INTRA.VDW>
-1.29505

>  <SCORE.INTRA.VDW.0>
-1.16895

>  <SCORE.INTRA.norm>
-0.299842

>  <SCORE.RESTR>
0

>  <SCORE.RESTR.CAVITY>
0

>  <SCORE.RESTR.norm>
0

>  <SCORE.SYSTEM>
0

>  <SCORE.SYSTEM.CONST>
0

>  <SCORE.SYSTEM.DIHEDRAL>
0

>  <SCORE.SYSTEM.SOLV>
0

>  <SCORE.SYSTEM.norm>
0

>  <SCORE.heavy>
23

>  <SCORE.norm>
-0.434857

>  <RMSD>
6.105

$$$$
ligand
 OpenBabel11021811513D
libRbt.so/2013.1/901 2013/11/27
 23 24  0  0  0  0  0  0  0  0999 V2000
   -4.0558  -11.7842   -3.6332 C   0  0  0  0  0  0  0  0  0  0  0  0
   -4.1363  -13.1189   -4.1696 O   0  0  0  0  0  0  0  0  0  0  0  0
   -5.2055  -11.5716   -2.6588 C   0  0  2  0  0  0  0  0  0  0  0  0
   -6.5999  -11.6583   -3.2600 C   0  0  1  0  0  0  0  0  0  0  0  0
   -6.9648  -13.0313   -3.4150 O   0  0  0  0  0  0  0  0  0  0  0  0
   -7.4341  -10.9087   -2.2268 C   0  0  2  0  0  0  0  0  0  0  0  0
   -8.6962  -10.3633   -2.6290 O   0  0  0  0  0  0  0  0  0  0  0  0
   -6.4878   -9.7895   -1.8296 C   0  0  2  0  0  0  0  0  0  0  0  0
   -5.1478  -10.2772   -2.0527 O   0  0  0  0  0  0  0  0  0  0  0  0
   -6.7532   -9.4549   -0.3506 C   0  0  0  0  0  0  0  0  0  0  0  0
   -6.4720  -10.5607    0.5187 O   0  0  0  0  0  0  0  0  0  0  0  0
   -5.9582   -7.4914   -2.3456 C   0  0  2  0  0  0  0  0  0  0  0  0
   -6.6939   -8.6720   -2.7103 O   0  0  0  0  0  0  0  0  0  0  0  0
   -6.4281   -6.3663   -3.2487 C   0  0  2  0  0  0  0  0  0  0  0  0
   -7.8597   -6.3383   -3.2595 O   0  0  0  0  0  0  0  0  0  0  0  0
   -5.9533   -6.5921   -4.6673 C   0  0  1  0  0  0  0  0  0  0  0  0
   -6.1990   -5.4047   -5.4245 O   0  0  0  0  0  0  0  0  0  0  0  0
   -4.4747   -6.9299   -4.6887 C   0  0  2  0  0  0  0  0  0  0  0  0
   -4.1142   -7.3069   -6.0106 O   0  0  0  0  0  0  0  0  0  0  0  0
   -4.1366   -8.0725   -3.7406 C   0  0  2  0  0  0  0  0  0  0  0  0
   -4.5464   -7.6812   -2.4373 O   0  0  0  0  0  0  0  0  0  0  0  0
   -2.6375   -8.3942   -3.7567 C   0  0  0  0  0  0  0  0  0  0  0  0
   -2.2787   -9.4416   -2.8435 O   0  0  0  0  0  0  0  0  0  0  0  0
  1  2  1  0  0  0  0
  3  1  1  6  0  0  0
  3  9  1  0  0  0  0
  3  4  1  0  0  0  0
  4  5  1  1  0  0  0
  4  6  1  0  0  0  0
  6  7  1  6  0  0  0
  6  8  1  0  0  0  0
  8  9  1  0  0  0  0
  8 10  1  1  0  0  0
  8 13  1  0  0  0  0
 10 11  1  0  0  0  0
 12 13  1  6  0  0  0
 12 14  1  0  0  0  0
 12 21  1  0  0  0  0
 14 15  1  6  0  0  0
 14 16  1  0  0  0  0
 16 17  1  6  0  0  0
 16 18  1  0  0  0  0
 18 19  1  6  0  0  0
 18 20  1  0  0  0  0
 20 21  1  0  0  0  0
 20 22  1  1  0  0  0
 22 23  1  0  0  0  0
M  END
>  <CHROM.1>
-62.65871080,62.74914870,-172.37386917,173.52890029,178.27093141,-5.61756300
-9.19804251,-3.08418629,-1.71044033,0.50884245,-0.29573000

>  <Name>
ligand

>  <RI>
0

>  <Rbt.Current_Directory>
/home/itssahil/PROJECTS/Mol_Feturizer/New_Systems/rnas/4TS2

>  <Rbt.Executable>
rbdock ($Id: //depot/dev/client3/rdock/2013.1/src/exe/rbdock.cxx#4 $)

>  <Rbt.Library>
libRbt.so (2013.1, Build901 2013/11/27)

>  <Rbt.Parameter_File>
/export/apps/rDock/src/rDock_2013.1_src/data/scripts/dock_solv.prm

>  <Rbt.Receptor>
prm/pocket_docking_7.prm

>  <SCORE>
-9.35378

>  <SCORE.INTER>
-2.35201

>  <SCORE.INTER.CONST>
1

>  <SCORE.INTER.POLAR>
0

>  <SCORE.INTER.ROT>
5

>  <SCORE.INTER.SOLV>
6.36185

>  <SCORE.INTER.VDW>
-10.622

>  <SCORE.INTER.norm>
-0.102261

>  <SCORE.INTRA>
-7.00177

>  <SCORE.INTRA.DIHEDRAL>
-11.7542

>  <SCORE.INTRA.DIHEDRAL.0>
12.4853

>  <SCORE.INTRA.POLAR>
0

>  <SCORE.INTRA.POLAR.0>
0

>  <SCORE.INTRA.REPUL>
0

>  <SCORE.INTRA.REPUL.0>
0

>  <SCORE.INTRA.SOLV>
0.566675

>  <SCORE.INTRA.SOLV.lig_0>
-31.1706

>  <SCORE.INTRA.VDW>
-1.40799

>  <SCORE.INTRA.VDW.0>
-1.16895

>  <SCORE.INTRA.norm>
-0.304425

>  <SCORE.RESTR>
0

>  <SCORE.RESTR.CAVITY>
0

>  <SCORE.RESTR.norm>
0

>  <SCORE.SYSTEM>
0

>  <SCORE.SYSTEM.CONST>
0

>  <SCORE.SYSTEM.DIHEDRAL>
0

>  <SCORE.SYSTEM.SOLV>
0

>  <SCORE.SYSTEM.norm>
0

>  <SCORE.heavy>
23

>  <SCORE.norm>
-0.406686

>  <RMSD>
6.131

$$$$
ligand
 OpenBabel11021811513D
libRbt.so/2013.1/901 2013/11/27
 23 24  0  0  0  0  0  0  0  0999 V2000
   -4.1005   -7.9938    0.5795 C   0  0  0  0  0  0  0  0  0  0  0  0
   -4.4322   -6.8844    1.4366 O   0  0  0  0  0  0  0  0  0  0  0  0
   -5.3833   -8.5744    0.0018 C   0  0  2  0  0  0  0  0  0  0  0  0
   -5.2043   -9.7634   -0.9298 C   0  0  1  0  0  0  0  0  0  0  0  0
   -4.9998  -10.9464   -0.1547 O   0  0  0  0  0  0  0  0  0  0  0  0
   -6.5156   -9.7520   -1.7082 C   0  0  2  0  0  0  0  0  0  0  0  0
   -6.5624  -10.4043   -2.9828 O   0  0  0  0  0  0  0  0  0  0  0  0
   -6.7524   -8.2618   -1.8786 C   0  0  2  0  0  0  0  0  0  0  0  0
   -6.0958   -7.6059   -0.7731 O   0  0  0  0  0  0  0  0  0  0  0  0
   -8.2737   -8.0270   -1.8822 C   0  0  0  0  0  0  0  0  0  0  0  0
   -8.8912   -8.4272   -0.6508 O   0  0  0  0  0  0  0  0  0  0  0  0
   -6.0564   -6.3951   -3.2420 C   0  0  2  0  0  0  0  0  0  0  0  0
   -6.1075   -7.8238   -3.0866 O   0  0  0  0  0  0  0  0  0  0  0  0
   -5.8005   -6.1066   -4.7095 C   0  0  2  0  0  0  0  0  0  0  0  0
   -6.7074   -6.8775   -5.5055 O   0  0  0  0  0  0  0  0  0  0  0  0
   -4.3907   -6.5026   -5.0895 C   0  0  1  0  0  0  0  0  0  0  0  0
   -4.1107   -5.9933   -6.3955 O   0  0  0  0  0  0  0  0  0  0  0  0
   -3.3927   -5.9526   -4.0882 C   0  0  2  0  0  0  0  0  0  0  0  0
   -2.1116   -6.4936   -4.3802 O   0  0  0  0  0  0  0  0  0  0  0  0
   -3.7647   -6.3116   -2.6558 C   0  0  2  0  0  0  0  0  0  0  0  0
   -5.0649   -5.7933   -2.4098 O   0  0  0  0  0  0  0  0  0  0  0  0
   -2.7597   -5.7363   -1.6508 C   0  0  0  0  0  0  0  0  0  0  0  0
   -2.5932   -4.3162   -1.7742 O   0  0  0  0  0  0  0  0  0  0  0  0
  1  2  1  0  0  0  0
  3  1  1  6  0  0  0
  3  9  1  0  0  0  0
  3  4  1  0  0  0  0
  4  5  1  1  0  0  0
  4  6  1  0  0  0  0
  6  7  1  6  0  0  0
  6  8  1  0  0  0  0
  8  9  1  0  0  0  0
  8 10  1  6  0  0  0
  8 13  1  0  0  0  0
 10 11  1  0  0  0  0
 12 13  1  6  0  0  0
 12 14  1  0  0  0  0
 12 21  1  0  0  0  0
 14 15  1  6  0  0  0
 14 16  1  0  0  0  0
 16 17  1  6  0  0  0
 16 18  1  0  0  0  0
 18 19  1  6  0  0  0
 18 20  1  0  0  0  0
 20 21  1  0  0  0  0
 20 22  1  1  0  0  0
 22 23  1  0  0  0  0
M  END
>  <CHROM.1>
-179.91563046,61.60852962,-161.10847124,-169.62030929,55.36843836,-5.21651765
-7.42648721,-2.34176559,-2.15359510,-0.62009654,-1.23132841

>  <Name>
ligand

>  <RI>
0

>  <Rbt.Current_Directory>
/home/itssahil/PROJECTS/Mol_Feturizer/New_Systems/rnas/4TS2

>  <Rbt.Executable>
rbdock ($Id: //depot/dev/client3/rdock/2013.1/src/exe/rbdock.cxx#4 $)

>  <Rbt.Library>
libRbt.so (2013.1, Build901 2013/11/27)

>  <Rbt.Parameter_File>
/export/apps/rDock/src/rDock_2013.1_src/data/scripts/dock_solv.prm

>  <Rbt.Receptor>
prm/pocket_docking_8.prm

>  <SCORE>
-10.6318

>  <SCORE.INTER>
-3.89761

>  <SCORE.INTER.CONST>
1

>  <SCORE.INTER.POLAR>
0

>  <SCORE.INTER.ROT>
5

>  <SCORE.INTER.SOLV>
10.7114

>  <SCORE.INTER.VDW>
-13.1022

>  <SCORE.INTER.norm>
-0.169461

>  <SCORE.INTRA>
-6.73414

>  <SCORE.INTRA.DIHEDRAL>
-10.333

>  <SCORE.INTRA.DIHEDRAL.0>
12.4853

>  <SCORE.INTRA.POLAR>
0

>  <SCORE.INTRA.POLAR.0>
0

>  <SCORE.INTRA.REPUL>
0

>  <SCORE.INTRA.REPUL.0>
0

>  <SCORE.INTRA.SOLV>
0.263729

>  <SCORE.INTRA.SOLV.lig_0>
-31.1706

>  <SCORE.INTRA.VDW>
-1.69949

>  <SCORE.INTRA.VDW.0>
-1.16895

>  <SCORE.INTRA.norm>
-0.292789

>  <SCORE.RESTR>
0

>  <SCORE.RESTR.CAVITY>
0

>  <SCORE.RESTR.norm>
0

>  <SCORE.SYSTEM>
0

>  <SCORE.SYSTEM.CONST>
0

>  <SCORE.SYSTEM.DIHEDRAL>
0

>  <SCORE.SYSTEM.SOLV>
0

>  <SCORE.SYSTEM.norm>
0

>  <SCORE.heavy>
23

>  <SCORE.norm>
-0.46225

>  <RMSD>
6.138

$$$$
ligand
 OpenBabel11021811513D
libRbt.so/2013.1/901 2013/11/27
 23 24  0  0  0  0  0  0  0  0999 V2000
   -3.6665   -7.8095    0.8709 C   0  0  0  0  0  0  0  0  0  0  0  0
   -3.8376   -6.6271    1.6761 O   0  0  0  0  0  0  0  0  0  0  0  0
   -5.0358   -8.3296    0.4573 C   0  0  2  0  0  0  0  0  0  0  0  0
   -5.0297   -9.5944   -0.3876 C   0  0  1  0  0  0  0  0  0  0  0  0
   -4.8372  -10.7293    0.4592 O   0  0  0  0  0  0  0  0  0  0  0  0
   -6.4043   -9.5386   -1.0456 C   0  0  2  0  0  0  0  0  0  0  0  0
   -6.6166  -10.2774   -2.2544 O   0  0  0  0  0  0  0  0  0  0  0  0
   -6.5501   -8.0511   -1.3139 C   0  0  2  0  0  0  0  0  0  0  0  0
   -5.7478   -7.3685   -0.3271 O   0  0  0  0  0  0  0  0  0  0  0  0
   -8.0447   -7.6997   -1.2020 C   0  0  0  0  0  0  0  0  0  0  0  0
   -8.8271   -8.3021   -2.2425 O   0  0  0  0  0  0  0  0  0  0  0  0
   -5.9341   -6.3514   -2.9137 C   0  0  2  0  0  0  0  0  0  0  0  0
   -5.9924   -7.7548   -2.6054 O   0  0  0  0  0  0  0  0  0  0  0  0
   -5.7535   -6.2232   -4.4148 C   0  0  2  0  0  0  0  0  0  0  0  0
   -6.7097   -7.0586   -5.0767 O   0  0  0  0  0  0  0  0  0  0  0  0
   -4.3702   -6.6800   -4.8230 C   0  0  1  0  0  0  0  0  0  0  0  0
   -4.1545   -6.3156   -6.1884 O   0  0  0  0  0  0  0  0  0  0  0  0
   -3.3146   -6.0441   -3.9386 C   0  0  2  0  0  0  0  0  0  0  0  0
   -2.0567   -6.6338   -4.2374 O   0  0  0  0  0  0  0  0  0  0  0  0
   -3.6138   -6.2443   -2.4589 C   0  0  2  0  0  0  0  0  0  0  0  0
   -4.8935   -5.6817   -2.2023 O   0  0  0  0  0  0  0  0  0  0  0  0
   -2.5507   -5.5830   -1.5738 C   0  0  0  0  0  0  0  0  0  0  0  0
   -2.4443   -4.1678   -1.7871 O   0  0  0  0  0  0  0  0  0  0  0  0
  1  2  1  0  0  0  0
  3  1  1  6  0  0  0
  3  9  1  0  0  0  0
  3  4  1  0  0  0  0
  4  5  1  1  0  0  0
  4  6  1  0  0  0  0
  6  7  1  6  0  0  0
  6  8  1  0  0  0  0
  8  9  1  0  0  0  0
  8 10  1  1  0  0  0
  8 13  1  0  0  0  0
 10 11  1  0  0  0  0
 12 13  1  6  0  0  0
 12 14  1  0  0  0  0
 12 21  1  0  0  0  0
 14 15  1  6  0  0  0
 14 16  1  0  0  0  0
 16 17  1  6  0  0  0
 16 18  1  0  0  0  0
 18 19  1  6  0  0  0
 18 20  1  0  0  0  0
 20 21  1  0  0  0  0
 20 22  1  1  0  0  0
 22 23  1  0  0  0  0
M  END
>  <CHROM.1>
-179.18693218,-66.82759824,-162.39608424,-173.37804916,59.64967610,-5.05702191
-7.34619443,-2.07416226,-2.06960387,-0.58627100,-1.20283255

>  <Name>
ligand

>  <RI>
0

>  <Rbt.Current_Directory>
/home/itssahil/PROJECTS/Mol_Feturizer/New_Systems/rnas/4TS2

>  <Rbt.Executable>
rbdock ($Id: //depot/dev/client3/rdock/2013.1/src/exe/rbdock.cxx#4 $)

>  <Rbt.Library>
libRbt.so (2013.1, Build901 2013/11/27)

>  <Rbt.Parameter_File>
/export/apps/rDock/src/rDock_2013.1_src/data/scripts/dock_solv.prm

>  <Rbt.Receptor>
prm/pocket_docking_8.prm

>  <SCORE>
-10.5296

>  <SCORE.INTER>
-3.54846

>  <SCORE.INTER.CONST>
1

>  <SCORE.INTER.POLAR>
0

>  <SCORE.INTER.ROT>
5

>  <SCORE.INTER.SOLV>
10.5903

>  <SCORE.INTER.VDW>
-12.8291

>  <SCORE.INTER.norm>
-0.154281

>  <SCORE.INTRA>
-6.98117

>  <SCORE.INTRA.DIHEDRAL>
-10.7654

>  <SCORE.INTRA.DIHEDRAL.0>
12.4853

>  <SCORE.INTRA.POLAR>
0

>  <SCORE.INTRA.POLAR.0>
0

>  <SCORE.INTRA.REPUL>
0

>  <SCORE.INTRA.REPUL.0>
0

>  <SCORE.INTRA.SOLV>
0.471176

>  <SCORE.INTRA.SOLV.lig_0>
-31.1706

>  <SCORE.INTRA.VDW>
-1.83405

>  <SCORE.INTRA.VDW.0>
-1.16895

>  <SCORE.INTRA.norm>
-0.303529

>  <SCORE.RESTR>
0

>  <SCORE.RESTR.CAVITY>
0

>  <SCORE.RESTR.norm>
0

>  <SCORE.SYSTEM>
0

>  <SCORE.SYSTEM.CONST>
0

>  <SCORE.SYSTEM.DIHEDRAL>
0

>  <SCORE.SYSTEM.SOLV>
0

>  <SCORE.SYSTEM.norm>
0

>  <SCORE.heavy>
23

>  <SCORE.norm>
-0.45781

>  <RMSD>
6.159

$$$$
ligand
 OpenBabel11021811513D
libRbt.so/2013.1/901 2013/11/27
 23 24  0  0  0  0  0  0  0  0999 V2000
   -6.7802   -7.7411   -2.7964 C   0  0  0  0  0  0  0  0  0  0  0  0
   -8.0384   -7.1099   -3.1030 O   0  0  0  0  0  0  0  0  0  0  0  0
   -5.6470   -6.8517   -3.2876 C   0  0  2  0  0  0  0  0  0  0  0  0
   -5.5809   -6.6441   -4.7929 C   0  0  1  0  0  0  0  0  0  0  0  0
   -6.5417   -5.6591   -5.1783 O   0  0  0  0  0  0  0  0  0  0  0  0
   -4.1330   -6.2058   -4.9857 C   0  0  2  0  0  0  0  0  0  0  0  0
   -3.5363   -6.3591   -6.2790 O   0  0  0  0  0  0  0  0  0  0  0  0
   -3.4151   -7.0832   -3.9754 C   0  0  2  0  0  0  0  0  0  0  0  0
   -4.3684   -7.3873   -2.9351 O   0  0  0  0  0  0  0  0  0  0  0  0
   -2.2021   -6.2948   -3.4493 C   0  0  0  0  0  0  0  0  0  0  0  0
   -2.5874   -5.1144   -2.7310 O   0  0  0  0  0  0  0  0  0  0  0  0
   -2.2618   -9.1955   -3.7863 C   0  0  2  0  0  0  0  0  0  0  0  0
   -3.0554   -8.3227   -4.6087 O   0  0  0  0  0  0  0  0  0  0  0  0
   -1.8330  -10.3674   -4.6495 C   0  0  2  0  0  0  0  0  0  0  0  0
   -1.3008   -9.8729   -5.8834 O   0  0  0  0  0  0  0  0  0  0  0  0
   -3.0186  -11.2505   -4.9711 C   0  0  1  0  0  0  0  0  0  0  0  0
   -2.5389  -12.4582   -5.5668 O   0  0  0  0  0  0  0  0  0  0  0  0
   -3.8079  -11.5643   -3.7143 C   0  0  2  0  0  0  0  0  0  0  0  0
   -5.0017  -12.2403   -4.0849 O   0  0  0  0  0  0  0  0  0  0  0  0
   -4.1744  -10.3045   -2.9412 C   0  0  2  0  0  0  0  0  0  0  0  0
   -2.9637   -9.6319   -2.6224 O   0  0  0  0  0  0  0  0  0  0  0  0
   -4.9564  -10.6338   -1.6641 C   0  0  0  0  0  0  0  0  0  0  0  0
   -4.2117  -11.4447   -0.7435 O   0  0  0  0  0  0  0  0  0  0  0  0
  1  2  1  0  0  0  0
  3  1  1  6  0  0  0
  3  9  1  0  0  0  0
  3  4  1  0  0  0  0
  4  5  1  1  0  0  0
  4  6  1  0  0  0  0
  6  7  1  6  0  0  0
  6  8  1  0  0  0  0
  8  9  1  0  0  0  0
  8 10  1  1  0  0  0
  8 13  1  0  0  0  0
 10 11  1  0  0  0  0
 12 13  1  6  0  0  0
 12 14  1  0  0  0  0
 12 21  1  0  0  0  0
 14 15  1  6  0  0  0
 14 16  1  0  0  0  0
 16 17  1  1  0  0  0
 16 18  1  0  0  0  0
 18 19  1  6  0  0  0
 18 20  1  0  0  0  0
 20 21  1  0  0  0  0
 20 22  1  1  0  0  0
 22 23  1  0  0  0  0
M  END
>  <CHROM.1>
-64.07303361,64.07644847,-173.34327123,174.74081887,61.33865122,-4.00714971
-8.68554037,-3.85879464,1.98652020,0.52806064,-0.24584564

>  <Name>
ligand

>  <RI>
0

>  <Rbt.Current_Directory>
/home/itssahil/PROJECTS/Mol_Feturizer/New_Systems/rnas/4TS2

>  <Rbt.Executable>
rbdock ($Id: //depot/dev/client3/rdock/2013.1/src/exe/rbdock.cxx#4 $)

>  <Rbt.Library>
libRbt.so (2013.1, Build901 2013/11/27)

>  <Rbt.Parameter_File>
/export/apps/rDock/src/rDock_2013.1_src/data/scripts/dock_solv.prm

>  <Rbt.Receptor>
prm/pocket_docking_7.prm

>  <SCORE>
-9.23565

>  <SCORE.INTER>
-2.26561

>  <SCORE.INTER.CONST>
1

>  <SCORE.INTER.POLAR>
0

>  <SCORE.INTER.ROT>
5

>  <SCORE.INTER.SOLV>
7.3197

>  <SCORE.INTER.VDW>
-10.8836

>  <SCORE.INTER.norm>
-0.0985048

>  <SCORE.INTRA>
-6.97004

>  <SCORE.INTRA.DIHEDRAL>
-11.8357

>  <SCORE.INTRA.DIHEDRAL.0>
12.4853

>  <SCORE.INTRA.POLAR>
0

>  <SCORE.INTRA.POLAR.0>
0

>  <SCORE.INTRA.REPUL>
0

>  <SCORE.INTRA.REPUL.0>
0

>  <SCORE.INTRA.SOLV>
0.305561

>  <SCORE.INTRA.SOLV.lig_0>
-31.1706

>  <SCORE.INTRA.VDW>
-1.20497

>  <SCORE.INTRA.VDW.0>
-1.16895

>  <SCORE.INTRA.norm>
-0.303045

>  <SCORE.RESTR>
0

>  <SCORE.RESTR.CAVITY>
0

>  <SCORE.RESTR.norm>
0

>  <SCORE.SYSTEM>
0

>  <SCORE.SYSTEM.CONST>
0

>  <SCORE.SYSTEM.DIHEDRAL>
0

>  <SCORE.SYSTEM.SOLV>
0

>  <SCORE.SYSTEM.norm>
0

>  <SCORE.heavy>
23

>  <SCORE.norm>
-0.40155

>  <RMSD>
6.169

$$$$
ligand
 OpenBabel11021811513D
libRbt.so/2013.1/901 2013/11/27
 23 24  0  0  0  0  0  0  0  0999 V2000
   -3.4095   -8.8576   -0.1230 C   0  0  0  0  0  0  0  0  0  0  0  0
   -3.3072   -7.8848    0.9346 O   0  0  0  0  0  0  0  0  0  0  0  0
   -4.8802   -9.1216   -0.4127 C   0  0  2  0  0  0  0  0  0  0  0  0
   -5.1617  -10.1886   -1.4595 C   0  0  1  0  0  0  0  0  0  0  0  0
   -5.0307  -11.4817   -0.8655 O   0  0  0  0  0  0  0  0  0  0  0  0
   -6.5851   -9.8435   -1.8842 C   0  0  2  0  0  0  0  0  0  0  0  0
   -7.0507  -10.3017   -3.1591 O   0  0  0  0  0  0  0  0  0  0  0  0
   -6.5475   -8.3257   -1.8600 C   0  0  2  0  0  0  0  0  0  0  0  0
   -5.5385   -7.9486   -0.8992 O   0  0  0  0  0  0  0  0  0  0  0  0
   -7.9501   -7.8290   -1.4654 C   0  0  0  0  0  0  0  0  0  0  0  0
   -8.9526   -8.2096   -2.4182 O   0  0  0  0  0  0  0  0  0  0  0  0
   -6.0591   -6.4181   -3.2565 C   0  0  2  0  0  0  0  0  0  0  0  0
   -6.1183   -7.8508   -3.1473 O   0  0  0  0  0  0  0  0  0  0  0  0
   -5.7984   -6.0840   -4.7135 C   0  0  2  0  0  0  0  0  0  0  0  0
   -6.7077   -6.8238   -5.5357 O   0  0  0  0  0  0  0  0  0  0  0  0
   -4.3899   -6.4753   -5.1031 C   0  0  1  0  0  0  0  0  0  0  0  0
   -4.1043   -5.9259   -6.3916 O   0  0  0  0  0  0  0  0  0  0  0  0
   -3.3912   -5.9634   -4.0827 C   0  0  2  0  0  0  0  0  0  0  0  0
   -2.1124   -6.5018   -4.3894 O   0  0  0  0  0  0  0  0  0  0  0  0
   -3.7683   -6.3662   -2.6634 C   0  0  2  0  0  0  0  0  0  0  0  0
   -5.0662   -5.8488   -2.4034 O   0  0  0  0  0  0  0  0  0  0  0  0
   -2.7624   -5.8291   -1.6383 C   0  0  0  0  0  0  0  0  0  0  0  0
   -2.6097   -4.4033   -1.6960 O   0  0  0  0  0  0  0  0  0  0  0  0
  1  2  1  0  0  0  0
  3  1  1  6  0  0  0
  3  9  1  0  0  0  0
  3  4  1  0  0  0  0
  4  5  1  1  0  0  0
  4  6  1  0  0  0  0
  6  7  1  6  0  0  0
  6  8  1  0  0  0  0
  8  9  1  0  0  0  0
  8 10  1  1  0  0  0
  8 13  1  0  0  0  0
 10 11  1  0  0  0  0
 12 13  1  6  0  0  0
 12 14  1  0  0  0  0
 12 21  1  0  0  0  0
 14 15  1  6  0  0  0
 14 16  1  0  0  0  0
 16 17  1  6  0  0  0
 16 18  1  0  0  0  0
 18 19  1  6  0  0  0
 18 20  1  0  0  0  0
 20 21  1  0  0  0  0
 20 22  1  1  0  0  0
 22 23  1  0  0  0  0
M  END
>  <CHROM.1>
-176.78809241,-62.33660385,-171.62636646,179.21791199,56.65357240,-5.09659820
-7.58086696,-2.55519752,-2.08859605,-0.53318634,-0.95430220

>  <Name>
ligand

>  <RI>
0

>  <Rbt.Current_Directory>
/home/itssahil/PROJECTS/Mol_Feturizer/New_Systems/rnas/4TS2

>  <Rbt.Executable>
rbdock ($Id: //depot/dev/client3/rdock/2013.1/src/exe/rbdock.cxx#4 $)

>  <Rbt.Library>
libRbt.so (2013.1, Build901 2013/11/27)

>  <Rbt.Parameter_File>
/export/apps/rDock/src/rDock_2013.1_src/data/scripts/dock_solv.prm

>  <Rbt.Receptor>
prm/pocket_docking_8.prm

>  <SCORE>
-10.3883

>  <SCORE.INTER>
-3.12229

>  <SCORE.INTER.CONST>
1

>  <SCORE.INTER.POLAR>
0

>  <SCORE.INTER.ROT>
5

>  <SCORE.INTER.SOLV>
9.88534

>  <SCORE.INTER.VDW>
-12.31

>  <SCORE.INTER.norm>
-0.135752

>  <SCORE.INTRA>
-7.26603

>  <SCORE.INTRA.DIHEDRAL>
-11.9791

>  <SCORE.INTRA.DIHEDRAL.0>
12.4853

>  <SCORE.INTRA.POLAR>
0

>  <SCORE.INTRA.POLAR.0>
0

>  <SCORE.INTRA.REPUL>
0

>  <SCORE.INTRA.REPUL.0>
0

>  <SCORE.INTRA.SOLV>
0.481712

>  <SCORE.INTRA.SOLV.lig_0>
-31.1706

>  <SCORE.INTRA.VDW>
-1.51736

>  <SCORE.INTRA.VDW.0>
-1.16895

>  <SCORE.INTRA.norm>
-0.315914

>  <SCORE.RESTR>
0

>  <SCORE.RESTR.CAVITY>
0

>  <SCORE.RESTR.norm>
0

>  <SCORE.SYSTEM>
0

>  <SCORE.SYSTEM.CONST>
0

>  <SCORE.SYSTEM.DIHEDRAL>
0

>  <SCORE.SYSTEM.SOLV>
0

>  <SCORE.SYSTEM.norm>
0

>  <SCORE.heavy>
23

>  <SCORE.norm>
-0.451666

>  <RMSD>
6.174

$$$$
ligand
 OpenBabel11021811513D
libRbt.so/2013.1/901 2013/11/27
 23 24  0  0  0  0  0  0  0  0999 V2000
   -2.7052   -9.8484   -4.5024 C   0  0  0  0  0  0  0  0  0  0  0  0
   -3.4756  -10.3076   -3.3750 O   0  0  0  0  0  0  0  0  0  0  0  0
   -2.8856   -8.3440   -4.6459 C   0  0  2  0  0  0  0  0  0  0  0  0
   -2.4629   -7.5144   -3.4431 C   0  0  1  0  0  0  0  0  0  0  0  0
   -1.0422   -7.3602   -3.4493 O   0  0  0  0  0  0  0  0  0  0  0  0
   -3.2279   -6.2155   -3.6736 C   0  0  2  0  0  0  0  0  0  0  0  0
   -3.4753   -5.3572   -2.5536 O   0  0  0  0  0  0  0  0  0  0  0  0
   -4.5420   -6.7340   -4.2305 C   0  0  2  0  0  0  0  0  0  0  0  0
   -4.2559   -7.9979   -4.8662 O   0  0  0  0  0  0  0  0  0  0  0  0
   -5.0766   -5.6848   -5.2219 C   0  0  0  0  0  0  0  0  0  0  0  0
   -4.1825   -5.4672   -6.3223 O   0  0  0  0  0  0  0  0  0  0  0  0
   -6.7563   -7.4067   -3.5433 C   0  0  2  0  0  0  0  0  0  0  0  0
   -5.4401   -6.9925   -3.1381 O   0  0  0  0  0  0  0  0  0  0  0  0
   -7.7253   -6.9604   -2.4643 C   0  0  2  0  0  0  0  0  0  0  0  0
   -7.4770   -5.5862   -2.1482 O   0  0  0  0  0  0  0  0  0  0  0  0
   -7.5269   -7.7742   -1.2044 C   0  0  1  0  0  0  0  0  0  0  0  0
   -8.6070   -7.4989   -0.3094 O   0  0  0  0  0  0  0  0  0  0  0  0
   -7.4789   -9.2556   -1.5269 C   0  0  2  0  0  0  0  0  0  0  0  0
   -7.1149   -9.9648   -0.3505 O   0  0  0  0  0  0  0  0  0  0  0  0
   -6.4695   -9.5685   -2.6234 C   0  0  2  0  0  0  0  0  0  0  0  0
   -6.8372   -8.8137   -3.7701 O   0  0  0  0  0  0  0  0  0  0  0  0
   -6.4415  -11.0655   -2.9540 C   0  0  0  0  0  0  0  0  0  0  0  0
   -5.9277  -11.8676   -1.8806 O   0  0  0  0  0  0  0  0  0  0  0  0
  1  2  1  0  0  0  0
  3  1  1  1  0  0  0
  3  9  1  0  0  0  0
  3  4  1  0  0  0  0
  4  5  1  6  0  0  0
  4  6  1  0  0  0  0
  6  7  1  1  0  0  0
  6  8  1  0  0  0  0
  8  9  1  0  0  0  0
  8 10  1  6  0  0  0
  8 13  1  0  0  0  0
 10 11  1  0  0  0  0
 12 13  1  1  0  0  0
 12 14  1  0  0  0  0
 12 21  1  0  0  0  0
 14 15  1  1  0  0  0
 14 16  1  0  0  0  0
 16 17  1  1  0  0  0
 16 18  1  0  0  0  0
 18 19  1  1  0  0  0
 18 20  1  0  0  0  0
 20 21  1  0  0  0  0
 20 22  1  6  0  0  0
 22 23  1  0  0  0  0
M  END
>  <CHROM.1>
59.19117141,61.10157102,-151.34277574,176.10189214,-67.29993413,-5.26325912
-7.98851428,-3.12443878,-0.49621003,-0.49379720,2.90266057

>  <Name>
ligand

>  <RI>
0

>  <Rbt.Current_Directory>
/home/itssahil/PROJECTS/Mol_Feturizer/New_Systems/rnas/4TS2

>  <Rbt.Executable>
rbdock ($Id: //depot/dev/client3/rdock/2013.1/src/exe/rbdock.cxx#4 $)

>  <Rbt.Library>
libRbt.so (2013.1, Build901 2013/11/27)

>  <Rbt.Parameter_File>
/export/apps/rDock/src/rDock_2013.1_src/data/scripts/dock_solv.prm

>  <Rbt.Receptor>
prm/pocket_docking_8.prm

>  <SCORE>
-9.92563

>  <SCORE.INTER>
-4.67387

>  <SCORE.INTER.CONST>
1

>  <SCORE.INTER.POLAR>
0

>  <SCORE.INTER.ROT>
5

>  <SCORE.INTER.SOLV>
10.3786

>  <SCORE.INTER.VDW>
-13.5088

>  <SCORE.INTER.norm>
-0.203212

>  <SCORE.INTRA>
-5.25176

>  <SCORE.INTRA.DIHEDRAL>
-8.75589

>  <SCORE.INTRA.DIHEDRAL.0>
12.4853

>  <SCORE.INTRA.POLAR>
0

>  <SCORE.INTRA.POLAR.0>
0

>  <SCORE.INTRA.REPUL>
0

>  <SCORE.INTRA.REPUL.0>
0

>  <SCORE.INTRA.SOLV>
1.05983

>  <SCORE.INTRA.SOLV.lig_0>
-31.1706

>  <SCORE.INTRA.VDW>
-1.40372

>  <SCORE.INTRA.VDW.0>
-1.16895

>  <SCORE.INTRA.norm>
-0.228337

>  <SCORE.RESTR>
0

>  <SCORE.RESTR.CAVITY>
0

>  <SCORE.RESTR.norm>
0

>  <SCORE.SYSTEM>
0

>  <SCORE.SYSTEM.CONST>
0

>  <SCORE.SYSTEM.DIHEDRAL>
0

>  <SCORE.SYSTEM.SOLV>
0

>  <SCORE.SYSTEM.norm>
0

>  <SCORE.heavy>
23

>  <SCORE.norm>
-0.431549

>  <RMSD>
6.176

$$$$
ligand
 OpenBabel11021811513D
libRbt.so/2013.1/901 2013/11/27
 23 24  0  0  0  0  0  0  0  0999 V2000
   -4.8861   -6.1792   -2.6602 C   0  0  0  0  0  0  0  0  0  0  0  0
   -5.0085   -7.0502   -1.5192 O   0  0  0  0  0  0  0  0  0  0  0  0
   -3.4633   -5.6425   -2.7235 C   0  0  2  0  0  0  0  0  0  0  0  0
   -2.3684   -6.6944   -2.8123 C   0  0  1  0  0  0  0  0  0  0  0  0
   -2.2683   -7.1622   -4.1589 O   0  0  0  0  0  0  0  0  0  0  0  0
   -1.1468   -5.9167   -2.3345 C   0  0  2  0  0  0  0  0  0  0  0  0
   -0.0228   -6.6473   -1.8294 O   0  0  0  0  0  0  0  0  0  0  0  0
   -1.7463   -5.0599   -1.2333 C   0  0  2  0  0  0  0  0  0  0  0  0
   -3.1396   -4.8740   -1.5614 O   0  0  0  0  0  0  0  0  0  0  0  0
   -0.9683   -3.7321   -1.1974 C   0  0  0  0  0  0  0  0  0  0  0  0
    0.4088   -3.9152   -0.8402 O   0  0  0  0  0  0  0  0  0  0  0  0
   -2.3644   -5.1435    1.0988 C   0  0  2  0  0  0  0  0  0  0  0  0
   -1.6867   -5.7867    0.0056 O   0  0  0  0  0  0  0  0  0  0  0  0
   -1.5671   -5.4280    2.3580 C   0  0  2  0  0  0  0  0  0  0  0  0
   -0.1846   -5.1471    2.1131 O   0  0  0  0  0  0  0  0  0  0  0  0
   -1.6878   -6.8860    2.7436 C   0  0  1  0  0  0  0  0  0  0  0  0
   -1.1367   -7.0586    4.0512 O   0  0  0  0  0  0  0  0  0  0  0  0
   -3.1396   -7.3253    2.7252 C   0  0  2  0  0  0  0  0  0  0  0  0
   -3.1904   -8.7326    2.9161 O   0  0  0  0  0  0  0  0  0  0  0  0
   -3.8232   -6.9814    1.4087 C   0  0  2  0  0  0  0  0  0  0  0  0
   -3.7187   -5.5756    1.2280 O   0  0  0  0  0  0  0  0  0  0  0  0
   -5.2943   -7.4137    1.4071 C   0  0  0  0  0  0  0  0  0  0  0  0
   -5.4603   -8.8389    1.4365 O   0  0  0  0  0  0  0  0  0  0  0  0
  1  2  1  0  0  0  0
  3  1  1  1  0  0  0
  3  9  1  0  0  0  0
  3  4  1  0  0  0  0
  4  5  1  6  0  0  0
  4  6  1  0  0  0  0
  6  7  1  1  0  0  0
  6  8  1  0  0  0  0
  8  9  1  0  0  0  0
  8 10  1  1  0  0  0
  8 13  1  0  0  0  0
 10 11  1  0  0  0  0
 12 13  1  6  0  0  0
 12 14  1  0  0  0  0
 12 21  1  0  0  0  0
 14 15  1  6  0  0  0
 14 16  1  0  0  0  0
 16 17  1  1  0  0  0
 16 18  1  0  0  0  0
 18 19  1  6  0  0  0
 18 20  1  0  0  0  0
 20 21  1  0  0  0  0
 20 22  1  1  0  0  0
 22 23  1  0  0  0  0
M  END
>  <CHROM.1>
58.05497645,-63.98714875,-144.56458433,-173.19447409,-67.03093707,-2.50877833
-6.24569093,0.03697099,1.39845388,-0.53033602,-1.37532236

>  <Name>
ligand

>  <RI>
0

>  <Rbt.Current_Directory>
/home/itssahil/PROJECTS/Mol_Feturizer/New_Systems/rnas/4TS2

>  <Rbt.Executable>
rbdock ($Id: //depot/dev/client3/rdock/2013.1/src/exe/rbdock.cxx#4 $)

>  <Rbt.Library>
libRbt.so (2013.1, Build901 2013/11/27)

>  <Rbt.Parameter_File>
/export/apps/rDock/src/rDock_2013.1_src/data/scripts/dock_solv.prm

>  <Rbt.Receptor>
prm/pocket_docking_8.prm

>  <SCORE>
-7.08521

>  <SCORE.INTER>
-2.40559

>  <SCORE.INTER.CONST>
1

>  <SCORE.INTER.POLAR>
0

>  <SCORE.INTER.ROT>
5

>  <SCORE.INTER.SOLV>
6.55473

>  <SCORE.INTER.VDW>
-10.722

>  <SCORE.INTER.norm>
-0.104591

>  <SCORE.INTRA>
-4.67961

>  <SCORE.INTRA.DIHEDRAL>
-7.49158

>  <SCORE.INTRA.DIHEDRAL.0>
12.4853

>  <SCORE.INTRA.POLAR>
0

>  <SCORE.INTRA.POLAR.0>
0

>  <SCORE.INTRA.REPUL>
0

>  <SCORE.INTRA.REPUL.0>
0

>  <SCORE.INTRA.SOLV>
1.48851

>  <SCORE.INTRA.SOLV.lig_0>
-31.1706

>  <SCORE.INTRA.VDW>
-1.67808

>  <SCORE.INTRA.VDW.0>
-1.16895

>  <SCORE.INTRA.norm>
-0.203461

>  <SCORE.RESTR>
0

>  <SCORE.RESTR.CAVITY>
0

>  <SCORE.RESTR.norm>
0

>  <SCORE.SYSTEM>
0

>  <SCORE.SYSTEM.CONST>
0

>  <SCORE.SYSTEM.DIHEDRAL>
0

>  <SCORE.SYSTEM.SOLV>
0

>  <SCORE.SYSTEM.norm>
0

>  <SCORE.heavy>
23

>  <SCORE.norm>
-0.308052

>  <RMSD>
6.177

$$$$
ligand
 OpenBabel11021811513D
libRbt.so/2013.1/901 2013/11/27
 23 24  0  0  0  0  0  0  0  0999 V2000
   -3.3358   -6.2847    0.8672 C   0  0  0  0  0  0  0  0  0  0  0  0
   -3.6205   -5.0995    1.6353 O   0  0  0  0  0  0  0  0  0  0  0  0
   -3.8473   -7.5012    1.6255 C   0  0  2  0  0  0  0  0  0  0  0  0
   -3.4935   -8.8499    1.0178 C   0  0  1  0  0  0  0  0  0  0  0  0
   -2.1466   -9.1846    1.3584 O   0  0  0  0  0  0  0  0  0  0  0  0
   -4.5377   -9.7630    1.6513 C   0  0  2  0  0  0  0  0  0  0  0  0
   -4.8494  -11.0019    1.0031 O   0  0  0  0  0  0  0  0  0  0  0  0
   -5.7596   -8.8614    1.6630 C   0  0  2  0  0  0  0  0  0  0  0  0
   -5.2750   -7.5027    1.7143 O   0  0  0  0  0  0  0  0  0  0  0  0
   -6.6029   -9.2320    2.8963 C   0  0  0  0  0  0  0  0  0  0  0  0
   -7.1048  -10.5742    2.8318 O   0  0  0  0  0  0  0  0  0  0  0  0
   -7.5106   -8.0549    0.2101 C   0  0  2  0  0  0  0  0  0  0  0  0
   -6.4675   -9.0218    0.4220 O   0  0  0  0  0  0  0  0  0  0  0  0
   -8.7422   -8.8099   -0.2545 C   0  0  2  0  0  0  0  0  0  0  0  0
   -8.9689   -9.9224    0.6179 O   0  0  0  0  0  0  0  0  0  0  0  0
   -8.5382   -9.3462   -1.6544 C   0  0  1  0  0  0  0  0  0  0  0  0
   -9.7914   -9.8286   -2.1446 O   0  0  0  0  0  0  0  0  0  0  0  0
   -8.0006   -8.2622   -2.5691 C   0  0  2  0  0  0  0  0  0  0  0  0
   -7.6571   -8.8499   -3.8165 O   0  0  0  0  0  0  0  0  0  0  0  0
   -6.7673   -7.5844   -1.9873 C   0  0  2  0  0  0  0  0  0  0  0  0
   -7.1328   -7.0443   -0.7246 O   0  0  0  0  0  0  0  0  0  0  0  0
   -6.2424   -6.4789   -2.9110 C   0  0  0  0  0  0  0  0  0  0  0  0
   -5.0425   -5.8618   -2.4220 O   0  0  0  0  0  0  0  0  0  0  0  0
  1  2  1  0  0  0  0
  3  1  1  6  0  0  0
  3  9  1  0  0  0  0
  3  4  1  0  0  0  0
  4  5  1  1  0  0  0
  4  6  1  0  0  0  0
  6  7  1  6  0  0  0
  6  8  1  0  0  0  0
  8  9  1  0  0  0  0
  8 10  1  1  0  0  0
  8 13  1  0  0  0  0
 10 11  1  0  0  0  0
 12 13  1  6  0  0  0
 12 14  1  0  0  0  0
 12 21  1  0  0  0  0
 14 15  1  1  0  0  0
 14 16  1  0  0  0  0
 16 17  1  6  0  0  0
 16 18  1  0  0  0  0
 18 19  1  6  0  0  0
 18 20  1  0  0  0  0
 20 21  1  0  0  0  0
 20 22  1  6  0  0  0
 22 23  1  0  0  0  0
M  END
>  <CHROM.1>
-173.77307596,-63.70616975,-133.28831821,-169.67832369,-177.22244251,-6.14736414
-8.39136232,0.04191399,-0.43175543,-0.55525317,-0.91624148

>  <Name>
ligand

>  <RI>
0

>  <Rbt.Current_Directory>
/home/itssahil/PROJECTS/Mol_Feturizer/New_Systems/rnas/4TS2

>  <Rbt.Executable>
rbdock ($Id: //depot/dev/client3/rdock/2013.1/src/exe/rbdock.cxx#4 $)

>  <Rbt.Library>
libRbt.so (2013.1, Build901 2013/11/27)

>  <Rbt.Parameter_File>
/export/apps/rDock/src/rDock_2013.1_src/data/scripts/dock_solv.prm

>  <Rbt.Receptor>
prm/pocket_docking_6.prm

>  <SCORE>
-8.66454

>  <SCORE.INTER>
-4.37943

>  <SCORE.INTER.CONST>
1

>  <SCORE.INTER.POLAR>
0

>  <SCORE.INTER.ROT>
5

>  <SCORE.INTER.SOLV>
10.1192

>  <SCORE.INTER.VDW>
-13.226

>  <SCORE.INTER.norm>
-0.19041

>  <SCORE.INTRA>
-4.28511

>  <SCORE.INTRA.DIHEDRAL>
-5.54674

>  <SCORE.INTRA.DIHEDRAL.0>
12.4853

>  <SCORE.INTRA.POLAR>
0

>  <SCORE.INTRA.POLAR.0>
0

>  <SCORE.INTRA.REPUL>
0

>  <SCORE.INTRA.REPUL.0>
0

>  <SCORE.INTRA.SOLV>
0.07993

>  <SCORE.INTRA.SOLV.lig_0>
-31.1706

>  <SCORE.INTRA.VDW>
-1.5517

>  <SCORE.INTRA.VDW.0>
-1.16895

>  <SCORE.INTRA.norm>
-0.186309

>  <SCORE.RESTR>
0

>  <SCORE.RESTR.CAVITY>
0

>  <SCORE.RESTR.norm>
0

>  <SCORE.SYSTEM>
0

>  <SCORE.SYSTEM.CONST>
0

>  <SCORE.SYSTEM.DIHEDRAL>
0

>  <SCORE.SYSTEM.SOLV>
0

>  <SCORE.SYSTEM.norm>
0

>  <SCORE.heavy>
23

>  <SCORE.norm>
-0.376719

>  <RMSD>
6.178

$$$$
ligand
 OpenBabel11021811513D
libRbt.so/2013.1/901 2013/11/27
 23 24  0  0  0  0  0  0  0  0999 V2000
   -3.6166   -6.3801   -0.9903 C   0  0  0  0  0  0  0  0  0  0  0  0
   -2.2706   -6.3454   -1.5025 O   0  0  0  0  0  0  0  0  0  0  0  0
   -3.6946   -7.4088    0.1287 C   0  0  2  0  0  0  0  0  0  0  0  0
   -3.4527   -8.8515   -0.2880 C   0  0  1  0  0  0  0  0  0  0  0  0
   -2.0478   -9.0779   -0.4192 O   0  0  0  0  0  0  0  0  0  0  0  0
   -4.0997   -9.6217    0.8581 C   0  0  2  0  0  0  0  0  0  0  0  0
   -4.5002  -10.9786    0.6329 O   0  0  0  0  0  0  0  0  0  0  0  0
   -5.3175   -8.7625    1.1494 C   0  0  2  0  0  0  0  0  0  0  0  0
   -4.9851   -7.4172    0.7455 O   0  0  0  0  0  0  0  0  0  0  0  0
   -5.6149   -8.8677    2.6561 C   0  0  0  0  0  0  0  0  0  0  0  0
   -4.4973   -8.4703    3.4627 O   0  0  0  0  0  0  0  0  0  0  0  0
   -7.5065   -8.2810    0.2527 C   0  0  2  0  0  0  0  0  0  0  0  0
   -6.4074   -9.2057    0.3232 O   0  0  0  0  0  0  0  0  0  0  0  0
   -8.7218   -9.0554   -0.2223 C   0  0  2  0  0  0  0  0  0  0  0  0
   -8.8479  -10.2537    0.5512 O   0  0  0  0  0  0  0  0  0  0  0  0
   -8.5648   -9.4495   -1.6745 C   0  0  1  0  0  0  0  0  0  0  0  0
   -9.8165   -9.9517   -2.1483 O   0  0  0  0  0  0  0  0  0  0  0  0
   -8.1294   -8.2589   -2.5075 C   0  0  2  0  0  0  0  0  0  0  0  0
   -7.8227   -8.7106   -3.8195 O   0  0  0  0  0  0  0  0  0  0  0  0
   -6.9024   -7.5719   -1.9232 C   0  0  2  0  0  0  0  0  0  0  0  0
   -7.2279   -7.1701   -0.5994 O   0  0  0  0  0  0  0  0  0  0  0  0
   -6.4812   -6.3598   -2.7625 C   0  0  0  0  0  0  0  0  0  0  0  0
   -7.5434   -5.4140   -2.9546 O   0  0  0  0  0  0  0  0  0  0  0  0
  1  2  1  0  0  0  0
  3  1  1  6  0  0  0
  3  9  1  0  0  0  0
  3  4  1  0  0  0  0
  4  5  1  1  0  0  0
  4  6  1  0  0  0  0
  6  7  1  6  0  0  0
  6  8  1  0  0  0  0
  8  9  1  0  0  0  0
  8 10  1  1  0  0  0
  8 13  1  0  0  0  0
 10 11  1  0  0  0  0
 12 13  1  6  0  0  0
 12 14  1  0  0  0  0
 12 21  1  0  0  0  0
 14 15  1  1  0  0  0
 14 16  1  0  0  0  0
 16 17  1  6  0  0  0
 16 18  1  0  0  0  0
 18 19  1  6  0  0  0
 18 20  1  0  0  0  0
 20 21  1  0  0  0  0
 20 22  1  6  0  0  0
 22 23  1  0  0  0  0
M  END
>  <CHROM.1>
-64.76888391,57.28631290,-160.75416931,-165.25920357,54.72597674,-5.99754104
-8.34134597,-0.48832305,-0.38187226,-0.33543873,-0.94499334

>  <Name>
ligand

>  <RI>
0

>  <Rbt.Current_Directory>
/home/itssahil/PROJECTS/Mol_Feturizer/New_Systems/rnas/4TS2

>  <Rbt.Executable>
rbdock ($Id: //depot/dev/client3/rdock/2013.1/src/exe/rbdock.cxx#4 $)

>  <Rbt.Library>
libRbt.so (2013.1, Build901 2013/11/27)

>  <Rbt.Parameter_File>
/export/apps/rDock/src/rDock_2013.1_src/data/scripts/dock_solv.prm

>  <Rbt.Receptor>
prm/pocket_docking_5.prm

>  <SCORE>
-8.44983

>  <SCORE.INTER>
-2.35688

>  <SCORE.INTER.CONST>
1

>  <SCORE.INTER.POLAR>
0

>  <SCORE.INTER.ROT>
5

>  <SCORE.INTER.SOLV>
9.68258

>  <SCORE.INTER.VDW>
-11.7321

>  <SCORE.INTER.norm>
-0.102473

>  <SCORE.INTRA>
-6.09296

>  <SCORE.INTRA.DIHEDRAL>
-9.73887

>  <SCORE.INTRA.DIHEDRAL.0>
12.4853

>  <SCORE.INTRA.POLAR>
0

>  <SCORE.INTRA.POLAR.0>
0

>  <SCORE.INTRA.REPUL>
0

>  <SCORE.INTRA.REPUL.0>
0

>  <SCORE.INTRA.SOLV>
0.440957

>  <SCORE.INTRA.SOLV.lig_0>
-31.1706

>  <SCORE.INTRA.VDW>
-1.444

>  <SCORE.INTRA.VDW.0>
-1.16895

>  <SCORE.INTRA.norm>
-0.264911

>  <SCORE.RESTR>
0

>  <SCORE.RESTR.CAVITY>
0

>  <SCORE.RESTR.norm>
0

>  <SCORE.SYSTEM>
0

>  <SCORE.SYSTEM.CONST>
0

>  <SCORE.SYSTEM.DIHEDRAL>
0

>  <SCORE.SYSTEM.SOLV>
0

>  <SCORE.SYSTEM.norm>
0

>  <SCORE.heavy>
23

>  <SCORE.norm>
-0.367384

>  <RMSD>
6.185

$$$$
ligand
 OpenBabel11021811513D
libRbt.so/2013.1/901 2013/11/27
 23 24  0  0  0  0  0  0  0  0999 V2000
   -3.4709   -6.3143   -2.0363 C   0  0  0  0  0  0  0  0  0  0  0  0
   -3.6525   -4.9195   -1.7248 O   0  0  0  0  0  0  0  0  0  0  0  0
   -3.4083   -7.1076   -0.7389 C   0  0  2  0  0  0  0  0  0  0  0  0
   -3.0559   -8.5799   -0.8862 C   0  0  1  0  0  0  0  0  0  0  0  0
   -1.6433   -8.7147   -1.0549 O   0  0  0  0  0  0  0  0  0  0  0  0
   -3.5817   -9.1606    0.4222 C   0  0  2  0  0  0  0  0  0  0  0  0
   -3.8679  -10.5629    0.4843 O   0  0  0  0  0  0  0  0  0  0  0  0
   -4.8580   -8.3611    0.6158 C   0  0  2  0  0  0  0  0  0  0  0  0
   -4.6654   -7.0984   -0.0564 O   0  0  0  0  0  0  0  0  0  0  0  0
   -5.0802   -8.1934    2.1298 C   0  0  0  0  0  0  0  0  0  0  0  0
   -5.3544   -9.4406    2.7833 O   0  0  0  0  0  0  0  0  0  0  0  0
   -7.2049   -8.3685    0.0501 C   0  0  2  0  0  0  0  0  0  0  0  0
   -5.9381   -9.0426   -0.0445 O   0  0  0  0  0  0  0  0  0  0  0  0
   -8.2726   -9.3409   -0.4156 C   0  0  2  0  0  0  0  0  0  0  0  0
   -8.0839  -10.5980    0.2434 O   0  0  0  0  0  0  0  0  0  0  0  0
   -8.1642   -9.5726   -1.9067 C   0  0  1  0  0  0  0  0  0  0  0  0
   -9.3230  -10.2876   -2.3421 O   0  0  0  0  0  0  0  0  0  0  0  0
   -8.0549   -8.2528   -2.6463 C   0  0  2  0  0  0  0  0  0  0  0  0
   -7.7769   -8.5205   -4.0139 O   0  0  0  0  0  0  0  0  0  0  0  0
   -6.9486   -7.3721   -2.0814 C   0  0  2  0  0  0  0  0  0  0  0  0
   -7.2339   -7.1580   -0.7057 O   0  0  0  0  0  0  0  0  0  0  0  0
   -6.8581   -6.0338   -2.8242 C   0  0  0  0  0  0  0  0  0  0  0  0
   -6.4660   -6.1794   -4.1970 O   0  0  0  0  0  0  0  0  0  0  0  0
  1  2  1  0  0  0  0
  3  1  1  6  0  0  0
  3  9  1  0  0  0  0
  3  4  1  0  0  0  0
  4  5  1  1  0  0  0
  4  6  1  0  0  0  0
  6  7  1  6  0  0  0
  6  8  1  0  0  0  0
  8  9  1  0  0  0  0
  8 10  1  1  0  0  0
  8 13  1  0  0  0  0
 10 11  1  0  0  0  0
 12 13  1  6  0  0  0
 12 14  1  0  0  0  0
 12 21  1  0  0  0  0
 14 15  1  1  0  0  0
 14 16  1  0  0  0  0
 16 17  1  6  0  0  0
 16 18  1  0  0  0  0
 18 19  1  6  0  0  0
 18 20  1  0  0  0  0
 20 21  1  0  0  0  0
 20 22  1  6  0  0  0
 22 23  1  0  0  0  0
M  END
>  <CHROM.1>
-173.11703531,-66.24595840,-167.78125333,-179.08482446,-65.20450906,-5.78167129
-8.23056537,-0.92074398,-0.28605552,-0.38583427,-0.88976877

>  <Name>
ligand

>  <RI>
0

>  <Rbt.Current_Directory>
/home/itssahil/PROJECTS/Mol_Feturizer/New_Systems/rnas/4TS2

>  <Rbt.Executable>
rbdock ($Id: //depot/dev/client3/rdock/2013.1/src/exe/rbdock.cxx#4 $)

>  <Rbt.Library>
libRbt.so (2013.1, Build901 2013/11/27)

>  <Rbt.Parameter_File>
/export/apps/rDock/src/rDock_2013.1_src/data/scripts/dock_solv.prm

>  <Rbt.Receptor>
prm/pocket_docking_4.prm

>  <SCORE>
-9.37134

>  <SCORE.INTER>
-2.39248

>  <SCORE.INTER.CONST>
1

>  <SCORE.INTER.POLAR>
0

>  <SCORE.INTER.ROT>
5

>  <SCORE.INTER.SOLV>
9.09849

>  <SCORE.INTER.VDW>
-11.5611

>  <SCORE.INTER.norm>
-0.104021

>  <SCORE.INTRA>
-6.97886

>  <SCORE.INTRA.DIHEDRAL>
-11.357

>  <SCORE.INTRA.DIHEDRAL.0>
12.4853

>  <SCORE.INTRA.POLAR>
0

>  <SCORE.INTRA.POLAR.0>
0

>  <SCORE.INTRA.REPUL>
0

>  <SCORE.INTRA.REPUL.0>
0

>  <SCORE.INTRA.SOLV>
0.643339

>  <SCORE.INTRA.SOLV.lig_0>
-31.1706

>  <SCORE.INTRA.VDW>
-1.62202

>  <SCORE.INTRA.VDW.0>
-1.16895

>  <SCORE.INTRA.norm>
-0.303429

>  <SCORE.RESTR>
0

>  <SCORE.RESTR.CAVITY>
0

>  <SCORE.RESTR.norm>
0

>  <SCORE.SYSTEM>
0

>  <SCORE.SYSTEM.CONST>
0

>  <SCORE.SYSTEM.DIHEDRAL>
0

>  <SCORE.SYSTEM.SOLV>
0

>  <SCORE.SYSTEM.norm>
0

>  <SCORE.heavy>
23

>  <SCORE.norm>
-0.407449

>  <RMSD>
6.210

$$$$
ligand
 OpenBabel11021811513D
libRbt.so/2013.1/901 2013/11/27
 23 24  0  0  0  0  0  0  0  0999 V2000
   -3.4164   -9.0336   -0.3412 C   0  0  0  0  0  0  0  0  0  0  0  0
   -2.8961  -10.2872    0.1416 O   0  0  0  0  0  0  0  0  0  0  0  0
   -4.9150   -9.1734   -0.5677 C   0  0  2  0  0  0  0  0  0  0  0  0
   -5.3278  -10.1951   -1.6162 C   0  0  1  0  0  0  0  0  0  0  0  0
   -5.2758  -11.5052   -1.0478 O   0  0  0  0  0  0  0  0  0  0  0  0
   -6.7359   -9.7292   -1.9707 C   0  0  2  0  0  0  0  0  0  0  0  0
   -7.2928  -10.1251   -3.2298 O   0  0  0  0  0  0  0  0  0  0  0  0
   -6.5745   -8.2200   -1.9259 C   0  0  2  0  0  0  0  0  0  0  0  0
   -5.4970   -7.9427   -1.0064 O   0  0  0  0  0  0  0  0  0  0  0  0
   -7.9136   -7.6197   -1.4608 C   0  0  0  0  0  0  0  0  0  0  0  0
   -8.2657   -8.0327   -0.1330 O   0  0  0  0  0  0  0  0  0  0  0  0
   -6.0418   -6.3285   -3.3282 C   0  0  2  0  0  0  0  0  0  0  0  0
   -6.1654   -7.7575   -3.2242 O   0  0  0  0  0  0  0  0  0  0  0  0
   -5.7434   -6.0029   -4.7799 C   0  0  2  0  0  0  0  0  0  0  0  0
   -6.6708   -6.7003   -5.6187 O   0  0  0  0  0  0  0  0  0  0  0  0
   -4.3472   -6.4546   -5.1481 C   0  0  1  0  0  0  0  0  0  0  0  0
   -4.0171   -5.9153   -6.4301 O   0  0  0  0  0  0  0  0  0  0  0  0
   -3.3436   -5.9892   -4.1102 C   0  0  2  0  0  0  0  0  0  0  0  0
   -2.0848   -6.5824   -4.3980 O   0  0  0  0  0  0  0  0  0  0  0  0
   -3.7608   -6.3784   -2.6983 C   0  0  2  0  0  0  0  0  0  0  0  0
   -5.0389   -5.8053   -2.4576 O   0  0  0  0  0  0  0  0  0  0  0  0
   -2.7491   -5.8882   -1.6557 C   0  0  0  0  0  0  0  0  0  0  0  0
   -2.5653   -4.4650   -1.6781 O   0  0  0  0  0  0  0  0  0  0  0  0
  1  2  1  0  0  0  0
  3  1  1  6  0  0  0
  3  9  1  0  0  0  0
  3  4  1  0  0  0  0
  4  5  1  1  0  0  0
  4  6  1  0  0  0  0
  6  7  1  6  0  0  0
  6  8  1  0  0  0  0
  8  9  1  0  0  0  0
  8 10  1  1  0  0  0
  8 13  1  0  0  0  0
 10 11  1  0  0  0  0
 12 13  1  6  0  0  0
 12 14  1  0  0  0  0
 12 21  1  0  0  0  0
 14 15  1  6  0  0  0
 14 16  1  0  0  0  0
 16 17  1  6  0  0  0
 16 18  1  0  0  0  0
 18 19  1  6  0  0  0
 18 20  1  0  0  0  0
 20 21  1  0  0  0  0
 20 22  1  1  0  0  0
 22 23  1  0  0  0  0
M  END
>  <CHROM.1>
-62.34318059,62.93723768,-174.43632200,177.09805337,58.52897969,-5.06315336
-7.66275500,-2.54980795,-1.95812489,-0.36947500,-0.87115688

>  <Name>
ligand

>  <RI>
0

>  <Rbt.Current_Directory>
/home/itssahil/PROJECTS/Mol_Feturizer/New_Systems/rnas/4TS2

>  <Rbt.Executable>
rbdock ($Id: //depot/dev/client3/rdock/2013.1/src/exe/rbdock.cxx#4 $)

>  <Rbt.Library>
libRbt.so (2013.1, Build901 2013/11/27)

>  <Rbt.Parameter_File>
/export/apps/rDock/src/rDock_2013.1_src/data/scripts/dock_solv.prm

>  <Rbt.Receptor>
prm/pocket_docking_8.prm

>  <SCORE>
-10.3753

>  <SCORE.INTER>
-3.30288

>  <SCORE.INTER.CONST>
1

>  <SCORE.INTER.POLAR>
0

>  <SCORE.INTER.ROT>
5

>  <SCORE.INTER.SOLV>
9.83176

>  <SCORE.INTER.VDW>
-12.4125

>  <SCORE.INTER.norm>
-0.143604

>  <SCORE.INTRA>
-7.07244

>  <SCORE.INTRA.DIHEDRAL>
-12.0999

>  <SCORE.INTRA.DIHEDRAL.0>
12.4853

>  <SCORE.INTRA.POLAR>
0

>  <SCORE.INTRA.POLAR.0>
0

>  <SCORE.INTRA.REPUL>
0

>  <SCORE.INTRA.REPUL.0>
0

>  <SCORE.INTRA.SOLV>
0.351455

>  <SCORE.INTRA.SOLV.lig_0>
-31.1706

>  <SCORE.INTRA.VDW>
-1.19822

>  <SCORE.INTRA.VDW.0>
-1.16895

>  <SCORE.INTRA.norm>
-0.307497

>  <SCORE.RESTR>
0

>  <SCORE.RESTR.CAVITY>
0

>  <SCORE.RESTR.norm>
0

>  <SCORE.SYSTEM>
0

>  <SCORE.SYSTEM.CONST>
0

>  <SCORE.SYSTEM.DIHEDRAL>
0

>  <SCORE.SYSTEM.SOLV>
0

>  <SCORE.SYSTEM.norm>
0

>  <SCORE.heavy>
23

>  <SCORE.norm>
-0.451101

>  <RMSD>
6.211

$$$$
ligand
 OpenBabel11021811513D
libRbt.so/2013.1/901 2013/11/27
 23 24  0  0  0  0  0  0  0  0999 V2000
   -4.0065  -11.5808   -3.4224 C   0  0  0  0  0  0  0  0  0  0  0  0
   -4.1010  -12.9050   -3.9820 O   0  0  0  0  0  0  0  0  0  0  0  0
   -5.1845  -11.3535   -2.4858 C   0  0  2  0  0  0  0  0  0  0  0  0
   -6.5610  -11.4700   -3.1222 C   0  0  1  0  0  0  0  0  0  0  0  0
   -6.9090  -12.8501   -3.2499 O   0  0  0  0  0  0  0  0  0  0  0  0
   -7.4301  -10.7011   -2.1326 C   0  0  2  0  0  0  0  0  0  0  0  0
   -8.6856  -10.1791   -2.5836 O   0  0  0  0  0  0  0  0  0  0  0  0
   -6.5052   -9.5625   -1.7402 C   0  0  2  0  0  0  0  0  0  0  0  0
   -5.1552  -10.0429   -1.9135 O   0  0  0  0  0  0  0  0  0  0  0  0
   -6.8142   -9.1911   -0.2786 C   0  0  0  0  0  0  0  0  0  0  0  0
   -8.1359   -8.6575   -0.1180 O   0  0  0  0  0  0  0  0  0  0  0  0
   -5.9230   -7.2994   -2.3462 C   0  0  2  0  0  0  0  0  0  0  0  0
   -6.6972   -8.4711   -2.6561 O   0  0  0  0  0  0  0  0  0  0  0  0
   -6.3750   -6.1953   -3.2838 C   0  0  2  0  0  0  0  0  0  0  0  0
   -7.8052   -6.1267   -3.2749 O   0  0  0  0  0  0  0  0  0  0  0  0
   -5.9287   -6.4867   -4.6997 C   0  0  1  0  0  0  0  0  0  0  0  0
   -6.1527   -5.3215   -5.4970 O   0  0  0  0  0  0  0  0  0  0  0  0
   -4.4607   -6.8674   -4.7299 C   0  0  2  0  0  0  0  0  0  0  0  0
   -4.1316   -7.3030   -6.0418 O   0  0  0  0  0  0  0  0  0  0  0  0
   -4.1403   -7.9835   -3.7448 C   0  0  2  0  0  0  0  0  0  0  0  0
   -4.5187   -7.5328   -2.4511 O   0  0  0  0  0  0  0  0  0  0  0  0
   -2.6513   -8.3485   -3.7705 C   0  0  0  0  0  0  0  0  0  0  0  0
   -2.2391   -8.9365   -5.0131 O   0  0  0  0  0  0  0  0  0  0  0  0
  1  2  1  0  0  0  0
  3  1  1  6  0  0  0
  3  9  1  0  0  0  0
  3  4  1  0  0  0  0
  4  5  1  1  0  0  0
  4  6  1  0  0  0  0
  6  7  1  6  0  0  0
  6  8  1  0  0  0  0
  8  9  1  0  0  0  0
  8 10  1  1  0  0  0
  8 13  1  0  0  0  0
 10 11  1  0  0  0  0
 12 13  1  6  0  0  0
 12 14  1  0  0  0  0
 12 21  1  0  0  0  0
 14 15  1  6  0  0  0
 14 16  1  0  0  0  0
 16 17  1  6  0  0  0
 16 18  1  0  0  0  0
 18 19  1  6  0  0  0
 18 20  1  0  0  0  0
 20 21  1  0  0  0  0
 20 22  1  1  0  0  0
 22 23  1  0  0  0  0
M  END
>  <CHROM.1>
-59.51764756,-65.22547940,-172.59345675,176.91760467,-66.35751740,-5.68004591
-8.93504128,-3.17070497,-1.86187901,0.60231505,-0.24983190

>  <Name>
ligand

>  <RI>
0

>  <Rbt.Current_Directory>
/home/itssahil/PROJECTS/Mol_Feturizer/New_Systems/rnas/4TS2

>  <Rbt.Executable>
rbdock ($Id: //depot/dev/client3/rdock/2013.1/src/exe/rbdock.cxx#4 $)

>  <Rbt.Library>
libRbt.so (2013.1, Build901 2013/11/27)

>  <Rbt.Parameter_File>
/export/apps/rDock/src/rDock_2013.1_src/data/scripts/dock_solv.prm

>  <Rbt.Receptor>
prm/pocket_docking_6.prm

>  <SCORE>
-9.57313

>  <SCORE.INTER>
-2.62988

>  <SCORE.INTER.CONST>
1

>  <SCORE.INTER.POLAR>
0

>  <SCORE.INTER.ROT>
5

>  <SCORE.INTER.SOLV>
7.06048

>  <SCORE.INTER.VDW>
-11.0401

>  <SCORE.INTER.norm>
-0.114343

>  <SCORE.INTRA>
-6.94324

>  <SCORE.INTRA.DIHEDRAL>
-11.8515

>  <SCORE.INTRA.DIHEDRAL.0>
12.4853

>  <SCORE.INTRA.POLAR>
0

>  <SCORE.INTRA.POLAR.0>
0

>  <SCORE.INTRA.REPUL>
0

>  <SCORE.INTRA.REPUL.0>
0

>  <SCORE.INTRA.SOLV>
0.690423

>  <SCORE.INTRA.SOLV.lig_0>
-31.1706

>  <SCORE.INTRA.VDW>
-1.3627

>  <SCORE.INTRA.VDW.0>
-1.16895

>  <SCORE.INTRA.norm>
-0.30188

>  <SCORE.RESTR>
0

>  <SCORE.RESTR.CAVITY>
0

>  <SCORE.RESTR.norm>
0

>  <SCORE.SYSTEM>
0

>  <SCORE.SYSTEM.CONST>
0

>  <SCORE.SYSTEM.DIHEDRAL>
0

>  <SCORE.SYSTEM.SOLV>
0

>  <SCORE.SYSTEM.norm>
0

>  <SCORE.heavy>
23

>  <SCORE.norm>
-0.416223

>  <RMSD>
6.212

$$$$
ligand
 OpenBabel11021811513D
libRbt.so/2013.1/901 2013/11/27
 23 24  0  0  0  0  0  0  0  0999 V2000
   -3.7959   -5.9952   -1.8295 C   0  0  0  0  0  0  0  0  0  0  0  0
   -2.5092   -5.7630   -2.4344 O   0  0  0  0  0  0  0  0  0  0  0  0
   -3.6125   -6.8625   -0.5923 C   0  0  2  0  0  0  0  0  0  0  0  0
   -3.0470   -8.2520   -0.8428 C   0  0  1  0  0  0  0  0  0  0  0  0
   -1.6305   -8.1643   -1.0101 O   0  0  0  0  0  0  0  0  0  0  0  0
   -3.4769   -8.9972    0.4164 C   0  0  2  0  0  0  0  0  0  0  0  0
   -3.5527  -10.4272    0.3750 O   0  0  0  0  0  0  0  0  0  0  0  0
   -4.8567   -8.4110    0.6576 C   0  0  2  0  0  0  0  0  0  0  0  0
   -4.8549   -7.0883    0.0797 O   0  0  0  0  0  0  0  0  0  0  0  0
   -5.0962   -8.3880    2.1781 C   0  0  0  0  0  0  0  0  0  0  0  0
   -5.1590   -9.7058    2.7413 O   0  0  0  0  0  0  0  0  0  0  0  0
   -7.1787   -8.7243    0.0764 C   0  0  2  0  0  0  0  0  0  0  0  0
   -5.8264   -9.1947   -0.0582 O   0  0  0  0  0  0  0  0  0  0  0  0
   -8.0880   -9.7760   -0.5316 C   0  0  2  0  0  0  0  0  0  0  0  0
   -7.7274  -11.0632   -0.0185 O   0  0  0  0  0  0  0  0  0  0  0  0
   -7.9279   -9.8095   -2.0356 C   0  0  1  0  0  0  0  0  0  0  0  0
   -8.9649  -10.6249   -2.5862 O   0  0  0  0  0  0  0  0  0  0  0  0
   -8.0017   -8.4086   -2.6124 C   0  0  2  0  0  0  0  0  0  0  0  0
   -7.6700   -8.4680   -3.9930 O   0  0  0  0  0  0  0  0  0  0  0  0
   -7.0422   -7.4533   -1.9156 C   0  0  2  0  0  0  0  0  0  0  0  0
   -7.3733   -7.4485   -0.5335 O   0  0  0  0  0  0  0  0  0  0  0  0
   -7.1372   -6.0365   -2.4940 C   0  0  0  0  0  0  0  0  0  0  0  0
   -6.7280   -5.9626   -3.8676 O   0  0  0  0  0  0  0  0  0  0  0  0
  1  2  1  0  0  0  0
  3  1  1  6  0  0  0
  3  9  1  0  0  0  0
  3  4  1  0  0  0  0
  4  5  1  1  0  0  0
  4  6  1  0  0  0  0
  6  7  1  6  0  0  0
  6  8  1  0  0  0  0
  8  9  1  0  0  0  0
  8 10  1  1  0  0  0
  8 13  1  0  0  0  0
 10 11  1  0  0  0  0
 12 13  1  6  0  0  0
 12 14  1  0  0  0  0
 12 21  1  0  0  0  0
 14 15  1  1  0  0  0
 14 16  1  0  0  0  0
 16 17  1  6  0  0  0
 16 18  1  0  0  0  0
 18 19  1  6  0  0  0
 18 20  1  0  0  0  0
 20 21  1  0  0  0  0
 20 22  1  6  0  0  0
 22 23  1  0  0  0  0
M  END
>  <CHROM.1>
-62.45408095,-65.28209778,-170.64781382,-179.13709131,-64.39204378,-5.69915995
-8.31428238,-0.92065019,-0.14327003,-0.41633585,-0.87132623

>  <Name>
ligand

>  <RI>
0

>  <Rbt.Current_Directory>
/home/itssahil/PROJECTS/Mol_Feturizer/New_Systems/rnas/4TS2

>  <Rbt.Executable>
rbdock ($Id: //depot/dev/client3/rdock/2013.1/src/exe/rbdock.cxx#4 $)

>  <Rbt.Library>
libRbt.so (2013.1, Build901 2013/11/27)

>  <Rbt.Parameter_File>
/export/apps/rDock/src/rDock_2013.1_src/data/scripts/dock_solv.prm

>  <Rbt.Receptor>
prm/pocket_docking_7.prm

>  <SCORE>
-9.74505

>  <SCORE.INTER>
-2.77039

>  <SCORE.INTER.CONST>
1

>  <SCORE.INTER.POLAR>
0

>  <SCORE.INTER.ROT>
5

>  <SCORE.INTER.SOLV>
7.98305

>  <SCORE.INTER.VDW>
-11.4413

>  <SCORE.INTER.norm>
-0.120452

>  <SCORE.INTRA>
-6.97466

>  <SCORE.INTRA.DIHEDRAL>
-11.8492

>  <SCORE.INTRA.DIHEDRAL.0>
12.4853

>  <SCORE.INTRA.POLAR>
0

>  <SCORE.INTRA.POLAR.0>
0

>  <SCORE.INTRA.REPUL>
0

>  <SCORE.INTRA.REPUL.0>
0

>  <SCORE.INTRA.SOLV>
0.699665

>  <SCORE.INTRA.SOLV.lig_0>
-31.1706

>  <SCORE.INTRA.VDW>
-1.3999

>  <SCORE.INTRA.VDW.0>
-1.16895

>  <SCORE.INTRA.norm>
-0.303246

>  <SCORE.RESTR>
0

>  <SCORE.RESTR.CAVITY>
0

>  <SCORE.RESTR.norm>
0

>  <SCORE.SYSTEM>
0

>  <SCORE.SYSTEM.CONST>
0

>  <SCORE.SYSTEM.DIHEDRAL>
0

>  <SCORE.SYSTEM.SOLV>
0

>  <SCORE.SYSTEM.norm>
0

>  <SCORE.heavy>
23

>  <SCORE.norm>
-0.423698

>  <RMSD>
6.225

$$$$
ligand
 OpenBabel11021811513D
libRbt.so/2013.1/901 2013/11/27
 23 24  0  0  0  0  0  0  0  0999 V2000
   -6.7192   -7.7826   -2.8569 C   0  0  0  0  0  0  0  0  0  0  0  0
   -7.9779   -7.1355   -3.1261 O   0  0  0  0  0  0  0  0  0  0  0  0
   -5.5883   -6.8896   -3.3470 C   0  0  2  0  0  0  0  0  0  0  0  0
   -5.5293   -6.6711   -4.8511 C   0  0  1  0  0  0  0  0  0  0  0  0
   -6.4919   -5.6831   -5.2247 O   0  0  0  0  0  0  0  0  0  0  0  0
   -4.0824   -6.2313   -5.0476 C   0  0  2  0  0  0  0  0  0  0  0  0
   -3.4919   -6.3752   -6.3448 O   0  0  0  0  0  0  0  0  0  0  0  0
   -3.3597   -7.1161   -4.0471 C   0  0  2  0  0  0  0  0  0  0  0  0
   -4.3080   -7.4279   -3.0046 O   0  0  0  0  0  0  0  0  0  0  0  0
   -2.1442   -6.3316   -3.5210 C   0  0  0  0  0  0  0  0  0  0  0  0
   -2.5264   -5.1704   -2.7707 O   0  0  0  0  0  0  0  0  0  0  0  0
   -2.1999   -9.2268   -3.8815 C   0  0  2  0  0  0  0  0  0  0  0  0
   -3.0031   -8.3509   -4.6913 O   0  0  0  0  0  0  0  0  0  0  0  0
   -1.8052  -10.4097   -4.7459 C   0  0  2  0  0  0  0  0  0  0  0  0
   -1.2972   -9.9303   -5.9959 O   0  0  0  0  0  0  0  0  0  0  0  0
   -3.0080  -11.2815   -5.0324 C   0  0  1  0  0  0  0  0  0  0  0  0
   -2.5564  -12.4989   -5.6303 O   0  0  0  0  0  0  0  0  0  0  0  0
   -3.7704  -11.5771   -3.7548 C   0  0  2  0  0  0  0  0  0  0  0  0
   -4.9802  -12.2421   -4.0916 O   0  0  0  0  0  0  0  0  0  0  0  0
   -4.1040  -10.3078   -2.9826 C   0  0  2  0  0  0  0  0  0  0  0  0
   -2.8785   -9.6468   -2.6980 O   0  0  0  0  0  0  0  0  0  0  0  0
   -4.8588  -10.6188   -1.6847 C   0  0  0  0  0  0  0  0  0  0  0  0
   -4.0803  -11.3833   -0.7524 O   0  0  0  0  0  0  0  0  0  0  0  0
  1  2  1  0  0  0  0
  3  1  1  6  0  0  0
  3  9  1  0  0  0  0
  3  4  1  0  0  0  0
  4  5  1  1  0  0  0
  4  6  1  0  0  0  0
  6  7  1  6  0  0  0
  6  8  1  0  0  0  0
  8  9  1  0  0  0  0
  8 10  1  1  0  0  0
  8 13  1  0  0  0  0
 10 11  1  0  0  0  0
 12 13  1  6  0  0  0
 12 14  1  0  0  0  0
 12 21  1  0  0  0  0
 14 15  1  6  0  0  0
 14 16  1  0  0  0  0
 16 17  1  1  0  0  0
 16 18  1  0  0  0  0
 18 19  1  6  0  0  0
 18 20  1  0  0  0  0
 20 21  1  0  0  0  0
 20 22  1  1  0  0  0
 22 23  1  0  0  0  0
M  END
>  <CHROM.1>
-65.33863739,65.18286123,-174.72365514,174.43669741,63.84028971,-3.95523786
-8.70928631,-3.91626962,1.99257372,0.54548549,-0.25444663

>  <Name>
ligand

>  <RI>
0

>  <Rbt.Current_Directory>
/home/itssahil/PROJECTS/Mol_Feturizer/New_Systems/rnas/4TS2

>  <Rbt.Executable>
rbdock ($Id: //depot/dev/client3/rdock/2013.1/src/exe/rbdock.cxx#4 $)

>  <Rbt.Library>
libRbt.so (2013.1, Build901 2013/11/27)

>  <Rbt.Parameter_File>
/export/apps/rDock/src/rDock_2013.1_src/data/scripts/dock_solv.prm

>  <Rbt.Receptor>
prm/pocket_docking_8.prm

>  <SCORE>
-9.29447

>  <SCORE.INTER>
-2.3576

>  <SCORE.INTER.CONST>
1

>  <SCORE.INTER.POLAR>
0

>  <SCORE.INTER.ROT>
5

>  <SCORE.INTER.SOLV>
7.33985

>  <SCORE.INTER.VDW>
-10.9517

>  <SCORE.INTER.norm>
-0.102504

>  <SCORE.INTRA>
-6.93687

>  <SCORE.INTRA.DIHEDRAL>
-11.7634

>  <SCORE.INTRA.DIHEDRAL.0>
12.4853

>  <SCORE.INTRA.POLAR>
0

>  <SCORE.INTRA.POLAR.0>
0

>  <SCORE.INTRA.REPUL>
0

>  <SCORE.INTRA.REPUL.0>
0

>  <SCORE.INTRA.SOLV>
0.293724

>  <SCORE.INTRA.SOLV.lig_0>
-31.1706

>  <SCORE.INTRA.VDW>
-1.20203

>  <SCORE.INTRA.VDW.0>
-1.16895

>  <SCORE.INTRA.norm>
-0.301603

>  <SCORE.RESTR>
0

>  <SCORE.RESTR.CAVITY>
0

>  <SCORE.RESTR.norm>
0

>  <SCORE.SYSTEM>
0

>  <SCORE.SYSTEM.CONST>
0

>  <SCORE.SYSTEM.DIHEDRAL>
0

>  <SCORE.SYSTEM.SOLV>
0

>  <SCORE.SYSTEM.norm>
0

>  <SCORE.heavy>
23

>  <SCORE.norm>
-0.404107

>  <RMSD>
6.232

$$$$
ligand
 OpenBabel11021811513D
libRbt.so/2013.1/901 2013/11/27
 23 24  0  0  0  0  0  0  0  0999 V2000
   -7.3736   -8.3648   -2.2580 C   0  0  0  0  0  0  0  0  0  0  0  0
   -7.6046   -7.6438   -3.4837 O   0  0  0  0  0  0  0  0  0  0  0  0
   -8.6419   -8.3322   -1.4173 C   0  0  2  0  0  0  0  0  0  0  0  0
   -8.5550   -9.0342   -0.0708 C   0  0  1  0  0  0  0  0  0  0  0  0
   -7.8934   -8.1819    0.8663 O   0  0  0  0  0  0  0  0  0  0  0  0
  -10.0252   -9.2828    0.2488 C   0  0  2  0  0  0  0  0  0  0  0  0
  -10.3590  -10.3161    1.1831 O   0  0  0  0  0  0  0  0  0  0  0  0
  -10.5785   -9.6250   -1.1233 C   0  0  2  0  0  0  0  0  0  0  0  0
   -9.7344   -8.9645   -2.0901 O   0  0  0  0  0  0  0  0  0  0  0  0
  -12.0347   -9.1290   -1.1779 C   0  0  0  0  0  0  0  0  0  0  0  0
  -12.6571   -9.3994   -2.4416 O   0  0  0  0  0  0  0  0  0  0  0  0
  -10.3999  -11.4273   -2.7195 C   0  0  2  0  0  0  0  0  0  0  0  0
  -10.4528  -11.0414   -1.3352 O   0  0  0  0  0  0  0  0  0  0  0  0
  -11.1387  -12.7460   -2.8519 C   0  0  2  0  0  0  0  0  0  0  0  0
  -12.4036  -12.6453   -2.1886 O   0  0  0  0  0  0  0  0  0  0  0  0
  -10.3538  -13.8613   -2.1971 C   0  0  1  0  0  0  0  0  0  0  0  0
  -10.9514  -15.1098   -2.5544 O   0  0  0  0  0  0  0  0  0  0  0  0
   -8.9043  -13.8281   -2.6431 C   0  0  2  0  0  0  0  0  0  0  0  0
   -8.1710  -14.7715   -1.8739 O   0  0  0  0  0  0  0  0  0  0  0  0
   -8.2818  -12.4508   -2.4583 C   0  0  2  0  0  0  0  0  0  0  0  0
   -9.0613  -11.5263   -3.2051 O   0  0  0  0  0  0  0  0  0  0  0  0
   -6.8226  -12.4234   -2.9282 C   0  0  0  0  0  0  0  0  0  0  0  0
   -6.2046  -11.1385   -2.7651 O   0  0  0  0  0  0  0  0  0  0  0  0
  1  2  1  0  0  0  0
  3  1  1  6  0  0  0
  3  9  1  0  0  0  0
  3  4  1  0  0  0  0
  4  5  1  1  0  0  0
  4  6  1  0  0  0  0
  6  7  1  1  0  0  0
  6  8  1  0  0  0  0
  8  9  1  0  0  0  0
  8 10  1  6  0  0  0
  8 13  1  0  0  0  0
 10 11  1  0  0  0  0
 12 13  1  1  0  0  0
 12 14  1  0  0  0  0
 12 21  1  0  0  0  0
 14 15  1  1  0  0  0
 14 16  1  0  0  0  0
 16 17  1  6  0  0  0
 16 18  1  0  0  0  0
 18 19  1  1  0  0  0
 18 20  1  0  0  0  0
 20 21  1  0  0  0  0
 20 22  1  6  0  0  0
 22 23  1  0  0  0  0
M  END
>  <CHROM.1>
-178.99634140,179.81935933,-143.96659756,-155.32822451,-179.88542612,-9.50277812
-10.92410119,-1.80903888,-1.36919904,-0.20204372,-2.84033500

>  <Name>
ligand

>  <RI>
0

>  <Rbt.Current_Directory>
/home/itssahil/PROJECTS/Mol_Feturizer/New_Systems/rnas/4TS2

>  <Rbt.Executable>
rbdock ($Id: //depot/dev/client3/rdock/2013.1/src/exe/rbdock.cxx#4 $)

>  <Rbt.Library>
libRbt.so (2013.1, Build901 2013/11/27)

>  <Rbt.Parameter_File>
/export/apps/rDock/src/rDock_2013.1_src/data/scripts/dock_solv.prm

>  <Rbt.Receptor>
prm/pocket_docking_4.prm

>  <SCORE>
-6.62811

>  <SCORE.INTER>
-2.37299

>  <SCORE.INTER.CONST>
1

>  <SCORE.INTER.POLAR>
0

>  <SCORE.INTER.ROT>
5

>  <SCORE.INTER.SOLV>
7.28251

>  <SCORE.INTER.VDW>
-10.9428

>  <SCORE.INTER.norm>
-0.103173

>  <SCORE.INTRA>
-4.2649

>  <SCORE.INTRA.DIHEDRAL>
-5.41079

>  <SCORE.INTRA.DIHEDRAL.0>
12.4853

>  <SCORE.INTRA.POLAR>
0

>  <SCORE.INTRA.POLAR.0>
0

>  <SCORE.INTRA.REPUL>
0

>  <SCORE.INTRA.REPUL.0>
0

>  <SCORE.INTRA.SOLV>
0.404136

>  <SCORE.INTRA.SOLV.lig_0>
-31.1706

>  <SCORE.INTRA.VDW>
-1.76157

>  <SCORE.INTRA.VDW.0>
-1.16895

>  <SCORE.INTRA.norm>
-0.18543

>  <SCORE.RESTR>
0.00977187

>  <SCORE.RESTR.CAVITY>
0.00977187

>  <SCORE.RESTR.norm>
0.000424864

>  <SCORE.SYSTEM>
0

>  <SCORE.SYSTEM.CONST>
0

>  <SCORE.SYSTEM.DIHEDRAL>
0

>  <SCORE.SYSTEM.SOLV>
0

>  <SCORE.SYSTEM.norm>
0

>  <SCORE.heavy>
23

>  <SCORE.norm>
-0.288179

>  <RMSD>
6.235

$$$$
ligand
 OpenBabel11021811513D
libRbt.so/2013.1/901 2013/11/27
 23 24  0  0  0  0  0  0  0  0999 V2000
   -6.2423   -8.6929    0.9740 C   0  0  0  0  0  0  0  0  0  0  0  0
   -6.5251   -8.3488    2.3440 O   0  0  0  0  0  0  0  0  0  0  0  0
   -4.7436   -8.5802    0.7340 C   0  0  2  0  0  0  0  0  0  0  0  0
   -4.1663   -7.1766    0.8353 C   0  0  1  0  0  0  0  0  0  0  0  0
   -3.9872   -6.8359    2.2115 O   0  0  0  0  0  0  0  0  0  0  0  0
   -2.8623   -7.3169    0.0572 C   0  0  2  0  0  0  0  0  0  0  0  0
   -2.2528   -6.1364   -0.4786 O   0  0  0  0  0  0  0  0  0  0  0  0
   -3.2824   -8.2421   -1.0713 C   0  0  2  0  0  0  0  0  0  0  0  0
   -4.3862   -9.0295   -0.5762 O   0  0  0  0  0  0  0  0  0  0  0  0
   -2.0648   -9.1064   -1.4457 C   0  0  0  0  0  0  0  0  0  0  0  0
   -1.6110   -9.9146   -0.3509 O   0  0  0  0  0  0  0  0  0  0  0  0
   -4.2807   -8.2173   -3.2691 C   0  0  2  0  0  0  0  0  0  0  0  0
   -3.7732   -7.4484   -2.1649 O   0  0  0  0  0  0  0  0  0  0  0  0
   -4.4726   -7.2655   -4.4351 C   0  0  2  0  0  0  0  0  0  0  0  0
   -3.2878   -6.4787   -4.6001 O   0  0  0  0  0  0  0  0  0  0  0  0
   -5.6264   -6.3244   -4.1666 C   0  0  1  0  0  0  0  0  0  0  0  0
   -5.9302   -5.6202   -5.3729 O   0  0  0  0  0  0  0  0  0  0  0  0
   -6.8434   -7.0934   -3.6887 C   0  0  2  0  0  0  0  0  0  0  0  0
   -7.8368   -6.1629   -3.2804 O   0  0  0  0  0  0  0  0  0  0  0  0
   -6.5156   -8.0101   -2.5178 C   0  0  2  0  0  0  0  0  0  0  0  0
   -5.4923   -8.8990   -2.9450 O   0  0  0  0  0  0  0  0  0  0  0  0
   -7.7480   -8.7956   -2.0539 C   0  0  0  0  0  0  0  0  0  0  0  0
   -8.1272   -9.8354   -2.9675 O   0  0  0  0  0  0  0  0  0  0  0  0
  1  2  1  0  0  0  0
  3  1  1  6  0  0  0
  3  9  1  0  0  0  0
  3  4  1  0  0  0  0
  4  5  1  1  0  0  0
  4  6  1  0  0  0  0
  6  7  1  6  0  0  0
  6  8  1  0  0  0  0
  8  9  1  0  0  0  0
  8 10  1  6  0  0  0
  8 13  1  0  0  0  0
 10 11  1  0  0  0  0
 12 13  1  1  0  0  0
 12 14  1  0  0  0  0
 12 21  1  0  0  0  0
 14 15  1  1  0  0  0
 14 16  1  0  0  0  0
 16 17  1  6  0  0  0
 16 18  1  0  0  0  0
 18 19  1  1  0  0  0
 18 20  1  0  0  0  0
 20 21  1  0  0  0  0
 20 22  1  6  0  0  0
 22 23  1  0  0  0  0
M  END
>  <CHROM.1>
-65.79261336,60.98960867,-168.00348743,-176.38232085,72.73180129,-4.87780653
-7.80367886,-1.65556166,1.10292293,0.12739242,1.84316591

>  <Name>
ligand

>  <RI>
0

>  <Rbt.Current_Directory>
/home/itssahil/PROJECTS/Mol_Feturizer/New_Systems/rnas/4TS2

>  <Rbt.Executable>
rbdock ($Id: //depot/dev/client3/rdock/2013.1/src/exe/rbdock.cxx#4 $)

>  <Rbt.Library>
libRbt.so (2013.1, Build901 2013/11/27)

>  <Rbt.Parameter_File>
/export/apps/rDock/src/rDock_2013.1_src/data/scripts/dock_solv.prm

>  <Rbt.Receptor>
prm/pocket_docking_5.prm

>  <SCORE>
-9.22341

>  <SCORE.INTER>
-2.46771

>  <SCORE.INTER.CONST>
1

>  <SCORE.INTER.POLAR>
0

>  <SCORE.INTER.ROT>
5

>  <SCORE.INTER.SOLV>
8.5695

>  <SCORE.INTER.VDW>
-11.435

>  <SCORE.INTER.norm>
-0.107292

>  <SCORE.INTRA>
-6.75584

>  <SCORE.INTRA.DIHEDRAL>
-11.0233

>  <SCORE.INTRA.DIHEDRAL.0>
12.4853

>  <SCORE.INTRA.POLAR>
0

>  <SCORE.INTRA.POLAR.0>
0

>  <SCORE.INTRA.REPUL>
0

>  <SCORE.INTRA.REPUL.0>
0

>  <SCORE.INTRA.SOLV>
0.298835

>  <SCORE.INTRA.SOLV.lig_0>
-31.1706

>  <SCORE.INTRA.VDW>
-1.39361

>  <SCORE.INTRA.VDW.0>
-1.16895

>  <SCORE.INTRA.norm>
-0.293732

>  <SCORE.RESTR>
0.000143819

>  <SCORE.RESTR.CAVITY>
0.000143819

>  <SCORE.RESTR.norm>
6.25302e-06

>  <SCORE.SYSTEM>
0

>  <SCORE.SYSTEM.CONST>
0

>  <SCORE.SYSTEM.DIHEDRAL>
0

>  <SCORE.SYSTEM.SOLV>
0

>  <SCORE.SYSTEM.norm>
0

>  <SCORE.heavy>
23

>  <SCORE.norm>
-0.401018

>  <RMSD>
6.235

$$$$
ligand
 OpenBabel11021811513D
libRbt.so/2013.1/901 2013/11/27
 23 24  0  0  0  0  0  0  0  0999 V2000
   -3.7979   -5.9246   -1.8203 C   0  0  0  0  0  0  0  0  0  0  0  0
   -2.5141   -5.6525   -2.4146 O   0  0  0  0  0  0  0  0  0  0  0  0
   -3.6001   -6.8058   -0.5953 C   0  0  2  0  0  0  0  0  0  0  0  0
   -3.0187   -8.1850   -0.8658 C   0  0  1  0  0  0  0  0  0  0  0  0
   -1.6039   -8.0779   -1.0363 O   0  0  0  0  0  0  0  0  0  0  0  0
   -3.4354   -8.9519    0.3847 C   0  0  2  0  0  0  0  0  0  0  0  0
   -3.4941  -10.3819    0.3247 O   0  0  0  0  0  0  0  0  0  0  0  0
   -4.8215   -8.3856    0.6379 C   0  0  2  0  0  0  0  0  0  0  0  0
   -4.8375   -7.0555    0.0775 O   0  0  0  0  0  0  0  0  0  0  0  0
   -5.0563   -8.3856    2.1592 C   0  0  0  0  0  0  0  0  0  0  0  0
   -5.0743   -9.7102    2.7093 O   0  0  0  0  0  0  0  0  0  0  0  0
   -7.1413   -8.7191    0.0592 C   0  0  2  0  0  0  0  0  0  0  0  0
   -5.7839   -9.1715   -0.0852 O   0  0  0  0  0  0  0  0  0  0  0  0
   -8.0413   -9.7848   -0.5380 C   0  0  2  0  0  0  0  0  0  0  0  0
   -7.6590  -11.0655   -0.0241 O   0  0  0  0  0  0  0  0  0  0  0  0
   -7.8932   -9.8208   -2.0432 C   0  0  1  0  0  0  0  0  0  0  0  0
   -8.9237  -10.6519   -2.5827 O   0  0  0  0  0  0  0  0  0  0  0  0
   -7.9909   -8.4227   -2.6235 C   0  0  2  0  0  0  0  0  0  0  0  0
   -7.6700   -8.4819   -4.0066 O   0  0  0  0  0  0  0  0  0  0  0  0
   -7.0386   -7.4524   -1.9375 C   0  0  2  0  0  0  0  0  0  0  0  0
   -7.3582   -7.4479   -0.5527 O   0  0  0  0  0  0  0  0  0  0  0  0
   -7.1577   -6.0388   -2.5193 C   0  0  0  0  0  0  0  0  0  0  0  0
   -6.7466   -5.9606   -3.8921 O   0  0  0  0  0  0  0  0  0  0  0  0
  1  2  1  0  0  0  0
  3  1  1  6  0  0  0
  3  9  1  0  0  0  0
  3  4  1  0  0  0  0
  4  5  1  1  0  0  0
  4  6  1  0  0  0  0
  6  7  1  6  0  0  0
  6  8  1  0  0  0  0
  8  9  1  0  0  0  0
  8 10  1  1  0  0  0
  8 13  1  0  0  0  0
 10 11  1  0  0  0  0
 12 13  1  6  0  0  0
 12 14  1  0  0  0  0
 12 21  1  0  0  0  0
 14 15  1  1  0  0  0
 14 16  1  0  0  0  0
 16 17  1  6  0  0  0
 16 18  1  0  0  0  0
 18 19  1  6  0  0  0
 18 20  1  0  0  0  0
 20 21  1  0  0  0  0
 20 22  1  6  0  0  0
 22 23  1  0  0  0  0
M  END
>  <CHROM.1>
-63.29770218,-64.09538506,-169.67791291,-179.11579747,-65.05707841,-5.67293220
-8.29279767,-0.93607438,-0.12555067,-0.42718238,-0.85882395

>  <Name>
ligand

>  <RI>
0

>  <Rbt.Current_Directory>
/home/itssahil/PROJECTS/Mol_Feturizer/New_Systems/rnas/4TS2

>  <Rbt.Executable>
rbdock ($Id: //depot/dev/client3/rdock/2013.1/src/exe/rbdock.cxx#4 $)

>  <Rbt.Library>
libRbt.so (2013.1, Build901 2013/11/27)

>  <Rbt.Parameter_File>
/export/apps/rDock/src/rDock_2013.1_src/data/scripts/dock_solv.prm

>  <Rbt.Receptor>
prm/pocket_docking_8.prm

>  <SCORE>
-9.72132

>  <SCORE.INTER>
-2.75876

>  <SCORE.INTER.CONST>
1

>  <SCORE.INTER.POLAR>
0

>  <SCORE.INTER.ROT>
5

>  <SCORE.INTER.SOLV>
8.04494

>  <SCORE.INTER.VDW>
-11.4542

>  <SCORE.INTER.norm>
-0.119946

>  <SCORE.INTRA>
-6.96255

>  <SCORE.INTRA.DIHEDRAL>
-11.7497

>  <SCORE.INTRA.DIHEDRAL.0>
12.4853

>  <SCORE.INTRA.POLAR>
0

>  <SCORE.INTRA.POLAR.0>
0

>  <SCORE.INTRA.REPUL>
0

>  <SCORE.INTRA.REPUL.0>
0

>  <SCORE.INTRA.SOLV>
0.681364

>  <SCORE.INTRA.SOLV.lig_0>
-31.1706

>  <SCORE.INTRA.VDW>
-1.42839

>  <SCORE.INTRA.VDW.0>
-1.16895

>  <SCORE.INTRA.norm>
-0.30272

>  <SCORE.RESTR>
0

>  <SCORE.RESTR.CAVITY>
0

>  <SCORE.RESTR.norm>
0

>  <SCORE.SYSTEM>
0

>  <SCORE.SYSTEM.CONST>
0

>  <SCORE.SYSTEM.DIHEDRAL>
0

>  <SCORE.SYSTEM.SOLV>
0

>  <SCORE.SYSTEM.norm>
0

>  <SCORE.heavy>
23

>  <SCORE.norm>
-0.422666

>  <RMSD>
6.238

$$$$
ligand
 OpenBabel11021811513D
libRbt.so/2013.1/901 2013/11/27
 23 24  0  0  0  0  0  0  0  0999 V2000
   -3.9504  -11.6411   -3.5068 C   0  0  0  0  0  0  0  0  0  0  0  0
   -3.9998  -12.9496   -4.1076 O   0  0  0  0  0  0  0  0  0  0  0  0
   -5.1369  -11.4823   -2.5669 C   0  0  2  0  0  0  0  0  0  0  0  0
   -6.5078  -11.6194   -3.2115 C   0  0  1  0  0  0  0  0  0  0  0  0
   -6.8126  -13.0045   -3.3872 O   0  0  0  0  0  0  0  0  0  0  0  0
   -7.4024  -10.9119   -2.1993 C   0  0  2  0  0  0  0  0  0  0  0  0
   -8.6724  -10.4138   -2.6365 O   0  0  0  0  0  0  0  0  0  0  0  0
   -6.5141   -9.7593   -1.7653 C   0  0  2  0  0  0  0  0  0  0  0  0
   -5.1495  -10.1916   -1.9504 O   0  0  0  0  0  0  0  0  0  0  0  0
   -6.8377   -9.4476   -0.2930 C   0  0  0  0  0  0  0  0  0  0  0  0
   -6.5174  -10.5399    0.5799 O   0  0  0  0  0  0  0  0  0  0  0  0
   -5.9983   -7.4610   -2.2942 C   0  0  2  0  0  0  0  0  0  0  0  0
   -6.7377   -8.6437   -2.6442 O   0  0  0  0  0  0  0  0  0  0  0  0
   -6.4544   -6.3494   -3.2208 C   0  0  2  0  0  0  0  0  0  0  0  0
   -7.8856   -6.3136   -3.2438 O   0  0  0  0  0  0  0  0  0  0  0  0
   -5.9692   -6.6027   -4.6312 C   0  0  1  0  0  0  0  0  0  0  0  0
   -6.2020   -5.4274   -5.4111 O   0  0  0  0  0  0  0  0  0  0  0  0
   -4.4925   -6.9490   -4.6344 C   0  0  2  0  0  0  0  0  0  0  0  0
   -4.1234   -7.3512   -5.9465 O   0  0  0  0  0  0  0  0  0  0  0  0
   -4.1687   -8.0767   -3.6637 C   0  0  2  0  0  0  0  0  0  0  0  0
   -4.5869   -7.6602   -2.3708 O   0  0  0  0  0  0  0  0  0  0  0  0
   -2.6714   -8.4069   -3.6617 C   0  0  0  0  0  0  0  0  0  0  0  0
   -2.2147   -8.9490   -4.9096 O   0  0  0  0  0  0  0  0  0  0  0  0
  1  2  1  0  0  0  0
  3  1  1  6  0  0  0
  3  9  1  0  0  0  0
  3  4  1  0  0  0  0
  4  5  1  1  0  0  0
  4  6  1  0  0  0  0
  6  7  1  6  0  0  0
  6  8  1  0  0  0  0
  8  9  1  0  0  0  0
  8 10  1  1  0  0  0
  8 13  1  0  0  0  0
 10 11  1  0  0  0  0
 12 13  1  6  0  0  0
 12 14  1  0  0  0  0
 12 21  1  0  0  0  0
 14 15  1  6  0  0  0
 14 16  1  0  0  0  0
 16 17  1  6  0  0  0
 16 18  1  0  0  0  0
 18 19  1  6  0  0  0
 18 20  1  0  0  0  0
 20 21  1  0  0  0  0
 20 22  1  1  0  0  0
 22 23  1  0  0  0  0
M  END
>  <CHROM.1>
-59.72869779,63.76907282,-174.14898305,177.06446832,-65.80111865,-5.60679304
-9.14980655,-3.13033235,-1.80712593,0.60662975,-0.29498089

>  <Name>
ligand

>  <RI>
0

>  <Rbt.Current_Directory>
/home/itssahil/PROJECTS/Mol_Feturizer/New_Systems/rnas/4TS2

>  <Rbt.Executable>
rbdock ($Id: //depot/dev/client3/rdock/2013.1/src/exe/rbdock.cxx#4 $)

>  <Rbt.Library>
libRbt.so (2013.1, Build901 2013/11/27)

>  <Rbt.Parameter_File>
/export/apps/rDock/src/rDock_2013.1_src/data/scripts/dock_solv.prm

>  <Rbt.Receptor>
prm/pocket_docking_6.prm

>  <SCORE>
-9.3726

>  <SCORE.INTER>
-2.43407

>  <SCORE.INTER.CONST>
1

>  <SCORE.INTER.POLAR>
0

>  <SCORE.INTER.ROT>
5

>  <SCORE.INTER.SOLV>
6.33956

>  <SCORE.INTER.VDW>
-10.6692

>  <SCORE.INTER.norm>
-0.105829

>  <SCORE.INTRA>
-6.93853

>  <SCORE.INTRA.DIHEDRAL>
-11.964

>  <SCORE.INTRA.DIHEDRAL.0>
12.4853

>  <SCORE.INTRA.POLAR>
0

>  <SCORE.INTRA.POLAR.0>
0

>  <SCORE.INTRA.REPUL>
0

>  <SCORE.INTRA.REPUL.0>
0

>  <SCORE.INTRA.SOLV>
0.526903

>  <SCORE.INTRA.SOLV.lig_0>
-31.1706

>  <SCORE.INTRA.VDW>
-1.21996

>  <SCORE.INTRA.VDW.0>
-1.16895

>  <SCORE.INTRA.norm>
-0.301675

>  <SCORE.RESTR>
0

>  <SCORE.RESTR.CAVITY>
0

>  <SCORE.RESTR.norm>
0

>  <SCORE.SYSTEM>
0

>  <SCORE.SYSTEM.CONST>
0

>  <SCORE.SYSTEM.DIHEDRAL>
0

>  <SCORE.SYSTEM.SOLV>
0

>  <SCORE.SYSTEM.norm>
0

>  <SCORE.heavy>
23

>  <SCORE.norm>
-0.407504

>  <RMSD>
6.240

$$$$
ligand
 OpenBabel11021811513D
libRbt.so/2013.1/901 2013/11/27
 23 24  0  0  0  0  0  0  0  0999 V2000
   -3.2769   -8.7255   -0.1288 C   0  0  0  0  0  0  0  0  0  0  0  0
   -3.2697   -7.7753    0.9540 O   0  0  0  0  0  0  0  0  0  0  0  0
   -4.7161   -9.1078   -0.4430 C   0  0  2  0  0  0  0  0  0  0  0  0
   -4.8929  -10.1830   -1.5042 C   0  0  1  0  0  0  0  0  0  0  0  0
   -4.6629  -11.4672   -0.9209 O   0  0  0  0  0  0  0  0  0  0  0  0
   -6.3340   -9.9530   -1.9468 C   0  0  2  0  0  0  0  0  0  0  0  0
   -6.7418  -10.4343   -3.2329 O   0  0  0  0  0  0  0  0  0  0  0  0
   -6.4235   -8.4376   -1.9073 C   0  0  2  0  0  0  0  0  0  0  0  0
   -5.4631   -7.9884   -0.9278 O   0  0  0  0  0  0  0  0  0  0  0  0
   -7.8680   -8.0637   -1.5289 C   0  0  0  0  0  0  0  0  0  0  0  0
   -8.0399   -6.6497   -1.3594 O   0  0  0  0  0  0  0  0  0  0  0  0
   -6.0024   -6.4783   -3.2532 C   0  0  2  0  0  0  0  0  0  0  0  0
   -6.0172   -7.9146   -3.1833 O   0  0  0  0  0  0  0  0  0  0  0  0
   -5.7938   -6.0964   -4.7068 C   0  0  2  0  0  0  0  0  0  0  0  0
   -6.7049   -6.8397   -5.5239 O   0  0  0  0  0  0  0  0  0  0  0  0
   -4.3865   -6.4349   -5.1470 C   0  0  1  0  0  0  0  0  0  0  0  0
   -4.1543   -5.8418   -6.4267 O   0  0  0  0  0  0  0  0  0  0  0  0
   -3.3738   -5.9221   -4.1408 C   0  0  2  0  0  0  0  0  0  0  0  0
   -2.0894   -6.4138   -4.4986 O   0  0  0  0  0  0  0  0  0  0  0  0
   -3.6979   -6.3751   -2.7235 C   0  0  2  0  0  0  0  0  0  0  0  0
   -5.0021   -5.9038   -2.4124 O   0  0  0  0  0  0  0  0  0  0  0  0
   -2.6786   -5.8371   -1.7123 C   0  0  0  0  0  0  0  0  0  0  0  0
   -2.6058   -4.4039   -1.6975 O   0  0  0  0  0  0  0  0  0  0  0  0
  1  2  1  0  0  0  0
  3  1  1  6  0  0  0
  3  9  1  0  0  0  0
  3  4  1  0  0  0  0
  4  5  1  1  0  0  0
  4  6  1  0  0  0  0
  6  7  1  6  0  0  0
  6  8  1  0  0  0  0
  8  9  1  0  0  0  0
  8 10  1  1  0  0  0
  8 13  1  0  0  0  0
 10 11  1  0  0  0  0
 12 13  1  6  0  0  0
 12 14  1  0  0  0  0
 12 21  1  0  0  0  0
 14 15  1  6  0  0  0
 14 16  1  0  0  0  0
 16 17  1  6  0  0  0
 16 18  1  0  0  0  0
 18 19  1  6  0  0  0
 18 20  1  0  0  0  0
 20 21  1  0  0  0  0
 20 22  1  1  0  0  0
 22 23  1  0  0  0  0
M  END
>  <CHROM.1>
-175.88040222,175.40464858,-170.33165327,-177.38930035,58.89420513,-4.95860650
-7.51891232,-2.53872015,-1.91428942,-0.57190630,-0.94540274

>  <Name>
ligand

>  <RI>
0

>  <Rbt.Current_Directory>
/home/itssahil/PROJECTS/Mol_Feturizer/New_Systems/rnas/4TS2

>  <Rbt.Executable>
rbdock ($Id: //depot/dev/client3/rdock/2013.1/src/exe/rbdock.cxx#4 $)

>  <Rbt.Library>
libRbt.so (2013.1, Build901 2013/11/27)

>  <Rbt.Parameter_File>
/export/apps/rDock/src/rDock_2013.1_src/data/scripts/dock_solv.prm

>  <Rbt.Receptor>
prm/pocket_docking_7.prm

>  <SCORE>
-9.39238

>  <SCORE.INTER>
-2.32473

>  <SCORE.INTER.CONST>
1

>  <SCORE.INTER.POLAR>
0

>  <SCORE.INTER.ROT>
5

>  <SCORE.INTER.SOLV>
10.0864

>  <SCORE.INTER.VDW>
-11.8453

>  <SCORE.INTER.norm>
-0.101075

>  <SCORE.INTRA>
-7.06765

>  <SCORE.INTRA.DIHEDRAL>
-11.8619

>  <SCORE.INTRA.DIHEDRAL.0>
12.4853

>  <SCORE.INTRA.POLAR>
0

>  <SCORE.INTRA.POLAR.0>
0

>  <SCORE.INTRA.REPUL>
0

>  <SCORE.INTRA.REPUL.0>
0

>  <SCORE.INTRA.SOLV>
0.475508

>  <SCORE.INTRA.SOLV.lig_0>
-31.1706

>  <SCORE.INTRA.VDW>
-1.37444

>  <SCORE.INTRA.VDW.0>
-1.16895

>  <SCORE.INTRA.norm>
-0.307289

>  <SCORE.RESTR>
0

>  <SCORE.RESTR.CAVITY>
0

>  <SCORE.RESTR.norm>
0

>  <SCORE.SYSTEM>
0

>  <SCORE.SYSTEM.CONST>
0

>  <SCORE.SYSTEM.DIHEDRAL>
0

>  <SCORE.SYSTEM.SOLV>
0

>  <SCORE.SYSTEM.norm>
0

>  <SCORE.heavy>
23

>  <SCORE.norm>
-0.408364

>  <RMSD>
6.240

$$$$
ligand
 OpenBabel11021811513D
libRbt.so/2013.1/901 2013/11/27
 23 24  0  0  0  0  0  0  0  0999 V2000
   -3.4400   -6.1090   -1.9287 C   0  0  0  0  0  0  0  0  0  0  0  0
   -3.6372   -4.7318   -1.5545 O   0  0  0  0  0  0  0  0  0  0  0  0
   -3.3526   -6.9573   -0.6681 C   0  0  2  0  0  0  0  0  0  0  0  0
   -2.9526   -8.4094   -0.8806 C   0  0  1  0  0  0  0  0  0  0  0  0
   -1.5363   -8.4907   -1.0522 O   0  0  0  0  0  0  0  0  0  0  0  0
   -3.4601   -9.0650    0.3993 C   0  0  2  0  0  0  0  0  0  0  0  0
   -3.7009  -10.4771    0.3977 O   0  0  0  0  0  0  0  0  0  0  0  0
   -4.7619   -8.3166    0.6259 C   0  0  2  0  0  0  0  0  0  0  0  0
   -4.6098   -7.0194    0.0115 O   0  0  0  0  0  0  0  0  0  0  0  0
   -4.9903   -8.2244    2.1454 C   0  0  0  0  0  0  0  0  0  0  0  0
   -5.1834   -9.5118    2.7481 O   0  0  0  0  0  0  0  0  0  0  0  0
   -7.1051   -8.3694    0.0477 C   0  0  2  0  0  0  0  0  0  0  0  0
   -5.8188   -9.0023   -0.0666 O   0  0  0  0  0  0  0  0  0  0  0  0
   -8.1477   -9.3744   -0.4054 C   0  0  2  0  0  0  0  0  0  0  0  0
   -7.9095  -10.6262    0.2476 O   0  0  0  0  0  0  0  0  0  0  0  0
   -8.0531   -9.5994   -1.8985 C   0  0  1  0  0  0  0  0  0  0  0  0
   -9.1945  -10.3501   -2.3193 O   0  0  0  0  0  0  0  0  0  0  0  0
   -7.9966   -8.2751   -2.6362 C   0  0  2  0  0  0  0  0  0  0  0  0
   -7.7296   -8.5308   -4.0083 O   0  0  0  0  0  0  0  0  0  0  0  0
   -6.9111   -7.3606   -2.0847 C   0  0  2  0  0  0  0  0  0  0  0  0
   -7.1835   -7.1587   -0.7046 O   0  0  0  0  0  0  0  0  0  0  0  0
   -6.8740   -6.0186   -2.8253 C   0  0  0  0  0  0  0  0  0  0  0  0
   -6.5208   -6.1513   -4.2099 O   0  0  0  0  0  0  0  0  0  0  0  0
  1  2  1  0  0  0  0
  3  1  1  6  0  0  0
  3  9  1  0  0  0  0
  3  4  1  0  0  0  0
  4  5  1  1  0  0  0
  4  6  1  0  0  0  0
  6  7  1  6  0  0  0
  6  8  1  0  0  0  0
  8  9  1  0  0  0  0
  8 10  1  1  0  0  0
  8 13  1  0  0  0  0
 10 11  1  0  0  0  0
 12 13  1  6  0  0  0
 12 14  1  0  0  0  0
 12 21  1  0  0  0  0
 14 15  1  1  0  0  0
 14 16  1  0  0  0  0
 16 17  1  6  0  0  0
 16 18  1  0  0  0  0
 18 19  1  6  0  0  0
 18 20  1  0  0  0  0
 20 21  1  0  0  0  0
 20 22  1  6  0  0  0
 22 23  1  0  0  0  0
M  END
>  <CHROM.1>
-171.85450003,-64.44277510,-165.38252338,-178.66743976,-64.13610629,-5.69911479
-8.18500845,-0.90665036,-0.24740159,-0.41768954,-0.85640869

>  <Name>
ligand

>  <RI>
0

>  <Rbt.Current_Directory>
/home/itssahil/PROJECTS/Mol_Feturizer/New_Systems/rnas/4TS2

>  <Rbt.Executable>
rbdock ($Id: //depot/dev/client3/rdock/2013.1/src/exe/rbdock.cxx#4 $)

>  <Rbt.Library>
libRbt.so (2013.1, Build901 2013/11/27)

>  <Rbt.Parameter_File>
/export/apps/rDock/src/rDock_2013.1_src/data/scripts/dock_solv.prm

>  <Rbt.Receptor>
prm/pocket_docking_7.prm

>  <SCORE>
-9.41866

>  <SCORE.INTER>
-2.54352

>  <SCORE.INTER.CONST>
1

>  <SCORE.INTER.POLAR>
0

>  <SCORE.INTER.ROT>
5

>  <SCORE.INTER.SOLV>
9.18229

>  <SCORE.INTER.VDW>
-11.6898

>  <SCORE.INTER.norm>
-0.110588

>  <SCORE.INTRA>
-6.87514

>  <SCORE.INTRA.DIHEDRAL>
-11.0914

>  <SCORE.INTRA.DIHEDRAL.0>
12.4853

>  <SCORE.INTRA.POLAR>
0

>  <SCORE.INTRA.POLAR.0>
0

>  <SCORE.INTRA.REPUL>
0

>  <SCORE.INTRA.REPUL.0>
0

>  <SCORE.INTRA.SOLV>
0.523741

>  <SCORE.INTRA.SOLV.lig_0>
-31.1706

>  <SCORE.INTRA.VDW>
-1.5913

>  <SCORE.INTRA.VDW.0>
-1.16895

>  <SCORE.INTRA.norm>
-0.298919

>  <SCORE.RESTR>
0

>  <SCORE.RESTR.CAVITY>
0

>  <SCORE.RESTR.norm>
0

>  <SCORE.SYSTEM>
0

>  <SCORE.SYSTEM.CONST>
0

>  <SCORE.SYSTEM.DIHEDRAL>
0

>  <SCORE.SYSTEM.SOLV>
0

>  <SCORE.SYSTEM.norm>
0

>  <SCORE.heavy>
23

>  <SCORE.norm>
-0.409507

>  <RMSD>
6.240

$$$$
ligand
 OpenBabel11021811513D
libRbt.so/2013.1/901 2013/11/27
 23 24  0  0  0  0  0  0  0  0999 V2000
   -2.7286   -9.9436   -3.8309 C   0  0  0  0  0  0  0  0  0  0  0  0
   -3.0003  -10.7031   -5.0246 O   0  0  0  0  0  0  0  0  0  0  0  0
   -2.7790   -8.4597   -4.1656 C   0  0  2  0  0  0  0  0  0  0  0  0
   -2.4038   -7.5180   -3.0317 C   0  0  1  0  0  0  0  0  0  0  0  0
   -0.9806   -7.4592   -2.9154 O   0  0  0  0  0  0  0  0  0  0  0  0
   -3.0425   -6.2099   -3.4860 C   0  0  2  0  0  0  0  0  0  0  0  0
   -3.3230   -5.2059   -2.5034 O   0  0  0  0  0  0  0  0  0  0  0  0
   -4.3371   -6.7057   -4.1058 C   0  0  2  0  0  0  0  0  0  0  0  0
   -4.0931   -8.0542   -4.5588 O   0  0  0  0  0  0  0  0  0  0  0  0
   -4.6979   -5.7536   -5.2604 C   0  0  0  0  0  0  0  0  0  0  0  0
   -3.7399   -5.8007   -6.3270 O   0  0  0  0  0  0  0  0  0  0  0  0
   -6.6130   -7.2775   -3.5391 C   0  0  2  0  0  0  0  0  0  0  0  0
   -5.3472   -6.7682   -3.0847 O   0  0  0  0  0  0  0  0  0  0  0  0
   -7.6593   -6.8706   -2.5183 C   0  0  2  0  0  0  0  0  0  0  0  0
   -7.5158   -5.4758   -2.2279 O   0  0  0  0  0  0  0  0  0  0  0  0
   -7.4693   -7.6395   -1.2293 C   0  0  1  0  0  0  0  0  0  0  0  0
   -8.6065   -7.4148   -0.3929 O   0  0  0  0  0  0  0  0  0  0  0  0
   -7.3104   -9.1218   -1.5096 C   0  0  2  0  0  0  0  0  0  0  0  0
   -6.9580   -9.7774   -0.2990 O   0  0  0  0  0  0  0  0  0  0  0  0
   -6.2316   -9.3934   -2.5495 C   0  0  2  0  0  0  0  0  0  0  0  0
   -6.5919   -8.6918   -3.7317 O   0  0  0  0  0  0  0  0  0  0  0  0
   -6.0912  -10.8927   -2.8383 C   0  0  0  0  0  0  0  0  0  0  0  0
   -5.5877  -11.6352   -1.7181 O   0  0  0  0  0  0  0  0  0  0  0  0
  1  2  1  0  0  0  0
  3  1  1  1  0  0  0
  3  9  1  0  0  0  0
  3  4  1  0  0  0  0
  4  5  1  6  0  0  0
  4  6  1  0  0  0  0
  6  7  1  1  0  0  0
  6  8  1  0  0  0  0
  8  9  1  0  0  0  0
  8 10  1  6  0  0  0
  8 13  1  0  0  0  0
 10 11  1  0  0  0  0
 12 13  1  1  0  0  0
 12 14  1  0  0  0  0
 12 21  1  0  0  0  0
 14 15  1  1  0  0  0
 14 16  1  0  0  0  0
 16 17  1  1  0  0  0
 16 18  1  0  0  0  0
 18 19  1  1  0  0  0
 18 20  1  0  0  0  0
 20 21  1  0  0  0  0
 20 22  1  6  0  0  0
 22 23  1  0  0  0  0
M  END
>  <CHROM.1>
-175.35576189,65.09102293,-162.03696416,-177.64122063,-66.87702626,-5.08626153
-7.95484279,-3.07554393,-0.32739090,-0.50592799,2.94197839

>  <Name>
ligand

>  <RI>
0

>  <Rbt.Current_Directory>
/home/itssahil/PROJECTS/Mol_Feturizer/New_Systems/rnas/4TS2

>  <Rbt.Executable>
rbdock ($Id: //depot/dev/client3/rdock/2013.1/src/exe/rbdock.cxx#4 $)

>  <Rbt.Library>
libRbt.so (2013.1, Build901 2013/11/27)

>  <Rbt.Parameter_File>
/export/apps/rDock/src/rDock_2013.1_src/data/scripts/dock_solv.prm

>  <Rbt.Receptor>
prm/pocket_docking_8.prm

>  <SCORE>
-10.5747

>  <SCORE.INTER>
-3.78691

>  <SCORE.INTER.CONST>
1

>  <SCORE.INTER.POLAR>
0

>  <SCORE.INTER.ROT>
5

>  <SCORE.INTER.SOLV>
10.317

>  <SCORE.INTER.VDW>
-12.897

>  <SCORE.INTER.norm>
-0.164648

>  <SCORE.INTRA>
-6.78779

>  <SCORE.INTRA.DIHEDRAL>
-10.5806

>  <SCORE.INTRA.DIHEDRAL.0>
12.4853

>  <SCORE.INTRA.POLAR>
0

>  <SCORE.INTRA.POLAR.0>
0

>  <SCORE.INTRA.REPUL>
0

>  <SCORE.INTRA.REPUL.0>
0

>  <SCORE.INTRA.SOLV>
0.207465

>  <SCORE.INTRA.SOLV.lig_0>
-31.1706

>  <SCORE.INTRA.VDW>
-1.60124

>  <SCORE.INTRA.VDW.0>
-1.16895

>  <SCORE.INTRA.norm>
-0.295121

>  <SCORE.RESTR>
0

>  <SCORE.RESTR.CAVITY>
0

>  <SCORE.RESTR.norm>
0

>  <SCORE.SYSTEM>
0

>  <SCORE.SYSTEM.CONST>
0

>  <SCORE.SYSTEM.DIHEDRAL>
0

>  <SCORE.SYSTEM.SOLV>
0

>  <SCORE.SYSTEM.norm>
0

>  <SCORE.heavy>
23

>  <SCORE.norm>
-0.45977

>  <RMSD>
6.248

$$$$
ligand
 OpenBabel11021811513D
libRbt.so/2013.1/901 2013/11/27
 23 24  0  0  0  0  0  0  0  0999 V2000
   -2.7392   -9.9159   -3.8016 C   0  0  0  0  0  0  0  0  0  0  0  0
   -2.9929  -10.6695   -5.0029 O   0  0  0  0  0  0  0  0  0  0  0  0
   -2.7523   -8.4312   -4.1360 C   0  0  2  0  0  0  0  0  0  0  0  0
   -2.3738   -7.4982   -2.9960 C   0  0  1  0  0  0  0  0  0  0  0  0
   -0.9516   -7.4703   -2.8585 O   0  0  0  0  0  0  0  0  0  0  0  0
   -2.9772   -6.1764   -3.4589 C   0  0  2  0  0  0  0  0  0  0  0  0
   -3.2505   -5.1668   -2.4800 O   0  0  0  0  0  0  0  0  0  0  0  0
   -4.2729   -6.6438   -4.0983 C   0  0  2  0  0  0  0  0  0  0  0  0
   -4.0514   -7.9972   -4.5485 O   0  0  0  0  0  0  0  0  0  0  0  0
   -4.5956   -5.6838   -5.2576 C   0  0  0  0  0  0  0  0  0  0  0  0
   -5.7874   -6.0592   -5.9622 O   0  0  0  0  0  0  0  0  0  0  0  0
   -6.5443   -7.2448   -3.5443 C   0  0  2  0  0  0  0  0  0  0  0  0
   -5.2992   -6.6847   -3.0924 O   0  0  0  0  0  0  0  0  0  0  0  0
   -7.6129   -6.8412   -2.5455 C   0  0  2  0  0  0  0  0  0  0  0  0
   -7.5143   -5.4351   -2.2934 O   0  0  0  0  0  0  0  0  0  0  0  0
   -7.4133   -7.5675   -1.2334 C   0  0  1  0  0  0  0  0  0  0  0  0
   -8.5654   -7.3539   -0.4145 O   0  0  0  0  0  0  0  0  0  0  0  0
   -7.2070   -9.0515   -1.4699 C   0  0  2  0  0  0  0  0  0  0  0  0
   -6.8478   -9.6619   -0.2379 O   0  0  0  0  0  0  0  0  0  0  0  0
   -6.1099   -9.3195   -2.4913 C   0  0  2  0  0  0  0  0  0  0  0  0
   -6.4788   -8.6626   -3.6963 O   0  0  0  0  0  0  0  0  0  0  0  0
   -5.9215  -10.8214   -2.7360 C   0  0  0  0  0  0  0  0  0  0  0  0
   -7.0944  -11.4546   -3.2681 O   0  0  0  0  0  0  0  0  0  0  0  0
  1  2  1  0  0  0  0
  3  1  1  1  0  0  0
  3  9  1  0  0  0  0
  3  4  1  0  0  0  0
  4  5  1  6  0  0  0
  4  6  1  0  0  0  0
  6  7  1  1  0  0  0
  6  8  1  0  0  0  0
  8  9  1  0  0  0  0
  8 10  1  6  0  0  0
  8 13  1  0  0  0  0
 10 11  1  0  0  0  0
 12 13  1  1  0  0  0
 12 14  1  0  0  0  0
 12 21  1  0  0  0  0
 14 15  1  1  0  0  0
 14 16  1  0  0  0  0
 16 17  1  1  0  0  0
 16 18  1  0  0  0  0
 18 19  1  1  0  0  0
 18 20  1  0  0  0  0
 20 21  1  0  0  0  0
 20 22  1  6  0  0  0
 22 23  1  0  0  0  0
M  END
>  <CHROM.1>
-174.64624774,178.21893955,-163.16046945,-173.92999340,61.65380458,-5.20069562
-7.91377507,-3.11492700,-0.19783564,-0.44683321,3.07360402

>  <Name>
ligand

>  <RI>
0

>  <Rbt.Current_Directory>
/home/itssahil/PROJECTS/Mol_Feturizer/New_Systems/rnas/4TS2

>  <Rbt.Executable>
rbdock ($Id: //depot/dev/client3/rdock/2013.1/src/exe/rbdock.cxx#4 $)

>  <Rbt.Library>
libRbt.so (2013.1, Build901 2013/11/27)

>  <Rbt.Parameter_File>
/export/apps/rDock/src/rDock_2013.1_src/data/scripts/dock_solv.prm

>  <Rbt.Receptor>
prm/pocket_docking_7.prm

>  <SCORE>
-10.7832

>  <SCORE.INTER>
-3.87491

>  <SCORE.INTER.CONST>
1

>  <SCORE.INTER.POLAR>
0

>  <SCORE.INTER.ROT>
5

>  <SCORE.INTER.SOLV>
11.0784

>  <SCORE.INTER.VDW>
-13.2094

>  <SCORE.INTER.norm>
-0.168475

>  <SCORE.INTRA>
-6.90831

>  <SCORE.INTRA.DIHEDRAL>
-10.9081

>  <SCORE.INTRA.DIHEDRAL.0>
12.4853

>  <SCORE.INTRA.POLAR>
0

>  <SCORE.INTRA.POLAR.0>
0

>  <SCORE.INTRA.REPUL>
0

>  <SCORE.INTRA.REPUL.0>
0

>  <SCORE.INTRA.SOLV>
0.335051

>  <SCORE.INTRA.SOLV.lig_0>
-31.1706

>  <SCORE.INTRA.VDW>
-1.62179

>  <SCORE.INTRA.VDW.0>
-1.16895

>  <SCORE.INTRA.norm>
-0.300361

>  <SCORE.RESTR>
0

>  <SCORE.RESTR.CAVITY>
0

>  <SCORE.RESTR.norm>
0

>  <SCORE.SYSTEM>
0

>  <SCORE.SYSTEM.CONST>
0

>  <SCORE.SYSTEM.DIHEDRAL>
0

>  <SCORE.SYSTEM.SOLV>
0

>  <SCORE.SYSTEM.norm>
0

>  <SCORE.heavy>
23

>  <SCORE.norm>
-0.468836

>  <RMSD>
6.269

$$$$
ligand
 OpenBabel11021811513D
libRbt.so/2013.1/901 2013/11/27
 23 24  0  0  0  0  0  0  0  0999 V2000
   -3.5876  -12.0004   -4.4568 C   0  0  0  0  0  0  0  0  0  0  0  0
   -3.3370  -12.9430   -5.5170 O   0  0  0  0  0  0  0  0  0  0  0  0
   -4.7214  -12.5234   -3.5864 C   0  0  2  0  0  0  0  0  0  0  0  0
   -6.0551  -12.7162   -4.2919 C   0  0  1  0  0  0  0  0  0  0  0  0
   -6.0309  -13.9429   -5.0245 O   0  0  0  0  0  0  0  0  0  0  0  0
   -7.0323  -12.7132   -3.1212 C   0  0  2  0  0  0  0  0  0  0  0  0
   -8.4076  -12.4036   -3.3765 O   0  0  0  0  0  0  0  0  0  0  0  0
   -6.4206  -11.6549   -2.2203 C   0  0  2  0  0  0  0  0  0  0  0  0
   -5.0053  -11.6337   -2.5030 O   0  0  0  0  0  0  0  0  0  0  0  0
   -6.7233  -12.0488   -0.7632 C   0  0  0  0  0  0  0  0  0  0  0  0
   -6.1165  -13.2959   -0.3970 O   0  0  0  0  0  0  0  0  0  0  0  0
   -6.5208   -9.2920   -1.7364 C   0  0  2  0  0  0  0  0  0  0  0  0
   -6.9538  -10.3702   -2.5837 O   0  0  0  0  0  0  0  0  0  0  0  0
   -7.2913   -8.0519   -2.1499 C   0  0  2  0  0  0  0  0  0  0  0  0
   -8.6841   -8.3716   -2.2398 O   0  0  0  0  0  0  0  0  0  0  0  0
   -6.8322   -7.5714   -3.5090 C   0  0  1  0  0  0  0  0  0  0  0  0
   -7.3954   -6.2797   -3.7498 O   0  0  0  0  0  0  0  0  0  0  0  0
   -5.3181   -7.5014   -3.5678 C   0  0  2  0  0  0  0  0  0  0  0  0
   -4.9282   -7.2211   -4.9053 O   0  0  0  0  0  0  0  0  0  0  0  0
   -4.6690   -8.8070   -3.1285 C   0  0  2  0  0  0  0  0  0  0  0  0
   -5.1110   -9.0794   -1.8055 O   0  0  0  0  0  0  0  0  0  0  0  0
   -3.1389   -8.7200   -3.1748 C   0  0  0  0  0  0  0  0  0  0  0  0
   -2.6247   -8.5838   -4.5077 O   0  0  0  0  0  0  0  0  0  0  0  0
  1  2  1  0  0  0  0
  3  1  1  6  0  0  0
  3  9  1  0  0  0  0
  3  4  1  0  0  0  0
  4  5  1  1  0  0  0
  4  6  1  0  0  0  0
  6  7  1  6  0  0  0
  6  8  1  0  0  0  0
  8  9  1  0  0  0  0
  8 10  1  1  0  0  0
  8 13  1  0  0  0  0
 10 11  1  0  0  0  0
 12 13  1  6  0  0  0
 12 14  1  0  0  0  0
 12 21  1  0  0  0  0
 14 15  1  6  0  0  0
 14 16  1  0  0  0  0
 16 17  1  1  0  0  0
 16 18  1  0  0  0  0
 18 19  1  6  0  0  0
 18 20  1  0  0  0  0
 20 21  1  0  0  0  0
 20 22  1  1  0  0  0
 22 23  1  0  0  0  0
M  END
>  <CHROM.1>
-61.10026203,63.00671328,-173.53000494,175.80972389,-66.55509220,-5.77402063
-10.34106533,-3.16186822,-1.50725782,0.56093774,-0.03046994

>  <Name>
ligand

>  <RI>
0

>  <Rbt.Current_Directory>
/home/itssahil/PROJECTS/Mol_Feturizer/New_Systems/rnas/4TS2

>  <Rbt.Executable>
rbdock ($Id: //depot/dev/client3/rdock/2013.1/src/exe/rbdock.cxx#4 $)

>  <Rbt.Library>
libRbt.so (2013.1, Build901 2013/11/27)

>  <Rbt.Parameter_File>
/export/apps/rDock/src/rDock_2013.1_src/data/scripts/dock_solv.prm

>  <Rbt.Receptor>
prm/pocket_docking_7.prm

>  <SCORE>
-8.78768

>  <SCORE.INTER>
-1.88982

>  <SCORE.INTER.CONST>
1

>  <SCORE.INTER.POLAR>
0

>  <SCORE.INTER.ROT>
5

>  <SCORE.INTER.SOLV>
5.35207

>  <SCORE.INTER.VDW>
-9.97724

>  <SCORE.INTER.norm>
-0.0821661

>  <SCORE.INTRA>
-6.89786

>  <SCORE.INTRA.DIHEDRAL>
-11.8516

>  <SCORE.INTRA.DIHEDRAL.0>
12.4853

>  <SCORE.INTRA.POLAR>
0

>  <SCORE.INTRA.POLAR.0>
0

>  <SCORE.INTRA.REPUL>
0

>  <SCORE.INTRA.REPUL.0>
0

>  <SCORE.INTRA.SOLV>
0.496369

>  <SCORE.INTRA.SOLV.lig_0>
-31.1706

>  <SCORE.INTRA.VDW>
-1.22027

>  <SCORE.INTRA.VDW.0>
-1.16895

>  <SCORE.INTRA.norm>
-0.299907

>  <SCORE.RESTR>
0

>  <SCORE.RESTR.CAVITY>
0

>  <SCORE.RESTR.norm>
0

>  <SCORE.SYSTEM>
0

>  <SCORE.SYSTEM.CONST>
0

>  <SCORE.SYSTEM.DIHEDRAL>
0

>  <SCORE.SYSTEM.SOLV>
0

>  <SCORE.SYSTEM.norm>
0

>  <SCORE.heavy>
23

>  <SCORE.norm>
-0.382073

>  <RMSD>
6.276

$$$$
ligand
 OpenBabel11021811513D
libRbt.so/2013.1/901 2013/11/27
 23 24  0  0  0  0  0  0  0  0999 V2000
   -2.8672   -9.9727   -4.0989 C   0  0  0  0  0  0  0  0  0  0  0  0
   -1.5058  -10.3533   -3.8214 O   0  0  0  0  0  0  0  0  0  0  0  0
   -2.9175   -8.4763   -4.3722 C   0  0  2  0  0  0  0  0  0  0  0  0
   -2.4860   -7.5835   -3.2189 C   0  0  1  0  0  0  0  0  0  0  0  0
   -1.0587   -7.5406   -3.1609 O   0  0  0  0  0  0  0  0  0  0  0  0
   -3.1308   -6.2534   -3.5936 C   0  0  2  0  0  0  0  0  0  0  0  0
   -3.3601   -5.2872   -2.5611 O   0  0  0  0  0  0  0  0  0  0  0  0
   -4.4550   -6.7138   -4.1770 C   0  0  2  0  0  0  0  0  0  0  0  0
   -4.2431   -8.0451   -4.6930 O   0  0  0  0  0  0  0  0  0  0  0  0
   -4.8549   -5.7137   -5.2768 C   0  0  0  0  0  0  0  0  0  0  0  0
   -3.9310   -5.7097   -6.3740 O   0  0  0  0  0  0  0  0  0  0  0  0
   -6.7039   -7.3102   -3.5334 C   0  0  2  0  0  0  0  0  0  0  0  0
   -5.4218   -6.8091   -3.1173 O   0  0  0  0  0  0  0  0  0  0  0  0
   -7.7136   -6.9101   -2.4738 C   0  0  2  0  0  0  0  0  0  0  0  0
   -7.5557   -5.5188   -2.1749 O   0  0  0  0  0  0  0  0  0  0  0  0
   -7.4825   -7.6923   -1.1995 C   0  0  1  0  0  0  0  0  0  0  0  0
   -8.5899   -7.4723   -0.3227 O   0  0  0  0  0  0  0  0  0  0  0  0
   -7.3381   -9.1722   -1.4993 C   0  0  2  0  0  0  0  0  0  0  0  0
   -6.9471   -9.8407   -0.3079 O   0  0  0  0  0  0  0  0  0  0  0  0
   -6.2962   -9.4369   -2.5778 C   0  0  2  0  0  0  0  0  0  0  0  0
   -6.6941   -8.7226   -3.7403 O   0  0  0  0  0  0  0  0  0  0  0  0
   -6.1706  -10.9337   -2.8858 C   0  0  0  0  0  0  0  0  0  0  0  0
   -5.6821  -11.6964   -1.7727 O   0  0  0  0  0  0  0  0  0  0  0  0
  1  2  1  0  0  0  0
  3  1  1  1  0  0  0
  3  9  1  0  0  0  0
  3  4  1  0  0  0  0
  4  5  1  6  0  0  0
  4  6  1  0  0  0  0
  6  7  1  1  0  0  0
  6  8  1  0  0  0  0
  8  9  1  0  0  0  0
  8 10  1  6  0  0  0
  8 13  1  0  0  0  0
 10 11  1  0  0  0  0
 12 13  1  1  0  0  0
 12 14  1  0  0  0  0
 12 21  1  0  0  0  0
 14 15  1  1  0  0  0
 14 16  1  0  0  0  0
 16 17  1  1  0  0  0
 16 18  1  0  0  0  0
 18 19  1  1  0  0  0
 18 20  1  0  0  0  0
 20 21  1  0  0  0  0
 20 22  1  6  0  0  0
 22 23  1  0  0  0  0
M  END
>  <CHROM.1>
-62.06147078,64.12331088,-160.82890864,-176.69837162,-64.54171632,-5.09191483
-7.97028242,-3.07385454,-0.33707369,-0.45264694,2.82783855

>  <Name>
ligand

>  <RI>
0

>  <Rbt.Current_Directory>
/home/itssahil/PROJECTS/Mol_Feturizer/New_Systems/rnas/4TS2

>  <Rbt.Executable>
rbdock ($Id: //depot/dev/client3/rdock/2013.1/src/exe/rbdock.cxx#4 $)

>  <Rbt.Library>
libRbt.so (2013.1, Build901 2013/11/27)

>  <Rbt.Parameter_File>
/export/apps/rDock/src/rDock_2013.1_src/data/scripts/dock_solv.prm

>  <Rbt.Receptor>
prm/pocket_docking_7.prm

>  <SCORE>
-10.172

>  <SCORE.INTER>
-3.6702

>  <SCORE.INTER.CONST>
1

>  <SCORE.INTER.POLAR>
0

>  <SCORE.INTER.ROT>
5

>  <SCORE.INTER.SOLV>
10.0377

>  <SCORE.INTER.VDW>
-12.726

>  <SCORE.INTER.norm>
-0.159574

>  <SCORE.INTRA>
-6.50184

>  <SCORE.INTRA.DIHEDRAL>
-10.5752

>  <SCORE.INTRA.DIHEDRAL.0>
12.4853

>  <SCORE.INTRA.POLAR>
0

>  <SCORE.INTRA.POLAR.0>
0

>  <SCORE.INTRA.REPUL>
0

>  <SCORE.INTRA.REPUL.0>
0

>  <SCORE.INTRA.SOLV>
0.37499

>  <SCORE.INTRA.SOLV.lig_0>
-31.1706

>  <SCORE.INTRA.VDW>
-1.40171

>  <SCORE.INTRA.VDW.0>
-1.16895

>  <SCORE.INTRA.norm>
-0.282689

>  <SCORE.RESTR>
0

>  <SCORE.RESTR.CAVITY>
0

>  <SCORE.RESTR.norm>
0

>  <SCORE.SYSTEM>
0

>  <SCORE.SYSTEM.CONST>
0

>  <SCORE.SYSTEM.DIHEDRAL>
0

>  <SCORE.SYSTEM.SOLV>
0

>  <SCORE.SYSTEM.norm>
0

>  <SCORE.heavy>
23

>  <SCORE.norm>
-0.442263

>  <RMSD>
6.277

$$$$
ligand
 OpenBabel11021811513D
libRbt.so/2013.1/901 2013/11/27
 23 24  0  0  0  0  0  0  0  0999 V2000
   -2.7789  -10.0231   -3.7680 C   0  0  0  0  0  0  0  0  0  0  0  0
   -1.4567  -10.4337   -3.3696 O   0  0  0  0  0  0  0  0  0  0  0  0
   -2.7642   -8.5318   -4.0719 C   0  0  2  0  0  0  0  0  0  0  0  0
   -2.3937   -7.6280   -2.9059 C   0  0  1  0  0  0  0  0  0  0  0  0
   -0.9742   -7.6243   -2.7414 O   0  0  0  0  0  0  0  0  0  0  0  0
   -2.9690   -6.2882   -3.3526 C   0  0  2  0  0  0  0  0  0  0  0  0
   -3.2460   -5.2949   -2.3583 O   0  0  0  0  0  0  0  0  0  0  0  0
   -4.2589   -6.7231   -4.0255 C   0  0  2  0  0  0  0  0  0  0  0  0
   -4.0487   -8.0701   -4.4994 O   0  0  0  0  0  0  0  0  0  0  0  0
   -4.5457   -5.7349   -5.1705 C   0  0  0  0  0  0  0  0  0  0  0  0
   -5.6922   -6.1137   -5.9449 O   0  0  0  0  0  0  0  0  0  0  0  0
   -6.5463   -7.3097   -3.5240 C   0  0  2  0  0  0  0  0  0  0  0  0
   -5.3047   -6.7692   -3.0401 O   0  0  0  0  0  0  0  0  0  0  0  0
   -7.6327   -6.8956   -2.5490 C   0  0  2  0  0  0  0  0  0  0  0  0
   -7.5206   -5.4922   -2.2880 O   0  0  0  0  0  0  0  0  0  0  0  0
   -7.4745   -7.6304   -1.2360 C   0  0  1  0  0  0  0  0  0  0  0  0
   -8.6427   -7.4043   -0.4438 O   0  0  0  0  0  0  0  0  0  0  0  0
   -7.2833   -9.1161   -1.4746 C   0  0  2  0  0  0  0  0  0  0  0  0
   -6.9621   -9.7369   -0.2373 O   0  0  0  0  0  0  0  0  0  0  0  0
   -6.1660   -9.3950   -2.4709 C   0  0  2  0  0  0  0  0  0  0  0  0
   -6.4969   -8.7276   -3.6812 O   0  0  0  0  0  0  0  0  0  0  0  0
   -5.9927  -10.8982   -2.7182 C   0  0  0  0  0  0  0  0  0  0  0  0
   -7.1865  -11.5278   -3.2061 O   0  0  0  0  0  0  0  0  0  0  0  0
  1  2  1  0  0  0  0
  3  1  1  1  0  0  0
  3  9  1  0  0  0  0
  3  4  1  0  0  0  0
  4  5  1  6  0  0  0
  4  6  1  0  0  0  0
  6  7  1  1  0  0  0
  6  8  1  0  0  0  0
  8  9  1  0  0  0  0
  8 10  1  6  0  0  0
  8 13  1  0  0  0  0
 10 11  1  0  0  0  0
 12 13  1  1  0  0  0
 12 14  1  0  0  0  0
 12 21  1  0  0  0  0
 14 15  1  1  0  0  0
 14 16  1  0  0  0  0
 16 17  1  1  0  0  0
 16 18  1  0  0  0  0
 18 19  1  1  0  0  0
 18 20  1  0  0  0  0
 20 21  1  0  0  0  0
 20 22  1  6  0  0  0
 22 23  1  0  0  0  0
M  END
>  <CHROM.1>
-61.52825319,175.40097242,-162.44000351,-173.52623623,58.16135136,-5.14972662
-7.98008982,-2.99732744,-0.18422898,-0.33278643,2.92313432

>  <Name>
ligand

>  <RI>
0

>  <Rbt.Current_Directory>
/home/itssahil/PROJECTS/Mol_Feturizer/New_Systems/rnas/4TS2

>  <Rbt.Executable>
rbdock ($Id: //depot/dev/client3/rdock/2013.1/src/exe/rbdock.cxx#4 $)

>  <Rbt.Library>
libRbt.so (2013.1, Build901 2013/11/27)

>  <Rbt.Parameter_File>
/export/apps/rDock/src/rDock_2013.1_src/data/scripts/dock_solv.prm

>  <Rbt.Receptor>
prm/pocket_docking_7.prm

>  <SCORE>
-10.4184

>  <SCORE.INTER>
-3.69871

>  <SCORE.INTER.CONST>
1

>  <SCORE.INTER.POLAR>
0

>  <SCORE.INTER.ROT>
5

>  <SCORE.INTER.SOLV>
10.0623

>  <SCORE.INTER.VDW>
-12.7532

>  <SCORE.INTER.norm>
-0.160813

>  <SCORE.INTRA>
-6.71967

>  <SCORE.INTRA.DIHEDRAL>
-10.8323

>  <SCORE.INTRA.DIHEDRAL.0>
12.4853

>  <SCORE.INTRA.POLAR>
0

>  <SCORE.INTRA.POLAR.0>
0

>  <SCORE.INTRA.REPUL>
0

>  <SCORE.INTRA.REPUL.0>
0

>  <SCORE.INTRA.SOLV>
0.482228

>  <SCORE.INTRA.SOLV.lig_0>
-31.1706

>  <SCORE.INTRA.VDW>
-1.54462

>  <SCORE.INTRA.VDW.0>
-1.16895

>  <SCORE.INTRA.norm>
-0.292159

>  <SCORE.RESTR>
0

>  <SCORE.RESTR.CAVITY>
0

>  <SCORE.RESTR.norm>
0

>  <SCORE.SYSTEM>
0

>  <SCORE.SYSTEM.CONST>
0

>  <SCORE.SYSTEM.DIHEDRAL>
0

>  <SCORE.SYSTEM.SOLV>
0

>  <SCORE.SYSTEM.norm>
0

>  <SCORE.heavy>
23

>  <SCORE.norm>
-0.452973

>  <RMSD>
6.282

$$$$
ligand
 OpenBabel11021811513D
libRbt.so/2013.1/901 2013/11/27
 23 24  0  0  0  0  0  0  0  0999 V2000
   -6.1176   -7.7247    1.3942 C   0  0  0  0  0  0  0  0  0  0  0  0
   -6.7719   -9.0018    1.5227 O   0  0  0  0  0  0  0  0  0  0  0  0
   -4.6626   -7.9501    1.0087 C   0  0  2  0  0  0  0  0  0  0  0  0
   -3.8204   -6.6922    0.8607 C   0  0  1  0  0  0  0  0  0  0  0  0
   -3.4227   -6.2330    2.1542 O   0  0  0  0  0  0  0  0  0  0  0  0
   -2.6653   -7.1879   -0.0028 C   0  0  2  0  0  0  0  0  0  0  0  0
   -1.9074   -6.2295   -0.7506 O   0  0  0  0  0  0  0  0  0  0  0  0
   -3.3810   -8.1361   -0.9486 C   0  0  2  0  0  0  0  0  0  0  0  0
   -4.5504   -8.6164   -0.2521 O   0  0  0  0  0  0  0  0  0  0  0  0
   -2.4019   -9.2693   -1.3049 C   0  0  0  0  0  0  0  0  0  0  0  0
   -1.9994  -10.0255   -0.1543 O   0  0  0  0  0  0  0  0  0  0  0  0
   -4.5627   -8.1816   -3.0532 C   0  0  2  0  0  0  0  0  0  0  0  0
   -3.8337   -7.3955   -2.0947 O   0  0  0  0  0  0  0  0  0  0  0  0
   -4.6561   -7.3682   -4.3307 C   0  0  2  0  0  0  0  0  0  0  0  0
   -3.3580   -6.8639   -4.6633 O   0  0  0  0  0  0  0  0  0  0  0  0
   -5.5829   -6.1876   -4.1406 C   0  0  1  0  0  0  0  0  0  0  0  0
   -5.8366   -5.5972   -5.4175 O   0  0  0  0  0  0  0  0  0  0  0  0
   -6.8851   -6.6280   -3.4995 C   0  0  2  0  0  0  0  0  0  0  0  0
   -7.6464   -5.4720   -3.1777 O   0  0  0  0  0  0  0  0  0  0  0  0
   -6.6517   -7.4341   -2.2288 C   0  0  2  0  0  0  0  0  0  0  0  0
   -5.8546   -8.5581   -2.5768 O   0  0  0  0  0  0  0  0  0  0  0  0
   -7.9733   -7.8892   -1.5985 C   0  0  0  0  0  0  0  0  0  0  0  0
   -8.7446   -8.7364   -2.4628 O   0  0  0  0  0  0  0  0  0  0  0  0
  1  2  1  0  0  0  0
  3  1  1  6  0  0  0
  3  9  1  0  0  0  0
  3  4  1  0  0  0  0
  4  5  1  1  0  0  0
  4  6  1  0  0  0  0
  6  7  1  6  0  0  0
  6  8  1  0  0  0  0
  8  9  1  0  0  0  0
  8 10  1  6  0  0  0
  8 13  1  0  0  0  0
 10 11  1  0  0  0  0
 12 13  1  1  0  0  0
 12 14  1  0  0  0  0
 12 21  1  0  0  0  0
 14 15  1  1  0  0  0
 14 16  1  0  0  0  0
 16 17  1  6  0  0  0
 16 18  1  0  0  0  0
 18 19  1  1  0  0  0
 18 20  1  0  0  0  0
 20 21  1  0  0  0  0
 20 22  1  6  0  0  0
 22 23  1  0  0  0  0
M  END
>  <CHROM.1>
-178.79110925,61.63424647,-165.86246108,-178.40708976,60.89739014,-4.93305544
-7.54151603,-1.55229001,0.99384441,0.03295555,1.84073395

>  <Name>
ligand

>  <RI>
0

>  <Rbt.Current_Directory>
/home/itssahil/PROJECTS/Mol_Feturizer/New_Systems/rnas/4TS2

>  <Rbt.Executable>
rbdock ($Id: //depot/dev/client3/rdock/2013.1/src/exe/rbdock.cxx#4 $)

>  <Rbt.Library>
libRbt.so (2013.1, Build901 2013/11/27)

>  <Rbt.Parameter_File>
/export/apps/rDock/src/rDock_2013.1_src/data/scripts/dock_solv.prm

>  <Rbt.Receptor>
prm/pocket_docking_6.prm

>  <SCORE>
-11.0485

>  <SCORE.INTER>
-3.85734

>  <SCORE.INTER.CONST>
1

>  <SCORE.INTER.POLAR>
0

>  <SCORE.INTER.ROT>
5

>  <SCORE.INTER.SOLV>
8.76994

>  <SCORE.INTER.VDW>
-12.4282

>  <SCORE.INTER.norm>
-0.167711

>  <SCORE.INTRA>
-7.1912

>  <SCORE.INTRA.DIHEDRAL>
-11.459

>  <SCORE.INTRA.DIHEDRAL.0>
12.4853

>  <SCORE.INTRA.POLAR>
0

>  <SCORE.INTRA.POLAR.0>
0

>  <SCORE.INTRA.REPUL>
0

>  <SCORE.INTRA.REPUL.0>
0

>  <SCORE.INTRA.SOLV>
0.226067

>  <SCORE.INTRA.SOLV.lig_0>
-31.1706

>  <SCORE.INTRA.VDW>
-1.57472

>  <SCORE.INTRA.VDW.0>
-1.16895

>  <SCORE.INTRA.norm>
-0.312661

>  <SCORE.RESTR>
0

>  <SCORE.RESTR.CAVITY>
0

>  <SCORE.RESTR.norm>
0

>  <SCORE.SYSTEM>
0

>  <SCORE.SYSTEM.CONST>
0

>  <SCORE.SYSTEM.DIHEDRAL>
0

>  <SCORE.SYSTEM.SOLV>
0

>  <SCORE.SYSTEM.norm>
0

>  <SCORE.heavy>
23

>  <SCORE.norm>
-0.480371

>  <RMSD>
6.283

$$$$
ligand
 OpenBabel11021811513D
libRbt.so/2013.1/901 2013/11/27
 23 24  0  0  0  0  0  0  0  0999 V2000
   -3.9691   -7.2303    1.8216 C   0  0  0  0  0  0  0  0  0  0  0  0
   -3.3287   -6.7670    0.6171 O   0  0  0  0  0  0  0  0  0  0  0  0
   -5.1800   -8.0725    1.4465 C   0  0  2  0  0  0  0  0  0  0  0  0
   -4.8787   -9.3488    0.6760 C   0  0  1  0  0  0  0  0  0  0  0  0
   -4.4385  -10.3591    1.5857 O   0  0  0  0  0  0  0  0  0  0  0  0
   -6.2246   -9.6465    0.0237 C   0  0  2  0  0  0  0  0  0  0  0  0
   -6.2533  -10.4826   -1.1392 O   0  0  0  0  0  0  0  0  0  0  0  0
   -6.7044   -8.2497   -0.3292 C   0  0  2  0  0  0  0  0  0  0  0  0
   -6.0868   -7.3463    0.6120 O   0  0  0  0  0  0  0  0  0  0  0  0
   -8.2405   -8.2433   -0.2292 C   0  0  0  0  0  0  0  0  0  0  0  0
   -8.8537   -9.1241   -1.1810 O   0  0  0  0  0  0  0  0  0  0  0  0
   -6.4344   -6.5352   -2.0071 C   0  0  2  0  0  0  0  0  0  0  0  0
   -6.2192   -7.9085   -1.6388 O   0  0  0  0  0  0  0  0  0  0  0  0
   -7.0852   -6.5292   -3.3778 C   0  0  2  0  0  0  0  0  0  0  0  0
   -8.1835   -7.4478   -3.3811 O   0  0  0  0  0  0  0  0  0  0  0  0
   -6.0986   -6.9745   -4.4348 C   0  0  1  0  0  0  0  0  0  0  0  0
   -6.6650   -6.7206   -5.7225 O   0  0  0  0  0  0  0  0  0  0  0  0
   -4.7841   -6.2325   -4.2856 C   0  0  2  0  0  0  0  0  0  0  0  0
   -3.8361   -6.8049   -5.1762 O   0  0  0  0  0  0  0  0  0  0  0  0
   -4.2397   -6.3159   -2.8659 C   0  0  2  0  0  0  0  0  0  0  0  0
   -5.2264   -5.7747   -1.9979 O   0  0  0  0  0  0  0  0  0  0  0  0
   -2.9203   -5.5482   -2.7216 C   0  0  0  0  0  0  0  0  0  0  0  0
   -1.8661   -6.0870   -3.5328 O   0  0  0  0  0  0  0  0  0  0  0  0
  1  2  1  0  0  0  0
  3  1  1  6  0  0  0
  3  9  1  0  0  0  0
  3  4  1  0  0  0  0
  4  5  1  1  0  0  0
  4  6  1  0  0  0  0
  6  7  1  6  0  0  0
  6  8  1  0  0  0  0
  8  9  1  0  0  0  0
  8 10  1  1  0  0  0
  8 13  1  0  0  0  0
 10 11  1  0  0  0  0
 12 13  1  6  0  0  0
 12 14  1  0  0  0  0
 12 21  1  0  0  0  0
 14 15  1  1  0  0  0
 14 16  1  0  0  0  0
 16 17  1  6  0  0  0
 16 18  1  0  0  0  0
 18 19  1  6  0  0  0
 18 20  1  0  0  0  0
 20 21  1  0  0  0  0
 20 22  1  6  0  0  0
 22 23  1  0  0  0  0
M  END
>  <CHROM.1>
63.37566396,-63.61904919,-129.73751179,-171.07766968,-63.06226389,-5.54371670
-7.56265917,-1.63974362,-1.71359304,-0.37462847,-1.16138387

>  <Name>
ligand

>  <RI>
0

>  <Rbt.Current_Directory>
/home/itssahil/PROJECTS/Mol_Feturizer/New_Systems/rnas/4TS2

>  <Rbt.Executable>
rbdock ($Id: //depot/dev/client3/rdock/2013.1/src/exe/rbdock.cxx#4 $)

>  <Rbt.Library>
libRbt.so (2013.1, Build901 2013/11/27)

>  <Rbt.Parameter_File>
/export/apps/rDock/src/rDock_2013.1_src/data/scripts/dock_solv.prm

>  <Rbt.Receptor>
prm/pocket_docking_7.prm

>  <SCORE>
-8.52658

>  <SCORE.INTER>
-4.92598

>  <SCORE.INTER.CONST>
1

>  <SCORE.INTER.POLAR>
0

>  <SCORE.INTER.ROT>
5

>  <SCORE.INTER.SOLV>
10.1919

>  <SCORE.INTER.VDW>
-13.6146

>  <SCORE.INTER.norm>
-0.214173

>  <SCORE.INTRA>
-3.60061

>  <SCORE.INTRA.DIHEDRAL>
-5.37151

>  <SCORE.INTRA.DIHEDRAL.0>
12.4853

>  <SCORE.INTRA.POLAR>
0

>  <SCORE.INTRA.POLAR.0>
0

>  <SCORE.INTRA.REPUL>
0

>  <SCORE.INTRA.REPUL.0>
0

>  <SCORE.INTRA.SOLV>
1.24593

>  <SCORE.INTRA.SOLV.lig_0>
-31.1706

>  <SCORE.INTRA.VDW>
-1.53782

>  <SCORE.INTRA.VDW.0>
-1.16895

>  <SCORE.INTRA.norm>
-0.156548

>  <SCORE.RESTR>
0

>  <SCORE.RESTR.CAVITY>
0

>  <SCORE.RESTR.norm>
0

>  <SCORE.SYSTEM>
0

>  <SCORE.SYSTEM.CONST>
0

>  <SCORE.SYSTEM.DIHEDRAL>
0

>  <SCORE.SYSTEM.SOLV>
0

>  <SCORE.SYSTEM.norm>
0

>  <SCORE.heavy>
23

>  <SCORE.norm>
-0.370721

>  <RMSD>
6.296

$$$$
ligand
 OpenBabel11021811513D
libRbt.so/2013.1/901 2013/11/27
 23 24  0  0  0  0  0  0  0  0999 V2000
   -5.9089   -7.7214    1.3855 C   0  0  0  0  0  0  0  0  0  0  0  0
   -6.4599   -9.0429    1.5455 O   0  0  0  0  0  0  0  0  0  0  0  0
   -4.4389   -7.8397    1.0094 C   0  0  2  0  0  0  0  0  0  0  0  0
   -3.6877   -6.5239    0.8756 C   0  0  1  0  0  0  0  0  0  0  0  0
   -3.3328   -6.0464    2.1750 O   0  0  0  0  0  0  0  0  0  0  0  0
   -2.4941   -6.9300    0.0177 C   0  0  2  0  0  0  0  0  0  0  0  0
   -1.8014   -5.9149   -0.7184 O   0  0  0  0  0  0  0  0  0  0  0  0
   -3.1337   -7.9204   -0.9394 C   0  0  2  0  0  0  0  0  0  0  0  0
   -4.2706   -8.4877   -0.2547 O   0  0  0  0  0  0  0  0  0  0  0  0
   -2.0737   -8.9783   -1.2956 C   0  0  0  0  0  0  0  0  0  0  0  0
   -1.6404   -9.7250   -0.1499 O   0  0  0  0  0  0  0  0  0  0  0  0
   -4.1860   -8.0489   -3.1083 C   0  0  2  0  0  0  0  0  0  0  0  0
   -3.6301   -7.2062   -2.0842 O   0  0  0  0  0  0  0  0  0  0  0  0
   -4.4619   -7.1736   -4.3166 C   0  0  2  0  0  0  0  0  0  0  0  0
   -3.3030   -6.3811   -4.5979 O   0  0  0  0  0  0  0  0  0  0  0  0
   -5.6153   -6.2348   -4.0386 C   0  0  1  0  0  0  0  0  0  0  0  0
   -6.0006   -5.6107   -5.2656 O   0  0  0  0  0  0  0  0  0  0  0  0
   -6.7886   -6.9908   -3.4448 C   0  0  2  0  0  0  0  0  0  0  0  0
   -7.7738   -6.0516   -3.0363 O   0  0  0  0  0  0  0  0  0  0  0  0
   -6.3775   -7.8288   -2.2416 C   0  0  2  0  0  0  0  0  0  0  0  0
   -5.3643   -8.7271   -2.6733 O   0  0  0  0  0  0  0  0  0  0  0  0
   -7.5667   -8.6022   -1.6599 C   0  0  0  0  0  0  0  0  0  0  0  0
   -8.5232   -7.7537   -1.0082 O   0  0  0  0  0  0  0  0  0  0  0  0
  1  2  1  0  0  0  0
  3  1  1  6  0  0  0
  3  9  1  0  0  0  0
  3  4  1  0  0  0  0
  4  5  1  1  0  0  0
  4  6  1  0  0  0  0
  6  7  1  6  0  0  0
  6  8  1  0  0  0  0
  8  9  1  0  0  0  0
  8 10  1  6  0  0  0
  8 13  1  0  0  0  0
 10 11  1  0  0  0  0
 12 13  1  1  0  0  0
 12 14  1  0  0  0  0
 12 21  1  0  0  0  0
 14 15  1  1  0  0  0
 14 16  1  0  0  0  0
 16 17  1  6  0  0  0
 16 18  1  0  0  0  0
 18 19  1  1  0  0  0
 18 20  1  0  0  0  0
 20 21  1  0  0  0  0
 20 22  1  6  0  0  0
 22 23  1  0  0  0  0
M  END
>  <CHROM.1>
-176.86142268,62.48141284,-171.46678016,176.24422030,-70.16123931,-4.74120588
-7.46374321,-1.46269666,0.97456133,0.05128738,1.82024797

>  <Name>
ligand

>  <RI>
0

>  <Rbt.Current_Directory>
/home/itssahil/PROJECTS/Mol_Feturizer/New_Systems/rnas/4TS2

>  <Rbt.Executable>
rbdock ($Id: //depot/dev/client3/rdock/2013.1/src/exe/rbdock.cxx#4 $)

>  <Rbt.Library>
libRbt.so (2013.1, Build901 2013/11/27)

>  <Rbt.Parameter_File>
/export/apps/rDock/src/rDock_2013.1_src/data/scripts/dock_solv.prm

>  <Rbt.Receptor>
prm/pocket_docking_5.prm

>  <SCORE>
-10.1682

>  <SCORE.INTER>
-3.17336

>  <SCORE.INTER.CONST>
1

>  <SCORE.INTER.POLAR>
0

>  <SCORE.INTER.ROT>
5

>  <SCORE.INTER.SOLV>
7.95373

>  <SCORE.INTER.VDW>
-11.7001

>  <SCORE.INTER.norm>
-0.137972

>  <SCORE.INTRA>
-6.99486

>  <SCORE.INTRA.DIHEDRAL>
-11.4983

>  <SCORE.INTRA.DIHEDRAL.0>
12.4853

>  <SCORE.INTRA.POLAR>
0

>  <SCORE.INTRA.POLAR.0>
0

>  <SCORE.INTRA.REPUL>
0

>  <SCORE.INTRA.REPUL.0>
0

>  <SCORE.INTRA.SOLV>
0.581868

>  <SCORE.INTRA.SOLV.lig_0>
-31.1706

>  <SCORE.INTRA.VDW>
-1.53664

>  <SCORE.INTRA.VDW.0>
-1.16895

>  <SCORE.INTRA.norm>
-0.304124

>  <SCORE.RESTR>
0

>  <SCORE.RESTR.CAVITY>
0

>  <SCORE.RESTR.norm>
0

>  <SCORE.SYSTEM>
0

>  <SCORE.SYSTEM.CONST>
0

>  <SCORE.SYSTEM.DIHEDRAL>
0

>  <SCORE.SYSTEM.SOLV>
0

>  <SCORE.SYSTEM.norm>
0

>  <SCORE.heavy>
23

>  <SCORE.norm>
-0.442096

>  <RMSD>
6.302

$$$$
ligand
 OpenBabel11021811513D
libRbt.so/2013.1/901 2013/11/27
 23 24  0  0  0  0  0  0  0  0999 V2000
   -2.5435   -9.8675   -4.0817 C   0  0  0  0  0  0  0  0  0  0  0  0
   -2.8601  -10.5802   -5.2930 O   0  0  0  0  0  0  0  0  0  0  0  0
   -2.7230   -8.3756   -4.3233 C   0  0  2  0  0  0  0  0  0  0  0  0
   -2.3766   -7.4740   -3.1483 C   0  0  1  0  0  0  0  0  0  0  0  0
   -0.9589   -7.3080   -3.0799 O   0  0  0  0  0  0  0  0  0  0  0  0
   -3.1334   -6.1973   -3.4989 C   0  0  2  0  0  0  0  0  0  0  0  0
   -3.4512   -5.2776   -2.4475 O   0  0  0  0  0  0  0  0  0  0  0  0
   -4.4095   -6.7587   -4.1009 C   0  0  2  0  0  0  0  0  0  0  0  0
   -4.0797   -8.0548   -4.6437 O   0  0  0  0  0  0  0  0  0  0  0  0
   -4.8900   -5.7735   -5.1817 C   0  0  0  0  0  0  0  0  0  0  0  0
   -3.9559   -5.6506   -6.2633 O   0  0  0  0  0  0  0  0  0  0  0  0
   -6.6334   -7.4796   -3.4988 C   0  0  2  0  0  0  0  0  0  0  0  0
   -5.3694   -6.9611   -3.0499 O   0  0  0  0  0  0  0  0  0  0  0  0
   -7.6944   -6.9913   -2.5302 C   0  0  2  0  0  0  0  0  0  0  0  0
   -7.5340   -5.5830   -2.3274 O   0  0  0  0  0  0  0  0  0  0  0  0
   -7.5449   -7.6777   -1.1903 C   0  0  1  0  0  0  0  0  0  0  0  0
   -8.6959   -7.3818   -0.3959 O   0  0  0  0  0  0  0  0  0  0  0  0
   -7.4047   -9.1772   -1.3705 C   0  0  2  0  0  0  0  0  0  0  0  0
   -7.0894   -9.7581   -0.1125 O   0  0  0  0  0  0  0  0  0  0  0  0
   -6.3086   -9.5323   -2.3662 C   0  0  2  0  0  0  0  0  0  0  0  0
   -6.6317   -8.9035   -3.5990 O   0  0  0  0  0  0  0  0  0  0  0  0
   -6.1869  -11.0491   -2.5543 C   0  0  0  0  0  0  0  0  0  0  0  0
   -5.0551  -11.4266   -3.3518 O   0  0  0  0  0  0  0  0  0  0  0  0
  1  2  1  0  0  0  0
  3  1  1  1  0  0  0
  3  9  1  0  0  0  0
  3  4  1  0  0  0  0
  4  5  1  6  0  0  0
  4  6  1  0  0  0  0
  6  7  1  1  0  0  0
  6  8  1  0  0  0  0
  8  9  1  0  0  0  0
  8 10  1  6  0  0  0
  8 13  1  0  0  0  0
 10 11  1  0  0  0  0
 12 13  1  1  0  0  0
 12 14  1  0  0  0  0
 12 21  1  0  0  0  0
 14 15  1  1  0  0  0
 14 16  1  0  0  0  0
 16 17  1  1  0  0  0
 16 18  1  0  0  0  0
 18 19  1  1  0  0  0
 18 20  1  0  0  0  0
 20 21  1  0  0  0  0
 20 22  1  6  0  0  0
 22 23  1  0  0  0  0
M  END
>  <CHROM.1>
-177.83983464,63.29577998,-151.58749557,179.34868576,-172.50272355,-5.10225253
-7.97228091,-3.15190739,-0.19525703,-0.53318015,3.03453222

>  <Name>
ligand

>  <RI>
0

>  <Rbt.Current_Directory>
/home/itssahil/PROJECTS/Mol_Feturizer/New_Systems/rnas/4TS2

>  <Rbt.Executable>
rbdock ($Id: //depot/dev/client3/rdock/2013.1/src/exe/rbdock.cxx#4 $)

>  <Rbt.Library>
libRbt.so (2013.1, Build901 2013/11/27)

>  <Rbt.Parameter_File>
/export/apps/rDock/src/rDock_2013.1_src/data/scripts/dock_solv.prm

>  <Rbt.Receptor>
prm/pocket_docking_7.prm

>  <SCORE>
-10.0892

>  <SCORE.INTER>
-4.25677

>  <SCORE.INTER.CONST>
1

>  <SCORE.INTER.POLAR>
0

>  <SCORE.INTER.ROT>
5

>  <SCORE.INTER.SOLV>
10.4188

>  <SCORE.INTER.VDW>
-13.2441

>  <SCORE.INTER.norm>
-0.185077

>  <SCORE.INTRA>
-5.83242

>  <SCORE.INTRA.DIHEDRAL>
-8.8495

>  <SCORE.INTRA.DIHEDRAL.0>
12.4853

>  <SCORE.INTRA.POLAR>
0

>  <SCORE.INTRA.POLAR.0>
0

>  <SCORE.INTRA.REPUL>
0

>  <SCORE.INTRA.REPUL.0>
0

>  <SCORE.INTRA.SOLV>
0.313157

>  <SCORE.INTRA.SOLV.lig_0>
-31.1706

>  <SCORE.INTRA.VDW>
-1.56425

>  <SCORE.INTRA.VDW.0>
-1.16895

>  <SCORE.INTRA.norm>
-0.253583

>  <SCORE.RESTR>
0

>  <SCORE.RESTR.CAVITY>
0

>  <SCORE.RESTR.norm>
0

>  <SCORE.SYSTEM>
0

>  <SCORE.SYSTEM.CONST>
0

>  <SCORE.SYSTEM.DIHEDRAL>
0

>  <SCORE.SYSTEM.SOLV>
0

>  <SCORE.SYSTEM.norm>
0

>  <SCORE.heavy>
23

>  <SCORE.norm>
-0.43866

>  <RMSD>
6.334

$$$$
ligand
 OpenBabel11021811513D
libRbt.so/2013.1/901 2013/11/27
 23 24  0  0  0  0  0  0  0  0999 V2000
   -2.4420   -9.9025   -3.7400 C   0  0  0  0  0  0  0  0  0  0  0  0
   -1.0566  -10.1186   -3.4092 O   0  0  0  0  0  0  0  0  0  0  0  0
   -2.6452   -8.4349   -4.0883 C   0  0  2  0  0  0  0  0  0  0  0  0
   -2.3384   -7.4471   -2.9731 C   0  0  1  0  0  0  0  0  0  0  0  0
   -0.9256   -7.2481   -2.8914 O   0  0  0  0  0  0  0  0  0  0  0  0
   -3.1125   -6.2134   -3.4252 C   0  0  2  0  0  0  0  0  0  0  0  0
   -3.4676   -5.2296   -2.4464 O   0  0  0  0  0  0  0  0  0  0  0  0
   -4.3660   -6.8410   -4.0090 C   0  0  2  0  0  0  0  0  0  0  0  0
   -4.0014   -8.1647   -4.4541 O   0  0  0  0  0  0  0  0  0  0  0  0
   -4.8445   -5.9431   -5.1642 C   0  0  0  0  0  0  0  0  0  0  0  0
   -3.9273   -5.9365   -6.2671 O   0  0  0  0  0  0  0  0  0  0  0  0
   -6.6038   -7.5173   -3.4068 C   0  0  2  0  0  0  0  0  0  0  0  0
   -5.3417   -6.9893   -2.9636 O   0  0  0  0  0  0  0  0  0  0  0  0
   -7.6635   -7.0402   -2.4311 C   0  0  2  0  0  0  0  0  0  0  0  0
   -7.5136   -5.6311   -2.2258 O   0  0  0  0  0  0  0  0  0  0  0  0
   -7.5008   -7.7285   -1.0937 C   0  0  1  0  0  0  0  0  0  0  0  0
   -8.6498   -7.4441   -0.2922 O   0  0  0  0  0  0  0  0  0  0  0  0
   -7.3491   -9.2264   -1.2784 C   0  0  2  0  0  0  0  0  0  0  0  0
   -7.0220   -9.8077   -0.0236 O   0  0  0  0  0  0  0  0  0  0  0  0
   -6.2556   -9.5699   -2.2809 C   0  0  2  0  0  0  0  0  0  0  0  0
   -6.5908   -8.9409   -3.5105 O   0  0  0  0  0  0  0  0  0  0  0  0
   -6.1223  -11.0852   -2.4734 C   0  0  0  0  0  0  0  0  0  0  0  0
   -5.0429  -11.4471   -3.3471 O   0  0  0  0  0  0  0  0  0  0  0  0
  1  2  1  0  0  0  0
  3  1  1  1  0  0  0
  3  9  1  0  0  0  0
  3  4  1  0  0  0  0
  4  5  1  6  0  0  0
  4  6  1  0  0  0  0
  6  7  1  1  0  0  0
  6  8  1  0  0  0  0
  8  9  1  0  0  0  0
  8 10  1  6  0  0  0
  8 13  1  0  0  0  0
 10 11  1  0  0  0  0
 12 13  1  1  0  0  0
 12 14  1  0  0  0  0
 12 21  1  0  0  0  0
 14 15  1  1  0  0  0
 14 16  1  0  0  0  0
 16 17  1  1  0  0  0
 16 18  1  0  0  0  0
 18 19  1  1  0  0  0
 18 20  1  0  0  0  0
 20 21  1  0  0  0  0
 20 22  1  6  0  0  0
 22 23  1  0  0  0  0
M  END
>  <CHROM.1>
-61.62788913,66.58718996,-154.62146462,177.17133646,-176.23033116,-4.97562783
-7.99941701,-2.96234047,-0.22310865,-0.41790058,2.87739650

>  <Name>
ligand

>  <RI>
0

>  <Rbt.Current_Directory>
/home/itssahil/PROJECTS/Mol_Feturizer/New_Systems/rnas/4TS2

>  <Rbt.Executable>
rbdock ($Id: //depot/dev/client3/rdock/2013.1/src/exe/rbdock.cxx#4 $)

>  <Rbt.Library>
libRbt.so (2013.1, Build901 2013/11/27)

>  <Rbt.Parameter_File>
/export/apps/rDock/src/rDock_2013.1_src/data/scripts/dock_solv.prm

>  <Rbt.Receptor>
prm/pocket_docking_6.prm

>  <SCORE>
-9.40926

>  <SCORE.INTER>
-3.50745

>  <SCORE.INTER.CONST>
1

>  <SCORE.INTER.POLAR>
0

>  <SCORE.INTER.ROT>
5

>  <SCORE.INTER.SOLV>
9.18579

>  <SCORE.INTER.VDW>
-12.3336

>  <SCORE.INTER.norm>
-0.152498

>  <SCORE.INTRA>
-5.90181

>  <SCORE.INTRA.DIHEDRAL>
-9.36336

>  <SCORE.INTRA.DIHEDRAL.0>
12.4853

>  <SCORE.INTRA.POLAR>
0

>  <SCORE.INTRA.POLAR.0>
0

>  <SCORE.INTRA.REPUL>
0

>  <SCORE.INTRA.REPUL.0>
0

>  <SCORE.INTRA.SOLV>
0.334114

>  <SCORE.INTRA.SOLV.lig_0>
-31.1706

>  <SCORE.INTRA.VDW>
-1.38719

>  <SCORE.INTRA.VDW.0>
-1.16895

>  <SCORE.INTRA.norm>
-0.256601

>  <SCORE.RESTR>
0

>  <SCORE.RESTR.CAVITY>
0

>  <SCORE.RESTR.norm>
0

>  <SCORE.SYSTEM>
0

>  <SCORE.SYSTEM.CONST>
0

>  <SCORE.SYSTEM.DIHEDRAL>
0

>  <SCORE.SYSTEM.SOLV>
0

>  <SCORE.SYSTEM.norm>
0

>  <SCORE.heavy>
23

>  <SCORE.norm>
-0.409098

>  <RMSD>
6.347

$$$$
ligand
 OpenBabel11021811513D
libRbt.so/2013.1/901 2013/11/27
 23 24  0  0  0  0  0  0  0  0999 V2000
   -4.9891   -5.9295   -5.8160 C   0  0  0  0  0  0  0  0  0  0  0  0
   -5.0337   -4.5016   -6.0019 O   0  0  0  0  0  0  0  0  0  0  0  0
   -3.5862   -6.3291   -5.3818 C   0  0  2  0  0  0  0  0  0  0  0  0
   -3.3239   -7.8254   -5.3057 C   0  0  1  0  0  0  0  0  0  0  0  0
   -3.0780   -8.3310   -6.6195 O   0  0  0  0  0  0  0  0  0  0  0  0
   -2.1118   -7.8848   -4.3823 C   0  0  2  0  0  0  0  0  0  0  0  0
   -1.8373   -9.1076   -3.6884 O   0  0  0  0  0  0  0  0  0  0  0  0
   -2.4365   -6.7847   -3.3872 C   0  0  2  0  0  0  0  0  0  0  0  0
   -3.2809   -5.8368   -4.0740 O   0  0  0  0  0  0  0  0  0  0  0  0
   -1.1059   -6.1618   -2.9275 C   0  0  0  0  0  0  0  0  0  0  0  0
   -0.3114   -5.6968   -4.0276 O   0  0  0  0  0  0  0  0  0  0  0  0
   -3.8495   -6.3676   -1.4748 C   0  0  2  0  0  0  0  0  0  0  0  0
   -3.2036   -7.3454   -2.3083 O   0  0  0  0  0  0  0  0  0  0  0  0
   -4.0645   -7.0022   -0.1134 C   0  0  2  0  0  0  0  0  0  0  0  0
   -2.8435   -7.6120    0.3196 O   0  0  0  0  0  0  0  0  0  0  0  0
   -5.1240   -8.0793   -0.1922 C   0  0  1  0  0  0  0  0  0  0  0  0
   -5.4710   -8.4751    1.1369 O   0  0  0  0  0  0  0  0  0  0  0  0
   -6.3511   -7.5696   -0.9238 C   0  0  2  0  0  0  0  0  0  0  0  0
   -7.2409   -8.6581   -1.1308 O   0  0  0  0  0  0  0  0  0  0  0  0
   -5.9981   -6.9580   -2.2729 C   0  0  2  0  0  0  0  0  0  0  0  0
   -5.0771   -5.9021   -2.0350 O   0  0  0  0  0  0  0  0  0  0  0  0
   -7.2428   -6.4303   -2.9962 C   0  0  0  0  0  0  0  0  0  0  0  0
   -8.2168   -7.4520   -3.2549 O   0  0  0  0  0  0  0  0  0  0  0  0
  1  2  1  0  0  0  0
  3  1  1  1  0  0  0
  3  9  1  0  0  0  0
  3  4  1  0  0  0  0
  4  5  1  6  0  0  0
  4  6  1  0  0  0  0
  6  7  1  1  0  0  0
  6  8  1  0  0  0  0
  8  9  1  0  0  0  0
  8 10  1  1  0  0  0
  8 13  1  0  0  0  0
 10 11  1  0  0  0  0
 12 13  1  6  0  0  0
 12 14  1  0  0  0  0
 12 21  1  0  0  0  0
 14 15  1  6  0  0  0
 14 16  1  0  0  0  0
 16 17  1  1  0  0  0
 16 18  1  0  0  0  0
 18 19  1  6  0  0  0
 18 20  1  0  0  0  0
 20 21  1  0  0  0  0
 20 22  1  1  0  0  0
 22 23  1  0  0  0  0
M  END
>  <CHROM.1>
-172.86588723,55.25499975,-155.08387052,-165.56294524,-60.03662616,-4.17010140
-7.05860463,-2.91192207,0.92512033,0.02149976,-1.31715498

>  <Name>
ligand

>  <RI>
0

>  <Rbt.Current_Directory>
/home/itssahil/PROJECTS/Mol_Feturizer/New_Systems/rnas/4TS2

>  <Rbt.Executable>
rbdock ($Id: //depot/dev/client3/rdock/2013.1/src/exe/rbdock.cxx#4 $)

>  <Rbt.Library>
libRbt.so (2013.1, Build901 2013/11/27)

>  <Rbt.Parameter_File>
/export/apps/rDock/src/rDock_2013.1_src/data/scripts/dock_solv.prm

>  <Rbt.Receptor>
prm/pocket_docking_7.prm

>  <SCORE>
-9.11497

>  <SCORE.INTER>
-3.45519

>  <SCORE.INTER.CONST>
1

>  <SCORE.INTER.POLAR>
0

>  <SCORE.INTER.ROT>
5

>  <SCORE.INTER.SOLV>
10.1884

>  <SCORE.INTER.VDW>
-12.6329

>  <SCORE.INTER.norm>
-0.150226

>  <SCORE.INTRA>
-5.65978

>  <SCORE.INTRA.DIHEDRAL>
-8.77254

>  <SCORE.INTRA.DIHEDRAL.0>
12.4853

>  <SCORE.INTRA.POLAR>
0

>  <SCORE.INTRA.POLAR.0>
0

>  <SCORE.INTRA.REPUL>
0

>  <SCORE.INTRA.REPUL.0>
0

>  <SCORE.INTRA.SOLV>
0.129277

>  <SCORE.INTRA.SOLV.lig_0>
-31.1706

>  <SCORE.INTRA.VDW>
-1.33815

>  <SCORE.INTRA.VDW.0>
-1.16895

>  <SCORE.INTRA.norm>
-0.246077

>  <SCORE.RESTR>
0

>  <SCORE.RESTR.CAVITY>
0

>  <SCORE.RESTR.norm>
0

>  <SCORE.SYSTEM>
0

>  <SCORE.SYSTEM.CONST>
0

>  <SCORE.SYSTEM.DIHEDRAL>
0

>  <SCORE.SYSTEM.SOLV>
0

>  <SCORE.SYSTEM.norm>
0

>  <SCORE.heavy>
23

>  <SCORE.norm>
-0.396303

>  <RMSD>
6.347

$$$$
ligand
 OpenBabel11021811513D
libRbt.so/2013.1/901 2013/11/27
 23 24  0  0  0  0  0  0  0  0999 V2000
   -4.2063   -6.2238   -6.2871 C   0  0  0  0  0  0  0  0  0  0  0  0
   -4.4135   -4.8597   -6.7016 O   0  0  0  0  0  0  0  0  0  0  0  0
   -3.4751   -6.2304   -4.9523 C   0  0  2  0  0  0  0  0  0  0  0  0
   -3.1206   -7.6046   -4.4050 C   0  0  1  0  0  0  0  0  0  0  0  0
   -1.9506   -8.0908   -5.0659 O   0  0  0  0  0  0  0  0  0  0  0  0
   -2.9169   -7.3088   -2.9229 C   0  0  2  0  0  0  0  0  0  0  0  0
   -3.0291   -8.3871   -1.9865 O   0  0  0  0  0  0  0  0  0  0  0  0
   -4.0075   -6.2836   -2.6672 C   0  0  2  0  0  0  0  0  0  0  0  0
   -4.2554   -5.6163   -3.9228 O   0  0  0  0  0  0  0  0  0  0  0  0
   -3.4986   -5.3202   -1.5797 C   0  0  0  0  0  0  0  0  0  0  0  0
   -2.3523   -4.5709   -2.0065 O   0  0  0  0  0  0  0  0  0  0  0  0
   -5.7621   -7.8005   -3.3364 C   0  0  2  0  0  0  0  0  0  0  0  0
   -5.2144   -6.9714   -2.2969 O   0  0  0  0  0  0  0  0  0  0  0  0
   -7.2730   -7.6807   -3.2641 C   0  0  2  0  0  0  0  0  0  0  0  0
   -7.6324   -6.2965   -3.1938 O   0  0  0  0  0  0  0  0  0  0  0  0
   -7.8001   -8.3653   -2.0222 C   0  0  1  0  0  0  0  0  0  0  0  0
   -9.2243   -8.4462   -2.1162 O   0  0  0  0  0  0  0  0  0  0  0  0
   -7.2050   -9.7536   -1.8837 C   0  0  2  0  0  0  0  0  0  0  0  0
   -7.5842  -10.2863   -0.6220 O   0  0  0  0  0  0  0  0  0  0  0  0
   -5.6850   -9.7345   -1.9741 C   0  0  2  0  0  0  0  0  0  0  0  0
   -5.3391   -9.1594   -3.2268 O   0  0  0  0  0  0  0  0  0  0  0  0
   -5.0946  -11.1442   -1.8506 C   0  0  0  0  0  0  0  0  0  0  0  0
   -3.6617  -11.1612   -1.9289 O   0  0  0  0  0  0  0  0  0  0  0  0
  1  2  1  0  0  0  0
  3  1  1  6  0  0  0
  3  9  1  0  0  0  0
  3  4  1  0  0  0  0
  4  5  1  6  0  0  0
  4  6  1  0  0  0  0
  6  7  1  1  0  0  0
  6  8  1  0  0  0  0
  8  9  1  0  0  0  0
  8 10  1  1  0  0  0
  8 13  1  0  0  0  0
 10 11  1  0  0  0  0
 12 13  1  1  0  0  0
 12 14  1  0  0  0  0
 12 21  1  0  0  0  0
 14 15  1  1  0  0  0
 14 16  1  0  0  0  0
 16 17  1  6  0  0  0
 16 18  1  0  0  0  0
 18 19  1  1  0  0  0
 18 20  1  0  0  0  0
 20 21  1  0  0  0  0
 20 22  1  6  0  0  0
 22 23  1  0  0  0  0
M  END
>  <CHROM.1>
-177.26648491,63.92608992,-142.20437523,-64.63704632,-179.87227766,-4.98167245
-7.70305204,-3.05101854,0.87716139,0.10494995,-0.53158697

>  <Name>
ligand

>  <RI>
0

>  <Rbt.Current_Directory>
/home/itssahil/PROJECTS/Mol_Feturizer/New_Systems/rnas/4TS2

>  <Rbt.Executable>
rbdock ($Id: //depot/dev/client3/rdock/2013.1/src/exe/rbdock.cxx#4 $)

>  <Rbt.Library>
libRbt.so (2013.1, Build901 2013/11/27)

>  <Rbt.Parameter_File>
/export/apps/rDock/src/rDock_2013.1_src/data/scripts/dock_solv.prm

>  <Rbt.Receptor>
prm/pocket_docking_8.prm

>  <SCORE>
-7.65544

>  <SCORE.INTER>
-4.0143

>  <SCORE.INTER.CONST>
1

>  <SCORE.INTER.POLAR>
0

>  <SCORE.INTER.ROT>
5

>  <SCORE.INTER.SOLV>
8.53851

>  <SCORE.INTER.VDW>
-12.4557

>  <SCORE.INTER.norm>
-0.174535

>  <SCORE.INTRA>
-3.64114

>  <SCORE.INTRA.DIHEDRAL>
-7.14608

>  <SCORE.INTRA.DIHEDRAL.0>
12.4853

>  <SCORE.INTRA.POLAR>
0

>  <SCORE.INTRA.POLAR.0>
0

>  <SCORE.INTRA.REPUL>
0

>  <SCORE.INTRA.REPUL.0>
0

>  <SCORE.INTRA.SOLV>
0.865457

>  <SCORE.INTRA.SOLV.lig_0>
-31.1706

>  <SCORE.INTRA.VDW>
-0.500829

>  <SCORE.INTRA.VDW.0>
-1.16895

>  <SCORE.INTRA.norm>
-0.15831

>  <SCORE.RESTR>
0

>  <SCORE.RESTR.CAVITY>
0

>  <SCORE.RESTR.norm>
0

>  <SCORE.SYSTEM>
0

>  <SCORE.SYSTEM.CONST>
0

>  <SCORE.SYSTEM.DIHEDRAL>
0

>  <SCORE.SYSTEM.SOLV>
0

>  <SCORE.SYSTEM.norm>
0

>  <SCORE.heavy>
23

>  <SCORE.norm>
-0.332845

>  <RMSD>
6.351

$$$$
ligand
 OpenBabel11021811513D
libRbt.so/2013.1/901 2013/11/27
 23 24  0  0  0  0  0  0  0  0999 V2000
   -5.8102   -5.9071   -5.9533 C   0  0  0  0  0  0  0  0  0  0  0  0
   -6.3102   -4.6287   -5.5160 O   0  0  0  0  0  0  0  0  0  0  0  0
   -4.3713   -6.0636   -5.4828 C   0  0  2  0  0  0  0  0  0  0  0  0
   -3.6076   -7.2333   -6.0845 C   0  0  1  0  0  0  0  0  0  0  0  0
   -3.1572   -6.8819   -7.3944 O   0  0  0  0  0  0  0  0  0  0  0  0
   -2.4821   -7.4262   -5.0737 C   0  0  2  0  0  0  0  0  0  0  0  0
   -1.8227   -8.6967   -5.0154 O   0  0  0  0  0  0  0  0  0  0  0  0
   -3.2024   -7.1546   -3.7648 C   0  0  2  0  0  0  0  0  0  0  0  0
   -4.3003   -6.2684   -4.0689 O   0  0  0  0  0  0  0  0  0  0  0  0
   -2.1878   -6.5225   -2.7947 C   0  0  0  0  0  0  0  0  0  0  0  0
   -1.6663   -5.2788   -3.2834 O   0  0  0  0  0  0  0  0  0  0  0  0
   -4.3209   -8.2967   -1.9559 C   0  0  2  0  0  0  0  0  0  0  0  0
   -3.7622   -8.3860   -3.2780 O   0  0  0  0  0  0  0  0  0  0  0  0
   -4.5496   -9.7134   -1.4628 C   0  0  2  0  0  0  0  0  0  0  0  0
   -3.3644  -10.4857   -1.6843 O   0  0  0  0  0  0  0  0  0  0  0  0
   -5.6822  -10.3639   -2.2263 C   0  0  1  0  0  0  0  0  0  0  0  0
   -6.0268  -11.5886   -1.5745 O   0  0  0  0  0  0  0  0  0  0  0  0
   -6.8869   -9.4438   -2.2823 C   0  0  2  0  0  0  0  0  0  0  0  0
   -7.8539  -10.0146   -3.1533 O   0  0  0  0  0  0  0  0  0  0  0  0
   -6.5219   -8.0562   -2.7925 C   0  0  2  0  0  0  0  0  0  0  0  0
   -5.5254   -7.5312   -1.9258 O   0  0  0  0  0  0  0  0  0  0  0  0
   -7.7427   -7.1292   -2.8286 C   0  0  0  0  0  0  0  0  0  0  0  0
   -7.4257   -5.8010   -3.2701 O   0  0  0  0  0  0  0  0  0  0  0  0
  1  2  1  0  0  0  0
  3  1  1  6  0  0  0
  3  9  1  0  0  0  0
  3  4  1  0  0  0  0
  4  5  1  6  0  0  0
  4  6  1  0  0  0  0
  6  7  1  1  0  0  0
  6  8  1  0  0  0  0
  8  9  1  0  0  0  0
  8 10  1  1  0  0  0
  8 13  1  0  0  0  0
 10 11  1  0  0  0  0
 12 13  1  6  0  0  0
 12 14  1  0  0  0  0
 12 21  1  0  0  0  0
 14 15  1  6  0  0  0
 14 16  1  0  0  0  0
 16 17  1  1  0  0  0
 16 18  1  0  0  0  0
 18 19  1  6  0  0  0
 18 20  1  0  0  0  0
 20 21  1  0  0  0  0
 20 22  1  1  0  0  0
 22 23  1  0  0  0  0
M  END
>  <CHROM.1>
-168.63931958,61.01586332,-166.34261896,172.26000685,178.37260407,-4.72385719
-7.76766735,-3.60945636,1.08044089,0.13990851,-0.65742294

>  <Name>
ligand

>  <RI>
0

>  <Rbt.Current_Directory>
/home/itssahil/PROJECTS/Mol_Feturizer/New_Systems/rnas/4TS2

>  <Rbt.Executable>
rbdock ($Id: //depot/dev/client3/rdock/2013.1/src/exe/rbdock.cxx#4 $)

>  <Rbt.Library>
libRbt.so (2013.1, Build901 2013/11/27)

>  <Rbt.Parameter_File>
/export/apps/rDock/src/rDock_2013.1_src/data/scripts/dock_solv.prm

>  <Rbt.Receptor>
prm/pocket_docking_8.prm

>  <SCORE>
-10.2326

>  <SCORE.INTER>
-3.73236

>  <SCORE.INTER.CONST>
1

>  <SCORE.INTER.POLAR>
0

>  <SCORE.INTER.ROT>
5

>  <SCORE.INTER.SOLV>
8.77077

>  <SCORE.INTER.VDW>
-12.3452

>  <SCORE.INTER.norm>
-0.162277

>  <SCORE.INTRA>
-6.50019

>  <SCORE.INTRA.DIHEDRAL>
-10.6669

>  <SCORE.INTRA.DIHEDRAL.0>
12.4853

>  <SCORE.INTRA.POLAR>
0

>  <SCORE.INTRA.POLAR.0>
0

>  <SCORE.INTRA.REPUL>
0

>  <SCORE.INTRA.REPUL.0>
0

>  <SCORE.INTRA.SOLV>
0.599994

>  <SCORE.INTRA.SOLV.lig_0>
-31.1706

>  <SCORE.INTRA.VDW>
-1.46672

>  <SCORE.INTRA.VDW.0>
-1.16895

>  <SCORE.INTRA.norm>
-0.282617

>  <SCORE.RESTR>
0

>  <SCORE.RESTR.CAVITY>
0

>  <SCORE.RESTR.norm>
0

>  <SCORE.SYSTEM>
0

>  <SCORE.SYSTEM.CONST>
0

>  <SCORE.SYSTEM.DIHEDRAL>
0

>  <SCORE.SYSTEM.SOLV>
0

>  <SCORE.SYSTEM.norm>
0

>  <SCORE.heavy>
23

>  <SCORE.norm>
-0.444894

>  <RMSD>
6.362

$$$$
ligand
 OpenBabel11021811513D
libRbt.so/2013.1/901 2013/11/27
 23 24  0  0  0  0  0  0  0  0999 V2000
   -1.8766  -10.0062   -0.2857 C   0  0  0  0  0  0  0  0  0  0  0  0
   -0.4668   -9.7105   -0.2685 O   0  0  0  0  0  0  0  0  0  0  0  0
   -2.5976   -9.0366    0.6398 C   0  0  2  0  0  0  0  0  0  0  0  0
   -4.1055   -9.2137    0.7302 C   0  0  1  0  0  0  0  0  0  0  0  0
   -4.4034  -10.2994    1.6103 O   0  0  0  0  0  0  0  0  0  0  0  0
   -4.5505   -7.8522    1.2535 C   0  0  2  0  0  0  0  0  0  0  0  0
   -5.9072   -7.4451    1.0398 O   0  0  0  0  0  0  0  0  0  0  0  0
   -3.6064   -6.9213    0.5133 C   0  0  2  0  0  0  0  0  0  0  0  0
   -2.4123   -7.6798    0.2265 O   0  0  0  0  0  0  0  0  0  0  0  0
   -3.3302   -5.7125    1.4256 C   0  0  0  0  0  0  0  0  0  0  0  0
   -2.6515   -6.0834    2.6336 O   0  0  0  0  0  0  0  0  0  0  0  0
   -4.1201   -7.5832   -1.7507 C   0  0  2  0  0  0  0  0  0  0  0  0
   -4.2017   -6.5593   -0.7442 O   0  0  0  0  0  0  0  0  0  0  0  0
   -4.0529   -6.8905   -3.0990 C   0  0  2  0  0  0  0  0  0  0  0  0
   -3.0600   -5.8600   -3.0495 O   0  0  0  0  0  0  0  0  0  0  0  0
   -5.3809   -6.2461   -3.4305 C   0  0  1  0  0  0  0  0  0  0  0  0
   -5.3545   -5.8244   -4.7961 O   0  0  0  0  0  0  0  0  0  0  0  0
   -6.5198   -7.2225   -3.2061 C   0  0  2  0  0  0  0  0  0  0  0  0
   -7.7500   -6.5272   -3.3554 O   0  0  0  0  0  0  0  0  0  0  0  0
   -6.4713   -7.8464   -1.8178 C   0  0  2  0  0  0  0  0  0  0  0  0
   -5.2148   -8.4971   -1.6858 O   0  0  0  0  0  0  0  0  0  0  0  0
   -7.6161   -8.8446   -1.6076 C   0  0  0  0  0  0  0  0  0  0  0  0
   -8.9078   -8.2198   -1.5828 O   0  0  0  0  0  0  0  0  0  0  0  0
  1  2  1  0  0  0  0
  3  1  1  6  0  0  0
  3  9  1  0  0  0  0
  3  4  1  0  0  0  0
  4  5  1  1  0  0  0
  4  6  1  0  0  0  0
  6  7  1  6  0  0  0
  6  8  1  0  0  0  0
  8  9  1  0  0  0  0
  8 10  1  1  0  0  0
  8 13  1  0  0  0  0
 10 11  1  0  0  0  0
 12 13  1  1  0  0  0
 12 14  1  0  0  0  0
 12 21  1  0  0  0  0
 14 15  1  1  0  0  0
 14 16  1  0  0  0  0
 16 17  1  6  0  0  0
 16 18  1  0  0  0  0
 18 19  1  1  0  0  0
 18 20  1  0  0  0  0
 20 21  1  0  0  0  0
 20 22  1  6  0  0  0
 22 23  1  0  0  0  0
M  END
>  <CHROM.1>
179.76873052,63.66992879,-149.66582813,-77.11818891,-66.94900534,-4.54925474
-7.64931977,-0.89454390,-0.78604094,-0.16648096,-1.08531539

>  <Name>
ligand

>  <RI>
0

>  <Rbt.Current_Directory>
/home/itssahil/PROJECTS/Mol_Feturizer/New_Systems/rnas/4TS2

>  <Rbt.Executable>
rbdock ($Id: //depot/dev/client3/rdock/2013.1/src/exe/rbdock.cxx#4 $)

>  <Rbt.Library>
libRbt.so (2013.1, Build901 2013/11/27)

>  <Rbt.Parameter_File>
/export/apps/rDock/src/rDock_2013.1_src/data/scripts/dock_solv.prm

>  <Rbt.Receptor>
prm/pocket_docking_8.prm

>  <SCORE>
-4.56992

>  <SCORE.INTER>
-1.06139

>  <SCORE.INTER.CONST>
1

>  <SCORE.INTER.POLAR>
0

>  <SCORE.INTER.ROT>
5

>  <SCORE.INTER.SOLV>
7.17626

>  <SCORE.INTER.VDW>
-10.033

>  <SCORE.INTER.norm>
-0.0461473

>  <SCORE.INTRA>
-3.50853

>  <SCORE.INTRA.DIHEDRAL>
-6.97909

>  <SCORE.INTRA.DIHEDRAL.0>
12.4853

>  <SCORE.INTRA.POLAR>
0

>  <SCORE.INTRA.POLAR.0>
0

>  <SCORE.INTRA.REPUL>
0

>  <SCORE.INTRA.REPUL.0>
0

>  <SCORE.INTRA.SOLV>
0.854454

>  <SCORE.INTRA.SOLV.lig_0>
-31.1706

>  <SCORE.INTRA.VDW>
-0.446215

>  <SCORE.INTRA.VDW.0>
-1.16895

>  <SCORE.INTRA.norm>
-0.152545

>  <SCORE.RESTR>
0

>  <SCORE.RESTR.CAVITY>
0

>  <SCORE.RESTR.norm>
0

>  <SCORE.SYSTEM>
0

>  <SCORE.SYSTEM.CONST>
0

>  <SCORE.SYSTEM.DIHEDRAL>
0

>  <SCORE.SYSTEM.SOLV>
0

>  <SCORE.SYSTEM.norm>
0

>  <SCORE.heavy>
23

>  <SCORE.norm>
-0.198692

>  <RMSD>
6.372

$$$$
ligand
 OpenBabel11021811513D
libRbt.so/2013.1/901 2013/11/27
 23 24  0  0  0  0  0  0  0  0999 V2000
   -2.6815   -9.9977   -4.0093 C   0  0  0  0  0  0  0  0  0  0  0  0
   -2.4400  -10.0141   -2.5891 O   0  0  0  0  0  0  0  0  0  0  0  0
   -3.2427   -8.6382   -4.4009 C   0  0  2  0  0  0  0  0  0  0  0  0
   -2.3373   -7.4488   -4.1199 C   0  0  1  0  0  0  0  0  0  0  0  0
   -1.3478   -7.3532   -5.1466 O   0  0  0  0  0  0  0  0  0  0  0  0
   -3.3322   -6.2931   -4.1091 C   0  0  2  0  0  0  0  0  0  0  0  0
   -2.9722   -5.0844   -3.4297 O   0  0  0  0  0  0  0  0  0  0  0  0
   -4.5306   -6.9329   -3.4306 C   0  0  2  0  0  0  0  0  0  0  0  0
   -4.4556   -8.3490   -3.6999 O   0  0  0  0  0  0  0  0  0  0  0  0
   -5.7997   -6.2891   -4.0176 C   0  0  0  0  0  0  0  0  0  0  0  0
   -6.9989   -6.8027   -3.4210 O   0  0  0  0  0  0  0  0  0  0  0  0
   -3.2914   -7.4447   -1.4231 C   0  0  2  0  0  0  0  0  0  0  0  0
   -4.4093   -6.7557   -2.0091 O   0  0  0  0  0  0  0  0  0  0  0  0
   -3.7397   -7.9714   -0.0726 C   0  0  2  0  0  0  0  0  0  0  0  0
   -4.9930   -8.6472   -0.2236 O   0  0  0  0  0  0  0  0  0  0  0  0
   -3.9366   -6.8312    0.9021 C   0  0  1  0  0  0  0  0  0  0  0  0
   -4.1140   -7.3767    2.2115 O   0  0  0  0  0  0  0  0  0  0  0  0
   -2.7412   -5.8978    0.8815 C   0  0  2  0  0  0  0  0  0  0  0  0
   -3.0434   -4.7556    1.6711 O   0  0  0  0  0  0  0  0  0  0  0  0
   -2.3961   -5.4438   -0.5305 C   0  0  2  0  0  0  0  0  0  0  0  0
   -2.1404   -6.6089   -1.3030 O   0  0  0  0  0  0  0  0  0  0  0  0
   -1.1761   -4.5151   -0.5422 C   0  0  0  0  0  0  0  0  0  0  0  0
   -0.8053   -4.0925   -1.8626 O   0  0  0  0  0  0  0  0  0  0  0  0
  1  2  1  0  0  0  0
  3  1  1  1  0  0  0
  3  9  1  0  0  0  0
  3  4  1  0  0  0  0
  4  5  1  6  0  0  0
  4  6  1  0  0  0  0
  6  7  1  1  0  0  0
  6  8  1  0  0  0  0
  8  9  1  0  0  0  0
  8 10  1  6  0  0  0
  8 13  1  0  0  0  0
 10 11  1  0  0  0  0
 12 13  1  1  0  0  0
 12 14  1  0  0  0  0
 12 21  1  0  0  0  0
 14 15  1  6  0  0  0
 14 16  1  0  0  0  0
 16 17  1  1  0  0  0
 16 18  1  0  0  0  0
 18 19  1  1  0  0  0
 18 20  1  0  0  0  0
 20 21  1  0  0  0  0
 20 22  1  1  0  0  0
 22 23  1  0  0  0  0
M  END
>  <CHROM.1>
61.00507963,-178.68495179,-142.41143296,-65.21763928,178.67515708,-3.34815007
-6.93253272,-1.93218304,1.72526002,-0.76865521,-1.86031344

>  <Name>
ligand

>  <RI>
0

>  <Rbt.Current_Directory>
/home/itssahil/PROJECTS/Mol_Feturizer/New_Systems/rnas/4TS2

>  <Rbt.Executable>
rbdock ($Id: //depot/dev/client3/rdock/2013.1/src/exe/rbdock.cxx#4 $)

>  <Rbt.Library>
libRbt.so (2013.1, Build901 2013/11/27)

>  <Rbt.Parameter_File>
/export/apps/rDock/src/rDock_2013.1_src/data/scripts/dock_solv.prm

>  <Rbt.Receptor>
prm/pocket_docking_7.prm

>  <SCORE>
-4.71055

>  <SCORE.INTER>
-1.01227

>  <SCORE.INTER.CONST>
1

>  <SCORE.INTER.POLAR>
0

>  <SCORE.INTER.ROT>
5

>  <SCORE.INTER.SOLV>
7.77935

>  <SCORE.INTER.VDW>
-10.2013

>  <SCORE.INTER.norm>
-0.0440117

>  <SCORE.INTRA>
-3.69828

>  <SCORE.INTRA.DIHEDRAL>
-7.22751

>  <SCORE.INTRA.DIHEDRAL.0>
12.4853

>  <SCORE.INTRA.POLAR>
0

>  <SCORE.INTRA.POLAR.0>
0

>  <SCORE.INTRA.REPUL>
0

>  <SCORE.INTRA.REPUL.0>
0

>  <SCORE.INTRA.SOLV>
1.64709

>  <SCORE.INTRA.SOLV.lig_0>
-31.1706

>  <SCORE.INTRA.VDW>
-0.908066

>  <SCORE.INTRA.VDW.0>
-1.16895

>  <SCORE.INTRA.norm>
-0.160795

>  <SCORE.RESTR>
0

>  <SCORE.RESTR.CAVITY>
0

>  <SCORE.RESTR.norm>
0

>  <SCORE.SYSTEM>
0

>  <SCORE.SYSTEM.CONST>
0

>  <SCORE.SYSTEM.DIHEDRAL>
0

>  <SCORE.SYSTEM.SOLV>
0

>  <SCORE.SYSTEM.norm>
0

>  <SCORE.heavy>
23

>  <SCORE.norm>
-0.204806

>  <RMSD>
6.377

$$$$
ligand
 OpenBabel11021811513D
libRbt.so/2013.1/901 2013/11/27
 23 24  0  0  0  0  0  0  0  0999 V2000
   -5.9673   -7.6714    1.3060 C   0  0  0  0  0  0  0  0  0  0  0  0
   -6.6028   -8.9553    1.4578 O   0  0  0  0  0  0  0  0  0  0  0  0
   -4.5177   -7.8817    0.8924 C   0  0  2  0  0  0  0  0  0  0  0  0
   -3.6902   -6.6155    0.7334 C   0  0  1  0  0  0  0  0  0  0  0  0
   -3.2725   -6.1573    2.0209 O   0  0  0  0  0  0  0  0  0  0  0  0
   -2.5469   -7.0974   -0.1534 C   0  0  2  0  0  0  0  0  0  0  0  0
   -1.8121   -6.1293   -0.9117 O   0  0  0  0  0  0  0  0  0  0  0  0
   -3.2714   -8.0488   -1.0892 C   0  0  2  0  0  0  0  0  0  0  0  0
   -4.4230   -8.5425   -0.3727 O   0  0  0  0  0  0  0  0  0  0  0  0
   -2.2887   -9.1715   -1.4680 C   0  0  0  0  0  0  0  0  0  0  0  0
   -1.8601   -9.9300   -0.3284 O   0  0  0  0  0  0  0  0  0  0  0  0
   -4.4659   -8.1037   -3.1863 C   0  0  2  0  0  0  0  0  0  0  0  0
   -3.7524   -7.3084   -2.2238 O   0  0  0  0  0  0  0  0  0  0  0  0
   -4.5792   -7.2841   -4.4583 C   0  0  2  0  0  0  0  0  0  0  0  0
   -3.2928   -6.7496   -4.7896 O   0  0  0  0  0  0  0  0  0  0  0  0
   -5.5309   -6.1251   -4.2588 C   0  0  1  0  0  0  0  0  0  0  0  0
   -5.7996   -5.5320   -5.5314 O   0  0  0  0  0  0  0  0  0  0  0  0
   -6.8222   -6.5979   -3.6186 C   0  0  2  0  0  0  0  0  0  0  0  0
   -7.6078   -5.4609   -3.2878 O   0  0  0  0  0  0  0  0  0  0  0  0
   -6.5691   -7.4071   -2.3537 C   0  0  2  0  0  0  0  0  0  0  0  0
   -5.7485   -8.5113   -2.7104 O   0  0  0  0  0  0  0  0  0  0  0  0
   -7.8794   -7.8950   -1.7243 C   0  0  0  0  0  0  0  0  0  0  0  0
   -8.6144   -8.7848   -2.5773 O   0  0  0  0  0  0  0  0  0  0  0  0
  1  2  1  0  0  0  0
  3  1  1  6  0  0  0
  3  9  1  0  0  0  0
  3  4  1  0  0  0  0
  4  5  1  1  0  0  0
  4  6  1  0  0  0  0
  6  7  1  6  0  0  0
  6  8  1  0  0  0  0
  8  9  1  0  0  0  0
  8 10  1  6  0  0  0
  8 13  1  0  0  0  0
 10 11  1  0  0  0  0
 12 13  1  1  0  0  0
 12 14  1  0  0  0  0
 12 21  1  0  0  0  0
 14 15  1  1  0  0  0
 14 16  1  0  0  0  0
 16 17  1  6  0  0  0
 16 18  1  0  0  0  0
 18 19  1  1  0  0  0
 18 20  1  0  0  0  0
 20 21  1  0  0  0  0
 20 22  1  6  0  0  0
 22 23  1  0  0  0  0
M  END
>  <CHROM.1>
-178.09830313,61.76910975,-165.33626500,-179.74429742,62.65010026,-4.82977285
-7.48017109,-1.67891255,0.98317837,0.05289924,1.84408974

>  <Name>
ligand

>  <RI>
0

>  <Rbt.Current_Directory>
/home/itssahil/PROJECTS/Mol_Feturizer/New_Systems/rnas/4TS2

>  <Rbt.Executable>
rbdock ($Id: //depot/dev/client3/rdock/2013.1/src/exe/rbdock.cxx#4 $)

>  <Rbt.Library>
libRbt.so (2013.1, Build901 2013/11/27)

>  <Rbt.Parameter_File>
/export/apps/rDock/src/rDock_2013.1_src/data/scripts/dock_solv.prm

>  <Rbt.Receptor>
prm/pocket_docking_7.prm

>  <SCORE>
-11.0431

>  <SCORE.INTER>
-3.89251

>  <SCORE.INTER.CONST>
1

>  <SCORE.INTER.POLAR>
0

>  <SCORE.INTER.ROT>
5

>  <SCORE.INTER.SOLV>
8.55936

>  <SCORE.INTER.VDW>
-12.3815

>  <SCORE.INTER.norm>
-0.16924

>  <SCORE.INTRA>
-7.1506

>  <SCORE.INTRA.DIHEDRAL>
-11.3521

>  <SCORE.INTRA.DIHEDRAL.0>
12.4853

>  <SCORE.INTRA.POLAR>
0

>  <SCORE.INTRA.POLAR.0>
0

>  <SCORE.INTRA.REPUL>
0

>  <SCORE.INTRA.REPUL.0>
0

>  <SCORE.INTRA.SOLV>
0.185985

>  <SCORE.INTRA.SOLV.lig_0>
-31.1706

>  <SCORE.INTRA.VDW>
-1.56753

>  <SCORE.INTRA.VDW.0>
-1.16895

>  <SCORE.INTRA.norm>
-0.310896

>  <SCORE.RESTR>
0

>  <SCORE.RESTR.CAVITY>
0

>  <SCORE.RESTR.norm>
0

>  <SCORE.SYSTEM>
0

>  <SCORE.SYSTEM.CONST>
0

>  <SCORE.SYSTEM.DIHEDRAL>
0

>  <SCORE.SYSTEM.SOLV>
0

>  <SCORE.SYSTEM.norm>
0

>  <SCORE.heavy>
23

>  <SCORE.norm>
-0.480135

>  <RMSD>
6.383

$$$$
ligand
 OpenBabel11021811513D
libRbt.so/2013.1/901 2013/11/27
 23 24  0  0  0  0  0  0  0  0999 V2000
   -2.6593   -9.1443    0.1022 C   0  0  0  0  0  0  0  0  0  0  0  0
   -2.1345   -8.9982    1.4359 O   0  0  0  0  0  0  0  0  0  0  0  0
   -2.3004   -7.9079   -0.7097 C   0  0  2  0  0  0  0  0  0  0  0  0
   -2.8687   -6.5953   -0.1923 C   0  0  1  0  0  0  0  0  0  0  0  0
   -2.0704   -6.1301    0.8979 O   0  0  0  0  0  0  0  0  0  0  0  0
   -2.7974   -5.7119   -1.4333 C   0  0  2  0  0  0  0  0  0  0  0  0
   -3.6494   -4.5627   -1.5071 O   0  0  0  0  0  0  0  0  0  0  0  0
   -3.1617   -6.6994   -2.5279 C   0  0  2  0  0  0  0  0  0  0  0  0
   -2.7748   -8.0073   -2.0554 O   0  0  0  0  0  0  0  0  0  0  0  0
   -2.4032   -6.2864   -3.8022 C   0  0  0  0  0  0  0  0  0  0  0  0
   -2.5308   -7.2553   -4.8522 O   0  0  0  0  0  0  0  0  0  0  0  0
   -5.0615   -7.6022   -3.7126 C   0  0  2  0  0  0  0  0  0  0  0  0
   -4.5898   -6.7039   -2.6934 O   0  0  0  0  0  0  0  0  0  0  0  0
   -6.5445   -7.3402   -3.8979 C   0  0  2  0  0  0  0  0  0  0  0  0
   -6.7598   -5.9313   -4.0352 O   0  0  0  0  0  0  0  0  0  0  0  0
   -7.3219   -7.8176   -2.6910 C   0  0  1  0  0  0  0  0  0  0  0  0
   -8.7163   -7.7821   -3.0039 O   0  0  0  0  0  0  0  0  0  0  0  0
   -6.9065   -9.2259   -2.3104 C   0  0  2  0  0  0  0  0  0  0  0  0
   -7.5252   -9.5639   -1.0765 O   0  0  0  0  0  0  0  0  0  0  0  0
   -5.3969   -9.3536   -2.1563 C   0  0  2  0  0  0  0  0  0  0  0  0
   -4.8077   -8.9696   -3.3913 O   0  0  0  0  0  0  0  0  0  0  0  0
   -4.9863  -10.7845   -1.7889 C   0  0  0  0  0  0  0  0  0  0  0  0
   -5.4591  -11.1894   -0.4958 O   0  0  0  0  0  0  0  0  0  0  0  0
  1  2  1  0  0  0  0
  3  1  1  1  0  0  0
  3  9  1  0  0  0  0
  3  4  1  0  0  0  0
  4  5  1  1  0  0  0
  4  6  1  0  0  0  0
  6  7  1  1  0  0  0
  6  8  1  0  0  0  0
  8  9  1  0  0  0  0
  8 10  1  6  0  0  0
  8 13  1  0  0  0  0
 10 11  1  0  0  0  0
 12 13  1  1  0  0  0
 12 14  1  0  0  0  0
 12 21  1  0  0  0  0
 14 15  1  1  0  0  0
 14 16  1  0  0  0  0
 16 17  1  6  0  0  0
 16 18  1  0  0  0  0
 18 19  1  1  0  0  0
 18 20  1  0  0  0  0
 20 21  1  0  0  0  0
 20 22  1  6  0  0  0
 22 23  1  0  0  0  0
M  END
>  <CHROM.1>
-61.51564965,172.06940053,-171.90366019,179.76827726,-65.44999983,-4.50429546
-7.81186258,-1.98195338,0.08671414,0.50753305,2.41873765

>  <Name>
ligand

>  <RI>
0

>  <Rbt.Current_Directory>
/home/itssahil/PROJECTS/Mol_Feturizer/New_Systems/rnas/4TS2

>  <Rbt.Executable>
rbdock ($Id: //depot/dev/client3/rdock/2013.1/src/exe/rbdock.cxx#4 $)

>  <Rbt.Library>
libRbt.so (2013.1, Build901 2013/11/27)

>  <Rbt.Parameter_File>
/export/apps/rDock/src/rDock_2013.1_src/data/scripts/dock_solv.prm

>  <Rbt.Receptor>
prm/pocket_docking_7.prm

>  <SCORE>
-7.2173

>  <SCORE.INTER>
-0.448971

>  <SCORE.INTER.CONST>
1

>  <SCORE.INTER.POLAR>
0

>  <SCORE.INTER.ROT>
5

>  <SCORE.INTER.SOLV>
6.61069

>  <SCORE.INTER.VDW>
-9.43621

>  <SCORE.INTER.norm>
-0.0195205

>  <SCORE.INTRA>
-6.76833

>  <SCORE.INTRA.DIHEDRAL>
-11.8158

>  <SCORE.INTRA.DIHEDRAL.0>
12.4853

>  <SCORE.INTRA.POLAR>
0

>  <SCORE.INTRA.POLAR.0>
0

>  <SCORE.INTRA.REPUL>
0

>  <SCORE.INTRA.REPUL.0>
0

>  <SCORE.INTRA.SOLV>
0.702429

>  <SCORE.INTRA.SOLV.lig_0>
-31.1706

>  <SCORE.INTRA.VDW>
-1.21162

>  <SCORE.INTRA.VDW.0>
-1.16895

>  <SCORE.INTRA.norm>
-0.294275

>  <SCORE.RESTR>
0

>  <SCORE.RESTR.CAVITY>
0

>  <SCORE.RESTR.norm>
0

>  <SCORE.SYSTEM>
0

>  <SCORE.SYSTEM.CONST>
0

>  <SCORE.SYSTEM.DIHEDRAL>
0

>  <SCORE.SYSTEM.SOLV>
0

>  <SCORE.SYSTEM.norm>
0

>  <SCORE.heavy>
23

>  <SCORE.norm>
-0.313796

>  <RMSD>
6.391

$$$$
ligand
 OpenBabel11021811513D
libRbt.so/2013.1/901 2013/11/27
 23 24  0  0  0  0  0  0  0  0999 V2000
   -3.3462   -8.0541   -5.2307 C   0  0  0  0  0  0  0  0  0  0  0  0
   -2.8825   -8.8290   -6.3532 O   0  0  0  0  0  0  0  0  0  0  0  0
   -2.7408   -8.6198   -3.9540 C   0  0  2  0  0  0  0  0  0  0  0  0
   -3.1464  -10.0450   -3.6108 C   0  0  1  0  0  0  0  0  0  0  0  0
   -2.3795  -10.9587   -4.3977 O   0  0  0  0  0  0  0  0  0  0  0  0
   -2.8420  -10.1067   -2.1178 C   0  0  2  0  0  0  0  0  0  0  0  0
   -3.5032  -11.0985   -1.3233 O   0  0  0  0  0  0  0  0  0  0  0  0
   -3.2592   -8.7178   -1.6672 C   0  0  2  0  0  0  0  0  0  0  0  0
   -3.1128   -7.8472   -2.8091 O   0  0  0  0  0  0  0  0  0  0  0  0
   -2.3455   -8.3113   -0.4968 C   0  0  0  0  0  0  0  0  0  0  0  0
   -2.5093   -6.9347   -0.1285 O   0  0  0  0  0  0  0  0  0  0  0  0
   -5.1741   -7.4728   -0.8858 C   0  0  2  0  0  0  0  0  0  0  0  0
   -4.6534   -8.7420   -1.3172 O   0  0  0  0  0  0  0  0  0  0  0  0
   -6.4444   -7.7458   -0.1021 C   0  0  2  0  0  0  0  0  0  0  0  0
   -6.1916   -8.7759    0.8598 O   0  0  0  0  0  0  0  0  0  0  0  0
   -7.5434   -8.2256   -1.0245 C   0  0  1  0  0  0  0  0  0  0  0  0
   -8.7756   -8.2331   -0.2999 O   0  0  0  0  0  0  0  0  0  0  0  0
   -7.6552   -7.3223   -2.2379 C   0  0  2  0  0  0  0  0  0  0  0  0
   -8.5688   -7.9066   -3.1562 O   0  0  0  0  0  0  0  0  0  0  0  0
   -6.3135   -7.1303   -2.9319 C   0  0  2  0  0  0  0  0  0  0  0  0
   -5.4133   -6.5844   -1.9772 O   0  0  0  0  0  0  0  0  0  0  0  0
   -6.4341   -6.2019   -4.1462 C   0  0  0  0  0  0  0  0  0  0  0  0
   -5.1629   -5.8499   -4.7119 O   0  0  0  0  0  0  0  0  0  0  0  0
  1  2  1  0  0  0  0
  3  1  1  6  0  0  0
  3  9  1  0  0  0  0
  3  4  1  0  0  0  0
  4  5  1  6  0  0  0
  4  6  1  0  0  0  0
  6  7  1  1  0  0  0
  6  8  1  0  0  0  0
  8  9  1  0  0  0  0
  8 10  1  1  0  0  0
  8 13  1  0  0  0  0
 10 11  1  0  0  0  0
 12 13  1  6  0  0  0
 12 14  1  0  0  0  0
 12 21  1  0  0  0  0
 14 15  1  1  0  0  0
 14 16  1  0  0  0  0
 16 17  1  1  0  0  0
 16 18  1  0  0  0  0
 18 19  1  6  0  0  0
 18 20  1  0  0  0  0
 20 21  1  0  0  0  0
 20 22  1  6  0  0  0
 22 23  1  0  0  0  0
M  END
>  <CHROM.1>
-63.32986103,170.78669297,-160.00725746,-179.34594990,171.82449796,-4.80084440
-8.24958698,-2.35730847,0.42336185,0.43410844,-1.33497108

>  <Name>
ligand

>  <RI>
0

>  <Rbt.Current_Directory>
/home/itssahil/PROJECTS/Mol_Feturizer/New_Systems/rnas/4TS2

>  <Rbt.Executable>
rbdock ($Id: //depot/dev/client3/rdock/2013.1/src/exe/rbdock.cxx#4 $)

>  <Rbt.Library>
libRbt.so (2013.1, Build901 2013/11/27)

>  <Rbt.Parameter_File>
/export/apps/rDock/src/rDock_2013.1_src/data/scripts/dock_solv.prm

>  <Rbt.Receptor>
prm/pocket_docking_7.prm

>  <SCORE>
-7.88456

>  <SCORE.INTER>
-1.7808

>  <SCORE.INTER.CONST>
1

>  <SCORE.INTER.POLAR>
0

>  <SCORE.INTER.ROT>
5

>  <SCORE.INTER.SOLV>
7.77118

>  <SCORE.INTER.VDW>
-10.7109

>  <SCORE.INTER.norm>
-0.0774259

>  <SCORE.INTRA>
-6.10377

>  <SCORE.INTRA.DIHEDRAL>
-10.1298

>  <SCORE.INTRA.DIHEDRAL.0>
12.4853

>  <SCORE.INTRA.POLAR>
0

>  <SCORE.INTRA.POLAR.0>
0

>  <SCORE.INTRA.REPUL>
0

>  <SCORE.INTRA.REPUL.0>
0

>  <SCORE.INTRA.SOLV>
0.652921

>  <SCORE.INTRA.SOLV.lig_0>
-31.1706

>  <SCORE.INTRA.VDW>
-1.36531

>  <SCORE.INTRA.VDW.0>
-1.16895

>  <SCORE.INTRA.norm>
-0.265381

>  <SCORE.RESTR>
0

>  <SCORE.RESTR.CAVITY>
0

>  <SCORE.RESTR.norm>
0

>  <SCORE.SYSTEM>
0

>  <SCORE.SYSTEM.CONST>
0

>  <SCORE.SYSTEM.DIHEDRAL>
0

>  <SCORE.SYSTEM.SOLV>
0

>  <SCORE.SYSTEM.norm>
0

>  <SCORE.heavy>
23

>  <SCORE.norm>
-0.342807

>  <RMSD>
6.393

$$$$
ligand
 OpenBabel11021811513D
libRbt.so/2013.1/901 2013/11/27
 23 24  0  0  0  0  0  0  0  0999 V2000
   -3.6161   -6.6724   -5.3675 C   0  0  0  0  0  0  0  0  0  0  0  0
   -4.0169   -5.9723   -6.5611 O   0  0  0  0  0  0  0  0  0  0  0  0
   -4.8598   -7.1544   -4.6346 C   0  0  2  0  0  0  0  0  0  0  0  0
   -5.8100   -6.0630   -4.1662 C   0  0  1  0  0  0  0  0  0  0  0  0
   -6.6094   -5.6258   -5.2672 O   0  0  0  0  0  0  0  0  0  0  0  0
   -6.5979   -6.7801   -3.0751 C   0  0  2  0  0  0  0  0  0  0  0  0
   -7.2595   -5.9935   -2.0772 O   0  0  0  0  0  0  0  0  0  0  0  0
   -5.5170   -7.6315   -2.4326 C   0  0  2  0  0  0  0  0  0  0  0  0
   -4.5227   -7.8801   -3.4489 O   0  0  0  0  0  0  0  0  0  0  0  0
   -6.1792   -8.9265   -1.9286 C   0  0  0  0  0  0  0  0  0  0  0  0
   -5.2237   -9.8642   -1.4136 O   0  0  0  0  0  0  0  0  0  0  0  0
   -3.6915   -7.4736   -0.8610 C   0  0  2  0  0  0  0  0  0  0  0  0
   -4.8869   -6.8719   -1.3873 O   0  0  0  0  0  0  0  0  0  0  0  0
   -3.3759   -6.7830    0.4527 C   0  0  2  0  0  0  0  0  0  0  0  0
   -4.5609   -6.7338    1.2549 O   0  0  0  0  0  0  0  0  0  0  0  0
   -2.9166   -5.3624    0.2077 C   0  0  1  0  0  0  0  0  0  0  0  0
   -2.3986   -4.8337    1.4307 O   0  0  0  0  0  0  0  0  0  0  0  0
   -1.8519   -5.3235   -0.8720 C   0  0  2  0  0  0  0  0  0  0  0  0
   -1.5810   -3.9661   -1.1937 O   0  0  0  0  0  0  0  0  0  0  0  0
   -2.2932   -6.0509   -2.1349 C   0  0  2  0  0  0  0  0  0  0  0  0
   -2.5956   -7.3913   -1.7720 O   0  0  0  0  0  0  0  0  0  0  0  0
   -1.2035   -6.0209   -3.2132 C   0  0  0  0  0  0  0  0  0  0  0  0
    0.0200   -6.6415   -2.7919 O   0  0  0  0  0  0  0  0  0  0  0  0
  1  2  1  0  0  0  0
  3  1  1  1  0  0  0
  3  9  1  0  0  0  0
  3  4  1  0  0  0  0
  4  5  1  6  0  0  0
  4  6  1  0  0  0  0
  6  7  1  1  0  0  0
  6  8  1  0  0  0  0
  8  9  1  0  0  0  0
  8 10  1  1  0  0  0
  8 13  1  0  0  0  0
 10 11  1  0  0  0  0
 12 13  1  6  0  0  0
 12 14  1  0  0  0  0
 12 21  1  0  0  0  0
 14 15  1  1  0  0  0
 14 16  1  0  0  0  0
 16 17  1  1  0  0  0
 16 18  1  0  0  0  0
 18 19  1  6  0  0  0
 18 20  1  0  0  0  0
 20 21  1  0  0  0  0
 20 22  1  6  0  0  0
 22 23  1  0  0  0  0
M  END
>  <CHROM.1>
-61.43153220,174.49422351,-164.44503293,-169.44019130,60.01046357,-3.97152884
-6.60345202,-2.22782547,-2.30433638,0.39741608,1.64755199

>  <Name>
ligand

>  <RI>
0

>  <Rbt.Current_Directory>
/home/itssahil/PROJECTS/Mol_Feturizer/New_Systems/rnas/4TS2

>  <Rbt.Executable>
rbdock ($Id: //depot/dev/client3/rdock/2013.1/src/exe/rbdock.cxx#4 $)

>  <Rbt.Library>
libRbt.so (2013.1, Build901 2013/11/27)

>  <Rbt.Parameter_File>
/export/apps/rDock/src/rDock_2013.1_src/data/scripts/dock_solv.prm

>  <Rbt.Receptor>
prm/pocket_docking_6.prm

>  <SCORE>
-9.67016

>  <SCORE.INTER>
-3.02829

>  <SCORE.INTER.CONST>
1

>  <SCORE.INTER.POLAR>
0

>  <SCORE.INTER.ROT>
5

>  <SCORE.INTER.SOLV>
9.26514

>  <SCORE.INTER.VDW>
-12.0406

>  <SCORE.INTER.norm>
-0.131665

>  <SCORE.INTRA>
-6.64187

>  <SCORE.INTRA.DIHEDRAL>
-10.8312

>  <SCORE.INTRA.DIHEDRAL.0>
12.4853

>  <SCORE.INTRA.POLAR>
0

>  <SCORE.INTRA.POLAR.0>
0

>  <SCORE.INTRA.REPUL>
0

>  <SCORE.INTRA.REPUL.0>
0

>  <SCORE.INTRA.SOLV>
0.553479

>  <SCORE.INTRA.SOLV.lig_0>
-31.1706

>  <SCORE.INTRA.VDW>
-1.50302

>  <SCORE.INTRA.VDW.0>
-1.16895

>  <SCORE.INTRA.norm>
-0.288777

>  <SCORE.RESTR>
0

>  <SCORE.RESTR.CAVITY>
0

>  <SCORE.RESTR.norm>
0

>  <SCORE.SYSTEM>
0

>  <SCORE.SYSTEM.CONST>
0

>  <SCORE.SYSTEM.DIHEDRAL>
0

>  <SCORE.SYSTEM.SOLV>
0

>  <SCORE.SYSTEM.norm>
0

>  <SCORE.heavy>
23

>  <SCORE.norm>
-0.420442

>  <RMSD>
6.459

$$$$
ligand
 OpenBabel11021811513D
libRbt.so/2013.1/901 2013/11/27
 23 24  0  0  0  0  0  0  0  0999 V2000
   -3.6469   -6.7508   -5.6810 C   0  0  0  0  0  0  0  0  0  0  0  0
   -2.9963   -7.9799   -6.0571 O   0  0  0  0  0  0  0  0  0  0  0  0
   -4.9583   -7.0782   -4.9814 C   0  0  2  0  0  0  0  0  0  0  0  0
   -5.7797   -5.8795   -4.5323 C   0  0  1  0  0  0  0  0  0  0  0  0
   -6.4917   -5.3467   -5.6510 O   0  0  0  0  0  0  0  0  0  0  0  0
   -6.6765   -6.4962   -3.4642 C   0  0  2  0  0  0  0  0  0  0  0  0
   -7.2622   -5.6359   -2.4798 O   0  0  0  0  0  0  0  0  0  0  0  0
   -5.7242   -7.4740   -2.7986 C   0  0  2  0  0  0  0  0  0  0  0  0
   -4.7423   -7.8410   -3.7908 O   0  0  0  0  0  0  0  0  0  0  0  0
   -6.5521   -8.6790   -2.3167 C   0  0  0  0  0  0  0  0  0  0  0  0
   -7.2754   -9.3071   -3.3843 O   0  0  0  0  0  0  0  0  0  0  0  0
   -3.8700   -7.4938   -1.2529 C   0  0  2  0  0  0  0  0  0  0  0  0
   -5.0328   -6.7982   -1.7346 O   0  0  0  0  0  0  0  0  0  0  0  0
   -3.5518   -6.9461    0.1259 C   0  0  2  0  0  0  0  0  0  0  0  0
   -4.7479   -6.9286    0.9128 O   0  0  0  0  0  0  0  0  0  0  0  0
   -3.0356   -5.5274    0.0264 C   0  0  1  0  0  0  0  0  0  0  0  0
   -2.5196   -5.1398    1.3019 O   0  0  0  0  0  0  0  0  0  0  0  0
   -1.9516   -5.4258   -1.0297 C   0  0  2  0  0  0  0  0  0  0  0  0
   -1.6246   -4.0553   -1.2142 O   0  0  0  0  0  0  0  0  0  0  0  0
   -2.3975   -6.0102   -2.3633 C   0  0  2  0  0  0  0  0  0  0  0  0
   -2.7561   -7.3666   -2.1364 O   0  0  0  0  0  0  0  0  0  0  0  0
   -1.2889   -5.9185   -3.4185 C   0  0  0  0  0  0  0  0  0  0  0  0
   -0.1101   -6.6541   -3.0591 O   0  0  0  0  0  0  0  0  0  0  0  0
  1  2  1  0  0  0  0
  3  1  1  1  0  0  0
  3  9  1  0  0  0  0
  3  4  1  0  0  0  0
  4  5  1  6  0  0  0
  4  6  1  0  0  0  0
  6  7  1  1  0  0  0
  6  8  1  0  0  0  0
  8  9  1  0  0  0  0
  8 10  1  1  0  0  0
  8 13  1  0  0  0  0
 10 11  1  0  0  0  0
 12 13  1  6  0  0  0
 12 14  1  0  0  0  0
 12 21  1  0  0  0  0
 14 15  1  1  0  0  0
 14 16  1  0  0  0  0
 16 17  1  1  0  0  0
 16 18  1  0  0  0  0
 18 19  1  6  0  0  0
 18 20  1  0  0  0  0
 20 21  1  0  0  0  0
 20 22  1  6  0  0  0
 22 23  1  0  0  0  0
M  END
>  <CHROM.1>
-179.32159342,57.25970166,-160.48191695,-164.76131189,61.60239178,-4.12369107
-6.64240019,-2.56666422,-2.36211153,0.26450152,1.44414334

>  <Name>
ligand

>  <RI>
0

>  <Rbt.Current_Directory>
/home/itssahil/PROJECTS/Mol_Feturizer/New_Systems/rnas/4TS2

>  <Rbt.Executable>
rbdock ($Id: //depot/dev/client3/rdock/2013.1/src/exe/rbdock.cxx#4 $)

>  <Rbt.Library>
libRbt.so (2013.1, Build901 2013/11/27)

>  <Rbt.Parameter_File>
/export/apps/rDock/src/rDock_2013.1_src/data/scripts/dock_solv.prm

>  <Rbt.Receptor>
prm/pocket_docking_7.prm

>  <SCORE>
-10.4142

>  <SCORE.INTER>
-4.04895

>  <SCORE.INTER.CONST>
1

>  <SCORE.INTER.POLAR>
0

>  <SCORE.INTER.ROT>
5

>  <SCORE.INTER.SOLV>
11.2114

>  <SCORE.INTER.VDW>
-13.3698

>  <SCORE.INTER.norm>
-0.176041

>  <SCORE.INTRA>
-6.36525

>  <SCORE.INTRA.DIHEDRAL>
-9.80748

>  <SCORE.INTRA.DIHEDRAL.0>
12.4853

>  <SCORE.INTRA.POLAR>
0

>  <SCORE.INTRA.POLAR.0>
0

>  <SCORE.INTRA.REPUL>
0

>  <SCORE.INTRA.REPUL.0>
0

>  <SCORE.INTRA.SOLV>
0.309328

>  <SCORE.INTRA.SOLV.lig_0>
-31.1706

>  <SCORE.INTRA.VDW>
-1.61618

>  <SCORE.INTRA.VDW.0>
-1.16895

>  <SCORE.INTRA.norm>
-0.27675

>  <SCORE.RESTR>
0

>  <SCORE.RESTR.CAVITY>
0

>  <SCORE.RESTR.norm>
0

>  <SCORE.SYSTEM>
0

>  <SCORE.SYSTEM.CONST>
0

>  <SCORE.SYSTEM.DIHEDRAL>
0

>  <SCORE.SYSTEM.SOLV>
0

>  <SCORE.SYSTEM.norm>
0

>  <SCORE.heavy>
23

>  <SCORE.norm>
-0.452792

>  <RMSD>
6.494

$$$$
ligand
 OpenBabel11021811513D
libRbt.so/2013.1/901 2013/11/27
 23 24  0  0  0  0  0  0  0  0999 V2000
   -2.9785  -11.5141   -5.0782 C   0  0  0  0  0  0  0  0  0  0  0  0
   -1.9232  -11.4077   -4.1032 O   0  0  0  0  0  0  0  0  0  0  0  0
   -3.9345  -12.6200   -4.6550 C   0  0  2  0  0  0  0  0  0  0  0  0
   -5.1053  -12.8702   -5.5931 C   0  0  1  0  0  0  0  0  0  0  0  0
   -4.6642  -13.6551   -6.7029 O   0  0  0  0  0  0  0  0  0  0  0  0
   -6.0915  -13.5894   -4.6790 C   0  0  2  0  0  0  0  0  0  0  0  0
   -7.4804  -13.5857   -5.0301 O   0  0  0  0  0  0  0  0  0  0  0  0
   -5.8850  -12.8483   -3.3698 C   0  0  2  0  0  0  0  0  0  0  0  0
   -4.5346  -12.3390   -3.3873 O   0  0  0  0  0  0  0  0  0  0  0  0
   -6.1217  -13.8482   -2.2236 C   0  0  0  0  0  0  0  0  0  0  0  0
   -5.1612  -14.9136   -2.2208 O   0  0  0  0  0  0  0  0  0  0  0  0
   -6.7532  -10.9973   -2.0861 C   0  0  2  0  0  0  0  0  0  0  0  0
   -6.7732  -11.7185   -3.3302 O   0  0  0  0  0  0  0  0  0  0  0  0
   -7.8660   -9.9672   -2.1404 C   0  0  2  0  0  0  0  0  0  0  0  0
   -9.0733  -10.6014   -2.5766 O   0  0  0  0  0  0  0  0  0  0  0  0
   -7.5276   -8.8733   -3.1293 C   0  0  1  0  0  0  0  0  0  0  0  0
   -8.4692   -7.8093   -2.9716 O   0  0  0  0  0  0  0  0  0  0  0  0
   -6.1177   -8.3629   -2.9003 C   0  0  2  0  0  0  0  0  0  0  0  0
   -5.7806   -7.4717   -3.9545 O   0  0  0  0  0  0  0  0  0  0  0  0
   -5.0995   -9.4948   -2.8669 C   0  0  2  0  0  0  0  0  0  0  0  0
   -5.4877  -10.3878   -1.8318 O   0  0  0  0  0  0  0  0  0  0  0  0
   -3.6806   -8.9700   -2.6174 C   0  0  0  0  0  0  0  0  0  0  0  0
   -3.5521   -8.2709   -1.3707 O   0  0  0  0  0  0  0  0  0  0  0  0
  1  2  1  0  0  0  0
  3  1  1  6  0  0  0
  3  9  1  0  0  0  0
  3  4  1  0  0  0  0
  4  5  1  6  0  0  0
  4  6  1  0  0  0  0
  6  7  1  6  0  0  0
  6  8  1  0  0  0  0
  8  9  1  0  0  0  0
  8 10  1  1  0  0  0
  8 13  1  0  0  0  0
 10 11  1  0  0  0  0
 12 13  1  6  0  0  0
 12 14  1  0  0  0  0
 12 21  1  0  0  0  0
 14 15  1  6  0  0  0
 14 16  1  0  0  0  0
 16 17  1  1  0  0  0
 16 18  1  0  0  0  0
 18 19  1  6  0  0  0
 18 20  1  0  0  0  0
 20 21  1  0  0  0  0
 20 22  1  1  0  0  0
 22 23  1  0  0  0  0
M  END
>  <CHROM.1>
-179.41199383,64.03974941,-172.48536290,175.00831151,60.06398028,-5.64772445
-11.13018450,-3.42405438,-1.26341450,0.18084515,0.31159584

>  <Name>
ligand

>  <RI>
0

>  <Rbt.Current_Directory>
/home/itssahil/PROJECTS/Mol_Feturizer/New_Systems/rnas/4TS2

>  <Rbt.Executable>
rbdock ($Id: //depot/dev/client3/rdock/2013.1/src/exe/rbdock.cxx#4 $)

>  <Rbt.Library>
libRbt.so (2013.1, Build901 2013/11/27)

>  <Rbt.Parameter_File>
/export/apps/rDock/src/rDock_2013.1_src/data/scripts/dock_solv.prm

>  <Rbt.Receptor>
prm/pocket_docking_7.prm

>  <SCORE>
-9.26911

>  <SCORE.INTER>
-2.08018

>  <SCORE.INTER.CONST>
1

>  <SCORE.INTER.POLAR>
0

>  <SCORE.INTER.ROT>
5

>  <SCORE.INTER.SOLV>
6.39559

>  <SCORE.INTER.VDW>
-10.452

>  <SCORE.INTER.norm>
-0.0904426

>  <SCORE.INTRA>
-7.18893

>  <SCORE.INTRA.DIHEDRAL>
-11.8612

>  <SCORE.INTRA.DIHEDRAL.0>
12.4853

>  <SCORE.INTRA.POLAR>
0

>  <SCORE.INTRA.POLAR.0>
0

>  <SCORE.INTRA.REPUL>
0

>  <SCORE.INTRA.REPUL.0>
0

>  <SCORE.INTRA.SOLV>
0.283502

>  <SCORE.INTRA.SOLV.lig_0>
-31.1706

>  <SCORE.INTRA.VDW>
-1.40009

>  <SCORE.INTRA.VDW.0>
-1.16895

>  <SCORE.INTRA.norm>
-0.312562

>  <SCORE.RESTR>
0

>  <SCORE.RESTR.CAVITY>
0

>  <SCORE.RESTR.norm>
0

>  <SCORE.SYSTEM>
0

>  <SCORE.SYSTEM.CONST>
0

>  <SCORE.SYSTEM.DIHEDRAL>
0

>  <SCORE.SYSTEM.SOLV>
0

>  <SCORE.SYSTEM.norm>
0

>  <SCORE.heavy>
23

>  <SCORE.norm>
-0.403005

>  <RMSD>
6.540

$$$$
ligand
 OpenBabel11021811513D
libRbt.so/2013.1/901 2013/11/27
 23 24  0  0  0  0  0  0  0  0999 V2000
   -5.8857   -5.7887   -6.1857 C   0  0  0  0  0  0  0  0  0  0  0  0
   -6.5081   -4.5825   -5.7030 O   0  0  0  0  0  0  0  0  0  0  0  0
   -4.4284   -5.8040   -5.7470 C   0  0  2  0  0  0  0  0  0  0  0  0
   -3.5823   -6.9309   -6.3195 C   0  0  1  0  0  0  0  0  0  0  0  0
   -3.1931   -6.6005   -7.6542 O   0  0  0  0  0  0  0  0  0  0  0  0
   -2.4220   -6.9851   -5.3314 C   0  0  2  0  0  0  0  0  0  0  0  0
   -1.6565   -8.1923   -5.2378 O   0  0  0  0  0  0  0  0  0  0  0  0
   -3.1328   -6.7178   -4.0164 C   0  0  2  0  0  0  0  0  0  0  0  0
   -4.3084   -5.9404   -4.3281 O   0  0  0  0  0  0  0  0  0  0  0  0
   -2.1536   -5.9616   -3.1004 C   0  0  0  0  0  0  0  0  0  0  0  0
   -0.9971   -6.7443   -2.7724 O   0  0  0  0  0  0  0  0  0  0  0  0
   -4.1168   -7.8683   -2.1361 C   0  0  2  0  0  0  0  0  0  0  0  0
   -3.5754   -7.9693   -3.4645 O   0  0  0  0  0  0  0  0  0  0  0  0
   -4.2413   -9.2777   -1.5879 C   0  0  2  0  0  0  0  0  0  0  0  0
   -3.0106   -9.9769   -1.8040 O   0  0  0  0  0  0  0  0  0  0  0  0
   -5.3400  -10.0303   -2.3057 C   0  0  1  0  0  0  0  0  0  0  0  0
   -5.5904  -11.2502   -1.6037 O   0  0  0  0  0  0  0  0  0  0  0  0
   -6.6047   -9.1955   -2.3719 C   0  0  2  0  0  0  0  0  0  0  0  0
   -7.5454   -9.8615   -3.2030 O   0  0  0  0  0  0  0  0  0  0  0  0
   -6.3426   -7.8066   -2.9386 C   0  0  2  0  0  0  0  0  0  0  0  0
   -5.3695   -7.1843   -2.1106 O   0  0  0  0  0  0  0  0  0  0  0  0
   -7.6235   -6.9651   -2.9848 C   0  0  0  0  0  0  0  0  0  0  0  0
   -7.3913   -5.6122   -3.4037 O   0  0  0  0  0  0  0  0  0  0  0  0
  1  2  1  0  0  0  0
  3  1  1  1  0  0  0
  3  9  1  0  0  0  0
  3  4  1  0  0  0  0
  4  5  1  6  0  0  0
  4  6  1  0  0  0  0
  6  7  1  1  0  0  0
  6  8  1  0  0  0  0
  8  9  1  0  0  0  0
  8 10  1  1  0  0  0
  8 13  1  0  0  0  0
 10 11  1  0  0  0  0
 12 13  1  6  0  0  0
 12 14  1  0  0  0  0
 12 21  1  0  0  0  0
 14 15  1  6  0  0  0
 14 16  1  0  0  0  0
 16 17  1  1  0  0  0
 16 18  1  0  0  0  0
 18 19  1  6  0  0  0
 18 20  1  0  0  0  0
 20 21  1  0  0  0  0
 20 22  1  1  0  0  0
 22 23  1  0  0  0  0
M  END
>  <CHROM.1>
-172.84042526,-63.62721392,-167.53382083,172.60549680,174.86372545,-4.56666380
-7.53262368,-3.75494632,1.16287458,0.10438315,-0.76788092

>  <Name>
ligand

>  <RI>
0

>  <Rbt.Current_Directory>
/home/itssahil/PROJECTS/Mol_Feturizer/New_Systems/rnas/4TS2

>  <Rbt.Executable>
rbdock ($Id: //depot/dev/client3/rdock/2013.1/src/exe/rbdock.cxx#4 $)

>  <Rbt.Library>
libRbt.so (2013.1, Build901 2013/11/27)

>  <Rbt.Parameter_File>
/export/apps/rDock/src/rDock_2013.1_src/data/scripts/dock_solv.prm

>  <Rbt.Receptor>
prm/pocket_docking_8.prm

>  <SCORE>
-11.3177

>  <SCORE.INTER>
-4.70525

>  <SCORE.INTER.CONST>
1

>  <SCORE.INTER.POLAR>
0

>  <SCORE.INTER.ROT>
5

>  <SCORE.INTER.SOLV>
8.58801

>  <SCORE.INTER.VDW>
-12.9328

>  <SCORE.INTER.norm>
-0.204576

>  <SCORE.INTRA>
-6.61249

>  <SCORE.INTRA.DIHEDRAL>
-11.0115

>  <SCORE.INTRA.DIHEDRAL.0>
12.4853

>  <SCORE.INTRA.POLAR>
0

>  <SCORE.INTRA.POLAR.0>
0

>  <SCORE.INTRA.REPUL>
0

>  <SCORE.INTRA.REPUL.0>
0

>  <SCORE.INTRA.SOLV>
0.928236

>  <SCORE.INTRA.SOLV.lig_0>
-31.1706

>  <SCORE.INTRA.VDW>
-1.57088

>  <SCORE.INTRA.VDW.0>
-1.16895

>  <SCORE.INTRA.norm>
-0.2875

>  <SCORE.RESTR>
0

>  <SCORE.RESTR.CAVITY>
0

>  <SCORE.RESTR.norm>
0

>  <SCORE.SYSTEM>
0

>  <SCORE.SYSTEM.CONST>
0

>  <SCORE.SYSTEM.DIHEDRAL>
0

>  <SCORE.SYSTEM.SOLV>
0

>  <SCORE.SYSTEM.norm>
0

>  <SCORE.heavy>
23

>  <SCORE.norm>
-0.492076

>  <RMSD>
6.547

$$$$
ligand
 OpenBabel11021811513D
libRbt.so/2013.1/901 2013/11/27
 23 24  0  0  0  0  0  0  0  0999 V2000
   -5.7103   -5.2805   -5.9294 C   0  0  0  0  0  0  0  0  0  0  0  0
   -6.4384   -6.4814   -5.6084 O   0  0  0  0  0  0  0  0  0  0  0  0
   -4.2186   -5.5597   -5.8142 C   0  0  2  0  0  0  0  0  0  0  0  0
   -3.6988   -6.7104   -6.6623 C   0  0  1  0  0  0  0  0  0  0  0  0
   -3.5273   -6.2664   -8.0097 O   0  0  0  0  0  0  0  0  0  0  0  0
   -2.3938   -7.0576   -5.9538 C   0  0  2  0  0  0  0  0  0  0  0  0
   -1.8356   -8.3630   -6.1452 O   0  0  0  0  0  0  0  0  0  0  0  0
   -2.7810   -6.8669   -4.4979 C   0  0  2  0  0  0  0  0  0  0  0  0
   -3.8493   -5.8966   -4.4739 O   0  0  0  0  0  0  0  0  0  0  0  0
   -1.5308   -6.3840   -3.7405 C   0  0  0  0  0  0  0  0  0  0  0  0
   -1.8388   -5.9155   -2.4202 O   0  0  0  0  0  0  0  0  0  0  0  0
   -3.5665   -8.0995   -2.5765 C   0  0  2  0  0  0  0  0  0  0  0  0
   -3.3090   -8.1045   -3.9914 O   0  0  0  0  0  0  0  0  0  0  0  0
   -3.8854   -9.5255   -2.1679 C   0  0  2  0  0  0  0  0  0  0  0  0
   -2.8911  -10.4031   -2.7076 O   0  0  0  0  0  0  0  0  0  0  0  0
   -5.2304   -9.9463   -2.7184 C   0  0  1  0  0  0  0  0  0  0  0  0
   -5.6021  -11.1872   -2.1139 O   0  0  0  0  0  0  0  0  0  0  0  0
   -6.2798   -8.8892   -2.4317 C   0  0  2  0  0  0  0  0  0  0  0  0
   -7.4751   -9.2389   -3.1160 O   0  0  0  0  0  0  0  0  0  0  0  0
   -5.8363   -7.5061   -2.8891 C   0  0  2  0  0  0  0  0  0  0  0  0
   -4.6197   -7.2046   -2.2193 O   0  0  0  0  0  0  0  0  0  0  0  0
   -6.8963   -6.4425   -2.5789 C   0  0  0  0  0  0  0  0  0  0  0  0
   -8.1521   -6.6967   -3.2254 O   0  0  0  0  0  0  0  0  0  0  0  0
  1  2  1  0  0  0  0
  3  1  1  1  0  0  0
  3  9  1  0  0  0  0
  3  4  1  0  0  0  0
  4  5  1  6  0  0  0
  4  6  1  0  0  0  0
  6  7  1  1  0  0  0
  6  8  1  0  0  0  0
  8  9  1  0  0  0  0
  8 10  1  1  0  0  0
  8 13  1  0  0  0  0
 10 11  1  0  0  0  0
 12 13  1  6  0  0  0
 12 14  1  0  0  0  0
 12 21  1  0  0  0  0
 14 15  1  6  0  0  0
 14 16  1  0  0  0  0
 16 17  1  1  0  0  0
 16 18  1  0  0  0  0
 18 19  1  6  0  0  0
 18 20  1  0  0  0  0
 20 21  1  0  0  0  0
 20 22  1  1  0  0  0
 22 23  1  0  0  0  0
M  END
>  <CHROM.1>
56.23144245,168.26927979,-170.48822663,173.03503525,-60.28860369,-4.43213640
-7.57716191,-3.99919274,0.98789019,0.16404888,-0.79398815

>  <Name>
ligand

>  <RI>
0

>  <Rbt.Current_Directory>
/home/itssahil/PROJECTS/Mol_Feturizer/New_Systems/rnas/4TS2

>  <Rbt.Executable>
rbdock ($Id: //depot/dev/client3/rdock/2013.1/src/exe/rbdock.cxx#4 $)

>  <Rbt.Library>
libRbt.so (2013.1, Build901 2013/11/27)

>  <Rbt.Parameter_File>
/export/apps/rDock/src/rDock_2013.1_src/data/scripts/dock_solv.prm

>  <Rbt.Receptor>
prm/pocket_docking_8.prm

>  <SCORE>
-11.0283

>  <SCORE.INTER>
-5.01984

>  <SCORE.INTER.CONST>
1

>  <SCORE.INTER.POLAR>
0

>  <SCORE.INTER.ROT>
5

>  <SCORE.INTER.SOLV>
8.31247

>  <SCORE.INTER.VDW>
-13.0507

>  <SCORE.INTER.norm>
-0.218254

>  <SCORE.INTRA>
-6.00844

>  <SCORE.INTRA.DIHEDRAL>
-11.2107

>  <SCORE.INTRA.DIHEDRAL.0>
12.4853

>  <SCORE.INTRA.POLAR>
0

>  <SCORE.INTRA.POLAR.0>
0

>  <SCORE.INTRA.REPUL>
0

>  <SCORE.INTRA.REPUL.0>
0

>  <SCORE.INTRA.SOLV>
1.72185

>  <SCORE.INTRA.SOLV.lig_0>
-31.1706

>  <SCORE.INTRA.VDW>
-1.26404

>  <SCORE.INTRA.VDW.0>
-1.16895

>  <SCORE.INTRA.norm>
-0.261237

>  <SCORE.RESTR>
0

>  <SCORE.RESTR.CAVITY>
0

>  <SCORE.RESTR.norm>
0

>  <SCORE.SYSTEM>
0

>  <SCORE.SYSTEM.CONST>
0

>  <SCORE.SYSTEM.DIHEDRAL>
0

>  <SCORE.SYSTEM.SOLV>
0

>  <SCORE.SYSTEM.norm>
0

>  <SCORE.heavy>
23

>  <SCORE.norm>
-0.479491

>  <RMSD>
6.666

$$$$
ligand
 OpenBabel11021811513D
libRbt.so/2013.1/901 2013/11/27
 23 24  0  0  0  0  0  0  0  0999 V2000
   -5.2109   -7.4768    1.2908 C   0  0  0  0  0  0  0  0  0  0  0  0
   -5.5078   -8.8630    1.5475 O   0  0  0  0  0  0  0  0  0  0  0  0
   -3.8182   -7.3722    0.6858 C   0  0  2  0  0  0  0  0  0  0  0  0
   -3.3355   -5.9605    0.3899 C   0  0  1  0  0  0  0  0  0  0  0  0
   -2.8728   -5.3546    1.5986 O   0  0  0  0  0  0  0  0  0  0  0  0
   -2.2363   -6.2135   -0.6363 C   0  0  2  0  0  0  0  0  0  0  0  0
   -1.8512   -5.1432   -1.5071 O   0  0  0  0  0  0  0  0  0  0  0  0
   -2.8345   -7.3511   -1.4449 C   0  0  2  0  0  0  0  0  0  0  0  0
   -3.7371   -8.0572   -0.5673 O   0  0  0  0  0  0  0  0  0  0  0  0
   -1.6752   -8.2382   -1.9336 C   0  0  0  0  0  0  0  0  0  0  0  0
   -0.8019   -7.5470   -2.8376 O   0  0  0  0  0  0  0  0  0  0  0  0
   -4.3540   -7.7749   -3.2723 C   0  0  2  0  0  0  0  0  0  0  0  0
   -3.6171   -6.7981   -2.5167 O   0  0  0  0  0  0  0  0  0  0  0  0
   -4.6777   -7.1570   -4.6198 C   0  0  2  0  0  0  0  0  0  0  0  0
   -3.4887   -6.5797   -5.1704 O   0  0  0  0  0  0  0  0  0  0  0  0
   -5.7046   -6.0568   -4.4653 C   0  0  1  0  0  0  0  0  0  0  0  0
   -6.1614   -5.6743   -5.7648 O   0  0  0  0  0  0  0  0  0  0  0  0
   -6.8710   -6.5293   -3.6185 C   0  0  2  0  0  0  0  0  0  0  0  0
   -7.7173   -5.4193   -3.3518 O   0  0  0  0  0  0  0  0  0  0  0  0
   -6.4106   -7.1273   -2.2959 C   0  0  2  0  0  0  0  0  0  0  0  0
   -5.5354   -8.2059   -2.5968 O   0  0  0  0  0  0  0  0  0  0  0  0
   -7.5956   -7.6176   -1.4555 C   0  0  0  0  0  0  0  0  0  0  0  0
   -8.3843   -8.6126   -2.1245 O   0  0  0  0  0  0  0  0  0  0  0  0
  1  2  1  0  0  0  0
  3  1  1  6  0  0  0
  3  9  1  0  0  0  0
  3  4  1  0  0  0  0
  4  5  1  1  0  0  0
  4  6  1  0  0  0  0
  6  7  1  6  0  0  0
  6  8  1  0  0  0  0
  8  9  1  0  0  0  0
  8 10  1  6  0  0  0
  8 13  1  0  0  0  0
 10 11  1  0  0  0  0
 12 13  1  1  0  0  0
 12 14  1  0  0  0  0
 12 21  1  0  0  0  0
 14 15  1  1  0  0  0
 14 16  1  0  0  0  0
 16 17  1  6  0  0  0
 16 18  1  0  0  0  0
 18 19  1  1  0  0  0
 18 20  1  0  0  0  0
 20 21  1  0  0  0  0
 20 22  1  6  0  0  0
 22 23  1  0  0  0  0
M  END
>  <CHROM.1>
-178.36871035,-64.36870694,-158.91277676,-173.70793082,58.85989357,-4.54457199
-7.00439487,-1.94947334,0.82282780,0.14647924,1.74940187

>  <Name>
ligand

>  <RI>
0

>  <Rbt.Current_Directory>
/home/itssahil/PROJECTS/Mol_Feturizer/New_Systems/rnas/4TS2

>  <Rbt.Executable>
rbdock ($Id: //depot/dev/client3/rdock/2013.1/src/exe/rbdock.cxx#4 $)

>  <Rbt.Library>
libRbt.so (2013.1, Build901 2013/11/27)

>  <Rbt.Parameter_File>
/export/apps/rDock/src/rDock_2013.1_src/data/scripts/dock_solv.prm

>  <Rbt.Receptor>
prm/pocket_docking_6.prm

>  <SCORE>
-10.8731

>  <SCORE.INTER>
-4.14619

>  <SCORE.INTER.CONST>
1

>  <SCORE.INTER.POLAR>
0

>  <SCORE.INTER.ROT>
5

>  <SCORE.INTER.SOLV>
8.5346

>  <SCORE.INTER.VDW>
-12.5423

>  <SCORE.INTER.norm>
-0.180269

>  <SCORE.INTRA>
-6.72691

>  <SCORE.INTRA.DIHEDRAL>
-10.2951

>  <SCORE.INTRA.DIHEDRAL.0>
12.4853

>  <SCORE.INTRA.POLAR>
0

>  <SCORE.INTRA.POLAR.0>
0

>  <SCORE.INTRA.REPUL>
0

>  <SCORE.INTRA.REPUL.0>
0

>  <SCORE.INTRA.SOLV>
0.390281

>  <SCORE.INTRA.SOLV.lig_0>
-31.1706

>  <SCORE.INTRA.VDW>
-1.7745

>  <SCORE.INTRA.VDW.0>
-1.16895

>  <SCORE.INTRA.norm>
-0.292474

>  <SCORE.RESTR>
0

>  <SCORE.RESTR.CAVITY>
0

>  <SCORE.RESTR.norm>
0

>  <SCORE.SYSTEM>
0

>  <SCORE.SYSTEM.CONST>
0

>  <SCORE.SYSTEM.DIHEDRAL>
0

>  <SCORE.SYSTEM.SOLV>
0

>  <SCORE.SYSTEM.norm>
0

>  <SCORE.heavy>
23

>  <SCORE.norm>
-0.472743

>  <RMSD>
6.704

$$$$
ligand
 OpenBabel11021811513D
libRbt.so/2013.1/901 2013/11/27
 23 24  0  0  0  0  0  0  0  0999 V2000
   -1.7946   -8.2581   -0.9597 C   0  0  0  0  0  0  0  0  0  0  0  0
   -0.7923   -9.2818   -0.8077 O   0  0  0  0  0  0  0  0  0  0  0  0
   -3.0682   -8.7031   -0.2552 C   0  0  2  0  0  0  0  0  0  0  0  0
   -3.7170   -9.9636   -0.8063 C   0  0  1  0  0  0  0  0  0  0  0  0
   -3.0232  -11.1100   -0.3095 O   0  0  0  0  0  0  0  0  0  0  0  0
   -5.1458   -9.8324   -0.2898 C   0  0  2  0  0  0  0  0  0  0  0  0
   -6.1861  -10.5550   -0.9589 O   0  0  0  0  0  0  0  0  0  0  0  0
   -5.3802   -8.3384   -0.4271 C   0  0  2  0  0  0  0  0  0  0  0  0
   -4.0878   -7.7028   -0.3319 O   0  0  0  0  0  0  0  0  0  0  0  0
   -6.3319   -7.9081    0.7037 C   0  0  0  0  0  0  0  0  0  0  0  0
   -7.6295   -8.5077    0.5837 O   0  0  0  0  0  0  0  0  0  0  0  0
   -6.1699   -6.6783   -1.9917 C   0  0  2  0  0  0  0  0  0  0  0  0
   -5.8997   -8.0682   -1.7401 O   0  0  0  0  0  0  0  0  0  0  0  0
   -6.8915   -6.5898   -3.3236 C   0  0  2  0  0  0  0  0  0  0  0  0
   -7.9640   -7.5383   -3.3416 O   0  0  0  0  0  0  0  0  0  0  0  0
   -5.9503   -6.9252   -4.4596 C   0  0  1  0  0  0  0  0  0  0  0  0
   -6.5898   -6.5932   -5.6942 O   0  0  0  0  0  0  0  0  0  0  0  0
   -4.6497   -6.1571   -4.3206 C   0  0  2  0  0  0  0  0  0  0  0  0
   -3.7349   -6.6327   -5.2986 O   0  0  0  0  0  0  0  0  0  0  0  0
   -4.0298   -6.3295   -2.9405 C   0  0  2  0  0  0  0  0  0  0  0  0
   -4.9836   -5.8845   -1.9855 O   0  0  0  0  0  0  0  0  0  0  0  0
   -2.7252   -5.5353   -2.8047 C   0  0  0  0  0  0  0  0  0  0  0  0
   -1.6829   -6.0170   -3.6655 O   0  0  0  0  0  0  0  0  0  0  0  0
  1  2  1  0  0  0  0
  3  1  1  6  0  0  0
  3  9  1  0  0  0  0
  3  4  1  0  0  0  0
  4  5  1  1  0  0  0
  4  6  1  0  0  0  0
  6  7  1  6  0  0  0
  6  8  1  0  0  0  0
  8  9  1  0  0  0  0
  8 10  1  1  0  0  0
  8 13  1  0  0  0  0
 10 11  1  0  0  0  0
 12 13  1  6  0  0  0
 12 14  1  0  0  0  0
 12 21  1  0  0  0  0
 14 15  1  1  0  0  0
 14 16  1  0  0  0  0
 16 17  1  6  0  0  0
 16 18  1  0  0  0  0
 18 19  1  6  0  0  0
 18 20  1  0  0  0  0
 20 21  1  0  0  0  0
 20 22  1  6  0  0  0
 22 23  1  0  0  0  0
M  END
>  <CHROM.1>
-62.46393924,-64.45272601,-171.92675793,179.74566685,-65.57793349,-4.70871192
-7.80061692,-1.98729407,-1.29122984,0.00086290,-0.91184199

>  <Name>
ligand

>  <RI>
0

>  <Rbt.Current_Directory>
/home/itssahil/PROJECTS/Mol_Feturizer/New_Systems/rnas/4TS2

>  <Rbt.Executable>
rbdock ($Id: //depot/dev/client3/rdock/2013.1/src/exe/rbdock.cxx#4 $)

>  <Rbt.Library>
libRbt.so (2013.1, Build901 2013/11/27)

>  <Rbt.Parameter_File>
/export/apps/rDock/src/rDock_2013.1_src/data/scripts/dock_solv.prm

>  <Rbt.Receptor>
prm/pocket_docking_6.prm

>  <SCORE>
-8.79721

>  <SCORE.INTER>
-1.79651

>  <SCORE.INTER.CONST>
1

>  <SCORE.INTER.POLAR>
0

>  <SCORE.INTER.ROT>
5

>  <SCORE.INTER.SOLV>
8.81365

>  <SCORE.INTER.VDW>
-11.0689

>  <SCORE.INTER.norm>
-0.078109

>  <SCORE.INTRA>
-7.00071

>  <SCORE.INTRA.DIHEDRAL>
-11.921

>  <SCORE.INTRA.DIHEDRAL.0>
12.4853

>  <SCORE.INTRA.POLAR>
0

>  <SCORE.INTRA.POLAR.0>
0

>  <SCORE.INTRA.REPUL>
0

>  <SCORE.INTRA.REPUL.0>
0

>  <SCORE.INTRA.SOLV>
0.692547

>  <SCORE.INTRA.SOLV.lig_0>
-31.1706

>  <SCORE.INTRA.VDW>
-1.3865

>  <SCORE.INTRA.VDW.0>
-1.16895

>  <SCORE.INTRA.norm>
-0.304379

>  <SCORE.RESTR>
0

>  <SCORE.RESTR.CAVITY>
0

>  <SCORE.RESTR.norm>
0

>  <SCORE.SYSTEM>
0

>  <SCORE.SYSTEM.CONST>
0

>  <SCORE.SYSTEM.DIHEDRAL>
0

>  <SCORE.SYSTEM.SOLV>
0

>  <SCORE.SYSTEM.norm>
0

>  <SCORE.heavy>
23

>  <SCORE.norm>
-0.382487

>  <RMSD>
6.711

$$$$
ligand
 OpenBabel11021811513D
libRbt.so/2013.1/901 2013/11/27
 23 24  0  0  0  0  0  0  0  0999 V2000
  -11.1303   -9.3918   -1.4323 C   0  0  0  0  0  0  0  0  0  0  0  0
  -11.9150   -9.8612   -0.3190 O   0  0  0  0  0  0  0  0  0  0  0  0
   -9.6713   -9.7567   -1.1990 C   0  0  2  0  0  0  0  0  0  0  0  0
   -8.7006   -9.3035   -2.2788 C   0  0  1  0  0  0  0  0  0  0  0  0
   -8.3997   -7.9187   -2.0947 O   0  0  0  0  0  0  0  0  0  0  0  0
   -7.5138  -10.2317   -2.0433 C   0  0  2  0  0  0  0  0  0  0  0  0
   -6.5919  -10.4525   -3.1173 O   0  0  0  0  0  0  0  0  0  0  0  0
   -8.2135  -11.5308   -1.6844 C   0  0  2  0  0  0  0  0  0  0  0  0
   -9.4910  -11.1733   -1.1156 O   0  0  0  0  0  0  0  0  0  0  0  0
   -7.3162  -12.2856   -0.6869 C   0  0  0  0  0  0  0  0  0  0  0  0
   -7.1024  -11.5462    0.5235 O   0  0  0  0  0  0  0  0  0  0  0  0
   -9.1238  -13.5327   -2.6801 C   0  0  2  0  0  0  0  0  0  0  0  0
   -8.4684  -12.2701   -2.8907 O   0  0  0  0  0  0  0  0  0  0  0  0
   -8.9900  -14.3334   -3.9620 C   0  0  2  0  0  0  0  0  0  0  0  0
   -7.6257  -14.3028   -4.3956 O   0  0  0  0  0  0  0  0  0  0  0  0
   -9.8429  -13.7290   -5.0557 C   0  0  1  0  0  0  0  0  0  0  0  0
   -9.8843  -14.6395   -6.1569 O   0  0  0  0  0  0  0  0  0  0  0  0
  -11.2464  -13.4555   -4.5496 C   0  0  2  0  0  0  0  0  0  0  0  0
  -11.9546  -12.7296   -5.5451 O   0  0  0  0  0  0  0  0  0  0  0  0
  -11.2403  -12.6459   -3.2598 C   0  0  2  0  0  0  0  0  0  0  0  0
  -10.4909  -13.3784   -2.2997 O   0  0  0  0  0  0  0  0  0  0  0  0
  -12.6626  -12.3902   -2.7475 C   0  0  0  0  0  0  0  0  0  0  0  0
  -13.3488  -13.5936   -2.3727 O   0  0  0  0  0  0  0  0  0  0  0  0
  1  2  1  0  0  0  0
  3  1  1  6  0  0  0
  3  9  1  0  0  0  0
  3  4  1  0  0  0  0
  4  5  1  1  0  0  0
  4  6  1  0  0  0  0
  6  7  1  6  0  0  0
  6  8  1  0  0  0  0
  8  9  1  0  0  0  0
  8 10  1  1  0  0  0
  8 13  1  0  0  0  0
 10 11  1  0  0  0  0
 12 13  1  6  0  0  0
 12 14  1  0  0  0  0
 12 21  1  0  0  0  0
 14 15  1  6  0  0  0
 14 16  1  0  0  0  0
 16 17  1  6  0  0  0
 16 18  1  0  0  0  0
 18 19  1  6  0  0  0
 18 20  1  0  0  0  0
 20 21  1  0  0  0  0
 20 22  1  1  0  0  0
 22 23  1  0  0  0  0
M  END
>  <CHROM.1>
-178.81948988,61.07704230,-165.31784617,179.58670163,64.35552163,-9.61306400
-11.93412500,-2.66537375,1.13285277,-0.00603605,0.70664720

>  <Name>
ligand

>  <RI>
0

>  <Rbt.Current_Directory>
/home/itssahil/PROJECTS/Mol_Feturizer/New_Systems/rnas/4TS2

>  <Rbt.Executable>
rbdock ($Id: //depot/dev/client3/rdock/2013.1/src/exe/rbdock.cxx#4 $)

>  <Rbt.Library>
libRbt.so (2013.1, Build901 2013/11/27)

>  <Rbt.Parameter_File>
/export/apps/rDock/src/rDock_2013.1_src/data/scripts/dock_solv.prm

>  <Rbt.Receptor>
prm/pocket_docking_8.prm

>  <SCORE>
-7.75452

>  <SCORE.INTER>
-0.634936

>  <SCORE.INTER.CONST>
1

>  <SCORE.INTER.POLAR>
0

>  <SCORE.INTER.ROT>
5

>  <SCORE.INTER.SOLV>
5.0295

>  <SCORE.INTER.VDW>
-9.03312

>  <SCORE.INTER.norm>
-0.0276059

>  <SCORE.INTRA>
-7.11959

>  <SCORE.INTRA.DIHEDRAL>
-11.3164

>  <SCORE.INTRA.DIHEDRAL.0>
12.4853

>  <SCORE.INTRA.POLAR>
0

>  <SCORE.INTRA.POLAR.0>
0

>  <SCORE.INTRA.REPUL>
0

>  <SCORE.INTRA.REPUL.0>
0

>  <SCORE.INTRA.SOLV>
0.181667

>  <SCORE.INTRA.SOLV.lig_0>
-31.1706

>  <SCORE.INTRA.VDW>
-1.5522

>  <SCORE.INTRA.VDW.0>
-1.16895

>  <SCORE.INTRA.norm>
-0.309547

>  <SCORE.RESTR>
0

>  <SCORE.RESTR.CAVITY>
0

>  <SCORE.RESTR.norm>
0

>  <SCORE.SYSTEM>
0

>  <SCORE.SYSTEM.CONST>
0

>  <SCORE.SYSTEM.DIHEDRAL>
0

>  <SCORE.SYSTEM.SOLV>
0

>  <SCORE.SYSTEM.norm>
0

>  <SCORE.heavy>
23

>  <SCORE.norm>
-0.337153

>  <RMSD>
6.742

$$$$
ligand
 OpenBabel11021811513D
libRbt.so/2013.1/901 2013/11/27
 23 24  0  0  0  0  0  0  0  0999 V2000
   -5.4300   -5.2382   -5.8087 C   0  0  0  0  0  0  0  0  0  0  0  0
   -5.6069   -4.8256   -7.1776 O   0  0  0  0  0  0  0  0  0  0  0  0
   -3.9909   -5.6919   -5.6099 C   0  0  2  0  0  0  0  0  0  0  0  0
   -3.5663   -6.9041   -6.4246 C   0  0  1  0  0  0  0  0  0  0  0  0
   -3.2694   -6.4964   -7.7616 O   0  0  0  0  0  0  0  0  0  0  0  0
   -2.3530   -7.3975   -5.6436 C   0  0  2  0  0  0  0  0  0  0  0  0
   -1.9449   -8.7618   -5.8001 O   0  0  0  0  0  0  0  0  0  0  0  0
   -2.7939   -7.1484   -4.2121 C   0  0  2  0  0  0  0  0  0  0  0  0
   -3.7385   -6.0577   -4.2503 O   0  0  0  0  0  0  0  0  0  0  0  0
   -1.5385   -6.8107   -3.3877 C   0  0  0  0  0  0  0  0  0  0  0  0
   -0.9027   -5.6034   -3.8304 O   0  0  0  0  0  0  0  0  0  0  0  0
   -3.9701   -8.1927   -2.3807 C   0  0  2  0  0  0  0  0  0  0  0  0
   -3.4929   -8.3095   -3.7323 O   0  0  0  0  0  0  0  0  0  0  0  0
   -4.4039   -9.5755   -1.9311 C   0  0  2  0  0  0  0  0  0  0  0  0
   -3.3712  -10.5171   -2.2428 O   0  0  0  0  0  0  0  0  0  0  0  0
   -5.6602   -9.9997   -2.6596 C   0  0  1  0  0  0  0  0  0  0  0  0
   -6.1699  -11.1820   -2.0384 O   0  0  0  0  0  0  0  0  0  0  0  0
   -6.7004   -8.8966   -2.6183 C   0  0  2  0  0  0  0  0  0  0  0  0
   -7.7853   -9.2638   -3.4596 O   0  0  0  0  0  0  0  0  0  0  0  0
   -6.1378   -7.5636   -3.0931 C   0  0  2  0  0  0  0  0  0  0  0  0
   -5.0315   -7.2460   -2.2594 O   0  0  0  0  0  0  0  0  0  0  0  0
   -7.1919   -6.4519   -3.0308 C   0  0  0  0  0  0  0  0  0  0  0  0
   -7.6870   -6.2218   -1.7035 O   0  0  0  0  0  0  0  0  0  0  0  0
  1  2  1  0  0  0  0
  3  1  1  1  0  0  0
  3  9  1  0  0  0  0
  3  4  1  0  0  0  0
  4  5  1  6  0  0  0
  4  6  1  0  0  0  0
  6  7  1  1  0  0  0
  6  8  1  0  0  0  0
  8  9  1  0  0  0  0
  8 10  1  1  0  0  0
  8 13  1  0  0  0  0
 10 11  1  0  0  0  0
 12 13  1  6  0  0  0
 12 14  1  0  0  0  0
 12 21  1  0  0  0  0
 14 15  1  6  0  0  0
 14 16  1  0  0  0  0
 16 17  1  1  0  0  0
 16 18  1  0  0  0  0
 18 19  1  6  0  0  0
 18 20  1  0  0  0  0
 20 21  1  0  0  0  0
 20 22  1  1  0  0  0
 22 23  1  0  0  0  0
M  END
>  <CHROM.1>
-63.02180851,63.18153789,-167.94726602,-179.67880060,60.66059622,-4.47295872
-7.57899277,-3.96556020,0.95581249,0.23243415,-0.72177040

>  <Name>
ligand

>  <RI>
0

>  <Rbt.Current_Directory>
/home/itssahil/PROJECTS/Mol_Feturizer/New_Systems/rnas/4TS2

>  <Rbt.Executable>
rbdock ($Id: //depot/dev/client3/rdock/2013.1/src/exe/rbdock.cxx#4 $)

>  <Rbt.Library>
libRbt.so (2013.1, Build901 2013/11/27)

>  <Rbt.Parameter_File>
/export/apps/rDock/src/rDock_2013.1_src/data/scripts/dock_solv.prm

>  <Rbt.Receptor>
prm/pocket_docking_8.prm

>  <SCORE>
-12.0162

>  <SCORE.INTER>
-4.96928

>  <SCORE.INTER.CONST>
1

>  <SCORE.INTER.POLAR>
0

>  <SCORE.INTER.ROT>
5

>  <SCORE.INTER.SOLV>
9.39587

>  <SCORE.INTER.VDW>
-13.3781

>  <SCORE.INTER.norm>
-0.216056

>  <SCORE.INTRA>
-7.04691

>  <SCORE.INTRA.DIHEDRAL>
-11.636

>  <SCORE.INTRA.DIHEDRAL.0>
12.4853

>  <SCORE.INTRA.POLAR>
0

>  <SCORE.INTRA.POLAR.0>
0

>  <SCORE.INTRA.REPUL>
0

>  <SCORE.INTRA.REPUL.0>
0

>  <SCORE.INTRA.SOLV>
0.311051

>  <SCORE.INTRA.SOLV.lig_0>
-31.1706

>  <SCORE.INTRA.VDW>
-1.38442

>  <SCORE.INTRA.VDW.0>
-1.16895

>  <SCORE.INTRA.norm>
-0.306388

>  <SCORE.RESTR>
0

>  <SCORE.RESTR.CAVITY>
0

>  <SCORE.RESTR.norm>
0

>  <SCORE.SYSTEM>
0

>  <SCORE.SYSTEM.CONST>
0

>  <SCORE.SYSTEM.DIHEDRAL>
0

>  <SCORE.SYSTEM.SOLV>
0

>  <SCORE.SYSTEM.norm>
0

>  <SCORE.heavy>
23

>  <SCORE.norm>
-0.522443

>  <RMSD>
6.754

$$$$
ligand
 OpenBabel11021811513D
libRbt.so/2013.1/901 2013/11/27
 23 24  0  0  0  0  0  0  0  0999 V2000
   -5.6747   -5.1007   -6.0536 C   0  0  0  0  0  0  0  0  0  0  0  0
   -5.9481   -4.7471   -7.4232 O   0  0  0  0  0  0  0  0  0  0  0  0
   -4.2038   -5.4686   -5.9210 C   0  0  2  0  0  0  0  0  0  0  0  0
   -3.7580   -6.6875   -6.7142 C   0  0  1  0  0  0  0  0  0  0  0  0
   -3.5582   -6.3173   -8.0799 O   0  0  0  0  0  0  0  0  0  0  0  0
   -2.4780   -7.0843   -5.9865 C   0  0  2  0  0  0  0  0  0  0  0  0
   -2.0040   -8.4299   -6.1164 O   0  0  0  0  0  0  0  0  0  0  0  0
   -2.8526   -6.8031   -4.5420 C   0  0  2  0  0  0  0  0  0  0  0  0
   -3.8570   -5.7667   -4.5657 O   0  0  0  0  0  0  0  0  0  0  0  0
   -1.5745   -6.3665   -3.8035 C   0  0  0  0  0  0  0  0  0  0  0  0
   -1.8514   -5.8310   -2.5018 O   0  0  0  0  0  0  0  0  0  0  0  0
   -3.8848   -7.8295   -2.6162 C   0  0  2  0  0  0  0  0  0  0  0  0
   -3.4584   -7.9801   -3.9813 O   0  0  0  0  0  0  0  0  0  0  0  0
   -4.2554   -9.2079   -2.1014 C   0  0  2  0  0  0  0  0  0  0  0  0
   -3.2062  -10.1278   -2.4223 O   0  0  0  0  0  0  0  0  0  0  0  0
   -5.5255   -9.6966   -2.7625 C   0  0  1  0  0  0  0  0  0  0  0  0
   -5.9716  -10.8709   -2.0801 O   0  0  0  0  0  0  0  0  0  0  0  0
   -6.5983   -8.6253   -2.7168 C   0  0  2  0  0  0  0  0  0  0  0  0
   -7.7035   -9.0559   -3.4994 O   0  0  0  0  0  0  0  0  0  0  0  0
   -6.0984   -7.2935   -3.2603 C   0  0  2  0  0  0  0  0  0  0  0  0
   -4.9705   -6.9121   -2.4842 O   0  0  0  0  0  0  0  0  0  0  0  0
   -7.1845   -6.2133   -3.1933 C   0  0  0  0  0  0  0  0  0  0  0  0
   -7.6124   -5.9302   -1.8531 O   0  0  0  0  0  0  0  0  0  0  0  0
  1  2  1  0  0  0  0
  3  1  1  1  0  0  0
  3  9  1  0  0  0  0
  3  4  1  0  0  0  0
  4  5  1  6  0  0  0
  4  6  1  0  0  0  0
  6  7  1  1  0  0  0
  6  8  1  0  0  0  0
  8  9  1  0  0  0  0
  8 10  1  1  0  0  0
  8 13  1  0  0  0  0
 10 11  1  0  0  0  0
 12 13  1  6  0  0  0
 12 14  1  0  0  0  0
 12 21  1  0  0  0  0
 14 15  1  6  0  0  0
 14 16  1  0  0  0  0
 16 17  1  1  0  0  0
 16 18  1  0  0  0  0
 18 19  1  6  0  0  0
 18 20  1  0  0  0  0
 20 21  1  0  0  0  0
 20 22  1  1  0  0  0
 22 23  1  0  0  0  0
M  END
>  <CHROM.1>
-63.24829664,168.81108592,-169.68736518,-178.77999464,61.94643566,-4.54191880
-7.32101638,-4.11485325,1.11743563,0.23426331,-0.83437137

>  <Name>
ligand

>  <RI>
0

>  <Rbt.Current_Directory>
/home/itssahil/PROJECTS/Mol_Feturizer/New_Systems/rnas/4TS2

>  <Rbt.Executable>
rbdock ($Id: //depot/dev/client3/rdock/2013.1/src/exe/rbdock.cxx#4 $)

>  <Rbt.Library>
libRbt.so (2013.1, Build901 2013/11/27)

>  <Rbt.Parameter_File>
/export/apps/rDock/src/rDock_2013.1_src/data/scripts/dock_solv.prm

>  <Rbt.Receptor>
prm/pocket_docking_8.prm

>  <SCORE>
-13.6914

>  <SCORE.INTER>
-6.76437

>  <SCORE.INTER.CONST>
1

>  <SCORE.INTER.POLAR>
0

>  <SCORE.INTER.ROT>
5

>  <SCORE.INTER.SOLV>
9.9257

>  <SCORE.INTER.VDW>
-14.7515

>  <SCORE.INTER.norm>
-0.294103

>  <SCORE.INTRA>
-6.92705

>  <SCORE.INTRA.DIHEDRAL>
-11.5166

>  <SCORE.INTRA.DIHEDRAL.0>
12.4853

>  <SCORE.INTRA.POLAR>
0

>  <SCORE.INTRA.POLAR.0>
0

>  <SCORE.INTRA.REPUL>
0

>  <SCORE.INTRA.REPUL.0>
0

>  <SCORE.INTRA.SOLV>
0.472149

>  <SCORE.INTRA.SOLV.lig_0>
-31.1706

>  <SCORE.INTRA.VDW>
-1.40484

>  <SCORE.INTRA.VDW.0>
-1.16895

>  <SCORE.INTRA.norm>
-0.301176

>  <SCORE.RESTR>
0

>  <SCORE.RESTR.CAVITY>
0

>  <SCORE.RESTR.norm>
0

>  <SCORE.SYSTEM>
0

>  <SCORE.SYSTEM.CONST>
0

>  <SCORE.SYSTEM.DIHEDRAL>
0

>  <SCORE.SYSTEM.SOLV>
0

>  <SCORE.SYSTEM.norm>
0

>  <SCORE.heavy>
23

>  <SCORE.norm>
-0.595279

>  <RMSD>
6.853

$$$$
ligand
 OpenBabel11021811513D
libRbt.so/2013.1/901 2013/11/27
 23 24  0  0  0  0  0  0  0  0999 V2000
   -5.4530   -5.2840   -5.7732 C   0  0  0  0  0  0  0  0  0  0  0  0
   -5.6505   -4.7685   -7.1039 O   0  0  0  0  0  0  0  0  0  0  0  0
   -4.0273   -5.8021   -5.6491 C   0  0  2  0  0  0  0  0  0  0  0  0
   -3.6729   -6.9720   -6.5542 C   0  0  1  0  0  0  0  0  0  0  0  0
   -3.3986   -6.4871   -7.8702 O   0  0  0  0  0  0  0  0  0  0  0  0
   -2.4578   -7.5603   -5.8451 C   0  0  2  0  0  0  0  0  0  0  0  0
   -2.1070   -8.9250   -6.1032 O   0  0  0  0  0  0  0  0  0  0  0  0
   -2.8481   -7.3913   -4.3874 C   0  0  2  0  0  0  0  0  0  0  0  0
   -3.7507   -6.2667   -4.3248 O   0  0  0  0  0  0  0  0  0  0  0  0
   -1.5577   -7.1553   -3.5818 C   0  0  0  0  0  0  0  0  0  0  0  0
   -0.8793   -5.9545   -3.9761 O   0  0  0  0  0  0  0  0  0  0  0  0
   -3.8782   -8.5821   -2.5575 C   0  0  2  0  0  0  0  0  0  0  0  0
   -3.5772   -8.5556   -3.9635 O   0  0  0  0  0  0  0  0  0  0  0  0
   -4.5408   -9.9143   -2.2599 C   0  0  2  0  0  0  0  0  0  0  0  0
   -3.7635  -10.9667   -2.8417 O   0  0  0  0  0  0  0  0  0  0  0  0
   -5.9259   -9.9645   -2.8666 C   0  0  1  0  0  0  0  0  0  0  0  0
   -6.6031  -11.1176   -2.3613 O   0  0  0  0  0  0  0  0  0  0  0  0
   -6.7048   -8.7085   -2.5252 C   0  0  2  0  0  0  0  0  0  0  0  0
   -7.9229   -8.7168   -3.2571 O   0  0  0  0  0  0  0  0  0  0  0  0
   -5.9298   -7.4444   -2.8721 C   0  0  2  0  0  0  0  0  0  0  0  0
   -4.7019   -7.4870   -2.1576 O   0  0  0  0  0  0  0  0  0  0  0  0
   -6.7183   -6.1811   -2.5070 C   0  0  0  0  0  0  0  0  0  0  0  0
   -7.8442   -5.9543   -3.3675 O   0  0  0  0  0  0  0  0  0  0  0  0
  1  2  1  0  0  0  0
  3  1  1  1  0  0  0
  3  9  1  0  0  0  0
  3  4  1  0  0  0  0
  4  5  1  6  0  0  0
  4  6  1  0  0  0  0
  6  7  1  6  0  0  0
  6  8  1  0  0  0  0
  8  9  1  0  0  0  0
  8 10  1  1  0  0  0
  8 13  1  0  0  0  0
 10 11  1  0  0  0  0
 12 13  1  6  0  0  0
 12 14  1  0  0  0  0
 12 21  1  0  0  0  0
 14 15  1  6  0  0  0
 14 16  1  0  0  0  0
 16 17  1  1  0  0  0
 16 18  1  0  0  0  0
 18 19  1  6  0  0  0
 18 20  1  0  0  0  0
 20 21  1  0  0  0  0
 20 22  1  1  0  0  0
 22 23  1  0  0  0  0
M  END
>  <CHROM.1>
-63.32016606,62.39722755,-175.44206303,173.57396265,-71.23139561,-4.52800364
-7.65524896,-4.13349170,0.94392817,0.28680839,-0.66771209

>  <Name>
ligand

>  <RI>
0

>  <Rbt.Current_Directory>
/home/itssahil/PROJECTS/Mol_Feturizer/New_Systems/rnas/4TS2

>  <Rbt.Executable>
rbdock ($Id: //depot/dev/client3/rdock/2013.1/src/exe/rbdock.cxx#4 $)

>  <Rbt.Library>
libRbt.so (2013.1, Build901 2013/11/27)

>  <Rbt.Parameter_File>
/export/apps/rDock/src/rDock_2013.1_src/data/scripts/dock_solv.prm

>  <Rbt.Receptor>
prm/pocket_docking_8.prm

>  <SCORE>
-11.0697

>  <SCORE.INTER>
-4.37336

>  <SCORE.INTER.CONST>
1

>  <SCORE.INTER.POLAR>
0

>  <SCORE.INTER.ROT>
5

>  <SCORE.INTER.SOLV>
9.43291

>  <SCORE.INTER.VDW>
-12.9932

>  <SCORE.INTER.norm>
-0.190146

>  <SCORE.INTRA>
-6.69634

>  <SCORE.INTRA.DIHEDRAL>
-11.4976

>  <SCORE.INTRA.DIHEDRAL.0>
12.4853

>  <SCORE.INTRA.POLAR>
0

>  <SCORE.INTRA.POLAR.0>
0

>  <SCORE.INTRA.REPUL>
0

>  <SCORE.INTRA.REPUL.0>
0

>  <SCORE.INTRA.SOLV>
0.488598

>  <SCORE.INTRA.SOLV.lig_0>
-31.1706

>  <SCORE.INTRA.VDW>
-1.19184

>  <SCORE.INTRA.VDW.0>
-1.16895

>  <SCORE.INTRA.norm>
-0.291145

>  <SCORE.RESTR>
0

>  <SCORE.RESTR.CAVITY>
0

>  <SCORE.RESTR.norm>
0

>  <SCORE.SYSTEM>
0

>  <SCORE.SYSTEM.CONST>
0

>  <SCORE.SYSTEM.DIHEDRAL>
0

>  <SCORE.SYSTEM.SOLV>
0

>  <SCORE.SYSTEM.norm>
0

>  <SCORE.heavy>
23

>  <SCORE.norm>
-0.481291

>  <RMSD>
6.865

$$$$
ligand
 OpenBabel11021811513D
libRbt.so/2013.1/901 2013/11/27
 23 24  0  0  0  0  0  0  0  0999 V2000
   -4.7803   -7.3154    1.2265 C   0  0  0  0  0  0  0  0  0  0  0  0
   -4.8411   -8.7364    1.4557 O   0  0  0  0  0  0  0  0  0  0  0  0
   -3.4363   -6.9716    0.6006 C   0  0  2  0  0  0  0  0  0  0  0  0
   -3.2080   -5.4971    0.3050 C   0  0  1  0  0  0  0  0  0  0  0  0
   -2.8366   -4.8241    1.5096 O   0  0  0  0  0  0  0  0  0  0  0  0
   -2.0984   -5.5549   -0.7396 C   0  0  2  0  0  0  0  0  0  0  0  0
   -1.9169   -4.4320   -1.6104 O   0  0  0  0  0  0  0  0  0  0  0  0
   -2.5055   -6.7761   -1.5450 C   0  0  2  0  0  0  0  0  0  0  0  0
   -3.2591   -7.6291   -0.6573 O   0  0  0  0  0  0  0  0  0  0  0  0
   -1.2193   -7.4496   -2.0564 C   0  0  0  0  0  0  0  0  0  0  0  0
   -1.4771   -8.7117   -2.6875 O   0  0  0  0  0  0  0  0  0  0  0  0
   -3.9116   -7.4463   -3.3893 C   0  0  2  0  0  0  0  0  0  0  0  0
   -3.3888   -6.3628   -2.6014 O   0  0  0  0  0  0  0  0  0  0  0  0
   -4.4120   -6.8579   -4.6954 C   0  0  2  0  0  0  0  0  0  0  0  0
   -3.4034   -6.0015   -5.2426 O   0  0  0  0  0  0  0  0  0  0  0  0
   -5.6548   -6.0276   -4.4607 C   0  0  1  0  0  0  0  0  0  0  0  0
   -6.2302   -5.7006   -5.7278 O   0  0  0  0  0  0  0  0  0  0  0  0
   -6.6550   -6.7903   -3.6129 C   0  0  2  0  0  0  0  0  0  0  0  0
   -7.7203   -5.9146   -3.2698 O   0  0  0  0  0  0  0  0  0  0  0  0
   -6.0267   -7.3272   -2.3339 C   0  0  2  0  0  0  0  0  0  0  0  0
   -4.9416   -8.1642   -2.7101 O   0  0  0  0  0  0  0  0  0  0  0  0
   -7.0412   -8.1111   -1.4929 C   0  0  0  0  0  0  0  0  0  0  0  0
   -8.1036   -7.2900   -0.9861 O   0  0  0  0  0  0  0  0  0  0  0  0
  1  2  1  0  0  0  0
  3  1  1  6  0  0  0
  3  9  1  0  0  0  0
  3  4  1  0  0  0  0
  4  5  1  1  0  0  0
  4  6  1  0  0  0  0
  6  7  1  6  0  0  0
  6  8  1  0  0  0  0
  8  9  1  0  0  0  0
  8 10  1  6  0  0  0
  8 13  1  0  0  0  0
 10 11  1  0  0  0  0
 12 13  1  1  0  0  0
 12 14  1  0  0  0  0
 12 21  1  0  0  0  0
 14 15  1  1  0  0  0
 14 16  1  0  0  0  0
 16 17  1  6  0  0  0
 16 18  1  0  0  0  0
 18 19  1  1  0  0  0
 18 20  1  0  0  0  0
 20 21  1  0  0  0  0
 20 22  1  6  0  0  0
 22 23  1  0  0  0  0
M  END
>  <CHROM.1>
-179.50270799,172.51118559,-161.18722763,-176.38614574,-65.53878323,-4.31967424
-6.77854656,-1.94519507,0.89581652,0.16512691,1.70530699

>  <Name>
ligand

>  <RI>
0

>  <Rbt.Current_Directory>
/home/itssahil/PROJECTS/Mol_Feturizer/New_Systems/rnas/4TS2

>  <Rbt.Executable>
rbdock ($Id: //depot/dev/client3/rdock/2013.1/src/exe/rbdock.cxx#4 $)

>  <Rbt.Library>
libRbt.so (2013.1, Build901 2013/11/27)

>  <Rbt.Parameter_File>
/export/apps/rDock/src/rDock_2013.1_src/data/scripts/dock_solv.prm

>  <Rbt.Receptor>
prm/pocket_docking_8.prm

>  <SCORE>
-10.4372

>  <SCORE.INTER>
-3.77386

>  <SCORE.INTER.CONST>
1

>  <SCORE.INTER.POLAR>
0

>  <SCORE.INTER.ROT>
5

>  <SCORE.INTER.SOLV>
9.59834

>  <SCORE.INTER.VDW>
-12.6487

>  <SCORE.INTER.norm>
-0.164081

>  <SCORE.INTRA>
-6.66333

>  <SCORE.INTRA.DIHEDRAL>
-10.5512

>  <SCORE.INTRA.DIHEDRAL.0>
12.4853

>  <SCORE.INTRA.POLAR>
0

>  <SCORE.INTRA.POLAR.0>
0

>  <SCORE.INTRA.REPUL>
0

>  <SCORE.INTRA.REPUL.0>
0

>  <SCORE.INTRA.SOLV>
0.398109

>  <SCORE.INTRA.SOLV.lig_0>
-31.1706

>  <SCORE.INTRA.VDW>
-1.58678

>  <SCORE.INTRA.VDW.0>
-1.16895

>  <SCORE.INTRA.norm>
-0.28971

>  <SCORE.RESTR>
0

>  <SCORE.RESTR.CAVITY>
0

>  <SCORE.RESTR.norm>
0

>  <SCORE.SYSTEM>
0

>  <SCORE.SYSTEM.CONST>
0

>  <SCORE.SYSTEM.DIHEDRAL>
0

>  <SCORE.SYSTEM.SOLV>
0

>  <SCORE.SYSTEM.norm>
0

>  <SCORE.heavy>
23

>  <SCORE.norm>
-0.453791

>  <RMSD>
6.872

$$$$
ligand
 OpenBabel11021811513D
libRbt.so/2013.1/901 2013/11/27
 23 24  0  0  0  0  0  0  0  0999 V2000
   -4.6168   -7.3568    1.2676 C   0  0  0  0  0  0  0  0  0  0  0  0
   -4.5925   -8.7743    1.5239 O   0  0  0  0  0  0  0  0  0  0  0  0
   -3.3047   -6.9491    0.6130 C   0  0  2  0  0  0  0  0  0  0  0  0
   -3.1545   -5.4657    0.3120 C   0  0  1  0  0  0  0  0  0  0  0  0
   -2.7906   -4.7737    1.5082 O   0  0  0  0  0  0  0  0  0  0  0  0
   -2.0659   -5.4711   -0.7559 C   0  0  2  0  0  0  0  0  0  0  0  0
   -1.9577   -4.3419   -1.6309 O   0  0  0  0  0  0  0  0  0  0  0  0
   -2.4304   -6.7117   -1.5521 C   0  0  2  0  0  0  0  0  0  0  0  0
   -3.1226   -7.5990   -0.6482 O   0  0  0  0  0  0  0  0  0  0  0  0
   -1.1241   -7.3228   -2.0906 C   0  0  0  0  0  0  0  0  0  0  0  0
   -1.3355   -8.5916   -2.7254 O   0  0  0  0  0  0  0  0  0  0  0  0
   -3.8863   -7.4573   -3.3275 C   0  0  2  0  0  0  0  0  0  0  0  0
   -3.3549   -6.3432   -2.5896 O   0  0  0  0  0  0  0  0  0  0  0  0
   -4.4382   -6.9156   -4.6330 C   0  0  2  0  0  0  0  0  0  0  0  0
   -3.4613   -6.0615   -5.2383 O   0  0  0  0  0  0  0  0  0  0  0  0
   -5.6854   -6.0968   -4.3820 C   0  0  1  0  0  0  0  0  0  0  0  0
   -6.3067   -5.8162   -5.6385 O   0  0  0  0  0  0  0  0  0  0  0  0
   -6.6454   -6.8481   -3.4794 C   0  0  2  0  0  0  0  0  0  0  0  0
   -7.7124   -5.9781   -3.1272 O   0  0  0  0  0  0  0  0  0  0  0  0
   -5.9675   -7.3373   -2.2066 C   0  0  2  0  0  0  0  0  0  0  0  0
   -4.8824   -8.1694   -2.5937 O   0  0  0  0  0  0  0  0  0  0  0  0
   -6.9418   -8.1103   -1.3098 C   0  0  0  0  0  0  0  0  0  0  0  0
   -8.0297   -7.3028   -0.8364 O   0  0  0  0  0  0  0  0  0  0  0  0
  1  2  1  0  0  0  0
  3  1  1  6  0  0  0
  3  9  1  0  0  0  0
  3  4  1  0  0  0  0
  4  5  1  1  0  0  0
  4  6  1  0  0  0  0
  6  7  1  6  0  0  0
  6  8  1  0  0  0  0
  8  9  1  0  0  0  0
  8 10  1  6  0  0  0
  8 13  1  0  0  0  0
 10 11  1  0  0  0  0
 12 13  1  1  0  0  0
 12 14  1  0  0  0  0
 12 21  1  0  0  0  0
 14 15  1  1  0  0  0
 14 16  1  0  0  0  0
 16 17  1  6  0  0  0
 16 18  1  0  0  0  0
 18 19  1  1  0  0  0
 18 20  1  0  0  0  0
 20 21  1  0  0  0  0
 20 22  1  1  0  0  0
 22 23  1  0  0  0  0
M  END
>  <CHROM.1>
-178.31962205,172.99664111,-161.12897307,-173.79162428,-63.16206767,-4.26462112
-6.77453533,-1.89385010,0.86458572,0.17182655,1.69832944

>  <Name>
ligand

>  <RI>
0

>  <Rbt.Current_Directory>
/home/itssahil/PROJECTS/Mol_Feturizer/New_Systems/rnas/4TS2

>  <Rbt.Executable>
rbdock ($Id: //depot/dev/client3/rdock/2013.1/src/exe/rbdock.cxx#4 $)

>  <Rbt.Library>
libRbt.so (2013.1, Build901 2013/11/27)

>  <Rbt.Parameter_File>
/export/apps/rDock/src/rDock_2013.1_src/data/scripts/dock_solv.prm

>  <Rbt.Receptor>
prm/pocket_docking_8.prm

>  <SCORE>
-10.2916

>  <SCORE.INTER>
-3.63702

>  <SCORE.INTER.CONST>
1

>  <SCORE.INTER.POLAR>
0

>  <SCORE.INTER.ROT>
5

>  <SCORE.INTER.SOLV>
9.59795

>  <SCORE.INTER.VDW>
-12.5573

>  <SCORE.INTER.norm>
-0.158131

>  <SCORE.INTRA>
-6.65461

>  <SCORE.INTRA.DIHEDRAL>
-10.541

>  <SCORE.INTRA.DIHEDRAL.0>
12.4853

>  <SCORE.INTRA.POLAR>
0

>  <SCORE.INTRA.POLAR.0>
0

>  <SCORE.INTRA.REPUL>
0

>  <SCORE.INTRA.REPUL.0>
0

>  <SCORE.INTRA.SOLV>
0.421324

>  <SCORE.INTRA.SOLV.lig_0>
-31.1706

>  <SCORE.INTRA.VDW>
-1.59476

>  <SCORE.INTRA.VDW.0>
-1.16895

>  <SCORE.INTRA.norm>
-0.289331

>  <SCORE.RESTR>
0

>  <SCORE.RESTR.CAVITY>
0

>  <SCORE.RESTR.norm>
0

>  <SCORE.SYSTEM>
0

>  <SCORE.SYSTEM.CONST>
0

>  <SCORE.SYSTEM.DIHEDRAL>
0

>  <SCORE.SYSTEM.SOLV>
0

>  <SCORE.SYSTEM.norm>
0

>  <SCORE.heavy>
23

>  <SCORE.norm>
-0.447462

>  <RMSD>
6.876

$$$$
ligand
 OpenBabel11021811513D
libRbt.so/2013.1/901 2013/11/27
 23 24  0  0  0  0  0  0  0  0999 V2000
   -4.8090   -7.3369    1.1247 C   0  0  0  0  0  0  0  0  0  0  0  0
   -4.8717   -8.7513    1.3911 O   0  0  0  0  0  0  0  0  0  0  0  0
   -3.4569   -7.0083    0.5082 C   0  0  2  0  0  0  0  0  0  0  0  0
   -3.2064   -5.5355    0.2222 C   0  0  1  0  0  0  0  0  0  0  0  0
   -2.8325   -4.8744    1.4327 O   0  0  0  0  0  0  0  0  0  0  0  0
   -2.0919   -5.6028   -0.8165 C   0  0  2  0  0  0  0  0  0  0  0  0
   -1.8900   -4.4777   -1.6799 O   0  0  0  0  0  0  0  0  0  0  0  0
   -2.5114   -6.8137   -1.6311 C   0  0  2  0  0  0  0  0  0  0  0  0
   -3.2817   -7.6611   -0.7525 O   0  0  0  0  0  0  0  0  0  0  0  0
   -1.2317   -7.5022   -2.1392 C   0  0  0  0  0  0  0  0  0  0  0  0
   -0.3881   -7.9468   -1.0676 O   0  0  0  0  0  0  0  0  0  0  0  0
   -3.8958   -7.4520   -3.5029 C   0  0  2  0  0  0  0  0  0  0  0  0
   -3.3828   -6.3823   -2.6900 O   0  0  0  0  0  0  0  0  0  0  0  0
   -4.4229   -6.8353   -4.7852 C   0  0  2  0  0  0  0  0  0  0  0  0
   -3.4367   -5.9451   -5.3192 O   0  0  0  0  0  0  0  0  0  0  0  0
   -5.6774   -6.0351   -4.5118 C   0  0  1  0  0  0  0  0  0  0  0  0
   -6.2742   -5.6822   -5.7619 O   0  0  0  0  0  0  0  0  0  0  0  0
   -6.6531   -6.8402   -3.6747 C   0  0  2  0  0  0  0  0  0  0  0  0
   -7.7297   -5.9945   -3.2937 O   0  0  0  0  0  0  0  0  0  0  0  0
   -5.9995   -7.4023   -2.4195 C   0  0  2  0  0  0  0  0  0  0  0  0
   -4.9042   -8.2080   -2.8327 O   0  0  0  0  0  0  0  0  0  0  0  0
   -6.9893   -8.2287   -1.5897 C   0  0  0  0  0  0  0  0  0  0  0  0
   -8.0540   -7.4404   -1.0379 O   0  0  0  0  0  0  0  0  0  0  0  0
  1  2  1  0  0  0  0
  3  1  1  6  0  0  0
  3  9  1  0  0  0  0
  3  4  1  0  0  0  0
  4  5  1  1  0  0  0
  4  6  1  0  0  0  0
  6  7  1  6  0  0  0
  6  8  1  0  0  0  0
  8  9  1  0  0  0  0
  8 10  1  6  0  0  0
  8 13  1  0  0  0  0
 10 11  1  0  0  0  0
 12 13  1  1  0  0  0
 12 14  1  0  0  0  0
 12 21  1  0  0  0  0
 14 15  1  1  0  0  0
 14 16  1  0  0  0  0
 16 17  1  6  0  0  0
 16 18  1  0  0  0  0
 18 19  1  1  0  0  0
 18 20  1  0  0  0  0
 20 21  1  0  0  0  0
 20 22  1  6  0  0  0
 22 23  1  0  0  0  0
M  END
>  <CHROM.1>
-177.40070576,60.64063651,-162.98735987,-177.52104559,-66.00046280,-4.26810070
-6.77794471,-1.94173124,0.78776315,0.19534281,1.76931580

>  <Name>
ligand

>  <RI>
0

>  <Rbt.Current_Directory>
/home/itssahil/PROJECTS/Mol_Feturizer/New_Systems/rnas/4TS2

>  <Rbt.Executable>
rbdock ($Id: //depot/dev/client3/rdock/2013.1/src/exe/rbdock.cxx#4 $)

>  <Rbt.Library>
libRbt.so (2013.1, Build901 2013/11/27)

>  <Rbt.Parameter_File>
/export/apps/rDock/src/rDock_2013.1_src/data/scripts/dock_solv.prm

>  <Rbt.Receptor>
prm/pocket_docking_6.prm

>  <SCORE>
-10.5352

>  <SCORE.INTER>
-3.65247

>  <SCORE.INTER.CONST>
1

>  <SCORE.INTER.POLAR>
0

>  <SCORE.INTER.ROT>
5

>  <SCORE.INTER.SOLV>
9.25387

>  <SCORE.INTER.VDW>
-12.4529

>  <SCORE.INTER.norm>
-0.158803

>  <SCORE.INTRA>
-6.88268

>  <SCORE.INTRA.DIHEDRAL>
-10.9315

>  <SCORE.INTRA.DIHEDRAL.0>
12.4853

>  <SCORE.INTRA.POLAR>
0

>  <SCORE.INTRA.POLAR.0>
0

>  <SCORE.INTRA.REPUL>
0

>  <SCORE.INTRA.REPUL.0>
0

>  <SCORE.INTRA.SOLV>
0.277307

>  <SCORE.INTRA.SOLV.lig_0>
-31.1706

>  <SCORE.INTRA.VDW>
-1.55559

>  <SCORE.INTRA.VDW.0>
-1.16895

>  <SCORE.INTRA.norm>
-0.299247

>  <SCORE.RESTR>
0

>  <SCORE.RESTR.CAVITY>
0

>  <SCORE.RESTR.norm>
0

>  <SCORE.SYSTEM>
0

>  <SCORE.SYSTEM.CONST>
0

>  <SCORE.SYSTEM.DIHEDRAL>
0

>  <SCORE.SYSTEM.SOLV>
0

>  <SCORE.SYSTEM.norm>
0

>  <SCORE.heavy>
23

>  <SCORE.norm>
-0.45805

>  <RMSD>
6.927

$$$$
ligand
 OpenBabel11021811513D
libRbt.so/2013.1/901 2013/11/27
 23 24  0  0  0  0  0  0  0  0999 V2000
   -4.6750   -7.1874    1.4730 C   0  0  0  0  0  0  0  0  0  0  0  0
   -4.7288   -8.5981    1.7603 O   0  0  0  0  0  0  0  0  0  0  0  0
   -3.3785   -6.8806    0.7373 C   0  0  2  0  0  0  0  0  0  0  0  0
   -3.1438   -5.4152    0.4041 C   0  0  1  0  0  0  0  0  0  0  0  0
   -2.6634   -4.7358    1.5659 O   0  0  0  0  0  0  0  0  0  0  0  0
   -2.1227   -5.5098   -0.7246 C   0  0  2  0  0  0  0  0  0  0  0  0
   -1.9881   -4.4018   -1.6226 O   0  0  0  0  0  0  0  0  0  0  0  0
   -2.6183   -6.7315   -1.4781 C   0  0  2  0  0  0  0  0  0  0  0  0
   -3.3161   -7.5570   -0.5215 O   0  0  0  0  0  0  0  0  0  0  0  0
   -1.3913   -7.4392   -2.0810 C   0  0  0  0  0  0  0  0  0  0  0  0
   -0.4625   -7.8723   -1.0774 O   0  0  0  0  0  0  0  0  0  0  0  0
   -4.2040   -7.3944   -3.1733 C   0  0  2  0  0  0  0  0  0  0  0  0
   -3.5743   -6.3119   -2.4664 O   0  0  0  0  0  0  0  0  0  0  0  0
   -4.5315   -6.8961   -4.5686 C   0  0  2  0  0  0  0  0  0  0  0  0
   -3.3755   -6.2597   -5.1243 O   0  0  0  0  0  0  0  0  0  0  0  0
   -5.6488   -5.8773   -4.5188 C   0  0  1  0  0  0  0  0  0  0  0  0
   -6.0915   -5.6209   -5.8536 O   0  0  0  0  0  0  0  0  0  0  0  0
   -6.8007   -6.3880   -3.6743 C   0  0  2  0  0  0  0  0  0  0  0  0
   -7.7426   -5.3371   -3.5081 O   0  0  0  0  0  0  0  0  0  0  0  0
   -6.3377   -6.8569   -2.3015 C   0  0  2  0  0  0  0  0  0  0  0  0
   -5.3684   -7.8765   -2.5030 O   0  0  0  0  0  0  0  0  0  0  0  0
   -7.5065   -7.3873   -1.4627 C   0  0  0  0  0  0  0  0  0  0  0  0
   -7.1016   -7.8517   -0.1665 O   0  0  0  0  0  0  0  0  0  0  0  0
  1  2  1  0  0  0  0
  3  1  1  6  0  0  0
  3  9  1  0  0  0  0
  3  4  1  0  0  0  0
  4  5  1  1  0  0  0
  4  6  1  0  0  0  0
  6  7  1  6  0  0  0
  6  8  1  0  0  0  0
  8  9  1  0  0  0  0
  8 10  1  6  0  0  0
  8 13  1  0  0  0  0
 10 11  1  0  0  0  0
 12 13  1  1  0  0  0
 12 14  1  0  0  0  0
 12 21  1  0  0  0  0
 14 15  1  1  0  0  0
 14 16  1  0  0  0  0
 16 17  1  6  0  0  0
 16 18  1  0  0  0  0
 18 19  1  1  0  0  0
 18 20  1  0  0  0  0
 20 21  1  0  0  0  0
 20 22  1  1  0  0  0
 22 23  1  0  0  0  0
M  END
>  <CHROM.1>
-177.85188281,60.67772312,-149.36028770,-175.00022397,179.35042837,-4.29418535
-6.62755165,-1.76837087,0.91449700,0.15522618,1.76766579

>  <Name>
ligand

>  <RI>
0

>  <Rbt.Current_Directory>
/home/itssahil/PROJECTS/Mol_Feturizer/New_Systems/rnas/4TS2

>  <Rbt.Executable>
rbdock ($Id: //depot/dev/client3/rdock/2013.1/src/exe/rbdock.cxx#4 $)

>  <Rbt.Library>
libRbt.so (2013.1, Build901 2013/11/27)

>  <Rbt.Parameter_File>
/export/apps/rDock/src/rDock_2013.1_src/data/scripts/dock_solv.prm

>  <Rbt.Receptor>
prm/pocket_docking_6.prm

>  <SCORE>
-10.3042

>  <SCORE.INTER>
-4.52208

>  <SCORE.INTER.CONST>
1

>  <SCORE.INTER.POLAR>
0

>  <SCORE.INTER.ROT>
5

>  <SCORE.INTER.SOLV>
10.1991

>  <SCORE.INTER.VDW>
-13.3477

>  <SCORE.INTER.norm>
-0.196612

>  <SCORE.INTRA>
-5.78212

>  <SCORE.INTRA.DIHEDRAL>
-8.64669

>  <SCORE.INTRA.DIHEDRAL.0>
12.4853

>  <SCORE.INTRA.POLAR>
0

>  <SCORE.INTRA.POLAR.0>
0

>  <SCORE.INTRA.REPUL>
0

>  <SCORE.INTRA.REPUL.0>
0

>  <SCORE.INTRA.SOLV>
0.28777

>  <SCORE.INTRA.SOLV.lig_0>
-31.1706

>  <SCORE.INTRA.VDW>
-1.60266

>  <SCORE.INTRA.VDW.0>
-1.16895

>  <SCORE.INTRA.norm>
-0.251396

>  <SCORE.RESTR>
0

>  <SCORE.RESTR.CAVITY>
0

>  <SCORE.RESTR.norm>
0

>  <SCORE.SYSTEM>
0

>  <SCORE.SYSTEM.CONST>
0

>  <SCORE.SYSTEM.DIHEDRAL>
0

>  <SCORE.SYSTEM.SOLV>
0

>  <SCORE.SYSTEM.norm>
0

>  <SCORE.heavy>
23

>  <SCORE.norm>
-0.448008

>  <RMSD>
6.946

$$$$
ligand
 OpenBabel11021811513D
libRbt.so/2013.1/901 2013/11/27
 23 24  0  0  0  0  0  0  0  0999 V2000
   -2.7019   -7.4993   -5.6601 C   0  0  0  0  0  0  0  0  0  0  0  0
   -3.4438   -8.5463   -5.0053 O   0  0  0  0  0  0  0  0  0  0  0  0
   -1.8880   -6.7434   -4.6196 C   0  0  2  0  0  0  0  0  0  0  0  0
   -0.9211   -7.5871   -3.8029 C   0  0  1  0  0  0  0  0  0  0  0  0
    0.2591   -7.8321   -4.5705 O   0  0  0  0  0  0  0  0  0  0  0  0
   -0.6923   -6.7060   -2.5795 C   0  0  2  0  0  0  0  0  0  0  0  0
   -0.2250   -7.3177   -1.3713 O   0  0  0  0  0  0  0  0  0  0  0  0
   -2.0779   -6.1232   -2.3640 C   0  0  2  0  0  0  0  0  0  0  0  0
   -2.7303   -6.1114   -3.6515 O   0  0  0  0  0  0  0  0  0  0  0  0
   -1.9054   -4.7098   -1.7792 C   0  0  0  0  0  0  0  0  0  0  0  0
   -1.2871   -4.7256   -0.4850 O   0  0  0  0  0  0  0  0  0  0  0  0
   -4.0782   -6.4634   -1.0560 C   0  0  2  0  0  0  0  0  0  0  0  0
   -2.8249   -7.0045   -1.5083 O   0  0  0  0  0  0  0  0  0  0  0  0
   -4.6906   -7.4721   -0.1021 C   0  0  2  0  0  0  0  0  0  0  0  0
   -3.7032   -7.8762    0.8529 O   0  0  0  0  0  0  0  0  0  0  0  0
   -5.1467   -8.7032   -0.8539 C   0  0  1  0  0  0  0  0  0  0  0  0
   -5.9312   -9.5105    0.0272 O   0  0  0  0  0  0  0  0  0  0  0  0
   -5.9620   -8.3140   -2.0724 C   0  0  2  0  0  0  0  0  0  0  0  0
   -6.2155   -9.4820   -2.8410 O   0  0  0  0  0  0  0  0  0  0  0  0
   -5.2360   -7.2981   -2.9440 C   0  0  2  0  0  0  0  0  0  0  0  0
   -4.9611   -6.1616   -2.1362 O   0  0  0  0  0  0  0  0  0  0  0  0
   -6.0756   -6.8983   -4.1631 C   0  0  0  0  0  0  0  0  0  0  0  0
   -7.3140   -6.2656   -3.8084 O   0  0  0  0  0  0  0  0  0  0  0  0
  1  2  1  0  0  0  0
  3  1  1  6  0  0  0
  3  9  1  0  0  0  0
  3  4  1  0  0  0  0
  4  5  1  6  0  0  0
  4  6  1  0  0  0  0
  6  7  1  1  0  0  0
  6  8  1  0  0  0  0
  8  9  1  0  0  0  0
  8 10  1  1  0  0  0
  8 13  1  0  0  0  0
 10 11  1  0  0  0  0
 12 13  1  6  0  0  0
 12 14  1  0  0  0  0
 12 21  1  0  0  0  0
 14 15  1  1  0  0  0
 14 16  1  0  0  0  0
 16 17  1  1  0  0  0
 16 18  1  0  0  0  0
 18 19  1  6  0  0  0
 18 20  1  0  0  0  0
 20 21  1  0  0  0  0
 20 22  1  6  0  0  0
 22 23  1  0  0  0  0
M  END
>  <CHROM.1>
57.34469023,-64.05616417,-176.42152932,170.63766866,61.93472338,-3.47463661
-7.20060962,-2.44682776,0.21120173,-0.28512857,-1.64922641

>  <Name>
ligand

>  <RI>
0

>  <Rbt.Current_Directory>
/home/itssahil/PROJECTS/Mol_Feturizer/New_Systems/rnas/4TS2

>  <Rbt.Executable>
rbdock ($Id: //depot/dev/client3/rdock/2013.1/src/exe/rbdock.cxx#4 $)

>  <Rbt.Library>
libRbt.so (2013.1, Build901 2013/11/27)

>  <Rbt.Parameter_File>
/export/apps/rDock/src/rDock_2013.1_src/data/scripts/dock_solv.prm

>  <Rbt.Receptor>
prm/pocket_docking_7.prm

>  <SCORE>
-6.21382

>  <SCORE.INTER>
0.472364

>  <SCORE.INTER.CONST>
1

>  <SCORE.INTER.POLAR>
0

>  <SCORE.INTER.ROT>
5

>  <SCORE.INTER.SOLV>
6.18011

>  <SCORE.INTER.VDW>
-8.67846

>  <SCORE.INTER.norm>
0.0205376

>  <SCORE.INTRA>
-6.68618

>  <SCORE.INTRA.DIHEDRAL>
-11.7321

>  <SCORE.INTRA.DIHEDRAL.0>
12.4853

>  <SCORE.INTRA.POLAR>
0

>  <SCORE.INTRA.POLAR.0>
0

>  <SCORE.INTRA.REPUL>
0

>  <SCORE.INTRA.REPUL.0>
0

>  <SCORE.INTRA.SOLV>
1.26506

>  <SCORE.INTRA.SOLV.lig_0>
-31.1706

>  <SCORE.INTRA.VDW>
-1.45265

>  <SCORE.INTRA.VDW.0>
-1.16895

>  <SCORE.INTRA.norm>
-0.290704

>  <SCORE.RESTR>
0

>  <SCORE.RESTR.CAVITY>
0

>  <SCORE.RESTR.norm>
0

>  <SCORE.SYSTEM>
0

>  <SCORE.SYSTEM.CONST>
0

>  <SCORE.SYSTEM.DIHEDRAL>
0

>  <SCORE.SYSTEM.SOLV>
0

>  <SCORE.SYSTEM.norm>
0

>  <SCORE.heavy>
23

>  <SCORE.norm>
-0.270166

>  <RMSD>
6.946

$$$$
ligand
 OpenBabel11021811513D
libRbt.so/2013.1/901 2013/11/27
 23 24  0  0  0  0  0  0  0  0999 V2000
   -2.1870   -9.9294   -5.5846 C   0  0  0  0  0  0  0  0  0  0  0  0
   -1.1242   -9.1042   -5.0698 O   0  0  0  0  0  0  0  0  0  0  0  0
   -2.5605  -10.9675   -4.5361 C   0  0  2  0  0  0  0  0  0  0  0  0
   -3.6789  -11.9217   -4.9265 C   0  0  1  0  0  0  0  0  0  0  0  0
   -3.1545  -12.9449   -5.7751 O   0  0  0  0  0  0  0  0  0  0  0  0
   -4.1498  -12.4259   -3.5666 C   0  0  2  0  0  0  0  0  0  0  0  0
   -5.4695  -12.9724   -3.4570 O   0  0  0  0  0  0  0  0  0  0  0  0
   -4.0369  -11.1684   -2.7229 C   0  0  2  0  0  0  0  0  0  0  0  0
   -3.0095  -10.3529   -3.3251 O   0  0  0  0  0  0  0  0  0  0  0  0
   -3.6813  -11.5978   -1.2880 C   0  0  0  0  0  0  0  0  0  0  0  0
   -3.3255  -10.4843   -0.4567 O   0  0  0  0  0  0  0  0  0  0  0  0
   -5.3072   -9.2436   -2.0094 C   0  0  2  0  0  0  0  0  0  0  0  0
   -5.2732  -10.4394   -2.8074 O   0  0  0  0  0  0  0  0  0  0  0  0
   -6.7499   -8.7770   -1.9516 C   0  0  2  0  0  0  0  0  0  0  0  0
   -7.5895   -9.8854   -1.6097 O   0  0  0  0  0  0  0  0  0  0  0  0
   -7.1918   -8.2530   -3.3003 C   0  0  1  0  0  0  0  0  0  0  0  0
   -8.4553   -7.6027   -3.1448 O   0  0  0  0  0  0  0  0  0  0  0  0
   -6.1685   -7.2821   -3.8580 C   0  0  2  0  0  0  0  0  0  0  0  0
   -6.5325   -6.9557   -5.1923 O   0  0  0  0  0  0  0  0  0  0  0  0
   -4.7645   -7.8716   -3.8601 C   0  0  2  0  0  0  0  0  0  0  0  0
   -4.4478   -8.2248   -2.5204 O   0  0  0  0  0  0  0  0  0  0  0  0
   -3.7355   -6.8763   -4.4091 C   0  0  0  0  0  0  0  0  0  0  0  0
   -3.6093   -5.6969   -3.6012 O   0  0  0  0  0  0  0  0  0  0  0  0
  1  2  1  0  0  0  0
  3  1  1  6  0  0  0
  3  9  1  0  0  0  0
  3  4  1  0  0  0  0
  4  5  1  6  0  0  0
  4  6  1  0  0  0  0
  6  7  1  6  0  0  0
  6  8  1  0  0  0  0
  8  9  1  0  0  0  0
  8 10  1  1  0  0  0
  8 13  1  0  0  0  0
 10 11  1  0  0  0  0
 12 13  1  6  0  0  0
 12 14  1  0  0  0  0
 12 21  1  0  0  0  0
 14 15  1  6  0  0  0
 14 16  1  0  0  0  0
 16 17  1  1  0  0  0
 16 18  1  0  0  0  0
 18 19  1  6  0  0  0
 18 20  1  0  0  0  0
 20 21  1  0  0  0  0
 20 22  1  1  0  0  0
 22 23  1  0  0  0  0
M  END
>  <CHROM.1>
179.83557483,170.00652033,-167.14581806,177.99047845,63.51280429,-4.61713236
-9.59265545,-3.43147251,-0.78243706,0.52045833,-0.27192629

>  <Name>
ligand

>  <RI>
0

>  <Rbt.Current_Directory>
/home/itssahil/PROJECTS/Mol_Feturizer/New_Systems/rnas/4TS2

>  <Rbt.Executable>
rbdock ($Id: //depot/dev/client3/rdock/2013.1/src/exe/rbdock.cxx#4 $)

>  <Rbt.Library>
libRbt.so (2013.1, Build901 2013/11/27)

>  <Rbt.Parameter_File>
/export/apps/rDock/src/rDock_2013.1_src/data/scripts/dock_solv.prm

>  <Rbt.Receptor>
prm/pocket_docking_8.prm

>  <SCORE>
-8.40058

>  <SCORE.INTER>
-1.45902

>  <SCORE.INTER.CONST>
1

>  <SCORE.INTER.POLAR>
0

>  <SCORE.INTER.ROT>
5

>  <SCORE.INTER.SOLV>
6.88915

>  <SCORE.INTER.VDW>
-10.2024

>  <SCORE.INTER.norm>
-0.0634357

>  <SCORE.INTRA>
-6.94156

>  <SCORE.INTRA.DIHEDRAL>
-11.2705

>  <SCORE.INTRA.DIHEDRAL.0>
12.4853

>  <SCORE.INTRA.POLAR>
0

>  <SCORE.INTRA.POLAR.0>
0

>  <SCORE.INTRA.REPUL>
0

>  <SCORE.INTRA.REPUL.0>
0

>  <SCORE.INTRA.SOLV>
0.381544

>  <SCORE.INTRA.SOLV.lig_0>
-31.1706

>  <SCORE.INTRA.VDW>
-1.49706

>  <SCORE.INTRA.VDW.0>
-1.16895

>  <SCORE.INTRA.norm>
-0.301807

>  <SCORE.RESTR>
0

>  <SCORE.RESTR.CAVITY>
0

>  <SCORE.RESTR.norm>
0

>  <SCORE.SYSTEM>
0

>  <SCORE.SYSTEM.CONST>
0

>  <SCORE.SYSTEM.DIHEDRAL>
0

>  <SCORE.SYSTEM.SOLV>
0

>  <SCORE.SYSTEM.norm>
0

>  <SCORE.heavy>
23

>  <SCORE.norm>
-0.365243

>  <RMSD>
6.948

$$$$
ligand
 OpenBabel11021811513D
libRbt.so/2013.1/901 2013/11/27
 23 24  0  0  0  0  0  0  0  0999 V2000
   -4.4139   -7.7740    1.0807 C   0  0  0  0  0  0  0  0  0  0  0  0
   -5.5884   -7.3963    0.3368 O   0  0  0  0  0  0  0  0  0  0  0  0
   -3.1849   -7.1966    0.3931 C   0  0  2  0  0  0  0  0  0  0  0  0
   -3.1705   -5.6837    0.2365 C   0  0  1  0  0  0  0  0  0  0  0  0
   -2.7802   -5.0828    1.4729 O   0  0  0  0  0  0  0  0  0  0  0  0
   -2.1603   -5.4947   -0.8901 C   0  0  2  0  0  0  0  0  0  0  0  0
   -2.1996   -4.2811   -1.6503 O   0  0  0  0  0  0  0  0  0  0  0  0
   -2.4815   -6.6786   -1.7852 C   0  0  2  0  0  0  0  0  0  0  0  0
   -3.0399   -7.7039   -0.9364 O   0  0  0  0  0  0  0  0  0  0  0  0
   -1.1719   -7.1233   -2.4610 C   0  0  0  0  0  0  0  0  0  0  0  0
   -0.1902   -7.5647   -1.5128 O   0  0  0  0  0  0  0  0  0  0  0  0
   -3.8191   -7.2980   -3.6970 C   0  0  2  0  0  0  0  0  0  0  0  0
   -3.5004   -6.2900   -2.7220 O   0  0  0  0  0  0  0  0  0  0  0  0
   -4.4655   -6.5989   -4.8784 C   0  0  2  0  0  0  0  0  0  0  0  0
   -3.6652   -5.4726   -5.2541 O   0  0  0  0  0  0  0  0  0  0  0  0
   -5.8417   -6.0925   -4.5064 C   0  0  1  0  0  0  0  0  0  0  0  0
   -6.5081   -5.6672   -5.6974 O   0  0  0  0  0  0  0  0  0  0  0  0
   -6.6436   -7.1806   -3.8180 C   0  0  2  0  0  0  0  0  0  0  0  0
   -7.8520   -6.6141   -3.3297 O   0  0  0  0  0  0  0  0  0  0  0  0
   -5.8831   -7.7995   -2.6529 C   0  0  2  0  0  0  0  0  0  0  0  0
   -4.6641   -8.3189   -3.1666 O   0  0  0  0  0  0  0  0  0  0  0  0
   -6.6950   -8.9098   -1.9753 C   0  0  0  0  0  0  0  0  0  0  0  0
   -7.0262   -9.9857   -2.8654 O   0  0  0  0  0  0  0  0  0  0  0  0
  1  2  1  0  0  0  0
  3  1  1  6  0  0  0
  3  9  1  0  0  0  0
  3  4  1  0  0  0  0
  4  5  1  1  0  0  0
  4  6  1  0  0  0  0
  6  7  1  6  0  0  0
  6  8  1  0  0  0  0
  8  9  1  0  0  0  0
  8 10  1  6  0  0  0
  8 13  1  0  0  0  0
 10 11  1  0  0  0  0
 12 13  1  1  0  0  0
 12 14  1  0  0  0  0
 12 21  1  0  0  0  0
 14 15  1  1  0  0  0
 14 16  1  0  0  0  0
 16 17  1  6  0  0  0
 16 18  1  0  0  0  0
 18 19  1  1  0  0  0
 18 20  1  0  0  0  0
 20 21  1  0  0  0  0
 20 22  1  6  0  0  0
 22 23  1  0  0  0  0
M  END
>  <CHROM.1>
58.41449126,62.23684204,-158.74352140,175.39326151,59.91596201,-4.22493177
-6.87727593,-2.18899662,0.63208657,0.44697946,1.85893361

>  <Name>
ligand

>  <RI>
0

>  <Rbt.Current_Directory>
/home/itssahil/PROJECTS/Mol_Feturizer/New_Systems/rnas/4TS2

>  <Rbt.Executable>
rbdock ($Id: //depot/dev/client3/rdock/2013.1/src/exe/rbdock.cxx#4 $)

>  <Rbt.Library>
libRbt.so (2013.1, Build901 2013/11/27)

>  <Rbt.Parameter_File>
/export/apps/rDock/src/rDock_2013.1_src/data/scripts/dock_solv.prm

>  <Rbt.Receptor>
prm/pocket_docking_7.prm

>  <SCORE>
-9.26688

>  <SCORE.INTER>
-3.26875

>  <SCORE.INTER.CONST>
1

>  <SCORE.INTER.POLAR>
0

>  <SCORE.INTER.ROT>
5

>  <SCORE.INTER.SOLV>
9.51413

>  <SCORE.INTER.VDW>
-12.2839

>  <SCORE.INTER.norm>
-0.14212

>  <SCORE.INTRA>
-5.99813

>  <SCORE.INTRA.DIHEDRAL>
-10.2079

>  <SCORE.INTRA.DIHEDRAL.0>
12.4853

>  <SCORE.INTRA.POLAR>
0

>  <SCORE.INTRA.POLAR.0>
0

>  <SCORE.INTRA.REPUL>
0

>  <SCORE.INTRA.REPUL.0>
0

>  <SCORE.INTRA.SOLV>
0.92665

>  <SCORE.INTRA.SOLV.lig_0>
-31.1706

>  <SCORE.INTRA.VDW>
-1.35752

>  <SCORE.INTRA.VDW.0>
-1.16895

>  <SCORE.INTRA.norm>
-0.260788

>  <SCORE.RESTR>
0

>  <SCORE.RESTR.CAVITY>
0

>  <SCORE.RESTR.norm>
0

>  <SCORE.SYSTEM>
0

>  <SCORE.SYSTEM.CONST>
0

>  <SCORE.SYSTEM.DIHEDRAL>
0

>  <SCORE.SYSTEM.SOLV>
0

>  <SCORE.SYSTEM.norm>
0

>  <SCORE.heavy>
23

>  <SCORE.norm>
-0.402908

>  <RMSD>
6.985

$$$$
ligand
 OpenBabel11021811513D
libRbt.so/2013.1/901 2013/11/27
 23 24  0  0  0  0  0  0  0  0999 V2000
   -4.6746   -7.6154    0.5492 C   0  0  0  0  0  0  0  0  0  0  0  0
   -4.6756   -7.0582    1.8778 O   0  0  0  0  0  0  0  0  0  0  0  0
   -3.3346   -7.3221   -0.1101 C   0  0  2  0  0  0  0  0  0  0  0  0
   -3.0069   -5.8495   -0.3042 C   0  0  1  0  0  0  0  0  0  0  0  0
   -2.5374   -5.3017    0.9294 O   0  0  0  0  0  0  0  0  0  0  0  0
   -1.9477   -5.9057   -1.3998 C   0  0  2  0  0  0  0  0  0  0  0  0
   -1.7165   -4.7342   -2.1912 O   0  0  0  0  0  0  0  0  0  0  0  0
   -2.4784   -7.0272   -2.2753 C   0  0  2  0  0  0  0  0  0  0  0  0
   -3.2584   -7.8901   -1.4207 O   0  0  0  0  0  0  0  0  0  0  0  0
   -1.2686   -7.7503   -2.8943 C   0  0  0  0  0  0  0  0  0  0  0  0
   -0.5084   -6.8983   -3.7626 O   0  0  0  0  0  0  0  0  0  0  0  0
   -4.0683   -7.4501   -4.0420 C   0  0  2  0  0  0  0  0  0  0  0  0
   -3.3693   -6.4694   -3.2561 O   0  0  0  0  0  0  0  0  0  0  0  0
   -4.6154   -6.7435   -5.2683 C   0  0  2  0  0  0  0  0  0  0  0  0
   -3.5740   -5.9631   -5.8654 O   0  0  0  0  0  0  0  0  0  0  0  0
   -5.7400   -5.8076   -4.8830 C   0  0  1  0  0  0  0  0  0  0  0  0
   -6.3852   -5.3554   -6.0757 O   0  0  0  0  0  0  0  0  0  0  0  0
   -6.7373   -6.5124   -3.9832 C   0  0  2  0  0  0  0  0  0  0  0  0
   -7.6719   -5.5551   -3.5041 O   0  0  0  0  0  0  0  0  0  0  0  0
   -6.0605   -7.1791   -2.7932 C   0  0  2  0  0  0  0  0  0  0  0  0
   -5.1050   -8.0981   -3.3053 O   0  0  0  0  0  0  0  0  0  0  0  0
   -7.0749   -7.9031   -1.9000 C   0  0  0  0  0  0  0  0  0  0  0  0
   -7.8063   -8.9239   -2.5949 O   0  0  0  0  0  0  0  0  0  0  0  0
  1  2  1  0  0  0  0
  3  1  1  6  0  0  0
  3  9  1  0  0  0  0
  3  4  1  0  0  0  0
  4  5  1  1  0  0  0
  4  6  1  0  0  0  0
  6  7  1  6  0  0  0
  6  8  1  0  0  0  0
  8  9  1  0  0  0  0
  8 10  1  6  0  0  0
  8 13  1  0  0  0  0
 10 11  1  0  0  0  0
 12 13  1  1  0  0  0
 12 14  1  0  0  0  0
 12 21  1  0  0  0  0
 14 15  1  1  0  0  0
 14 16  1  0  0  0  0
 16 17  1  6  0  0  0
 16 18  1  0  0  0  0
 18 19  1  1  0  0  0
 18 20  1  0  0  0  0
 20 21  1  0  0  0  0
 20 22  1  6  0  0  0
 22 23  1  0  0  0  0
M  END
>  <CHROM.1>
-62.25972105,-63.66445387,-163.10279103,-172.65335732,59.26779404,-4.24963786
-6.74288031,-2.54364062,0.81944376,0.18455997,1.71993847

>  <Name>
ligand

>  <RI>
0

>  <Rbt.Current_Directory>
/home/itssahil/PROJECTS/Mol_Feturizer/New_Systems/rnas/4TS2

>  <Rbt.Executable>
rbdock ($Id: //depot/dev/client3/rdock/2013.1/src/exe/rbdock.cxx#4 $)

>  <Rbt.Library>
libRbt.so (2013.1, Build901 2013/11/27)

>  <Rbt.Parameter_File>
/export/apps/rDock/src/rDock_2013.1_src/data/scripts/dock_solv.prm

>  <Rbt.Receptor>
prm/pocket_docking_6.prm

>  <SCORE>
-10.5847

>  <SCORE.INTER>
-3.79314

>  <SCORE.INTER.CONST>
1

>  <SCORE.INTER.POLAR>
0

>  <SCORE.INTER.ROT>
5

>  <SCORE.INTER.SOLV>
9.97813

>  <SCORE.INTER.VDW>
-12.7881

>  <SCORE.INTER.norm>
-0.164919

>  <SCORE.INTRA>
-6.79154

>  <SCORE.INTRA.DIHEDRAL>
-10.904

>  <SCORE.INTRA.DIHEDRAL.0>
12.4853

>  <SCORE.INTRA.POLAR>
0

>  <SCORE.INTRA.POLAR.0>
0

>  <SCORE.INTRA.REPUL>
0

>  <SCORE.INTRA.REPUL.0>
0

>  <SCORE.INTRA.SOLV>
0.564405

>  <SCORE.INTRA.SOLV.lig_0>
-31.1706

>  <SCORE.INTRA.VDW>
-1.62173

>  <SCORE.INTRA.VDW.0>
-1.16895

>  <SCORE.INTRA.norm>
-0.295284

>  <SCORE.RESTR>
0

>  <SCORE.RESTR.CAVITY>
0

>  <SCORE.RESTR.norm>
0

>  <SCORE.SYSTEM>
0

>  <SCORE.SYSTEM.CONST>
0

>  <SCORE.SYSTEM.DIHEDRAL>
0

>  <SCORE.SYSTEM.SOLV>
0

>  <SCORE.SYSTEM.norm>
0

>  <SCORE.heavy>
23

>  <SCORE.norm>
-0.460203

>  <RMSD>
7.127

$$$$
ligand
 OpenBabel11021811513D
libRbt.so/2013.1/901 2013/11/27
 23 24  0  0  0  0  0  0  0  0999 V2000
  -11.8582  -10.4802    2.6114 C   0  0  0  0  0  0  0  0  0  0  0  0
  -12.2084  -10.9047    3.9428 O   0  0  0  0  0  0  0  0  0  0  0  0
  -13.1086   -9.9710    1.9087 C   0  0  2  0  0  0  0  0  0  0  0  0
  -14.1963  -11.0074    1.6716 C   0  0  1  0  0  0  0  0  0  0  0  0
  -14.9357  -11.2032    2.8787 O   0  0  0  0  0  0  0  0  0  0  0  0
  -15.0029  -10.3642    0.5487 C   0  0  2  0  0  0  0  0  0  0  0  0
  -15.8210  -11.2029   -0.2757 O   0  0  0  0  0  0  0  0  0  0  0  0
  -13.9049   -9.7284   -0.2856 C   0  0  2  0  0  0  0  0  0  0  0  0
  -12.8070   -9.4528    0.6100 O   0  0  0  0  0  0  0  0  0  0  0  0
  -14.4806   -8.4500   -0.9210 C   0  0  0  0  0  0  0  0  0  0  0  0
  -15.5410   -8.7292   -1.8458 O   0  0  0  0  0  0  0  0  0  0  0  0
  -12.6732  -10.1146   -2.3256 C   0  0  2  0  0  0  0  0  0  0  0  0
  -13.4436  -10.6857   -1.2540 O   0  0  0  0  0  0  0  0  0  0  0  0
  -12.2153  -11.2561   -3.2142 C   0  0  2  0  0  0  0  0  0  0  0  0
  -13.3341  -12.0986   -3.5120 O   0  0  0  0  0  0  0  0  0  0  0  0
  -11.1734  -12.0939   -2.5060 C   0  0  1  0  0  0  0  0  0  0  0  0
  -10.5940  -12.9957   -3.4518 O   0  0  0  0  0  0  0  0  0  0  0  0
  -10.0997  -11.2108   -1.8991 C   0  0  2  0  0  0  0  0  0  0  0  0
   -9.2471  -12.0180   -1.0985 O   0  0  0  0  0  0  0  0  0  0  0  0
  -10.6910  -10.1074   -1.0322 C   0  0  2  0  0  0  0  0  0  0  0  0
  -11.5684   -9.3456   -1.8505 O   0  0  0  0  0  0  0  0  0  0  0  0
   -9.5987   -9.2102   -0.4380 C   0  0  0  0  0  0  0  0  0  0  0  0
   -8.7666   -9.8931    0.5112 O   0  0  0  0  0  0  0  0  0  0  0  0
  1  2  1  0  0  0  0
  3  1  1  6  0  0  0
  3  9  1  0  0  0  0
  3  4  1  0  0  0  0
  4  5  1  1  0  0  0
  4  6  1  0  0  0  0
  6  7  1  6  0  0  0
  6  8  1  0  0  0  0
  8  9  1  0  0  0  0
  8 10  1  6  0  0  0
  8 13  1  0  0  0  0
 10 11  1  0  0  0  0
 12 13  1  1  0  0  0
 12 14  1  0  0  0  0
 12 21  1  0  0  0  0
 14 15  1  1  0  0  0
 14 16  1  0  0  0  0
 16 17  1  6  0  0  0
 16 18  1  0  0  0  0
 18 19  1  1  0  0  0
 18 20  1  0  0  0  0
 20 21  1  0  0  0  0
 20 22  1  6  0  0  0
 22 23  1  0  0  0  0
M  END
>  <CHROM.1>
-64.20988214,-64.61091485,177.46145316,164.18787320,-66.79514084,-12.48892995
-10.55909122,-0.48031699,-2.32361313,0.12927084,-1.70875615

>  <Name>
ligand

>  <RI>
0

>  <Rbt.Current_Directory>
/home/itssahil/PROJECTS/Mol_Feturizer/New_Systems/rnas/4TS2

>  <Rbt.Executable>
rbdock ($Id: //depot/dev/client3/rdock/2013.1/src/exe/rbdock.cxx#4 $)

>  <Rbt.Library>
libRbt.so (2013.1, Build901 2013/11/27)

>  <Rbt.Parameter_File>
/export/apps/rDock/src/rDock_2013.1_src/data/scripts/dock_solv.prm

>  <Rbt.Receptor>
prm/pocket_docking_8.prm

>  <SCORE>
-7.80917

>  <SCORE.INTER>
-2.37389

>  <SCORE.INTER.CONST>
1

>  <SCORE.INTER.POLAR>
0

>  <SCORE.INTER.ROT>
5

>  <SCORE.INTER.SOLV>
5.04255

>  <SCORE.INTER.VDW>
-10.1968

>  <SCORE.INTER.norm>
-0.103213

>  <SCORE.INTRA>
-5.43528

>  <SCORE.INTRA.DIHEDRAL>
-10.7519

>  <SCORE.INTRA.DIHEDRAL.0>
12.4853

>  <SCORE.INTRA.POLAR>
0

>  <SCORE.INTRA.POLAR.0>
0

>  <SCORE.INTRA.REPUL>
0

>  <SCORE.INTRA.REPUL.0>
0

>  <SCORE.INTRA.SOLV>
0.658485

>  <SCORE.INTRA.SOLV.lig_0>
-31.1706

>  <SCORE.INTRA.VDW>
-0.38858

>  <SCORE.INTRA.VDW.0>
-1.16895

>  <SCORE.INTRA.norm>
-0.236316

>  <SCORE.RESTR>
0

>  <SCORE.RESTR.CAVITY>
0

>  <SCORE.RESTR.norm>
0

>  <SCORE.SYSTEM>
0

>  <SCORE.SYSTEM.CONST>
0

>  <SCORE.SYSTEM.DIHEDRAL>
0

>  <SCORE.SYSTEM.SOLV>
0

>  <SCORE.SYSTEM.norm>
0

>  <SCORE.heavy>
23

>  <SCORE.norm>
-0.339529

>  <RMSD>
7.128

$$$$
ligand
 OpenBabel11021811513D
libRbt.so/2013.1/901 2013/11/27
 23 24  0  0  0  0  0  0  0  0999 V2000
   -3.2734   -8.6016   -1.4366 C   0  0  0  0  0  0  0  0  0  0  0  0
   -2.6766   -7.5889   -0.6037 O   0  0  0  0  0  0  0  0  0  0  0  0
   -4.7481   -8.2784   -1.6298 C   0  0  2  0  0  0  0  0  0  0  0  0
   -5.5226   -9.2474   -2.5100 C   0  0  1  0  0  0  0  0  0  0  0  0
   -5.8609  -10.4103   -1.7514 O   0  0  0  0  0  0  0  0  0  0  0  0
   -6.7252   -8.4049   -2.9214 C   0  0  2  0  0  0  0  0  0  0  0  0
   -7.4475   -8.7713   -4.1030 O   0  0  0  0  0  0  0  0  0  0  0  0
   -6.0878   -7.0389   -3.1052 C   0  0  2  0  0  0  0  0  0  0  0  0
   -4.9295   -6.9998   -2.2449 O   0  0  0  0  0  0  0  0  0  0  0  0
   -7.1372   -5.9781   -2.7271 C   0  0  0  0  0  0  0  0  0  0  0  0
   -7.7709   -6.2596   -1.4714 O   0  0  0  0  0  0  0  0  0  0  0  0
   -4.8189   -5.7554   -4.7084 C   0  0  2  0  0  0  0  0  0  0  0  0
   -5.6241   -6.9209   -4.4609 O   0  0  0  0  0  0  0  0  0  0  0  0
   -4.7468   -5.5641   -6.2120 C   0  0  2  0  0  0  0  0  0  0  0  0
   -6.0668   -5.6473   -6.7606 O   0  0  0  0  0  0  0  0  0  0  0  0
   -3.9070   -6.6517   -6.8449 C   0  0  1  0  0  0  0  0  0  0  0  0
   -3.6601   -6.3012   -8.2086 O   0  0  0  0  0  0  0  0  0  0  0  0
   -2.5953   -6.8155   -6.1008 C   0  0  2  0  0  0  0  0  0  0  0  0
   -1.9223   -7.9574   -6.6131 O   0  0  0  0  0  0  0  0  0  0  0  0
   -2.8074   -6.9984   -4.6040 C   0  0  2  0  0  0  0  0  0  0  0  0
   -3.5176   -5.8617   -4.1314 O   0  0  0  0  0  0  0  0  0  0  0  0
   -1.4752   -7.1454   -3.8593 C   0  0  0  0  0  0  0  0  0  0  0  0
   -0.7714   -8.3487   -4.2004 O   0  0  0  0  0  0  0  0  0  0  0  0
  1  2  1  0  0  0  0
  3  1  1  6  0  0  0
  3  9  1  0  0  0  0
  3  4  1  0  0  0  0
  4  5  1  1  0  0  0
  4  6  1  0  0  0  0
  6  7  1  6  0  0  0
  6  8  1  0  0  0  0
  8  9  1  0  0  0  0
  8 10  1  1  0  0  0
  8 13  1  0  0  0  0
 10 11  1  0  0  0  0
 12 13  1  6  0  0  0
 12 14  1  0  0  0  0
 12 21  1  0  0  0  0
 14 15  1  6  0  0  0
 14 16  1  0  0  0  0
 16 17  1  6  0  0  0
 16 18  1  0  0  0  0
 18 19  1  6  0  0  0
 18 20  1  0  0  0  0
 20 21  1  0  0  0  0
 20 22  1  1  0  0  0
 22 23  1  0  0  0  0
M  END
>  <CHROM.1>
179.07459720,48.49071586,-164.17305449,-170.91903548,-66.22292548,-4.52010075
-7.29335306,-3.96479055,-2.14200053,0.17664836,-1.15792819

>  <Name>
ligand

>  <RI>
0

>  <Rbt.Current_Directory>
/home/itssahil/PROJECTS/Mol_Feturizer/New_Systems/rnas/4TS2

>  <Rbt.Executable>
rbdock ($Id: //depot/dev/client3/rdock/2013.1/src/exe/rbdock.cxx#4 $)

>  <Rbt.Library>
libRbt.so (2013.1, Build901 2013/11/27)

>  <Rbt.Parameter_File>
/export/apps/rDock/src/rDock_2013.1_src/data/scripts/dock_solv.prm

>  <Rbt.Receptor>
prm/pocket_docking_8.prm

>  <SCORE>
-8.84692

>  <SCORE.INTER>
-2.50381

>  <SCORE.INTER.CONST>
1

>  <SCORE.INTER.POLAR>
0

>  <SCORE.INTER.ROT>
5

>  <SCORE.INTER.SOLV>
10.2805

>  <SCORE.INTER.VDW>
-12.0294

>  <SCORE.INTER.norm>
-0.108861

>  <SCORE.INTRA>
-6.34311

>  <SCORE.INTRA.DIHEDRAL>
-10.4744

>  <SCORE.INTRA.DIHEDRAL.0>
12.4853

>  <SCORE.INTRA.POLAR>
0

>  <SCORE.INTRA.POLAR.0>
0

>  <SCORE.INTRA.REPUL>
0

>  <SCORE.INTRA.REPUL.0>
0

>  <SCORE.INTRA.SOLV>
0.516206

>  <SCORE.INTRA.SOLV.lig_0>
-31.1706

>  <SCORE.INTRA.VDW>
-1.36399

>  <SCORE.INTRA.VDW.0>
-1.16895

>  <SCORE.INTRA.norm>
-0.275787

>  <SCORE.RESTR>
0

>  <SCORE.RESTR.CAVITY>
0

>  <SCORE.RESTR.norm>
0

>  <SCORE.SYSTEM>
0

>  <SCORE.SYSTEM.CONST>
0

>  <SCORE.SYSTEM.DIHEDRAL>
0

>  <SCORE.SYSTEM.SOLV>
0

>  <SCORE.SYSTEM.norm>
0

>  <SCORE.heavy>
23

>  <SCORE.norm>
-0.384649

>  <RMSD>
7.235

$$$$
ligand
 OpenBabel11021811513D
libRbt.so/2013.1/901 2013/11/27
 23 24  0  0  0  0  0  0  0  0999 V2000
   -8.4632  -10.4633   -2.2351 C   0  0  0  0  0  0  0  0  0  0  0  0
   -7.2492   -9.9337   -1.6683 O   0  0  0  0  0  0  0  0  0  0  0  0
   -9.6358   -9.6024   -1.7875 C   0  0  2  0  0  0  0  0  0  0  0  0
   -9.8916   -9.5697   -0.2885 C   0  0  1  0  0  0  0  0  0  0  0  0
   -8.9726   -8.6666    0.3296 O   0  0  0  0  0  0  0  0  0  0  0  0
  -11.3450   -9.1120   -0.2283 C   0  0  2  0  0  0  0  0  0  0  0  0
  -12.1054   -9.3963    0.9520 O   0  0  0  0  0  0  0  0  0  0  0  0
  -11.9410   -9.8429   -1.4184 C   0  0  2  0  0  0  0  0  0  0  0  0
  -10.8669  -10.0533   -2.3594 O   0  0  0  0  0  0  0  0  0  0  0  0
  -13.0636   -8.9613   -1.9949 C   0  0  0  0  0  0  0  0  0  0  0  0
  -14.1372   -8.7655   -1.0639 O   0  0  0  0  0  0  0  0  0  0  0  0
  -12.9975  -11.9255   -2.0304 C   0  0  2  0  0  0  0  0  0  0  0  0
  -12.3989  -11.1360   -0.9881 O   0  0  0  0  0  0  0  0  0  0  0  0
  -13.5956  -13.1587   -1.3794 C   0  0  2  0  0  0  0  0  0  0  0  0
  -14.3786  -12.7610   -0.2486 O   0  0  0  0  0  0  0  0  0  0  0  0
  -12.5021  -14.0829   -0.8904 C   0  0  1  0  0  0  0  0  0  0  0  0
  -13.0931  -15.3288   -0.5138 O   0  0  0  0  0  0  0  0  0  0  0  0
  -11.4636  -14.3025   -1.9740 C   0  0  2  0  0  0  0  0  0  0  0  0
  -10.3732  -15.0246   -1.4181 O   0  0  0  0  0  0  0  0  0  0  0  0
  -10.9458  -12.9884   -2.5430 C   0  0  2  0  0  0  0  0  0  0  0  0
  -12.0637  -12.2738   -3.0523 O   0  0  0  0  0  0  0  0  0  0  0  0
   -9.9100  -13.2216   -3.6492 C   0  0  0  0  0  0  0  0  0  0  0  0
   -8.7047  -13.8350   -3.1690 O   0  0  0  0  0  0  0  0  0  0  0  0
  1  2  1  0  0  0  0
  3  1  1  1  0  0  0
  3  9  1  0  0  0  0
  3  4  1  0  0  0  0
  4  5  1  1  0  0  0
  4  6  1  0  0  0  0
  6  7  1  1  0  0  0
  6  8  1  0  0  0  0
  8  9  1  0  0  0  0
  8 10  1  6  0  0  0
  8 13  1  0  0  0  0
 10 11  1  0  0  0  0
 12 13  1  1  0  0  0
 12 14  1  0  0  0  0
 12 21  1  0  0  0  0
 14 15  1  1  0  0  0
 14 16  1  0  0  0  0
 16 17  1  6  0  0  0
 16 18  1  0  0  0  0
 18 19  1  1  0  0  0
 18 20  1  0  0  0  0
 20 21  1  0  0  0  0
 20 22  1  6  0  0  0
 22 23  1  0  0  0  0
M  END
>  <CHROM.1>
-62.45775973,-63.25826297,-172.18245395,179.52804698,-65.70041099,-11.29875731
-11.50176211,-1.44669079,-1.20265352,-0.25885424,-2.89351438

>  <Name>
ligand

>  <RI>
0

>  <Rbt.Current_Directory>
/home/itssahil/PROJECTS/Mol_Feturizer/New_Systems/rnas/4TS2

>  <Rbt.Executable>
rbdock ($Id: //depot/dev/client3/rdock/2013.1/src/exe/rbdock.cxx#4 $)

>  <Rbt.Library>
libRbt.so (2013.1, Build901 2013/11/27)

>  <Rbt.Parameter_File>
/export/apps/rDock/src/rDock_2013.1_src/data/scripts/dock_solv.prm

>  <Rbt.Receptor>
prm/pocket_docking_6.prm

>  <SCORE>
-8.0903

>  <SCORE.INTER>
-1.09235

>  <SCORE.INTER.CONST>
1

>  <SCORE.INTER.POLAR>
0

>  <SCORE.INTER.ROT>
5

>  <SCORE.INTER.SOLV>
4.88671

>  <SCORE.INTER.VDW>
-9.29047

>  <SCORE.INTER.norm>
-0.0474937

>  <SCORE.INTRA>
-6.99795

>  <SCORE.INTRA.DIHEDRAL>
-11.9549

>  <SCORE.INTRA.DIHEDRAL.0>
12.4853

>  <SCORE.INTRA.POLAR>
0

>  <SCORE.INTRA.POLAR.0>
0

>  <SCORE.INTRA.REPUL>
0

>  <SCORE.INTRA.REPUL.0>
0

>  <SCORE.INTRA.SOLV>
0.685682

>  <SCORE.INTRA.SOLV.lig_0>
-31.1706

>  <SCORE.INTRA.VDW>
-1.36335

>  <SCORE.INTRA.VDW.0>
-1.16895

>  <SCORE.INTRA.norm>
-0.304259

>  <SCORE.RESTR>
0

>  <SCORE.RESTR.CAVITY>
0

>  <SCORE.RESTR.norm>
0

>  <SCORE.SYSTEM>
0

>  <SCORE.SYSTEM.CONST>
0

>  <SCORE.SYSTEM.DIHEDRAL>
0

>  <SCORE.SYSTEM.SOLV>
0

>  <SCORE.SYSTEM.norm>
0

>  <SCORE.heavy>
23

>  <SCORE.norm>
-0.351752

>  <RMSD>
7.248

$$$$
ligand
 OpenBabel11021811513D
libRbt.so/2013.1/901 2013/11/27
 23 24  0  0  0  0  0  0  0  0999 V2000
   -3.4438   -9.7065   -1.7991 C   0  0  0  0  0  0  0  0  0  0  0  0
   -2.6025   -9.0435   -0.8358 O   0  0  0  0  0  0  0  0  0  0  0  0
   -4.8068   -9.0295   -1.8156 C   0  0  2  0  0  0  0  0  0  0  0  0
   -5.8241   -9.6255   -2.7765 C   0  0  1  0  0  0  0  0  0  0  0  0
   -6.3965  -10.7980   -2.1937 O   0  0  0  0  0  0  0  0  0  0  0  0
   -6.8091   -8.4735   -2.9447 C   0  0  2  0  0  0  0  0  0  0  0  0
   -7.6457   -8.4504   -4.1074 O   0  0  0  0  0  0  0  0  0  0  0  0
   -5.8747   -7.2765   -2.9536 C   0  0  2  0  0  0  0  0  0  0  0  0
   -4.7056   -7.6543   -2.1960 O   0  0  0  0  0  0  0  0  0  0  0  0
   -6.6268   -6.0910   -2.3222 C   0  0  0  0  0  0  0  0  0  0  0  0
   -7.6550   -5.5769   -3.1802 O   0  0  0  0  0  0  0  0  0  0  0  0
   -4.4477   -6.0051   -4.4283 C   0  0  2  0  0  0  0  0  0  0  0  0
   -5.4526   -7.0264   -4.3049 O   0  0  0  0  0  0  0  0  0  0  0  0
   -4.6915   -5.2842   -5.7410 C   0  0  2  0  0  0  0  0  0  0  0  0
   -6.0769   -4.9352   -5.8359 O   0  0  0  0  0  0  0  0  0  0  0  0
   -4.3538   -6.1834   -6.9100 C   0  0  1  0  0  0  0  0  0  0  0  0
   -4.3580   -5.3984   -8.1047 O   0  0  0  0  0  0  0  0  0  0  0  0
   -2.9954   -6.8290   -6.7127 C   0  0  2  0  0  0  0  0  0  0  0  0
   -2.7988   -7.7946   -7.7367 O   0  0  0  0  0  0  0  0  0  0  0  0
   -2.8815   -7.5163   -5.3586 C   0  0  2  0  0  0  0  0  0  0  0  0
   -3.1238   -6.5345   -4.3600 O   0  0  0  0  0  0  0  0  0  0  0  0
   -1.4993   -8.1503   -5.1622 C   0  0  0  0  0  0  0  0  0  0  0  0
   -1.3647   -8.8230   -3.9016 O   0  0  0  0  0  0  0  0  0  0  0  0
  1  2  1  0  0  0  0
  3  1  1  6  0  0  0
  3  9  1  0  0  0  0
  3  4  1  0  0  0  0
  4  5  1  1  0  0  0
  4  6  1  0  0  0  0
  6  7  1  6  0  0  0
  6  8  1  0  0  0  0
  8  9  1  0  0  0  0
  8 10  1  1  0  0  0
  8 13  1  0  0  0  0
 10 11  1  0  0  0  0
 12 13  1  6  0  0  0
 12 14  1  0  0  0  0
 12 21  1  0  0  0  0
 14 15  1  6  0  0  0
 14 16  1  0  0  0  0
 16 17  1  6  0  0  0
 16 18  1  0  0  0  0
 18 19  1  6  0  0  0
 18 20  1  0  0  0  0
 20 21  1  0  0  0  0
 20 22  1  1  0  0  0
 22 23  1  0  0  0  0
M  END
>  <CHROM.1>
-179.32958704,-72.09206392,-146.52591174,-173.56268856,-179.19498088,-4.62823968
-7.48944358,-4.16294820,-1.86053600,0.35692868,-0.93328444

>  <Name>
ligand

>  <RI>
0

>  <Rbt.Current_Directory>
/home/itssahil/PROJECTS/Mol_Feturizer/New_Systems/rnas/4TS2

>  <Rbt.Executable>
rbdock ($Id: //depot/dev/client3/rdock/2013.1/src/exe/rbdock.cxx#4 $)

>  <Rbt.Library>
libRbt.so (2013.1, Build901 2013/11/27)

>  <Rbt.Parameter_File>
/export/apps/rDock/src/rDock_2013.1_src/data/scripts/dock_solv.prm

>  <Rbt.Receptor>
prm/pocket_docking_8.prm

>  <SCORE>
-9.36993

>  <SCORE.INTER>
-3.94634

>  <SCORE.INTER.CONST>
1

>  <SCORE.INTER.POLAR>
0

>  <SCORE.INTER.ROT>
5

>  <SCORE.INTER.SOLV>
10.6479

>  <SCORE.INTER.VDW>
-13.1135

>  <SCORE.INTER.norm>
-0.17158

>  <SCORE.INTRA>
-5.42358

>  <SCORE.INTRA.DIHEDRAL>
-7.67359

>  <SCORE.INTRA.DIHEDRAL.0>
12.4853

>  <SCORE.INTRA.POLAR>
0

>  <SCORE.INTRA.POLAR.0>
0

>  <SCORE.INTRA.REPUL>
0

>  <SCORE.INTRA.REPUL.0>
0

>  <SCORE.INTRA.SOLV>
0.594547

>  <SCORE.INTRA.SOLV.lig_0>
-31.1706

>  <SCORE.INTRA.VDW>
-1.88406

>  <SCORE.INTRA.VDW.0>
-1.16895

>  <SCORE.INTRA.norm>
-0.235808

>  <SCORE.RESTR>
0

>  <SCORE.RESTR.CAVITY>
0

>  <SCORE.RESTR.norm>
0

>  <SCORE.SYSTEM>
0

>  <SCORE.SYSTEM.CONST>
0

>  <SCORE.SYSTEM.DIHEDRAL>
0

>  <SCORE.SYSTEM.SOLV>
0

>  <SCORE.SYSTEM.norm>
0

>  <SCORE.heavy>
23

>  <SCORE.norm>
-0.407388

>  <RMSD>
7.286

$$$$
ligand
 OpenBabel11021811513D
libRbt.so/2013.1/901 2013/11/27
 23 24  0  0  0  0  0  0  0  0999 V2000
   -2.0064  -10.4106   -4.3162 C   0  0  0  0  0  0  0  0  0  0  0  0
   -0.7982  -10.4869   -5.0972 O   0  0  0  0  0  0  0  0  0  0  0  0
   -1.8144   -9.3883   -3.2051 C   0  0  2  0  0  0  0  0  0  0  0  0
   -2.9764   -9.2488   -2.2336 C   0  0  1  0  0  0  0  0  0  0  0  0
   -2.9296  -10.3143   -1.2824 O   0  0  0  0  0  0  0  0  0  0  0  0
   -2.7194   -7.8708   -1.6331 C   0  0  2  0  0  0  0  0  0  0  0  0
   -3.8142   -7.1697   -1.0314 O   0  0  0  0  0  0  0  0  0  0  0  0
   -2.2139   -7.1042   -2.8425 C   0  0  2  0  0  0  0  0  0  0  0  0
   -1.6162   -8.0727   -3.7303 O   0  0  0  0  0  0  0  0  0  0  0  0
   -1.1996   -6.0591   -2.3437 C   0  0  0  0  0  0  0  0  0  0  0  0
   -1.8152   -5.0368   -1.5476 O   0  0  0  0  0  0  0  0  0  0  0  0
   -4.1111   -7.4651   -4.2908 C   0  0  2  0  0  0  0  0  0  0  0  0
   -3.3367   -6.5239   -3.5276 O   0  0  0  0  0  0  0  0  0  0  0  0
   -4.7025   -6.7160   -5.4704 C   0  0  2  0  0  0  0  0  0  0  0  0
   -3.6707   -5.9575   -6.1111 O   0  0  0  0  0  0  0  0  0  0  0  0
   -5.7716   -5.7524   -5.0042 C   0  0  1  0  0  0  0  0  0  0  0  0
   -6.4674   -5.2549   -6.1496 O   0  0  0  0  0  0  0  0  0  0  0  0
   -6.7398   -6.4429   -4.0626 C   0  0  2  0  0  0  0  0  0  0  0  0
   -7.6134   -5.4660   -3.5132 O   0  0  0  0  0  0  0  0  0  0  0  0
   -6.0198   -7.1556   -2.9257 C   0  0  2  0  0  0  0  0  0  0  0  0
   -5.1259   -8.0943   -3.5085 O   0  0  0  0  0  0  0  0  0  0  0  0
   -7.0060   -7.8648   -1.9900 C   0  0  0  0  0  0  0  0  0  0  0  0
   -7.7830   -8.8726   -2.6534 O   0  0  0  0  0  0  0  0  0  0  0  0
  1  2  1  0  0  0  0
  3  1  1  6  0  0  0
  3  9  1  0  0  0  0
  3  4  1  0  0  0  0
  4  5  1  1  0  0  0
  4  6  1  0  0  0  0
  6  7  1  6  0  0  0
  6  8  1  0  0  0  0
  8  9  1  0  0  0  0
  8 10  1  1  0  0  0
  8 13  1  0  0  0  0
 10 11  1  0  0  0  0
 12 13  1  1  0  0  0
 12 14  1  0  0  0  0
 12 21  1  0  0  0  0
 14 15  1  1  0  0  0
 14 16  1  0  0  0  0
 16 17  1  6  0  0  0
 16 18  1  0  0  0  0
 18 19  1  1  0  0  0
 18 20  1  0  0  0  0
 20 21  1  0  0  0  0
 20 22  1  1  0  0  0
 22 23  1  0  0  0  0
M  END
>  <CHROM.1>
-176.43695943,-67.22965026,-149.69820098,-75.27785420,60.89396781,-4.01844490
-7.50446438,-3.41423672,0.48048097,-0.17641484,2.40187950

>  <Name>
ligand

>  <RI>
0

>  <Rbt.Current_Directory>
/home/itssahil/PROJECTS/Mol_Feturizer/New_Systems/rnas/4TS2

>  <Rbt.Executable>
rbdock ($Id: //depot/dev/client3/rdock/2013.1/src/exe/rbdock.cxx#4 $)

>  <Rbt.Library>
libRbt.so (2013.1, Build901 2013/11/27)

>  <Rbt.Parameter_File>
/export/apps/rDock/src/rDock_2013.1_src/data/scripts/dock_solv.prm

>  <Rbt.Receptor>
prm/pocket_docking_7.prm

>  <SCORE>
-6.12692

>  <SCORE.INTER>
-2.34496

>  <SCORE.INTER.CONST>
1

>  <SCORE.INTER.POLAR>
0

>  <SCORE.INTER.ROT>
5

>  <SCORE.INTER.SOLV>
7.55335

>  <SCORE.INTER.VDW>
-11.0144

>  <SCORE.INTER.norm>
-0.101955

>  <SCORE.INTRA>
-3.78196

>  <SCORE.INTRA.DIHEDRAL>
-7.32938

>  <SCORE.INTRA.DIHEDRAL.0>
12.4853

>  <SCORE.INTRA.POLAR>
0

>  <SCORE.INTRA.POLAR.0>
0

>  <SCORE.INTRA.REPUL>
0

>  <SCORE.INTRA.REPUL.0>
0

>  <SCORE.INTRA.SOLV>
0.809618

>  <SCORE.INTRA.SOLV.lig_0>
-31.1706

>  <SCORE.INTRA.VDW>
-0.522085

>  <SCORE.INTRA.VDW.0>
-1.16895

>  <SCORE.INTRA.norm>
-0.164433

>  <SCORE.RESTR>
0

>  <SCORE.RESTR.CAVITY>
0

>  <SCORE.RESTR.norm>
0

>  <SCORE.SYSTEM>
0

>  <SCORE.SYSTEM.CONST>
0

>  <SCORE.SYSTEM.DIHEDRAL>
0

>  <SCORE.SYSTEM.SOLV>
0

>  <SCORE.SYSTEM.norm>
0

>  <SCORE.heavy>
23

>  <SCORE.norm>
-0.266388

>  <RMSD>
7.328

$$$$
ligand
 OpenBabel11021811513D
libRbt.so/2013.1/901 2013/11/27
 23 24  0  0  0  0  0  0  0  0999 V2000
  -16.1779  -12.2064   -1.7574 C   0  0  0  0  0  0  0  0  0  0  0  0
  -15.5494  -11.5786   -0.6233 O   0  0  0  0  0  0  0  0  0  0  0  0
  -15.1347  -13.0109   -2.5196 C   0  0  2  0  0  0  0  0  0  0  0  0
  -14.3443  -14.0123   -1.6915 C   0  0  1  0  0  0  0  0  0  0  0  0
  -15.1302  -15.1894   -1.4941 O   0  0  0  0  0  0  0  0  0  0  0  0
  -13.1090  -14.2307   -2.5585 C   0  0  2  0  0  0  0  0  0  0  0  0
  -11.9171  -14.7310   -1.9410 O   0  0  0  0  0  0  0  0  0  0  0  0
  -12.8669  -12.8315   -3.0965 C   0  0  2  0  0  0  0  0  0  0  0  0
  -14.1459  -12.1627   -3.1104 O   0  0  0  0  0  0  0  0  0  0  0  0
  -12.2604  -12.9699   -4.5046 C   0  0  0  0  0  0  0  0  0  0  0  0
  -13.1616  -13.5956   -5.4287 O   0  0  0  0  0  0  0  0  0  0  0  0
  -11.6065  -10.8233   -2.6423 C   0  0  2  0  0  0  0  0  0  0  0  0
  -12.0172  -12.1215   -2.1796 O   0  0  0  0  0  0  0  0  0  0  0  0
  -10.5375  -10.3192   -1.6908 C   0  0  2  0  0  0  0  0  0  0  0  0
   -9.5602  -11.3470   -1.4940 O   0  0  0  0  0  0  0  0  0  0  0  0
  -11.1416   -9.9832   -0.3450 C   0  0  1  0  0  0  0  0  0  0  0  0
  -10.1642   -9.2876    0.4323 O   0  0  0  0  0  0  0  0  0  0  0  0
  -12.3819   -9.1267   -0.5146 C   0  0  2  0  0  0  0  0  0  0  0  0
  -13.0131   -8.9860    0.7508 O   0  0  0  0  0  0  0  0  0  0  0  0
  -13.3719   -9.7436   -1.4935 C   0  0  2  0  0  0  0  0  0  0  0  0
  -12.6987   -9.9088   -2.7342 O   0  0  0  0  0  0  0  0  0  0  0  0
  -14.6136   -8.8617   -1.6712 C   0  0  0  0  0  0  0  0  0  0  0  0
  -14.3103   -7.5686   -2.2149 O   0  0  0  0  0  0  0  0  0  0  0  0
  1  2  1  0  0  0  0
  3  1  1  1  0  0  0
  3  9  1  0  0  0  0
  3  4  1  0  0  0  0
  4  5  1  6  0  0  0
  4  6  1  0  0  0  0
  6  7  1  1  0  0  0
  6  8  1  0  0  0  0
  8  9  1  0  0  0  0
  8 10  1  6  0  0  0
  8 13  1  0  0  0  0
 10 11  1  0  0  0  0
 12 13  1  1  0  0  0
 12 14  1  0  0  0  0
 12 21  1  0  0  0  0
 14 15  1  1  0  0  0
 14 16  1  0  0  0  0
 16 17  1  1  0  0  0
 16 18  1  0  0  0  0
 18 19  1  1  0  0  0
 18 20  1  0  0  0  0
 20 21  1  0  0  0  0
 20 22  1  6  0  0  0
 22 23  1  0  0  0  0
M  END
>  <CHROM.1>
53.36969191,63.74093850,-170.22796963,174.22706128,61.92758941,-13.00908675
-11.49813186,-1.92747453,1.91821575,-0.01722201,-2.72007038

>  <Name>
ligand

>  <RI>
0

>  <Rbt.Current_Directory>
/home/itssahil/PROJECTS/Mol_Feturizer/New_Systems/rnas/4TS2

>  <Rbt.Executable>
rbdock ($Id: //depot/dev/client3/rdock/2013.1/src/exe/rbdock.cxx#4 $)

>  <Rbt.Library>
libRbt.so (2013.1, Build901 2013/11/27)

>  <Rbt.Parameter_File>
/export/apps/rDock/src/rDock_2013.1_src/data/scripts/dock_solv.prm

>  <Rbt.Receptor>
prm/pocket_docking_8.prm

>  <SCORE>
-6.7121

>  <SCORE.INTER>
-0.0393654

>  <SCORE.INTER.CONST>
1

>  <SCORE.INTER.POLAR>
0

>  <SCORE.INTER.ROT>
5

>  <SCORE.INTER.SOLV>
5.96595

>  <SCORE.INTER.VDW>
-8.94823

>  <SCORE.INTER.norm>
-0.00171154

>  <SCORE.INTRA>
-6.67273

>  <SCORE.INTRA.DIHEDRAL>
-11.4651

>  <SCORE.INTRA.DIHEDRAL.0>
12.4853

>  <SCORE.INTRA.POLAR>
0

>  <SCORE.INTRA.POLAR.0>
0

>  <SCORE.INTRA.REPUL>
0

>  <SCORE.INTRA.REPUL.0>
0

>  <SCORE.INTRA.SOLV>
1.05831

>  <SCORE.INTRA.SOLV.lig_0>
-31.1706

>  <SCORE.INTRA.VDW>
-1.46932

>  <SCORE.INTRA.VDW.0>
-1.16895

>  <SCORE.INTRA.norm>
-0.290119

>  <SCORE.RESTR>
0

>  <SCORE.RESTR.CAVITY>
0

>  <SCORE.RESTR.norm>
0

>  <SCORE.SYSTEM>
0

>  <SCORE.SYSTEM.CONST>
0

>  <SCORE.SYSTEM.DIHEDRAL>
0

>  <SCORE.SYSTEM.SOLV>
0

>  <SCORE.SYSTEM.norm>
0

>  <SCORE.heavy>
23

>  <SCORE.norm>
-0.29183

>  <RMSD>
7.425

$$$$
ligand
 OpenBabel11021811513D
libRbt.so/2013.1/901 2013/11/27
 23 24  0  0  0  0  0  0  0  0999 V2000
   -4.1265   -6.9572   -0.6667 C   0  0  0  0  0  0  0  0  0  0  0  0
   -4.6285   -8.2711   -0.3550 O   0  0  0  0  0  0  0  0  0  0  0  0
   -2.7517   -7.0907   -1.3057 C   0  0  2  0  0  0  0  0  0  0  0  0
   -2.0512   -5.7814   -1.6354 C   0  0  1  0  0  0  0  0  0  0  0  0
   -1.4641   -5.2457   -0.4477 O   0  0  0  0  0  0  0  0  0  0  0  0
   -1.0353   -6.2244   -2.6829 C   0  0  2  0  0  0  0  0  0  0  0  0
   -0.5020   -5.2426   -3.5795 O   0  0  0  0  0  0  0  0  0  0  0  0
   -1.8331   -7.2573   -3.4590 C   0  0  2  0  0  0  0  0  0  0  0  0
   -2.8166   -7.7946   -2.5493 O   0  0  0  0  0  0  0  0  0  0  0  0
   -0.8485   -8.3291   -3.9605 C   0  0  0  0  0  0  0  0  0  0  0  0
   -0.1783   -9.0014   -2.8851 O   0  0  0  0  0  0  0  0  0  0  0  0
   -3.3908   -7.4632   -5.2917 C   0  0  2  0  0  0  0  0  0  0  0  0
   -2.5415   -6.5958   -4.5208 O   0  0  0  0  0  0  0  0  0  0  0  0
   -3.5294   -6.8522   -6.6737 C   0  0  2  0  0  0  0  0  0  0  0  0
   -2.2308   -6.5047   -7.1669 O   0  0  0  0  0  0  0  0  0  0  0  0
   -4.3611   -5.5898   -6.6140 C   0  0  1  0  0  0  0  0  0  0  0  0
   -4.6734   -5.1863   -7.9494 O   0  0  0  0  0  0  0  0  0  0  0  0
   -5.6360   -5.8263   -5.8269 C   0  0  2  0  0  0  0  0  0  0  0  0
   -6.2946   -4.5804   -5.6444 O   0  0  0  0  0  0  0  0  0  0  0  0
   -5.3581   -6.4417   -4.4620 C   0  0  2  0  0  0  0  0  0  0  0  0
   -4.6639   -7.6629   -4.6778 O   0  0  0  0  0  0  0  0  0  0  0  0
   -6.6540   -6.6929   -3.6820 C   0  0  0  0  0  0  0  0  0  0  0  0
   -6.4444   -7.4287   -2.4678 O   0  0  0  0  0  0  0  0  0  0  0  0
  1  2  1  0  0  0  0
  3  1  1  6  0  0  0
  3  9  1  0  0  0  0
  3  4  1  0  0  0  0
  4  5  1  1  0  0  0
  4  6  1  0  0  0  0
  6  7  1  6  0  0  0
  6  8  1  0  0  0  0
  8  9  1  0  0  0  0
  8 10  1  6  0  0  0
  8 13  1  0  0  0  0
 10 11  1  0  0  0  0
 12 13  1  1  0  0  0
 12 14  1  0  0  0  0
 12 21  1  0  0  0  0
 14 15  1  1  0  0  0
 14 16  1  0  0  0  0
 16 17  1  6  0  0  0
 16 18  1  0  0  0  0
 18 19  1  1  0  0  0
 18 20  1  0  0  0  0
 20 21  1  0  0  0  0
 20 22  1  6  0  0  0
 22 23  1  0  0  0  0
M  END
>  <CHROM.1>
-177.16488073,61.10791079,-153.70032282,-177.06851318,172.40578633,-3.39320846
-6.69923366,-3.83866229,1.02142724,-0.07877198,1.77262016

>  <Name>
ligand

>  <RI>
0

>  <Rbt.Current_Directory>
/home/itssahil/PROJECTS/Mol_Feturizer/New_Systems/rnas/4TS2

>  <Rbt.Executable>
rbdock ($Id: //depot/dev/client3/rdock/2013.1/src/exe/rbdock.cxx#4 $)

>  <Rbt.Library>
libRbt.so (2013.1, Build901 2013/11/27)

>  <Rbt.Parameter_File>
/export/apps/rDock/src/rDock_2013.1_src/data/scripts/dock_solv.prm

>  <Rbt.Receptor>
prm/pocket_docking_8.prm

>  <SCORE>
-8.93835

>  <SCORE.INTER>
-2.92177

>  <SCORE.INTER.CONST>
1

>  <SCORE.INTER.POLAR>
0

>  <SCORE.INTER.ROT>
5

>  <SCORE.INTER.SOLV>
8.8955

>  <SCORE.INTER.VDW>
-11.8463

>  <SCORE.INTER.norm>
-0.127033

>  <SCORE.INTRA>
-6.01658

>  <SCORE.INTRA.DIHEDRAL>
-9.28068

>  <SCORE.INTRA.DIHEDRAL.0>
12.4853

>  <SCORE.INTRA.POLAR>
0

>  <SCORE.INTRA.POLAR.0>
0

>  <SCORE.INTRA.REPUL>
0

>  <SCORE.INTRA.REPUL.0>
0

>  <SCORE.INTRA.SOLV>
0.455769

>  <SCORE.INTRA.SOLV.lig_0>
-31.1706

>  <SCORE.INTRA.VDW>
-1.60413

>  <SCORE.INTRA.VDW.0>
-1.16895

>  <SCORE.INTRA.norm>
-0.26159

>  <SCORE.RESTR>
0

>  <SCORE.RESTR.CAVITY>
0

>  <SCORE.RESTR.norm>
0

>  <SCORE.SYSTEM>
0

>  <SCORE.SYSTEM.CONST>
0

>  <SCORE.SYSTEM.DIHEDRAL>
0

>  <SCORE.SYSTEM.SOLV>
0

>  <SCORE.SYSTEM.norm>
0

>  <SCORE.heavy>
23

>  <SCORE.norm>
-0.388624

>  <RMSD>
8.147

$$$$
ligand
 OpenBabel11021811513D
libRbt.so/2013.1/901 2013/11/27
 23 24  0  0  0  0  0  0  0  0999 V2000
   -9.7675    1.4441   -2.0541 C   0  0  0  0  0  0  0  0  0  0  0  0
  -10.0474    0.4594   -1.0404 O   0  0  0  0  0  0  0  0  0  0  0  0
   -9.3494    2.7434   -1.3807 C   0  0  2  0  0  0  0  0  0  0  0  0
   -8.1113    2.6581   -0.5013 C   0  0  1  0  0  0  0  0  0  0  0  0
   -6.9428    2.6902   -1.3234 O   0  0  0  0  0  0  0  0  0  0  0  0
   -8.2750    3.8843    0.3905 C   0  0  2  0  0  0  0  0  0  0  0  0
   -7.5859    3.9162    1.6460 O   0  0  0  0  0  0  0  0  0  0  0  0
   -9.7758    3.8910    0.6217 C   0  0  2  0  0  0  0  0  0  0  0  0
  -10.3766    3.2429   -0.5195 O   0  0  0  0  0  0  0  0  0  0  0  0
  -10.2204    5.3576    0.7667 C   0  0  0  0  0  0  0  0  0  0  0  0
  -10.0405    6.1053   -0.4442 O   0  0  0  0  0  0  0  0  0  0  0  0
  -11.4434    3.1559    2.2048 C   0  0  2  0  0  0  0  0  0  0  0  0
  -10.0714    3.0909    1.7790 O   0  0  0  0  0  0  0  0  0  0  0  0
  -11.4993    2.6533    3.6354 C   0  0  2  0  0  0  0  0  0  0  0  0
  -10.4836    3.3075    4.4039 O   0  0  0  0  0  0  0  0  0  0  0  0
  -11.2378    1.1640    3.6845 C   0  0  1  0  0  0  0  0  0  0  0  0
  -11.5408    0.6913    4.9991 O   0  0  0  0  0  0  0  0  0  0  0  0
  -12.0870    0.4380    2.6585 C   0  0  2  0  0  0  0  0  0  0  0  0
  -11.6821   -0.9235    2.6156 O   0  0  0  0  0  0  0  0  0  0  0  0
  -11.9403    1.0401    1.2675 C   0  0  2  0  0  0  0  0  0  0  0  0
  -12.3123    2.4090    1.3534 O   0  0  0  0  0  0  0  0  0  0  0  0
  -12.8158    0.3105    0.2417 C   0  0  0  0  0  0  0  0  0  0  0  0
  -12.7165    0.8670   -1.0774 O   0  0  0  0  0  0  0  0  0  0  0  0
  1  2  1  0  0  0  0
  3  1  1  1  0  0  0
  3  9  1  0  0  0  0
  3  4  1  0  0  0  0
  4  5  1  6  0  0  0
  4  6  1  0  0  0  0
  6  7  1  1  0  0  0
  6  8  1  0  0  0  0
  8  9  1  0  0  0  0
  8 10  1  1  0  0  0
  8 13  1  0  0  0  0
 10 11  1  0  0  0  0
 12 13  1  6  0  0  0
 12 14  1  0  0  0  0
 12 21  1  0  0  0  0
 14 15  1  1  0  0  0
 14 16  1  0  0  0  0
 16 17  1  1  0  0  0
 16 18  1  0  0  0  0
 18 19  1  6  0  0  0
 18 20  1  0  0  0  0
 20 21  1  0  0  0  0
 20 22  1  6  0  0  0
 22 23  1  0  0  0  0
M  END
>  <CHROM.1>
59.92792488,65.44907132,-162.09067386,172.45297375,179.09375264,-10.44509733
2.36688125,1.03746961,0.45583214,-0.90532224,-1.95559433

>  <Name>
ligand

>  <RI>
0

>  <Rbt.Current_Directory>
/home/itssahil/PROJECTS/Mol_Feturizer/New_Systems/rnas/4TS2

>  <Rbt.Executable>
rbdock ($Id: //depot/dev/client3/rdock/2013.1/src/exe/rbdock.cxx#4 $)

>  <Rbt.Library>
libRbt.so (2013.1, Build901 2013/11/27)

>  <Rbt.Parameter_File>
/export/apps/rDock/src/rDock_2013.1_src/data/scripts/dock_solv.prm

>  <Rbt.Receptor>
prm/blind_docking_60.prm

>  <SCORE>
-9.43677

>  <SCORE.INTER>
-3.3133

>  <SCORE.INTER.CONST>
1

>  <SCORE.INTER.POLAR>
0

>  <SCORE.INTER.ROT>
5

>  <SCORE.INTER.SOLV>
8.60648

>  <SCORE.INTER.VDW>
-12.011

>  <SCORE.INTER.norm>
-0.144057

>  <SCORE.INTRA>
-6.12346

>  <SCORE.INTRA.DIHEDRAL>
-10.4304

>  <SCORE.INTRA.DIHEDRAL.0>
12.4853

>  <SCORE.INTRA.POLAR>
0

>  <SCORE.INTRA.POLAR.0>
0

>  <SCORE.INTRA.REPUL>
0

>  <SCORE.INTRA.REPUL.0>
0

>  <SCORE.INTRA.SOLV>
1.39362

>  <SCORE.INTRA.SOLV.lig_0>
-31.1706

>  <SCORE.INTRA.VDW>
-1.6051

>  <SCORE.INTRA.VDW.0>
-1.16895

>  <SCORE.INTRA.norm>
-0.266238

>  <SCORE.RESTR>
0

>  <SCORE.RESTR.CAVITY>
0

>  <SCORE.RESTR.norm>
0

>  <SCORE.SYSTEM>
0

>  <SCORE.SYSTEM.CONST>
0

>  <SCORE.SYSTEM.DIHEDRAL>
0

>  <SCORE.SYSTEM.SOLV>
0

>  <SCORE.SYSTEM.norm>
0

>  <SCORE.heavy>
23

>  <SCORE.norm>
-0.410294

>  <RMSD>
13.196

$$$$
ligand
 OpenBabel11021811513D
libRbt.so/2013.1/901 2013/11/27
 23 24  0  0  0  0  0  0  0  0999 V2000
  -14.2637    3.0754    3.6867 C   0  0  0  0  0  0  0  0  0  0  0  0
  -14.2671    3.2263    2.2540 O   0  0  0  0  0  0  0  0  0  0  0  0
  -13.0510    2.2515    4.0953 C   0  0  2  0  0  0  0  0  0  0  0  0
  -11.7072    2.7799    3.6175 C   0  0  1  0  0  0  0  0  0  0  0  0
  -11.2878    3.8480    4.4693 O   0  0  0  0  0  0  0  0  0  0  0  0
  -10.8307    1.5353    3.7076 C   0  0  2  0  0  0  0  0  0  0  0  0
   -9.6342    1.4805    2.9218 O   0  0  0  0  0  0  0  0  0  0  0  0
  -11.7966    0.4530    3.2586 C   0  0  2  0  0  0  0  0  0  0  0  0
  -13.1242    0.9186    3.5813 O   0  0  0  0  0  0  0  0  0  0  0  0
  -11.4296   -0.8415    4.0064 C   0  0  0  0  0  0  0  0  0  0  0  0
  -11.5847   -0.7148    5.4268 O   0  0  0  0  0  0  0  0  0  0  0  0
  -12.2923    1.4276    1.1063 C   0  0  2  0  0  0  0  0  0  0  0  0
  -11.7187    0.3244    1.8288 O   0  0  0  0  0  0  0  0  0  0  0  0
  -12.8237    0.8835   -0.2066 C   0  0  2  0  0  0  0  0  0  0  0  0
  -13.6107   -0.2844    0.0522 O   0  0  0  0  0  0  0  0  0  0  0  0
  -11.6821    0.4870   -1.1168 C   0  0  1  0  0  0  0  0  0  0  0  0
  -12.2093    0.2173   -2.4179 O   0  0  0  0  0  0  0  0  0  0  0  0
  -10.6478    1.5941   -1.1903 C   0  0  2  0  0  0  0  0  0  0  0  0
   -9.5179    1.1130   -1.9055 O   0  0  0  0  0  0  0  0  0  0  0  0
  -10.1993    2.0487    0.1921 C   0  0  2  0  0  0  0  0  0  0  0  0
  -11.3557    2.4838    0.8944 O   0  0  0  0  0  0  0  0  0  0  0  0
   -9.1673    3.1795    0.1069 C   0  0  0  0  0  0  0  0  0  0  0  0
   -9.6973    4.3802   -0.4736 O   0  0  0  0  0  0  0  0  0  0  0  0
  1  2  1  0  0  0  0
  3  1  1  6  0  0  0
  3  9  1  0  0  0  0
  3  4  1  0  0  0  0
  4  5  1  1  0  0  0
  4  6  1  0  0  0  0
  6  7  1  6  0  0  0
  6  8  1  0  0  0  0
  8  9  1  0  0  0  0
  8 10  1  1  0  0  0
  8 13  1  0  0  0  0
 10 11  1  0  0  0  0
 12 13  1  6  0  0  0
 12 14  1  0  0  0  0
 12 21  1  0  0  0  0
 14 15  1  1  0  0  0
 14 16  1  0  0  0  0
 16 17  1  6  0  0  0
 16 18  1  0  0  0  0
 18 19  1  6  0  0  0
 18 20  1  0  0  0  0
 20 21  1  0  0  0  0
 20 22  1  6  0  0  0
 22 23  1  0  0  0  0
M  END
>  <CHROM.1>
55.16821948,62.79169238,-149.63406676,-71.29488384,64.38032265,-11.64602437
1.56354334,1.63806627,-2.00395683,-0.89822535,-1.90588934

>  <Name>
ligand

>  <RI>
0

>  <Rbt.Current_Directory>
/home/itssahil/PROJECTS/Mol_Feturizer/New_Systems/rnas/4TS2

>  <Rbt.Executable>
rbdock ($Id: //depot/dev/client3/rdock/2013.1/src/exe/rbdock.cxx#4 $)

>  <Rbt.Library>
libRbt.so (2013.1, Build901 2013/11/27)

>  <Rbt.Parameter_File>
/export/apps/rDock/src/rDock_2013.1_src/data/scripts/dock_solv.prm

>  <Rbt.Receptor>
prm/blind_docking_60.prm

>  <SCORE>
-9.16292

>  <SCORE.INTER>
-5.65195

>  <SCORE.INTER.CONST>
1

>  <SCORE.INTER.POLAR>
0

>  <SCORE.INTER.ROT>
5

>  <SCORE.INTER.SOLV>
9.92047

>  <SCORE.INTER.VDW>
-14.0081

>  <SCORE.INTER.norm>
-0.245737

>  <SCORE.INTRA>
-3.51097

>  <SCORE.INTRA.DIHEDRAL>
-7.81436

>  <SCORE.INTRA.DIHEDRAL.0>
12.4853

>  <SCORE.INTRA.POLAR>
0

>  <SCORE.INTRA.POLAR.0>
0

>  <SCORE.INTRA.REPUL>
0

>  <SCORE.INTRA.REPUL.0>
0

>  <SCORE.INTRA.SOLV>
1.80416

>  <SCORE.INTRA.SOLV.lig_0>
-31.1706

>  <SCORE.INTRA.VDW>
-0.505868

>  <SCORE.INTRA.VDW.0>
-1.16895

>  <SCORE.INTRA.norm>
-0.152651

>  <SCORE.RESTR>
0

>  <SCORE.RESTR.CAVITY>
0

>  <SCORE.RESTR.norm>
0

>  <SCORE.SYSTEM>
0

>  <SCORE.SYSTEM.CONST>
0

>  <SCORE.SYSTEM.DIHEDRAL>
0

>  <SCORE.SYSTEM.SOLV>
0

>  <SCORE.SYSTEM.norm>
0

>  <SCORE.heavy>
23

>  <SCORE.norm>
-0.398388

>  <RMSD>
13.324

$$$$
ligand
 OpenBabel11021811513D
libRbt.so/2013.1/901 2013/11/27
 23 24  0  0  0  0  0  0  0  0999 V2000
   -9.6361    1.2793   -1.1073 C   0  0  0  0  0  0  0  0  0  0  0  0
  -10.5678    1.3611   -2.2031 O   0  0  0  0  0  0  0  0  0  0  0  0
   -9.4749    2.6610   -0.4898 C   0  0  2  0  0  0  0  0  0  0  0  0
   -8.3678    2.7924    0.5449 C   0  0  1  0  0  0  0  0  0  0  0  0
   -7.1104    2.9263   -0.1207 O   0  0  0  0  0  0  0  0  0  0  0  0
   -8.7996    4.0391    1.3096 C   0  0  2  0  0  0  0  0  0  0  0  0
   -8.2980    4.2379    2.6367 O   0  0  0  0  0  0  0  0  0  0  0  0
  -10.3076    3.8639    1.3454 C   0  0  2  0  0  0  0  0  0  0  0  0
  -10.6633    3.0739    0.1909 O   0  0  0  0  0  0  0  0  0  0  0  0
  -10.9425    5.2659    1.3170 C   0  0  0  0  0  0  0  0  0  0  0  0
  -10.6507    5.9734    0.1037 O   0  0  0  0  0  0  0  0  0  0  0  0
  -12.0754    2.9368    2.7030 C   0  0  2  0  0  0  0  0  0  0  0  0
  -10.6597    3.1047    2.5145 O   0  0  0  0  0  0  0  0  0  0  0  0
  -12.2870    2.4124    4.1111 C   0  0  2  0  0  0  0  0  0  0  0  0
  -11.5365    3.2143    5.0296 O   0  0  0  0  0  0  0  0  0  0  0  0
  -11.7957    0.9860    4.2246 C   0  0  1  0  0  0  0  0  0  0  0  0
  -12.2330    0.4518    5.4764 O   0  0  0  0  0  0  0  0  0  0  0  0
  -12.3293    0.1441    3.0812 C   0  0  2  0  0  0  0  0  0  0  0  0
  -11.7044   -1.1313    3.1264 O   0  0  0  0  0  0  0  0  0  0  0  0
  -12.0525    0.7811    1.7260 C   0  0  2  0  0  0  0  0  0  0  0  0
  -12.6540    2.0687    1.7287 O   0  0  0  0  0  0  0  0  0  0  0  0
  -12.6111   -0.0686    0.5785 C   0  0  0  0  0  0  0  0  0  0  0  0
  -12.6511    0.6342   -0.6721 O   0  0  0  0  0  0  0  0  0  0  0  0
  1  2  1  0  0  0  0
  3  1  1  1  0  0  0
  3  9  1  0  0  0  0
  3  4  1  0  0  0  0
  4  5  1  6  0  0  0
  4  6  1  0  0  0  0
  6  7  1  1  0  0  0
  6  8  1  0  0  0  0
  8  9  1  0  0  0  0
  8 10  1  6  0  0  0
  8 13  1  0  0  0  0
 10 11  1  0  0  0  0
 12 13  1  6  0  0  0
 12 14  1  0  0  0  0
 12 21  1  0  0  0  0
 14 15  1  1  0  0  0
 14 16  1  0  0  0  0
 16 17  1  1  0  0  0
 16 18  1  0  0  0  0
 18 19  1  6  0  0  0
 18 20  1  0  0  0  0
 20 21  1  0  0  0  0
 20 22  1  6  0  0  0
 22 23  1  0  0  0  0
M  END
>  <CHROM.1>
-171.12337491,63.37810323,-167.13456913,176.57487874,166.28828138,-10.84250672
2.30371454,1.60438865,0.41984876,-0.94971870,-2.03493224

>  <Name>
ligand

>  <RI>
0

>  <Rbt.Current_Directory>
/home/itssahil/PROJECTS/Mol_Feturizer/New_Systems/rnas/4TS2

>  <Rbt.Executable>
rbdock ($Id: //depot/dev/client3/rdock/2013.1/src/exe/rbdock.cxx#4 $)

>  <Rbt.Library>
libRbt.so (2013.1, Build901 2013/11/27)

>  <Rbt.Parameter_File>
/export/apps/rDock/src/rDock_2013.1_src/data/scripts/dock_solv.prm

>  <Rbt.Receptor>
prm/blind_docking_80.prm

>  <SCORE>
-10.6273

>  <SCORE.INTER>
-4.11924

>  <SCORE.INTER.CONST>
1

>  <SCORE.INTER.POLAR>
0

>  <SCORE.INTER.ROT>
5

>  <SCORE.INTER.SOLV>
7.19017

>  <SCORE.INTER.VDW>
-12.0762

>  <SCORE.INTER.norm>
-0.179097

>  <SCORE.INTRA>
-6.50811

>  <SCORE.INTRA.DIHEDRAL>
-10.53

>  <SCORE.INTRA.DIHEDRAL.0>
12.4853

>  <SCORE.INTRA.POLAR>
0

>  <SCORE.INTRA.POLAR.0>
0

>  <SCORE.INTRA.REPUL>
0

>  <SCORE.INTRA.REPUL.0>
0

>  <SCORE.INTRA.SOLV>
0.729308

>  <SCORE.INTRA.SOLV.lig_0>
-31.1706

>  <SCORE.INTRA.VDW>
-1.60776

>  <SCORE.INTRA.VDW.0>
-1.16895

>  <SCORE.INTRA.norm>
-0.282961

>  <SCORE.RESTR>
0

>  <SCORE.RESTR.CAVITY>
0

>  <SCORE.RESTR.norm>
0

>  <SCORE.SYSTEM>
0

>  <SCORE.SYSTEM.CONST>
0

>  <SCORE.SYSTEM.DIHEDRAL>
0

>  <SCORE.SYSTEM.SOLV>
0

>  <SCORE.SYSTEM.norm>
0

>  <SCORE.heavy>
23

>  <SCORE.norm>
-0.462058

>  <RMSD>
13.346

$$$$
ligand
 OpenBabel11021811513D
libRbt.so/2013.1/901 2013/11/27
 23 24  0  0  0  0  0  0  0  0999 V2000
  -11.4313    0.0780    1.7025 C   0  0  0  0  0  0  0  0  0  0  0  0
  -12.6722   -0.3997    2.2570 O   0  0  0  0  0  0  0  0  0  0  0  0
  -11.1257    1.4516    2.2825 C   0  0  2  0  0  0  0  0  0  0  0  0
  -12.0153    2.5838    1.7923 C   0  0  1  0  0  0  0  0  0  0  0  0
  -13.2595    2.5470    2.4944 O   0  0  0  0  0  0  0  0  0  0  0  0
  -11.1637    3.8096    2.1049 C   0  0  2  0  0  0  0  0  0  0  0  0
  -11.4213    5.0241    1.3903 O   0  0  0  0  0  0  0  0  0  0  0  0
   -9.7708    3.3005    1.7784 C   0  0  2  0  0  0  0  0  0  0  0  0
   -9.7943    1.8699    1.9688 O   0  0  0  0  0  0  0  0  0  0  0  0
   -8.7816    4.0036    2.7254 C   0  0  0  0  0  0  0  0  0  0  0  0
   -9.0839    3.7644    4.1070 O   0  0  0  0  0  0  0  0  0  0  0  0
   -8.4765    2.7058   -0.1706 C   0  0  2  0  0  0  0  0  0  0  0  0
   -9.4995    3.5477    0.3884 O   0  0  0  0  0  0  0  0  0  0  0  0
   -7.9212    3.4153   -1.3915 C   0  0  2  0  0  0  0  0  0  0  0  0
   -7.6186    4.7724   -1.0499 O   0  0  0  0  0  0  0  0  0  0  0  0
   -8.9436    3.4297   -2.5067 C   0  0  1  0  0  0  0  0  0  0  0  0
   -8.3051    3.8785   -3.7044 O   0  0  0  0  0  0  0  0  0  0  0  0
   -9.5293    2.0458   -2.7128 C   0  0  2  0  0  0  0  0  0  0  0  0
  -10.6038    2.1408   -3.6379 O   0  0  0  0  0  0  0  0  0  0  0  0
  -10.0494    1.4469   -1.4129 C   0  0  2  0  0  0  0  0  0  0  0  0
   -8.9628    1.4042   -0.4978 O   0  0  0  0  0  0  0  0  0  0  0  0
  -10.6231    0.0415   -1.6290 C   0  0  0  0  0  0  0  0  0  0  0  0
  -11.8252    0.0406   -2.4129 O   0  0  0  0  0  0  0  0  0  0  0  0
  1  2  1  0  0  0  0
  3  1  1  6  0  0  0
  3  9  1  0  0  0  0
  3  4  1  0  0  0  0
  4  5  1  1  0  0  0
  4  6  1  0  0  0  0
  6  7  1  6  0  0  0
  6  8  1  0  0  0  0
  8  9  1  0  0  0  0
  8 10  1  1  0  0  0
  8 13  1  0  0  0  0
 10 11  1  0  0  0  0
 12 13  1  6  0  0  0
 12 14  1  0  0  0  0
 12 21  1  0  0  0  0
 14 15  1  1  0  0  0
 14 16  1  0  0  0  0
 16 17  1  6  0  0  0
 16 18  1  0  0  0  0
 18 19  1  6  0  0  0
 18 20  1  0  0  0  0
 20 21  1  0  0  0  0
 20 22  1  6  0  0  0
 22 23  1  0  0  0  0
M  END
>  <CHROM.1>
-71.30644471,58.49465163,-157.60970870,-157.92326486,-67.76605424,-10.14246802
2.47382409,0.16526550,2.13590631,0.81796578,1.19509786

>  <Name>
ligand

>  <RI>
0

>  <Rbt.Current_Directory>
/home/itssahil/PROJECTS/Mol_Feturizer/New_Systems/rnas/4TS2

>  <Rbt.Executable>
rbdock ($Id: //depot/dev/client3/rdock/2013.1/src/exe/rbdock.cxx#4 $)

>  <Rbt.Library>
libRbt.so (2013.1, Build901 2013/11/27)

>  <Rbt.Parameter_File>
/export/apps/rDock/src/rDock_2013.1_src/data/scripts/dock_solv.prm

>  <Rbt.Receptor>
prm/blind_docking_80.prm

>  <SCORE>
-10.3149

>  <SCORE.INTER>
-5.26629

>  <SCORE.INTER.CONST>
1

>  <SCORE.INTER.POLAR>
0

>  <SCORE.INTER.ROT>
5

>  <SCORE.INTER.SOLV>
10.6045

>  <SCORE.INTER.VDW>
-13.979

>  <SCORE.INTER.norm>
-0.228969

>  <SCORE.INTRA>
-5.04863

>  <SCORE.INTRA.DIHEDRAL>
-7.68582

>  <SCORE.INTRA.DIHEDRAL.0>
12.4853

>  <SCORE.INTRA.POLAR>
0

>  <SCORE.INTRA.POLAR.0>
0

>  <SCORE.INTRA.REPUL>
0

>  <SCORE.INTRA.REPUL.0>
0

>  <SCORE.INTRA.SOLV>
0.451297

>  <SCORE.INTRA.SOLV.lig_0>
-31.1706

>  <SCORE.INTRA.VDW>
-1.43137

>  <SCORE.INTRA.VDW.0>
-1.16895

>  <SCORE.INTRA.norm>
-0.219506

>  <SCORE.RESTR>
0

>  <SCORE.RESTR.CAVITY>
0

>  <SCORE.RESTR.norm>
0

>  <SCORE.SYSTEM>
0

>  <SCORE.SYSTEM.CONST>
0

>  <SCORE.SYSTEM.DIHEDRAL>
0

>  <SCORE.SYSTEM.SOLV>
0

>  <SCORE.SYSTEM.norm>
0

>  <SCORE.heavy>
23

>  <SCORE.norm>
-0.448475

>  <RMSD>
13.394

$$$$
ligand
 OpenBabel11021811513D
libRbt.so/2013.1/901 2013/11/27
 23 24  0  0  0  0  0  0  0  0999 V2000
   -6.7095    3.4495    0.2830 C   0  0  0  0  0  0  0  0  0  0  0  0
   -6.0270    4.6384    0.7259 O   0  0  0  0  0  0  0  0  0  0  0  0
   -7.3293    3.7133   -1.0818 C   0  0  2  0  0  0  0  0  0  0  0  0
   -8.4332    4.7593   -1.1103 C   0  0  1  0  0  0  0  0  0  0  0  0
   -7.8503    6.0640   -1.1056 O   0  0  0  0  0  0  0  0  0  0  0  0
   -9.1618    4.4111   -2.4039 C   0  0  2  0  0  0  0  0  0  0  0  0
  -10.5177    4.8443   -2.5654 O   0  0  0  0  0  0  0  0  0  0  0  0
   -9.1002    2.8940   -2.3859 C   0  0  2  0  0  0  0  0  0  0  0  0
   -7.9290    2.5330   -1.6235 O   0  0  0  0  0  0  0  0  0  0  0  0
   -9.0233    2.4114   -3.8457 C   0  0  0  0  0  0  0  0  0  0  0  0
   -9.2192    0.9953   -3.9641 O   0  0  0  0  0  0  0  0  0  0  0  0
  -10.0294    1.1287   -1.0266 C   0  0  2  0  0  0  0  0  0  0  0  0
  -10.2476    2.3904   -1.6811 O   0  0  0  0  0  0  0  0  0  0  0  0
  -11.3219    0.3393   -1.1197 C   0  0  2  0  0  0  0  0  0  0  0  0
  -11.7945    0.3681   -2.4710 O   0  0  0  0  0  0  0  0  0  0  0  0
  -12.3850    0.9572   -0.2382 C   0  0  1  0  0  0  0  0  0  0  0  0
  -13.4927    0.0570   -0.1610 O   0  0  0  0  0  0  0  0  0  0  0  0
  -11.8360    1.2319    1.1489 C   0  0  2  0  0  0  0  0  0  0  0  0
  -12.8039    1.9698    1.8823 O   0  0  0  0  0  0  0  0  0  0  0  0
  -10.5397    2.0296    1.1019 C   0  0  2  0  0  0  0  0  0  0  0  0
   -9.6083    1.2853    0.3283 O   0  0  0  0  0  0  0  0  0  0  0  0
   -9.9840    2.2865    2.5076 C   0  0  0  0  0  0  0  0  0  0  0  0
   -8.8897    3.2150    2.5174 O   0  0  0  0  0  0  0  0  0  0  0  0
  1  2  1  0  0  0  0
  3  1  1  1  0  0  0
  3  9  1  0  0  0  0
  3  4  1  0  0  0  0
  4  5  1  6  0  0  0
  4  6  1  0  0  0  0
  6  7  1  1  0  0  0
  6  8  1  0  0  0  0
  8  9  1  0  0  0  0
  8 10  1  6  0  0  0
  8 13  1  0  0  0  0
 10 11  1  0  0  0  0
 12 13  1  1  0  0  0
 12 14  1  0  0  0  0
 12 21  1  0  0  0  0
 14 15  1  6  0  0  0
 14 16  1  0  0  0  0
 16 17  1  1  0  0  0
 16 18  1  0  0  0  0
 18 19  1  1  0  0  0
 18 20  1  0  0  0  0
 20 21  1  0  0  0  0
 20 22  1  1  0  0  0
 22 23  1  0  0  0  0
M  END
>  <CHROM.1>
-65.15611074,-168.77002711,-144.58103868,-151.09247894,-170.42681091,-9.75072844
2.52684674,-0.70283126,-0.09637546,0.67190519,1.47358908

>  <Name>
ligand

>  <RI>
0

>  <Rbt.Current_Directory>
/home/itssahil/PROJECTS/Mol_Feturizer/New_Systems/rnas/4TS2

>  <Rbt.Executable>
rbdock ($Id: //depot/dev/client3/rdock/2013.1/src/exe/rbdock.cxx#4 $)

>  <Rbt.Library>
libRbt.so (2013.1, Build901 2013/11/27)

>  <Rbt.Parameter_File>
/export/apps/rDock/src/rDock_2013.1_src/data/scripts/dock_solv.prm

>  <Rbt.Receptor>
prm/blind_docking_100.prm

>  <SCORE>
-11.3381

>  <SCORE.INTER>
-8.11502

>  <SCORE.INTER.CONST>
1

>  <SCORE.INTER.POLAR>
0

>  <SCORE.INTER.ROT>
5

>  <SCORE.INTER.SOLV>
12.1979

>  <SCORE.INTER.VDW>
-16.4093

>  <SCORE.INTER.norm>
-0.352827

>  <SCORE.INTRA>
-3.2231

>  <SCORE.INTRA.DIHEDRAL>
-3.84005

>  <SCORE.INTRA.DIHEDRAL.0>
12.4853

>  <SCORE.INTRA.POLAR>
0

>  <SCORE.INTRA.POLAR.0>
0

>  <SCORE.INTRA.REPUL>
0

>  <SCORE.INTRA.REPUL.0>
0

>  <SCORE.INTRA.SOLV>
0.822251

>  <SCORE.INTRA.SOLV.lig_0>
-31.1706

>  <SCORE.INTRA.VDW>
-1.7142

>  <SCORE.INTRA.VDW.0>
-1.16895

>  <SCORE.INTRA.norm>
-0.140135

>  <SCORE.RESTR>
0

>  <SCORE.RESTR.CAVITY>
0

>  <SCORE.RESTR.norm>
0

>  <SCORE.SYSTEM>
0

>  <SCORE.SYSTEM.CONST>
0

>  <SCORE.SYSTEM.DIHEDRAL>
0

>  <SCORE.SYSTEM.SOLV>
0

>  <SCORE.SYSTEM.norm>
0

>  <SCORE.heavy>
23

>  <SCORE.norm>
-0.492962

>  <RMSD>
13.411

$$$$
ligand
 OpenBabel11021811513D
libRbt.so/2013.1/901 2013/11/27
 23 24  0  0  0  0  0  0  0  0999 V2000
   -6.4539    3.6695    0.0562 C   0  0  0  0  0  0  0  0  0  0  0  0
   -5.7354    4.9058    0.2323 O   0  0  0  0  0  0  0  0  0  0  0  0
   -7.1950    3.7121   -1.2724 C   0  0  2  0  0  0  0  0  0  0  0  0
   -8.2629    4.7884   -1.3941 C   0  0  1  0  0  0  0  0  0  0  0  0
   -7.6414    6.0423   -1.6830 O   0  0  0  0  0  0  0  0  0  0  0  0
   -9.1247    4.2480   -2.5302 C   0  0  2  0  0  0  0  0  0  0  0  0
  -10.4755    4.7106   -2.6463 O   0  0  0  0  0  0  0  0  0  0  0  0
   -9.1095    2.7579   -2.2380 C   0  0  2  0  0  0  0  0  0  0  0  0
   -7.8816    2.4841   -1.5305 O   0  0  0  0  0  0  0  0  0  0  0  0
   -9.1905    2.0160   -3.5843 C   0  0  0  0  0  0  0  0  0  0  0  0
  -10.5191    2.0087   -4.1251 O   0  0  0  0  0  0  0  0  0  0  0  0
  -10.0403    1.2091   -0.6372 C   0  0  2  0  0  0  0  0  0  0  0  0
  -10.1981    2.4470   -1.3519 O   0  0  0  0  0  0  0  0  0  0  0  0
  -11.3115    0.4047   -0.8358 C   0  0  2  0  0  0  0  0  0  0  0  0
  -11.6434    0.3855   -2.2285 O   0  0  0  0  0  0  0  0  0  0  0  0
  -12.4631    1.0405   -0.0884 C   0  0  1  0  0  0  0  0  0  0  0  0
  -13.5672    0.1326   -0.0950 O   0  0  0  0  0  0  0  0  0  0  0  0
  -12.0607    1.3649    1.3377 C   0  0  2  0  0  0  0  0  0  0  0  0
  -13.1033    2.1167    1.9437 O   0  0  0  0  0  0  0  0  0  0  0  0
  -10.7714    2.1731    1.3971 C   0  0  2  0  0  0  0  0  0  0  0  0
   -9.7611    1.4132    0.7477 O   0  0  0  0  0  0  0  0  0  0  0  0
  -10.3643    2.4805    2.8430 C   0  0  0  0  0  0  0  0  0  0  0  0
  -10.2914    1.3076    3.6668 O   0  0  0  0  0  0  0  0  0  0  0  0
  1  2  1  0  0  0  0
  3  1  1  1  0  0  0
  3  9  1  0  0  0  0
  3  4  1  0  0  0  0
  4  5  1  6  0  0  0
  4  6  1  0  0  0  0
  6  7  1  1  0  0  0
  6  8  1  0  0  0  0
  8  9  1  0  0  0  0
  8 10  1  6  0  0  0
  8 13  1  0  0  0  0
 10 11  1  0  0  0  0
 12 13  1  6  0  0  0
 12 14  1  0  0  0  0
 12 21  1  0  0  0  0
 14 15  1  6  0  0  0
 14 16  1  0  0  0  0
 16 17  1  1  0  0  0
 16 18  1  0  0  0  0
 18 19  1  6  0  0  0
 18 20  1  0  0  0  0
 20 21  1  0  0  0  0
 20 22  1  1  0  0  0
 22 23  1  0  0  0  0
M  END
>  <CHROM.1>
-62.95821842,-77.37000945,-128.83168050,-159.56835332,53.23850531,-9.88753526
2.51770027,-0.60431639,-0.45718718,0.61596767,1.62253998

>  <Name>
ligand

>  <RI>
0

>  <Rbt.Current_Directory>
/home/itssahil/PROJECTS/Mol_Feturizer/New_Systems/rnas/4TS2

>  <Rbt.Executable>
rbdock ($Id: //depot/dev/client3/rdock/2013.1/src/exe/rbdock.cxx#4 $)

>  <Rbt.Library>
libRbt.so (2013.1, Build901 2013/11/27)

>  <Rbt.Parameter_File>
/export/apps/rDock/src/rDock_2013.1_src/data/scripts/dock_solv.prm

>  <Rbt.Receptor>
prm/blind_docking_80.prm

>  <SCORE>
-8.90652

>  <SCORE.INTER>
-6.54132

>  <SCORE.INTER.CONST>
1

>  <SCORE.INTER.POLAR>
0

>  <SCORE.INTER.ROT>
5

>  <SCORE.INTER.SOLV>
11.9317

>  <SCORE.INTER.VDW>
-15.2715

>  <SCORE.INTER.norm>
-0.284405

>  <SCORE.INTRA>
-2.36521

>  <SCORE.INTRA.DIHEDRAL>
-2.97337

>  <SCORE.INTRA.DIHEDRAL.0>
12.4853

>  <SCORE.INTRA.POLAR>
0

>  <SCORE.INTRA.POLAR.0>
0

>  <SCORE.INTRA.REPUL>
0

>  <SCORE.INTRA.REPUL.0>
0

>  <SCORE.INTRA.SOLV>
0.719685

>  <SCORE.INTRA.SOLV.lig_0>
-31.1706

>  <SCORE.INTRA.VDW>
-1.23836

>  <SCORE.INTRA.VDW.0>
-1.16895

>  <SCORE.INTRA.norm>
-0.102835

>  <SCORE.RESTR>
0

>  <SCORE.RESTR.CAVITY>
0

>  <SCORE.RESTR.norm>
0

>  <SCORE.SYSTEM>
0

>  <SCORE.SYSTEM.CONST>
0

>  <SCORE.SYSTEM.DIHEDRAL>
0

>  <SCORE.SYSTEM.SOLV>
0

>  <SCORE.SYSTEM.norm>
0

>  <SCORE.heavy>
23

>  <SCORE.norm>
-0.38724

>  <RMSD>
13.413

$$$$
ligand
 OpenBabel11021811513D
libRbt.so/2013.1/901 2013/11/27
 23 24  0  0  0  0  0  0  0  0999 V2000
   -6.9834    3.4546    0.4994 C   0  0  0  0  0  0  0  0  0  0  0  0
   -6.5390    4.6385    1.1897 O   0  0  0  0  0  0  0  0  0  0  0  0
   -7.3286    3.8190   -0.9374 C   0  0  2  0  0  0  0  0  0  0  0  0
   -8.4373    4.8467   -1.1057 C   0  0  1  0  0  0  0  0  0  0  0  0
   -7.9079    6.1556   -0.8846 O   0  0  0  0  0  0  0  0  0  0  0  0
   -8.8841    4.5937   -2.5416 C   0  0  2  0  0  0  0  0  0  0  0  0
  -10.1940    5.0177   -2.9372 O   0  0  0  0  0  0  0  0  0  0  0  0
   -8.7797    3.0813   -2.6280 C   0  0  2  0  0  0  0  0  0  0  0  0
   -7.7720    2.6776   -1.6768 O   0  0  0  0  0  0  0  0  0  0  0  0
   -8.4003    2.7203   -4.0755 C   0  0  0  0  0  0  0  0  0  0  0  0
   -8.7399    1.3669   -4.4081 O   0  0  0  0  0  0  0  0  0  0  0  0
   -9.9425    1.1145   -1.8488 C   0  0  2  0  0  0  0  0  0  0  0  0
  -10.0276    2.5045   -2.2074 O   0  0  0  0  0  0  0  0  0  0  0  0
  -11.2385    0.4538   -2.2805 C   0  0  2  0  0  0  0  0  0  0  0  0
  -11.5272    0.8238   -3.6333 O   0  0  0  0  0  0  0  0  0  0  0  0
  -12.3861    0.9203   -1.4121 C   0  0  1  0  0  0  0  0  0  0  0  0
  -13.5254    0.1007   -1.6836 O   0  0  0  0  0  0  0  0  0  0  0  0
  -12.0156    0.8318    0.0562 C   0  0  2  0  0  0  0  0  0  0  0  0
  -13.0453    1.4426    0.8218 O   0  0  0  0  0  0  0  0  0  0  0  0
  -10.6971    1.5325    0.3553 C   0  0  2  0  0  0  0  0  0  0  0  0
   -9.6986    0.9271   -0.4548 O   0  0  0  0  0  0  0  0  0  0  0  0
  -10.3232    1.4221    1.8382 C   0  0  0  0  0  0  0  0  0  0  0  0
   -9.1585    2.1870    2.1816 O   0  0  0  0  0  0  0  0  0  0  0  0
  1  2  1  0  0  0  0
  3  1  1  1  0  0  0
  3  9  1  0  0  0  0
  3  4  1  0  0  0  0
  4  5  1  6  0  0  0
  4  6  1  0  0  0  0
  6  7  1  1  0  0  0
  6  8  1  0  0  0  0
  8  9  1  0  0  0  0
  8 10  1  6  0  0  0
  8 13  1  0  0  0  0
 10 11  1  0  0  0  0
 12 13  1  1  0  0  0
 12 14  1  0  0  0  0
 12 21  1  0  0  0  0
 14 15  1  6  0  0  0
 14 16  1  0  0  0  0
 16 17  1  1  0  0  0
 16 18  1  0  0  0  0
 18 19  1  1  0  0  0
 18 20  1  0  0  0  0
 20 21  1  0  0  0  0
 20 22  1  1  0  0  0
 22 23  1  0  0  0  0
M  END
>  <CHROM.1>
-60.66746058,-158.73300089,-144.67659581,-161.81735049,-173.96682006,-9.72294767
2.46780545,-1.20122282,0.06018334,0.69844187,1.58417114

>  <Name>
ligand

>  <RI>
0

>  <Rbt.Current_Directory>
/home/itssahil/PROJECTS/Mol_Feturizer/New_Systems/rnas/4TS2

>  <Rbt.Executable>
rbdock ($Id: //depot/dev/client3/rdock/2013.1/src/exe/rbdock.cxx#4 $)

>  <Rbt.Library>
libRbt.so (2013.1, Build901 2013/11/27)

>  <Rbt.Parameter_File>
/export/apps/rDock/src/rDock_2013.1_src/data/scripts/dock_solv.prm

>  <Rbt.Receptor>
prm/blind_docking_100.prm

>  <SCORE>
-12.2307

>  <SCORE.INTER>
-8.61982

>  <SCORE.INTER.CONST>
1

>  <SCORE.INTER.POLAR>
0

>  <SCORE.INTER.ROT>
5

>  <SCORE.INTER.SOLV>
14.9761

>  <SCORE.INTER.VDW>
-17.6719

>  <SCORE.INTER.norm>
-0.374775

>  <SCORE.INTRA>
-3.61085

>  <SCORE.INTRA.DIHEDRAL>
-4.93172

>  <SCORE.INTRA.DIHEDRAL.0>
12.4853

>  <SCORE.INTRA.POLAR>
0

>  <SCORE.INTRA.POLAR.0>
0

>  <SCORE.INTRA.REPUL>
0

>  <SCORE.INTRA.REPUL.0>
0

>  <SCORE.INTRA.SOLV>
0.854089

>  <SCORE.INTRA.SOLV.lig_0>
-31.1706

>  <SCORE.INTRA.VDW>
-1.57204

>  <SCORE.INTRA.VDW.0>
-1.16895

>  <SCORE.INTRA.norm>
-0.156994

>  <SCORE.RESTR>
0

>  <SCORE.RESTR.CAVITY>
0

>  <SCORE.RESTR.norm>
0

>  <SCORE.SYSTEM>
0

>  <SCORE.SYSTEM.CONST>
0

>  <SCORE.SYSTEM.DIHEDRAL>
0

>  <SCORE.SYSTEM.SOLV>
0

>  <SCORE.SYSTEM.norm>
0

>  <SCORE.heavy>
23

>  <SCORE.norm>
-0.531769

>  <RMSD>
13.422

$$$$
ligand
 OpenBabel11021811513D
libRbt.so/2013.1/901 2013/11/27
 23 24  0  0  0  0  0  0  0  0999 V2000
  -11.4353    0.1106    1.7024 C   0  0  0  0  0  0  0  0  0  0  0  0
  -12.6863   -0.3453    2.2526 O   0  0  0  0  0  0  0  0  0  0  0  0
  -11.0860    1.4587    2.3164 C   0  0  2  0  0  0  0  0  0  0  0  0
  -11.9595    2.6249    1.8799 C   0  0  1  0  0  0  0  0  0  0  0  0
  -13.1890    2.5947    2.6077 O   0  0  0  0  0  0  0  0  0  0  0  0
  -11.0735    3.8212    2.2103 C   0  0  2  0  0  0  0  0  0  0  0  0
  -11.3181    5.0624    1.5381 O   0  0  0  0  0  0  0  0  0  0  0  0
   -9.6999    3.2913    1.8382 C   0  0  2  0  0  0  0  0  0  0  0  0
   -9.7522    1.8565    1.9862 O   0  0  0  0  0  0  0  0  0  0  0  0
   -8.6749    3.9430    2.7839 C   0  0  0  0  0  0  0  0  0  0  0  0
   -8.5823    5.3620    2.5951 O   0  0  0  0  0  0  0  0  0  0  0  0
   -8.4274    2.7594   -0.1430 C   0  0  2  0  0  0  0  0  0  0  0  0
   -9.4526    3.5746    0.4506 O   0  0  0  0  0  0  0  0  0  0  0  0
   -7.9181    3.4922   -1.3702 C   0  0  2  0  0  0  0  0  0  0  0  0
   -7.6343    4.8518   -1.0222 O   0  0  0  0  0  0  0  0  0  0  0  0
   -8.9688    3.4968   -2.4587 C   0  0  1  0  0  0  0  0  0  0  0  0
   -8.3705    3.9705   -3.6675 O   0  0  0  0  0  0  0  0  0  0  0  0
   -9.5316    2.1033   -2.6643 C   0  0  2  0  0  0  0  0  0  0  0  0
  -10.6311    2.1854   -3.5608 O   0  0  0  0  0  0  0  0  0  0  0  0
  -10.0059    1.4809   -1.3580 C   0  0  2  0  0  0  0  0  0  0  0  0
   -8.8956    1.4514   -0.4713 O   0  0  0  0  0  0  0  0  0  0  0  0
  -10.5564    0.0663   -1.5741 C   0  0  0  0  0  0  0  0  0  0  0  0
  -11.7515    0.0446   -2.3684 O   0  0  0  0  0  0  0  0  0  0  0  0
  1  2  1  0  0  0  0
  3  1  1  6  0  0  0
  3  9  1  0  0  0  0
  3  4  1  0  0  0  0
  4  5  1  1  0  0  0
  4  6  1  0  0  0  0
  6  7  1  6  0  0  0
  6  8  1  0  0  0  0
  8  9  1  0  0  0  0
  8 10  1  1  0  0  0
  8 13  1  0  0  0  0
 10 11  1  0  0  0  0
 12 13  1  6  0  0  0
 12 14  1  0  0  0  0
 12 21  1  0  0  0  0
 14 15  1  1  0  0  0
 14 16  1  0  0  0  0
 16 17  1  6  0  0  0
 16 18  1  0  0  0  0
 18 19  1  6  0  0  0
 18 20  1  0  0  0  0
 20 21  1  0  0  0  0
 20 22  1  6  0  0  0
 22 23  1  0  0  0  0
M  END
>  <CHROM.1>
-70.34177815,-65.13277780,-158.68060926,-160.03303530,-65.63107341,-10.08544304
2.58358561,0.14270598,2.27479113,0.84535287,1.11910577

>  <Name>
ligand

>  <RI>
0

>  <Rbt.Current_Directory>
/home/itssahil/PROJECTS/Mol_Feturizer/New_Systems/rnas/4TS2

>  <Rbt.Executable>
rbdock ($Id: //depot/dev/client3/rdock/2013.1/src/exe/rbdock.cxx#4 $)

>  <Rbt.Library>
libRbt.so (2013.1, Build901 2013/11/27)

>  <Rbt.Parameter_File>
/export/apps/rDock/src/rDock_2013.1_src/data/scripts/dock_solv.prm

>  <Rbt.Receptor>
prm/blind_docking_60.prm

>  <SCORE>
-10.4895

>  <SCORE.INTER>
-5.11554

>  <SCORE.INTER.CONST>
1

>  <SCORE.INTER.POLAR>
0

>  <SCORE.INTER.ROT>
5

>  <SCORE.INTER.SOLV>
9.79233

>  <SCORE.INTER.VDW>
-13.6078

>  <SCORE.INTER.norm>
-0.222415

>  <SCORE.INTRA>
-5.37395

>  <SCORE.INTRA.DIHEDRAL>
-8.32104

>  <SCORE.INTRA.DIHEDRAL.0>
12.4853

>  <SCORE.INTRA.POLAR>
0

>  <SCORE.INTRA.POLAR.0>
0

>  <SCORE.INTRA.REPUL>
0

>  <SCORE.INTRA.REPUL.0>
0

>  <SCORE.INTRA.SOLV>
0.675506

>  <SCORE.INTRA.SOLV.lig_0>
-31.1706

>  <SCORE.INTRA.VDW>
-1.55118

>  <SCORE.INTRA.VDW.0>
-1.16895

>  <SCORE.INTRA.norm>
-0.23365

>  <SCORE.RESTR>
0

>  <SCORE.RESTR.CAVITY>
0

>  <SCORE.RESTR.norm>
0

>  <SCORE.SYSTEM>
0

>  <SCORE.SYSTEM.CONST>
0

>  <SCORE.SYSTEM.DIHEDRAL>
0

>  <SCORE.SYSTEM.SOLV>
0

>  <SCORE.SYSTEM.norm>
0

>  <SCORE.heavy>
23

>  <SCORE.norm>
-0.456065

>  <RMSD>
13.448

$$$$
ligand
 OpenBabel11021811513D
libRbt.so/2013.1/901 2013/11/27
 23 24  0  0  0  0  0  0  0  0999 V2000
  -12.0517    0.5730    2.0258 C   0  0  0  0  0  0  0  0  0  0  0  0
  -11.4165   -0.4616    2.8014 O   0  0  0  0  0  0  0  0  0  0  0  0
  -11.4965    1.9241    2.4532 C   0  0  2  0  0  0  0  0  0  0  0  0
  -12.1731    3.1374    1.8339 C   0  0  1  0  0  0  0  0  0  0  0  0
  -13.3950    3.4035    2.5256 O   0  0  0  0  0  0  0  0  0  0  0  0
  -11.1107    4.2161    2.0162 C   0  0  2  0  0  0  0  0  0  0  0  0
  -11.1535    5.3711    1.1699 O   0  0  0  0  0  0  0  0  0  0  0  0
   -9.8365    3.4311    1.7592 C   0  0  2  0  0  0  0  0  0  0  0  0
  -10.1153    2.0580    2.1061 O   0  0  0  0  0  0  0  0  0  0  0  0
   -8.7254    4.0439    2.6309 C   0  0  0  0  0  0  0  0  0  0  0  0
   -9.0385    3.9942    4.0299 O   0  0  0  0  0  0  0  0  0  0  0  0
   -8.6966    2.3999   -0.1022 C   0  0  2  0  0  0  0  0  0  0  0  0
   -9.5417    3.4709    0.3527 O   0  0  0  0  0  0  0  0  0  0  0  0
   -7.8609    2.9368   -1.2493 C   0  0  2  0  0  0  0  0  0  0  0  0
   -7.2801    4.1873   -0.8632 O   0  0  0  0  0  0  0  0  0  0  0  0
   -8.7254    3.1778   -2.4673 C   0  0  1  0  0  0  0  0  0  0  0  0
   -7.8743    3.4420   -3.5850 O   0  0  0  0  0  0  0  0  0  0  0  0
   -9.6003    1.9712   -2.7492 C   0  0  2  0  0  0  0  0  0  0  0  0
  -10.5160    2.3060   -3.7830 O   0  0  0  0  0  0  0  0  0  0  0  0
  -10.3840    1.5346   -1.5187 C   0  0  2  0  0  0  0  0  0  0  0  0
   -9.4430    1.2476   -0.4930 O   0  0  0  0  0  0  0  0  0  0  0  0
  -11.2513    0.3041   -1.8094 C   0  0  0  0  0  0  0  0  0  0  0  0
  -12.2436    0.0660   -0.8003 O   0  0  0  0  0  0  0  0  0  0  0  0
  1  2  1  0  0  0  0
  3  1  1  6  0  0  0
  3  9  1  0  0  0  0
  3  4  1  0  0  0  0
  4  5  1  1  0  0  0
  4  6  1  0  0  0  0
  6  7  1  6  0  0  0
  6  8  1  0  0  0  0
  8  9  1  0  0  0  0
  8 10  1  1  0  0  0
  8 13  1  0  0  0  0
 10 11  1  0  0  0  0
 12 13  1  6  0  0  0
 12 14  1  0  0  0  0
 12 21  1  0  0  0  0
 14 15  1  1  0  0  0
 14 16  1  0  0  0  0
 16 17  1  6  0  0  0
 16 18  1  0  0  0  0
 18 19  1  6  0  0  0
 18 20  1  0  0  0  0
 20 21  1  0  0  0  0
 20 22  1  6  0  0  0
 22 23  1  0  0  0  0
M  END
>  <CHROM.1>
-173.66221324,59.57163963,-148.19234380,-157.78308498,-165.27012754,-10.17767020
2.55166572,0.27892010,2.15302710,0.76621957,1.12859582

>  <Name>
ligand

>  <RI>
0

>  <Rbt.Current_Directory>
/home/itssahil/PROJECTS/Mol_Feturizer/New_Systems/rnas/4TS2

>  <Rbt.Executable>
rbdock ($Id: //depot/dev/client3/rdock/2013.1/src/exe/rbdock.cxx#4 $)

>  <Rbt.Library>
libRbt.so (2013.1, Build901 2013/11/27)

>  <Rbt.Parameter_File>
/export/apps/rDock/src/rDock_2013.1_src/data/scripts/dock_solv.prm

>  <Rbt.Receptor>
prm/blind_docking_80.prm

>  <SCORE>
-9.3269

>  <SCORE.INTER>
-5.189

>  <SCORE.INTER.CONST>
1

>  <SCORE.INTER.POLAR>
0

>  <SCORE.INTER.ROT>
5

>  <SCORE.INTER.SOLV>
9.24822

>  <SCORE.INTER.VDW>
-13.4754

>  <SCORE.INTER.norm>
-0.225609

>  <SCORE.INTRA>
-4.1379

>  <SCORE.INTRA.DIHEDRAL>
-5.71883

>  <SCORE.INTRA.DIHEDRAL.0>
12.4853

>  <SCORE.INTRA.POLAR>
0

>  <SCORE.INTRA.POLAR.0>
0

>  <SCORE.INTRA.REPUL>
0

>  <SCORE.INTRA.REPUL.0>
0

>  <SCORE.INTRA.SOLV>
0.243816

>  <SCORE.INTRA.SOLV.lig_0>
-31.1706

>  <SCORE.INTRA.VDW>
-1.4004

>  <SCORE.INTRA.VDW.0>
-1.16895

>  <SCORE.INTRA.norm>
-0.179909

>  <SCORE.RESTR>
0

>  <SCORE.RESTR.CAVITY>
0

>  <SCORE.RESTR.norm>
0

>  <SCORE.SYSTEM>
0

>  <SCORE.SYSTEM.CONST>
0

>  <SCORE.SYSTEM.DIHEDRAL>
0

>  <SCORE.SYSTEM.SOLV>
0

>  <SCORE.SYSTEM.norm>
0

>  <SCORE.heavy>
23

>  <SCORE.norm>
-0.405517

>  <RMSD>
13.460

$$$$
ligand
 OpenBabel11021811513D
libRbt.so/2013.1/901 2013/11/27
 23 24  0  0  0  0  0  0  0  0999 V2000
   -7.7401    3.6450    1.0220 C   0  0  0  0  0  0  0  0  0  0  0  0
   -7.5242    4.8040    1.8501 O   0  0  0  0  0  0  0  0  0  0  0  0
   -7.8439    4.0865   -0.4308 C   0  0  2  0  0  0  0  0  0  0  0  0
   -9.0017    5.0191   -0.7523 C   0  0  1  0  0  0  0  0  0  0  0  0
   -8.6627    6.3497   -0.3561 O   0  0  0  0  0  0  0  0  0  0  0  0
   -9.1406    4.8384   -2.2601 C   0  0  2  0  0  0  0  0  0  0  0  0
  -10.3892    5.1709   -2.8787 O   0  0  0  0  0  0  0  0  0  0  0  0
   -8.8650    3.3529   -2.4125 C   0  0  2  0  0  0  0  0  0  0  0  0
   -8.0185    2.9701   -1.3079 O   0  0  0  0  0  0  0  0  0  0  0  0
   -8.1837    3.1408   -3.7765 C   0  0  0  0  0  0  0  0  0  0  0  0
   -8.4645    1.8486   -4.3326 O   0  0  0  0  0  0  0  0  0  0  0  0
   -9.9439    1.2449   -1.9432 C   0  0  2  0  0  0  0  0  0  0  0  0
  -10.1030    2.6343   -2.2784 O   0  0  0  0  0  0  0  0  0  0  0  0
  -11.2094    0.5263   -2.3726 C   0  0  2  0  0  0  0  0  0  0  0  0
  -11.5311    0.9024   -3.7162 O   0  0  0  0  0  0  0  0  0  0  0  0
  -12.3696    0.9203   -1.4852 C   0  0  1  0  0  0  0  0  0  0  0  0
  -13.4690    0.0484   -1.7586 O   0  0  0  0  0  0  0  0  0  0  0  0
  -11.9793    0.8276   -0.0224 C   0  0  2  0  0  0  0  0  0  0  0  0
  -13.0301    1.3734    0.7633 O   0  0  0  0  0  0  0  0  0  0  0  0
  -10.6947    1.5895    0.2748 C   0  0  2  0  0  0  0  0  0  0  0  0
   -9.6758    1.0482   -0.5550 O   0  0  0  0  0  0  0  0  0  0  0  0
  -10.2996    1.4749    1.7519 C   0  0  0  0  0  0  0  0  0  0  0  0
  -10.4179    0.1388    2.2623 O   0  0  0  0  0  0  0  0  0  0  0  0
  1  2  1  0  0  0  0
  3  1  1  1  0  0  0
  3  9  1  0  0  0  0
  3  4  1  0  0  0  0
  4  5  1  6  0  0  0
  4  6  1  0  0  0  0
  6  7  1  1  0  0  0
  6  8  1  0  0  0  0
  8  9  1  0  0  0  0
  8 10  1  6  0  0  0
  8 13  1  0  0  0  0
 10 11  1  0  0  0  0
 12 13  1  1  0  0  0
 12 14  1  0  0  0  0
 12 21  1  0  0  0  0
 14 15  1  6  0  0  0
 14 16  1  0  0  0  0
 16 17  1  1  0  0  0
 16 18  1  0  0  0  0
 18 19  1  1  0  0  0
 18 20  1  0  0  0  0
 20 21  1  0  0  0  0
 20 22  1  1  0  0  0
 22 23  1  0  0  0  0
M  END
>  <CHROM.1>
-62.17123702,-150.78389554,-157.78902776,-159.64911447,44.56718600,-9.94732018
2.51555581,-1.06816770,-0.02497809,0.83320020,1.61477201

>  <Name>
ligand

>  <RI>
0

>  <Rbt.Current_Directory>
/home/itssahil/PROJECTS/Mol_Feturizer/New_Systems/rnas/4TS2

>  <Rbt.Executable>
rbdock ($Id: //depot/dev/client3/rdock/2013.1/src/exe/rbdock.cxx#4 $)

>  <Rbt.Library>
libRbt.so (2013.1, Build901 2013/11/27)

>  <Rbt.Parameter_File>
/export/apps/rDock/src/rDock_2013.1_src/data/scripts/dock_solv.prm

>  <Rbt.Receptor>
prm/blind_docking_100.prm

>  <SCORE>
-12.5582

>  <SCORE.INTER>
-8.86823

>  <SCORE.INTER.CONST>
1

>  <SCORE.INTER.POLAR>
0

>  <SCORE.INTER.ROT>
5

>  <SCORE.INTER.SOLV>
14.5473

>  <SCORE.INTER.VDW>
-17.6946

>  <SCORE.INTER.norm>
-0.385575

>  <SCORE.INTRA>
-3.68995

>  <SCORE.INTRA.DIHEDRAL>
-5.28093

>  <SCORE.INTRA.DIHEDRAL.0>
12.4853

>  <SCORE.INTRA.POLAR>
0

>  <SCORE.INTRA.POLAR.0>
0

>  <SCORE.INTRA.REPUL>
0

>  <SCORE.INTRA.REPUL.0>
0

>  <SCORE.INTRA.SOLV>
0.810934

>  <SCORE.INTRA.SOLV.lig_0>
-31.1706

>  <SCORE.INTRA.VDW>
-1.45495

>  <SCORE.INTRA.VDW.0>
-1.16895

>  <SCORE.INTRA.norm>
-0.160433

>  <SCORE.RESTR>
0

>  <SCORE.RESTR.CAVITY>
0

>  <SCORE.RESTR.norm>
0

>  <SCORE.SYSTEM>
0

>  <SCORE.SYSTEM.CONST>
0

>  <SCORE.SYSTEM.DIHEDRAL>
0

>  <SCORE.SYSTEM.SOLV>
0

>  <SCORE.SYSTEM.norm>
0

>  <SCORE.heavy>
23

>  <SCORE.norm>
-0.546008

>  <RMSD>
13.469

$$$$
ligand
 OpenBabel11021811513D
libRbt.so/2013.1/901 2013/11/27
 23 24  0  0  0  0  0  0  0  0999 V2000
   -7.8133    3.8102    1.0619 C   0  0  0  0  0  0  0  0  0  0  0  0
   -7.6450    5.0169    1.8307 O   0  0  0  0  0  0  0  0  0  0  0  0
   -7.8586    4.1671   -0.4169 C   0  0  2  0  0  0  0  0  0  0  0  0
   -9.0018    5.0780   -0.8375 C   0  0  1  0  0  0  0  0  0  0  0  0
   -8.6778    6.4296   -0.5054 O   0  0  0  0  0  0  0  0  0  0  0  0
   -9.0806    4.8105   -2.3368 C   0  0  2  0  0  0  0  0  0  0  0  0
  -10.3032    5.1051   -3.0228 O   0  0  0  0  0  0  0  0  0  0  0  0
   -8.8005    3.3191   -2.3922 C   0  0  2  0  0  0  0  0  0  0  0  0
   -7.9990    3.0018   -1.2345 O   0  0  0  0  0  0  0  0  0  0  0  0
   -8.0654    3.0298   -3.7135 C   0  0  0  0  0  0  0  0  0  0  0  0
   -6.8005    3.7015   -3.7934 O   0  0  0  0  0  0  0  0  0  0  0  0
   -9.8960    1.2259   -1.8963 C   0  0  2  0  0  0  0  0  0  0  0  0
  -10.0434    2.6077   -2.2664 O   0  0  0  0  0  0  0  0  0  0  0  0
  -11.1521    0.5001   -2.3410 C   0  0  2  0  0  0  0  0  0  0  0  0
  -11.4393    0.8465   -3.7003 O   0  0  0  0  0  0  0  0  0  0  0  0
  -12.3332    0.9160   -1.4919 C   0  0  1  0  0  0  0  0  0  0  0  0
  -13.4274    0.0402   -1.7731 O   0  0  0  0  0  0  0  0  0  0  0  0
  -11.9797    0.8555   -0.0181 C   0  0  2  0  0  0  0  0  0  0  0  0
  -13.0485    1.4207    0.7287 O   0  0  0  0  0  0  0  0  0  0  0  0
  -10.7011    1.6215    0.2940 C   0  0  2  0  0  0  0  0  0  0  0  0
   -9.6630    1.0600   -0.4978 O   0  0  0  0  0  0  0  0  0  0  0  0
  -10.3432    1.5394    1.7827 C   0  0  0  0  0  0  0  0  0  0  0  0
  -10.4172    0.2046    2.3047 O   0  0  0  0  0  0  0  0  0  0  0  0
  1  2  1  0  0  0  0
  3  1  1  1  0  0  0
  3  9  1  0  0  0  0
  3  4  1  0  0  0  0
  4  5  1  6  0  0  0
  4  6  1  0  0  0  0
  6  7  1  1  0  0  0
  6  8  1  0  0  0  0
  8  9  1  0  0  0  0
  8 10  1  6  0  0  0
  8 13  1  0  0  0  0
 10 11  1  0  0  0  0
 12 13  1  1  0  0  0
 12 14  1  0  0  0  0
 12 21  1  0  0  0  0
 14 15  1  6  0  0  0
 14 16  1  0  0  0  0
 16 17  1  1  0  0  0
 16 18  1  0  0  0  0
 18 19  1  1  0  0  0
 18 20  1  0  0  0  0
 20 21  1  0  0  0  0
 20 22  1  1  0  0  0
 22 23  1  0  0  0  0
M  END
>  <CHROM.1>
-61.52045510,62.18815296,-157.49255533,-161.94998380,47.29563207,-9.85073404
2.62679819,-1.04578223,-0.15174576,0.80552919,1.59788837

>  <Name>
ligand

>  <RI>
0

>  <Rbt.Current_Directory>
/home/itssahil/PROJECTS/Mol_Feturizer/New_Systems/rnas/4TS2

>  <Rbt.Executable>
rbdock ($Id: //depot/dev/client3/rdock/2013.1/src/exe/rbdock.cxx#4 $)

>  <Rbt.Library>
libRbt.so (2013.1, Build901 2013/11/27)

>  <Rbt.Parameter_File>
/export/apps/rDock/src/rDock_2013.1_src/data/scripts/dock_solv.prm

>  <Rbt.Receptor>
prm/blind_docking_40.prm

>  <SCORE>
-14.7595

>  <SCORE.INTER>
-9.34898

>  <SCORE.INTER.CONST>
1

>  <SCORE.INTER.POLAR>
0

>  <SCORE.INTER.ROT>
5

>  <SCORE.INTER.SOLV>
13.8166

>  <SCORE.INTER.VDW>
-17.7715

>  <SCORE.INTER.norm>
-0.406477

>  <SCORE.INTRA>
-5.41049

>  <SCORE.INTRA.DIHEDRAL>
-8.3471

>  <SCORE.INTRA.DIHEDRAL.0>
12.4853

>  <SCORE.INTRA.POLAR>
0

>  <SCORE.INTRA.POLAR.0>
0

>  <SCORE.INTRA.REPUL>
0

>  <SCORE.INTRA.REPUL.0>
0

>  <SCORE.INTRA.SOLV>
0.448133

>  <SCORE.INTRA.SOLV.lig_0>
-31.1706

>  <SCORE.INTRA.VDW>
-1.461

>  <SCORE.INTRA.VDW.0>
-1.16895

>  <SCORE.INTRA.norm>
-0.235239

>  <SCORE.RESTR>
0

>  <SCORE.RESTR.CAVITY>
0

>  <SCORE.RESTR.norm>
0

>  <SCORE.SYSTEM>
0

>  <SCORE.SYSTEM.CONST>
0

>  <SCORE.SYSTEM.DIHEDRAL>
0

>  <SCORE.SYSTEM.SOLV>
0

>  <SCORE.SYSTEM.norm>
0

>  <SCORE.heavy>
23

>  <SCORE.norm>
-0.641716

>  <RMSD>
13.539

$$$$
ligand
 OpenBabel11021811513D
libRbt.so/2013.1/901 2013/11/27
 23 24  0  0  0  0  0  0  0  0999 V2000
  -10.7894    2.0744    5.5835 C   0  0  0  0  0  0  0  0  0  0  0  0
  -11.4264    2.6358    6.7473 O   0  0  0  0  0  0  0  0  0  0  0  0
  -10.2833    3.2065    4.7011 C   0  0  2  0  0  0  0  0  0  0  0  0
  -11.3571    4.0997    4.0989 C   0  0  1  0  0  0  0  0  0  0  0  0
  -11.7964    5.0406    5.0807 O   0  0  0  0  0  0  0  0  0  0  0  0
  -10.6177    4.7304    2.9238 C   0  0  2  0  0  0  0  0  0  0  0  0
  -11.3844    5.2650    1.8382 O   0  0  0  0  0  0  0  0  0  0  0  0
   -9.7730    3.5655    2.4386 C   0  0  2  0  0  0  0  0  0  0  0  0
   -9.5486    2.7095    3.5789 O   0  0  0  0  0  0  0  0  0  0  0  0
   -8.4640    4.1418    1.8693 C   0  0  0  0  0  0  0  0  0  0  0  0
   -7.7047    4.8527    2.8572 O   0  0  0  0  0  0  0  0  0  0  0  0
   -9.9410    1.5485    1.1229 C   0  0  2  0  0  0  0  0  0  0  0  0
  -10.5287    2.8130    1.4745 O   0  0  0  0  0  0  0  0  0  0  0  0
  -10.1351    1.3569   -0.3698 C   0  0  2  0  0  0  0  0  0  0  0  0
   -9.7269    2.5466   -1.0539 O   0  0  0  0  0  0  0  0  0  0  0  0
  -11.5938    1.1109   -0.6872 C   0  0  1  0  0  0  0  0  0  0  0  0
  -11.6994    0.6938   -2.0504 O   0  0  0  0  0  0  0  0  0  0  0  0
  -12.1691    0.0495    0.2311 C   0  0  2  0  0  0  0  0  0  0  0  0
  -13.5727   -0.0206    0.0205 O   0  0  0  0  0  0  0  0  0  0  0  0
  -11.9057    0.3606    1.6983 C   0  0  2  0  0  0  0  0  0  0  0  0
  -10.4983    0.4650    1.8665 O   0  0  0  0  0  0  0  0  0  0  0  0
  -12.4756   -0.7268    2.6168 C   0  0  0  0  0  0  0  0  0  0  0  0
  -12.2637   -0.4527    4.0095 O   0  0  0  0  0  0  0  0  0  0  0  0
  1  2  1  0  0  0  0
  3  1  1  6  0  0  0
  3  9  1  0  0  0  0
  3  4  1  0  0  0  0
  4  5  1  1  0  0  0
  4  6  1  0  0  0  0
  6  7  1  6  0  0  0
  6  8  1  0  0  0  0
  8  9  1  0  0  0  0
  8 10  1  6  0  0  0
  8 13  1  0  0  0  0
 10 11  1  0  0  0  0
 12 13  1  1  0  0  0
 12 14  1  0  0  0  0
 12 21  1  0  0  0  0
 14 15  1  6  0  0  0
 14 16  1  0  0  0  0
 16 17  1  6  0  0  0
 16 18  1  0  0  0  0
 18 19  1  1  0  0  0
 18 20  1  0  0  0  0
 20 21  1  0  0  0  0
 20 22  1  1  0  0  0
 22 23  1  0  0  0  0
M  END
>  <CHROM.1>
-64.91181958,61.40607937,-140.37362867,-169.04761097,-179.01880737,-10.86200128
2.27060236,2.21110307,1.19034790,0.97087239,1.27622302

>  <Name>
ligand

>  <RI>
0

>  <Rbt.Current_Directory>
/home/itssahil/PROJECTS/Mol_Feturizer/New_Systems/rnas/4TS2

>  <Rbt.Executable>
rbdock ($Id: //depot/dev/client3/rdock/2013.1/src/exe/rbdock.cxx#4 $)

>  <Rbt.Library>
libRbt.so (2013.1, Build901 2013/11/27)

>  <Rbt.Parameter_File>
/export/apps/rDock/src/rDock_2013.1_src/data/scripts/dock_solv.prm

>  <Rbt.Receptor>
prm/blind_docking_100.prm

>  <SCORE>
-12.0656

>  <SCORE.INTER>
-7.31718

>  <SCORE.INTER.CONST>
1

>  <SCORE.INTER.POLAR>
0

>  <SCORE.INTER.ROT>
5

>  <SCORE.INTER.SOLV>
10.2767

>  <SCORE.INTER.VDW>
-15.237

>  <SCORE.INTER.norm>
-0.318138

>  <SCORE.INTRA>
-4.74839

>  <SCORE.INTRA.DIHEDRAL>
-6.58811

>  <SCORE.INTRA.DIHEDRAL.0>
12.4853

>  <SCORE.INTRA.POLAR>
0

>  <SCORE.INTRA.POLAR.0>
0

>  <SCORE.INTRA.REPUL>
0

>  <SCORE.INTRA.REPUL.0>
0

>  <SCORE.INTRA.SOLV>
0.102969

>  <SCORE.INTRA.SOLV.lig_0>
-31.1706

>  <SCORE.INTRA.VDW>
-1.50582

>  <SCORE.INTRA.VDW.0>
-1.16895

>  <SCORE.INTRA.norm>
-0.206452

>  <SCORE.RESTR>
0

>  <SCORE.RESTR.CAVITY>
0

>  <SCORE.RESTR.norm>
0

>  <SCORE.SYSTEM>
0

>  <SCORE.SYSTEM.CONST>
0

>  <SCORE.SYSTEM.DIHEDRAL>
0

>  <SCORE.SYSTEM.SOLV>
0

>  <SCORE.SYSTEM.norm>
0

>  <SCORE.heavy>
23

>  <SCORE.norm>
-0.52459

>  <RMSD>
13.565

$$$$
ligand
 OpenBabel11021811513D
libRbt.so/2013.1/901 2013/11/27
 23 24  0  0  0  0  0  0  0  0999 V2000
  -10.3444    2.4063    3.6362 C   0  0  0  0  0  0  0  0  0  0  0  0
  -10.9495    3.0214    4.7900 O   0  0  0  0  0  0  0  0  0  0  0  0
   -9.7403    3.4911    2.7560 C   0  0  2  0  0  0  0  0  0  0  0  0
  -10.7294    4.4862    2.1687 C   0  0  1  0  0  0  0  0  0  0  0  0
  -11.0693    5.4580    3.1597 O   0  0  0  0  0  0  0  0  0  0  0  0
   -9.9433    5.0517    0.9907 C   0  0  2  0  0  0  0  0  0  0  0  0
  -10.6647    5.6639   -0.0849 O   0  0  0  0  0  0  0  0  0  0  0  0
   -9.2169    3.8152    0.4913 C   0  0  2  0  0  0  0  0  0  0  0  0
   -9.0655    2.9341    1.6245 O   0  0  0  0  0  0  0  0  0  0  0  0
   -7.8639    4.2685   -0.0862 C   0  0  0  0  0  0  0  0  0  0  0  0
   -7.0442    3.1627   -0.4902 O   0  0  0  0  0  0  0  0  0  0  0  0
   -9.6015    1.8215   -0.8144 C   0  0  2  0  0  0  0  0  0  0  0  0
  -10.0487    3.1443   -0.4705 O   0  0  0  0  0  0  0  0  0  0  0  0
   -9.8904    1.6136   -2.2894 C   0  0  2  0  0  0  0  0  0  0  0  0
   -9.4085    2.7423   -3.0269 O   0  0  0  0  0  0  0  0  0  0  0  0
  -11.3803    1.5003   -2.5268 C   0  0  1  0  0  0  0  0  0  0  0  0
  -11.5956    1.0626   -3.8706 O   0  0  0  0  0  0  0  0  0  0  0  0
  -12.0041    0.5208   -1.5510 C   0  0  2  0  0  0  0  0  0  0  0  0
  -13.4172    0.5797   -1.6895 O   0  0  0  0  0  0  0  0  0  0  0  0
  -11.6364    0.8403   -0.1082 C   0  0  2  0  0  0  0  0  0  0  0  0
  -10.2186    0.8140   -0.0132 O   0  0  0  0  0  0  0  0  0  0  0  0
  -12.2573   -0.1656    0.8683 C   0  0  0  0  0  0  0  0  0  0  0  0
  -11.9414    0.1155    2.2397 O   0  0  0  0  0  0  0  0  0  0  0  0
  1  2  1  0  0  0  0
  3  1  1  6  0  0  0
  3  9  1  0  0  0  0
  3  4  1  0  0  0  0
  4  5  1  1  0  0  0
  4  6  1  0  0  0  0
  6  7  1  6  0  0  0
  6  8  1  0  0  0  0
  8  9  1  0  0  0  0
  8 10  1  6  0  0  0
  8 13  1  0  0  0  0
 10 11  1  0  0  0  0
 12 13  1  1  0  0  0
 12 14  1  0  0  0  0
 12 21  1  0  0  0  0
 14 15  1  6  0  0  0
 14 16  1  0  0  0  0
 16 17  1  6  0  0  0
 16 18  1  0  0  0  0
 18 19  1  1  0  0  0
 18 20  1  0  0  0  0
 20 21  1  0  0  0  0
 20 22  1  1  0  0  0
 22 23  1  0  0  0  0
M  END
>  <CHROM.1>
-63.27044166,175.23458441,-143.72925576,-167.85428382,-179.38080793,-10.44285319
2.53677063,0.25332046,1.27407198,0.85449180,1.27467292

>  <Name>
ligand

>  <RI>
0

>  <Rbt.Current_Directory>
/home/itssahil/PROJECTS/Mol_Feturizer/New_Systems/rnas/4TS2

>  <Rbt.Executable>
rbdock ($Id: //depot/dev/client3/rdock/2013.1/src/exe/rbdock.cxx#4 $)

>  <Rbt.Library>
libRbt.so (2013.1, Build901 2013/11/27)

>  <Rbt.Parameter_File>
/export/apps/rDock/src/rDock_2013.1_src/data/scripts/dock_solv.prm

>  <Rbt.Receptor>
prm/blind_docking_80.prm

>  <SCORE>
-12.7499

>  <SCORE.INTER>
-7.77653

>  <SCORE.INTER.CONST>
1

>  <SCORE.INTER.POLAR>
0

>  <SCORE.INTER.ROT>
5

>  <SCORE.INTER.SOLV>
9.84229

>  <SCORE.INTER.VDW>
-15.3984

>  <SCORE.INTER.norm>
-0.33811

>  <SCORE.INTRA>
-4.97339

>  <SCORE.INTRA.DIHEDRAL>
-7.07089

>  <SCORE.INTRA.DIHEDRAL.0>
12.4853

>  <SCORE.INTRA.POLAR>
0

>  <SCORE.INTRA.POLAR.0>
0

>  <SCORE.INTRA.REPUL>
0

>  <SCORE.INTRA.REPUL.0>
0

>  <SCORE.INTRA.SOLV>
0.538459

>  <SCORE.INTRA.SOLV.lig_0>
-31.1706

>  <SCORE.INTRA.VDW>
-1.70718

>  <SCORE.INTRA.VDW.0>
-1.16895

>  <SCORE.INTRA.norm>
-0.216234

>  <SCORE.RESTR>
0

>  <SCORE.RESTR.CAVITY>
0

>  <SCORE.RESTR.norm>
0

>  <SCORE.SYSTEM>
0

>  <SCORE.SYSTEM.CONST>
0

>  <SCORE.SYSTEM.DIHEDRAL>
0

>  <SCORE.SYSTEM.SOLV>
0

>  <SCORE.SYSTEM.norm>
0

>  <SCORE.heavy>
23

>  <SCORE.norm>
-0.554344

>  <RMSD>
13.573

$$$$
ligand
 OpenBabel11021811513D
libRbt.so/2013.1/901 2013/11/27
 23 24  0  0  0  0  0  0  0  0999 V2000
  -10.7277    2.0992    5.5780 C   0  0  0  0  0  0  0  0  0  0  0  0
  -11.4137    2.6526    6.7176 O   0  0  0  0  0  0  0  0  0  0  0  0
  -10.2558    3.2365    4.6834 C   0  0  2  0  0  0  0  0  0  0  0  0
  -11.3544    4.1122    4.1005 C   0  0  1  0  0  0  0  0  0  0  0  0
  -11.7884    5.0489    5.0886 O   0  0  0  0  0  0  0  0  0  0  0  0
  -10.6476    4.7509    2.9097 C   0  0  2  0  0  0  0  0  0  0  0  0
  -11.4433    5.2714    1.8382 O   0  0  0  0  0  0  0  0  0  0  0  0
   -9.7952    3.5976    2.4106 C   0  0  2  0  0  0  0  0  0  0  0  0
   -9.5359    2.7478    3.5481 O   0  0  0  0  0  0  0  0  0  0  0  0
   -8.5063    4.1919    1.8146 C   0  0  0  0  0  0  0  0  0  0  0  0
   -7.7311    4.9036    2.7893 O   0  0  0  0  0  0  0  0  0  0  0  0
   -9.9622    1.5721    1.1079 C   0  0  2  0  0  0  0  0  0  0  0  0
  -10.5584    2.8316    1.4631 O   0  0  0  0  0  0  0  0  0  0  0  0
  -10.1462    1.3879   -0.3869 C   0  0  2  0  0  0  0  0  0  0  0  0
   -9.7398    2.5836   -1.0618 O   0  0  0  0  0  0  0  0  0  0  0  0
  -11.6017    1.1366   -0.7147 C   0  0  1  0  0  0  0  0  0  0  0  0
  -11.6968    0.7267   -2.0809 O   0  0  0  0  0  0  0  0  0  0  0  0
  -12.1772    0.0671    0.1940 C   0  0  2  0  0  0  0  0  0  0  0  0
  -13.5792   -0.0089   -0.0256 O   0  0  0  0  0  0  0  0  0  0  0  0
  -11.9243    0.3711    1.6646 C   0  0  2  0  0  0  0  0  0  0  0  0
  -10.5185    0.4815    1.8420 O   0  0  0  0  0  0  0  0  0  0  0  0
  -12.4944   -0.7244    2.5733 C   0  0  0  0  0  0  0  0  0  0  0  0
  -12.2758   -0.4664    3.9681 O   0  0  0  0  0  0  0  0  0  0  0  0
  1  2  1  0  0  0  0
  3  1  1  6  0  0  0
  3  9  1  0  0  0  0
  3  4  1  0  0  0  0
  4  5  1  1  0  0  0
  4  6  1  0  0  0  0
  6  7  1  6  0  0  0
  6  8  1  0  0  0  0
  8  9  1  0  0  0  0
  8 10  1  6  0  0  0
  8 13  1  0  0  0  0
 10 11  1  0  0  0  0
 12 13  1  1  0  0  0
 12 14  1  0  0  0  0
 12 21  1  0  0  0  0
 14 15  1  6  0  0  0
 14 16  1  0  0  0  0
 16 17  1  6  0  0  0
 16 18  1  0  0  0  0
 18 19  1  1  0  0  0
 18 20  1  0  0  0  0
 20 21  1  0  0  0  0
 20 22  1  1  0  0  0
 22 23  1  0  0  0  0
M  END
>  <CHROM.1>
-61.84956942,62.06775491,-138.87668560,-168.74891915,-179.84442720,-10.87162464
2.29237127,2.18599372,1.18077491,0.97692197,1.28343647

>  <Name>
ligand

>  <RI>
0

>  <Rbt.Current_Directory>
/home/itssahil/PROJECTS/Mol_Feturizer/New_Systems/rnas/4TS2

>  <Rbt.Executable>
rbdock ($Id: //depot/dev/client3/rdock/2013.1/src/exe/rbdock.cxx#4 $)

>  <Rbt.Library>
libRbt.so (2013.1, Build901 2013/11/27)

>  <Rbt.Parameter_File>
/export/apps/rDock/src/rDock_2013.1_src/data/scripts/dock_solv.prm

>  <Rbt.Receptor>
prm/blind_docking_100.prm

>  <SCORE>
-12.1142

>  <SCORE.INTER>
-7.49076

>  <SCORE.INTER.CONST>
1

>  <SCORE.INTER.POLAR>
0

>  <SCORE.INTER.ROT>
5

>  <SCORE.INTER.SOLV>
10.2087

>  <SCORE.INTER.VDW>
-15.3301

>  <SCORE.INTER.norm>
-0.325685

>  <SCORE.INTRA>
-4.62341

>  <SCORE.INTRA.DIHEDRAL>
-6.38718

>  <SCORE.INTRA.DIHEDRAL.0>
12.4853

>  <SCORE.INTRA.POLAR>
0

>  <SCORE.INTRA.POLAR.0>
0

>  <SCORE.INTRA.REPUL>
0

>  <SCORE.INTRA.REPUL.0>
0

>  <SCORE.INTRA.SOLV>
0.073608

>  <SCORE.INTRA.SOLV.lig_0>
-31.1706

>  <SCORE.INTRA.VDW>
-1.46663

>  <SCORE.INTRA.VDW.0>
-1.16895

>  <SCORE.INTRA.norm>
-0.201018

>  <SCORE.RESTR>
0

>  <SCORE.RESTR.CAVITY>
0

>  <SCORE.RESTR.norm>
0

>  <SCORE.SYSTEM>
0

>  <SCORE.SYSTEM.CONST>
0

>  <SCORE.SYSTEM.DIHEDRAL>
0

>  <SCORE.SYSTEM.SOLV>
0

>  <SCORE.SYSTEM.norm>
0

>  <SCORE.heavy>
23

>  <SCORE.norm>
-0.526703

>  <RMSD>
13.586

$$$$
ligand
 OpenBabel11021811513D
libRbt.so/2013.1/901 2013/11/27
 23 24  0  0  0  0  0  0  0  0999 V2000
  -10.3562    2.4211    3.6263 C   0  0  0  0  0  0  0  0  0  0  0  0
  -10.9782    3.0360    4.7711 O   0  0  0  0  0  0  0  0  0  0  0  0
   -9.7558    3.5075    2.7455 C   0  0  2  0  0  0  0  0  0  0  0  0
  -10.7482    4.4995    2.1585 C   0  0  1  0  0  0  0  0  0  0  0  0
  -11.0903    5.4706    3.1496 O   0  0  0  0  0  0  0  0  0  0  0  0
   -9.9643    5.0671    0.9799 C   0  0  2  0  0  0  0  0  0  0  0  0
  -10.6882    5.6770   -0.0954 O   0  0  0  0  0  0  0  0  0  0  0  0
   -9.2347    3.8326    0.4803 C   0  0  2  0  0  0  0  0  0  0  0  0
   -9.0800    2.9522    1.6136 O   0  0  0  0  0  0  0  0  0  0  0  0
   -7.8834    4.2897   -0.0981 C   0  0  0  0  0  0  0  0  0  0  0  0
   -7.0558    3.1859   -0.4911 O   0  0  0  0  0  0  0  0  0  0  0  0
   -9.6111    1.8398   -0.8291 C   0  0  2  0  0  0  0  0  0  0  0  0
  -10.0651    3.1591   -0.4808 O   0  0  0  0  0  0  0  0  0  0  0  0
   -9.9058    1.6324   -2.3030 C   0  0  2  0  0  0  0  0  0  0  0  0
   -9.4348    2.7654   -3.0409 O   0  0  0  0  0  0  0  0  0  0  0  0
  -11.3961    1.5098   -2.5333 C   0  0  1  0  0  0  0  0  0  0  0  0
  -11.6151    1.0730   -3.8767 O   0  0  0  0  0  0  0  0  0  0  0  0
  -12.0088    0.5247   -1.5561 C   0  0  2  0  0  0  0  0  0  0  0  0
  -13.4228    0.5747   -1.6877 O   0  0  0  0  0  0  0  0  0  0  0  0
  -11.6361    0.8442   -0.1146 C   0  0  2  0  0  0  0  0  0  0  0  0
  -10.2177    0.8270   -0.0266 O   0  0  0  0  0  0  0  0  0  0  0  0
  -12.2457   -0.1673    0.8632 C   0  0  0  0  0  0  0  0  0  0  0  0
  -11.9378    0.1225    2.2347 O   0  0  0  0  0  0  0  0  0  0  0  0
  1  2  1  0  0  0  0
  3  1  1  6  0  0  0
  3  9  1  0  0  0  0
  3  4  1  0  0  0  0
  4  5  1  1  0  0  0
  4  6  1  0  0  0  0
  6  7  1  6  0  0  0
  6  8  1  0  0  0  0
  8  9  1  0  0  0  0
  8 10  1  6  0  0  0
  8 13  1  0  0  0  0
 10 11  1  0  0  0  0
 12 13  1  1  0  0  0
 12 14  1  0  0  0  0
 12 21  1  0  0  0  0
 14 15  1  6  0  0  0
 14 16  1  0  0  0  0
 16 17  1  6  0  0  0
 16 18  1  0  0  0  0
 18 19  1  1  0  0  0
 18 20  1  0  0  0  0
 20 21  1  0  0  0  0
 20 22  1  1  0  0  0
 22 23  1  0  0  0  0
M  END
>  <CHROM.1>
-62.49929056,174.70697168,-143.86469459,-168.11198866,-178.70207721,-10.45602795
2.54964701,0.24405738,1.27368734,0.85977292,1.27405413

>  <Name>
ligand

>  <RI>
0

>  <Rbt.Current_Directory>
/home/itssahil/PROJECTS/Mol_Feturizer/New_Systems/rnas/4TS2

>  <Rbt.Executable>
rbdock ($Id: //depot/dev/client3/rdock/2013.1/src/exe/rbdock.cxx#4 $)

>  <Rbt.Library>
libRbt.so (2013.1, Build901 2013/11/27)

>  <Rbt.Parameter_File>
/export/apps/rDock/src/rDock_2013.1_src/data/scripts/dock_solv.prm

>  <Rbt.Receptor>
prm/blind_docking_80.prm

>  <SCORE>
-12.7259

>  <SCORE.INTER>
-7.73538

>  <SCORE.INTER.CONST>
1

>  <SCORE.INTER.POLAR>
0

>  <SCORE.INTER.ROT>
5

>  <SCORE.INTER.SOLV>
9.80333

>  <SCORE.INTER.VDW>
-15.358

>  <SCORE.INTER.norm>
-0.336321

>  <SCORE.INTRA>
-4.99048

>  <SCORE.INTRA.DIHEDRAL>
-7.11722

>  <SCORE.INTRA.DIHEDRAL.0>
12.4853

>  <SCORE.INTRA.POLAR>
0

>  <SCORE.INTRA.POLAR.0>
0

>  <SCORE.INTRA.REPUL>
0

>  <SCORE.INTRA.REPUL.0>
0

>  <SCORE.INTRA.SOLV>
0.54092

>  <SCORE.INTRA.SOLV.lig_0>
-31.1706

>  <SCORE.INTRA.VDW>
-1.70233

>  <SCORE.INTRA.VDW.0>
-1.16895

>  <SCORE.INTRA.norm>
-0.216978

>  <SCORE.RESTR>
0

>  <SCORE.RESTR.CAVITY>
0

>  <SCORE.RESTR.norm>
0

>  <SCORE.SYSTEM>
0

>  <SCORE.SYSTEM.CONST>
0

>  <SCORE.SYSTEM.DIHEDRAL>
0

>  <SCORE.SYSTEM.SOLV>
0

>  <SCORE.SYSTEM.norm>
0

>  <SCORE.heavy>
23

>  <SCORE.norm>
-0.553298

>  <RMSD>
13.587

$$$$
ligand
 OpenBabel11021811513D
libRbt.so/2013.1/901 2013/11/27
 23 24  0  0  0  0  0  0  0  0999 V2000
  -11.1418    2.9784    4.6636 C   0  0  0  0  0  0  0  0  0  0  0  0
  -10.1344    2.2454    5.3871 O   0  0  0  0  0  0  0  0  0  0  0  0
  -10.4598    3.9188    3.6803 C   0  0  2  0  0  0  0  0  0  0  0  0
  -11.3912    4.7930    2.8545 C   0  0  1  0  0  0  0  0  0  0  0  0
  -11.8213    5.9045    3.6431 O   0  0  0  0  0  0  0  0  0  0  0  0
  -10.5003    5.1764    1.6778 C   0  0  2  0  0  0  0  0  0  0  0  0
  -11.1199    5.5991    0.4574 O   0  0  0  0  0  0  0  0  0  0  0  0
   -9.7304    3.8874    1.4498 C   0  0  2  0  0  0  0  0  0  0  0  0
   -9.6834    3.1997    2.7179 O   0  0  0  0  0  0  0  0  0  0  0  0
   -8.3302    4.2638    0.9327 C   0  0  0  0  0  0  0  0  0  0  0  0
   -7.4784    3.1198    0.7801 O   0  0  0  0  0  0  0  0  0  0  0  0
   -9.8949    1.7591    0.3224 C   0  0  2  0  0  0  0  0  0  0  0  0
  -10.4698    3.0599    0.5358 O   0  0  0  0  0  0  0  0  0  0  0  0
  -10.2526    1.3303   -1.0884 C   0  0  2  0  0  0  0  0  0  0  0  0
   -9.9543    2.3980   -1.9946 O   0  0  0  0  0  0  0  0  0  0  0  0
  -11.7314    1.0277   -1.1914 C   0  0  1  0  0  0  0  0  0  0  0  0
  -11.9810    0.3975   -2.4500 O   0  0  0  0  0  0  0  0  0  0  0  0
  -12.1723    0.1231   -0.0565 C   0  0  2  0  0  0  0  0  0  0  0  0
  -13.5886    0.0115   -0.0889 O   0  0  0  0  0  0  0  0  0  0  0  0
  -11.7515    0.6662    1.3025 C   0  0  2  0  0  0  0  0  0  0  0  0
  -10.3371    0.8048    1.2875 O   0  0  0  0  0  0  0  0  0  0  0  0
  -12.1863   -0.2641    2.4412 C   0  0  0  0  0  0  0  0  0  0  0  0
  -11.7965    0.2146    3.7367 O   0  0  0  0  0  0  0  0  0  0  0  0
  1  2  1  0  0  0  0
  3  1  1  6  0  0  0
  3  9  1  0  0  0  0
  3  4  1  0  0  0  0
  4  5  1  1  0  0  0
  4  6  1  0  0  0  0
  6  7  1  6  0  0  0
  6  8  1  0  0  0  0
  8  9  1  0  0  0  0
  8 10  1  6  0  0  0
  8 13  1  0  0  0  0
 10 11  1  0  0  0  0
 12 13  1  1  0  0  0
 12 14  1  0  0  0  0
 12 21  1  0  0  0  0
 14 15  1  6  0  0  0
 14 16  1  0  0  0  0
 16 17  1  6  0  0  0
 16 18  1  0  0  0  0
 18 19  1  1  0  0  0
 18 20  1  0  0  0  0
 20 21  1  0  0  0  0
 20 22  1  1  0  0  0
 22 23  1  0  0  0  0
M  END
>  <CHROM.1>
-178.70044293,175.51369442,-149.81932044,-175.20822340,179.59138606,-10.77792917
2.45490931,1.35233933,1.12961215,1.06065179,1.25147735

>  <Name>
ligand

>  <RI>
0

>  <Rbt.Current_Directory>
/home/itssahil/PROJECTS/Mol_Feturizer/New_Systems/rnas/4TS2

>  <Rbt.Executable>
rbdock ($Id: //depot/dev/client3/rdock/2013.1/src/exe/rbdock.cxx#4 $)

>  <Rbt.Library>
libRbt.so (2013.1, Build901 2013/11/27)

>  <Rbt.Parameter_File>
/export/apps/rDock/src/rDock_2013.1_src/data/scripts/dock_solv.prm

>  <Rbt.Receptor>
prm/blind_docking_60.prm

>  <SCORE>
-11.8082

>  <SCORE.INTER>
-6.12896

>  <SCORE.INTER.CONST>
1

>  <SCORE.INTER.POLAR>
0

>  <SCORE.INTER.ROT>
5

>  <SCORE.INTER.SOLV>
9.08205

>  <SCORE.INTER.VDW>
-14.0467

>  <SCORE.INTER.norm>
-0.266477

>  <SCORE.INTRA>
-5.67926

>  <SCORE.INTRA.DIHEDRAL>
-8.7192

>  <SCORE.INTRA.DIHEDRAL.0>
12.4853

>  <SCORE.INTRA.POLAR>
0

>  <SCORE.INTRA.POLAR.0>
0

>  <SCORE.INTRA.REPUL>
0

>  <SCORE.INTRA.REPUL.0>
0

>  <SCORE.INTRA.SOLV>
0.549793

>  <SCORE.INTRA.SOLV.lig_0>
-31.1706

>  <SCORE.INTRA.VDW>
-1.59456

>  <SCORE.INTRA.VDW.0>
-1.16895

>  <SCORE.INTRA.norm>
-0.246924

>  <SCORE.RESTR>
0

>  <SCORE.RESTR.CAVITY>
0

>  <SCORE.RESTR.norm>
0

>  <SCORE.SYSTEM>
0

>  <SCORE.SYSTEM.CONST>
0

>  <SCORE.SYSTEM.DIHEDRAL>
0

>  <SCORE.SYSTEM.SOLV>
0

>  <SCORE.SYSTEM.norm>
0

>  <SCORE.heavy>
23

>  <SCORE.norm>
-0.513401

>  <RMSD>
13.589

$$$$
ligand
 OpenBabel11021811513D
libRbt.so/2013.1/901 2013/11/27
 23 24  0  0  0  0  0  0  0  0999 V2000
  -11.0240    2.9459    4.6514 C   0  0  0  0  0  0  0  0  0  0  0  0
   -9.9927    2.2526    5.3802 O   0  0  0  0  0  0  0  0  0  0  0  0
  -10.3740    3.8992    3.6589 C   0  0  2  0  0  0  0  0  0  0  0  0
  -11.3322    4.7732    2.8643 C   0  0  1  0  0  0  0  0  0  0  0  0
  -11.7498    5.8752    3.6726 O   0  0  0  0  0  0  0  0  0  0  0  0
  -10.4742    5.1725    1.6685 C   0  0  2  0  0  0  0  0  0  0  0  0
  -11.1277    5.6006    0.4677 O   0  0  0  0  0  0  0  0  0  0  0  0
   -9.7014    3.8910    1.4104 C   0  0  2  0  0  0  0  0  0  0  0  0
   -9.6173    3.1934    2.6712 O   0  0  0  0  0  0  0  0  0  0  0  0
   -8.3175    4.2816    0.8610 C   0  0  0  0  0  0  0  0  0  0  0  0
   -7.4402    3.1534    0.7376 O   0  0  0  0  0  0  0  0  0  0  0  0
   -9.8896    1.7637    0.2849 C   0  0  2  0  0  0  0  0  0  0  0  0
  -10.4580    3.0655    0.5087 O   0  0  0  0  0  0  0  0  0  0  0  0
  -10.2518    1.3467   -1.1284 C   0  0  2  0  0  0  0  0  0  0  0  0
   -9.9499    2.4195   -2.0273 O   0  0  0  0  0  0  0  0  0  0  0  0
  -11.7322    1.0519   -1.2310 C   0  0  1  0  0  0  0  0  0  0  0  0
  -11.9868    0.4320   -2.4937 O   0  0  0  0  0  0  0  0  0  0  0  0
  -12.1754    0.1412   -0.1019 C   0  0  2  0  0  0  0  0  0  0  0  0
  -13.5923    0.0365   -0.1327 O   0  0  0  0  0  0  0  0  0  0  0  0
  -11.7498    0.6724    1.2603 C   0  0  2  0  0  0  0  0  0  0  0  0
  -10.3348    0.8045    1.2438 O   0  0  0  0  0  0  0  0  0  0  0  0
  -12.1871   -0.2640    2.3929 C   0  0  0  0  0  0  0  0  0  0  0  0
  -11.7788    0.1952    3.6898 O   0  0  0  0  0  0  0  0  0  0  0  0
  1  2  1  0  0  0  0
  3  1  1  1  0  0  0
  3  9  1  0  0  0  0
  3  4  1  0  0  0  0
  4  5  1  1  0  0  0
  4  6  1  0  0  0  0
  6  7  1  6  0  0  0
  6  8  1  0  0  0  0
  8  9  1  0  0  0  0
  8 10  1  6  0  0  0
  8 13  1  0  0  0  0
 10 11  1  0  0  0  0
 12 13  1  1  0  0  0
 12 14  1  0  0  0  0
 12 21  1  0  0  0  0
 14 15  1  6  0  0  0
 14 16  1  0  0  0  0
 16 17  1  6  0  0  0
 16 18  1  0  0  0  0
 18 19  1  1  0  0  0
 18 20  1  0  0  0  0
 20 21  1  0  0  0  0
 20 22  1  1  0  0  0
 22 23  1  0  0  0  0
M  END
>  <CHROM.1>
-176.45585761,172.72424169,-148.85065911,-174.36623470,178.88020677,-10.74851943
2.45897798,1.32249671,1.09734620,1.05556954,1.28965120

>  <Name>
ligand

>  <RI>
0

>  <Rbt.Current_Directory>
/home/itssahil/PROJECTS/Mol_Feturizer/New_Systems/rnas/4TS2

>  <Rbt.Executable>
rbdock ($Id: //depot/dev/client3/rdock/2013.1/src/exe/rbdock.cxx#4 $)

>  <Rbt.Library>
libRbt.so (2013.1, Build901 2013/11/27)

>  <Rbt.Parameter_File>
/export/apps/rDock/src/rDock_2013.1_src/data/scripts/dock_solv.prm

>  <Rbt.Receptor>
prm/blind_docking_60.prm

>  <SCORE>
-11.7621

>  <SCORE.INTER>
-6.14707

>  <SCORE.INTER.CONST>
1

>  <SCORE.INTER.POLAR>
0

>  <SCORE.INTER.ROT>
5

>  <SCORE.INTER.SOLV>
9.353

>  <SCORE.INTER.VDW>
-14.149

>  <SCORE.INTER.norm>
-0.267264

>  <SCORE.INTRA>
-5.61503

>  <SCORE.INTRA.DIHEDRAL>
-8.37202

>  <SCORE.INTRA.DIHEDRAL.0>
12.4853

>  <SCORE.INTRA.POLAR>
0

>  <SCORE.INTRA.POLAR.0>
0

>  <SCORE.INTRA.REPUL>
0

>  <SCORE.INTRA.REPUL.0>
0

>  <SCORE.INTRA.SOLV>
0.465694

>  <SCORE.INTRA.SOLV.lig_0>
-31.1706

>  <SCORE.INTRA.VDW>
-1.66187

>  <SCORE.INTRA.VDW.0>
-1.16895

>  <SCORE.INTRA.norm>
-0.244132

>  <SCORE.RESTR>
0

>  <SCORE.RESTR.CAVITY>
0

>  <SCORE.RESTR.norm>
0

>  <SCORE.SYSTEM>
0

>  <SCORE.SYSTEM.CONST>
0

>  <SCORE.SYSTEM.DIHEDRAL>
0

>  <SCORE.SYSTEM.SOLV>
0

>  <SCORE.SYSTEM.norm>
0

>  <SCORE.heavy>
23

>  <SCORE.norm>
-0.511396

>  <RMSD>
13.590

$$$$
ligand
 OpenBabel11021811513D
libRbt.so/2013.1/901 2013/11/27
 23 24  0  0  0  0  0  0  0  0999 V2000
   -9.6948    4.1062    3.6195 C   0  0  0  0  0  0  0  0  0  0  0  0
  -10.7540    3.1634    3.3647 O   0  0  0  0  0  0  0  0  0  0  0  0
   -9.2151    4.6823    2.2949 C   0  0  2  0  0  0  0  0  0  0  0  0
  -10.2634    5.4323    1.4873 C   0  0  1  0  0  0  0  0  0  0  0  0
  -10.4204    6.7487    2.0208 O   0  0  0  0  0  0  0  0  0  0  0  0
   -9.6624    5.3994    0.0862 C   0  0  2  0  0  0  0  0  0  0  0  0
  -10.5322    5.5795   -1.0377 O   0  0  0  0  0  0  0  0  0  0  0  0
   -9.0515    4.0096    0.0524 C   0  0  2  0  0  0  0  0  0  0  0  0
   -8.7409    3.6572    1.4172 O   0  0  0  0  0  0  0  0  0  0  0  0
   -7.7980    4.0709   -0.8390 C   0  0  0  0  0  0  0  0  0  0  0  0
   -7.0569    2.8428   -0.8248 O   0  0  0  0  0  0  0  0  0  0  0  0
   -9.6611    1.6982   -0.2845 C   0  0  2  0  0  0  0  0  0  0  0  0
  -10.0398    3.0789   -0.4207 O   0  0  0  0  0  0  0  0  0  0  0  0
  -10.1217    0.9753   -1.5365 C   0  0  2  0  0  0  0  0  0  0  0  0
   -9.7057    1.7174   -2.6882 O   0  0  0  0  0  0  0  0  0  0  0  0
  -11.6309    0.8734   -1.5647 C   0  0  1  0  0  0  0  0  0  0  0  0
  -12.0077   -0.0181   -2.6167 O   0  0  0  0  0  0  0  0  0  0  0  0
  -12.1574    0.3668   -0.2355 C   0  0  2  0  0  0  0  0  0  0  0  0
  -13.5756    0.4565   -0.2450 O   0  0  0  0  0  0  0  0  0  0  0  0
  -11.6201    1.1763    0.9371 C   0  0  2  0  0  0  0  0  0  0  0  0
  -10.2016    1.1005    0.8938 O   0  0  0  0  0  0  0  0  0  0  0  0
  -12.1442    0.6453    2.2766 C   0  0  0  0  0  0  0  0  0  0  0  0
  -11.7672   -0.7167    2.5264 O   0  0  0  0  0  0  0  0  0  0  0  0
  1  2  1  0  0  0  0
  3  1  1  1  0  0  0
  3  9  1  0  0  0  0
  3  4  1  0  0  0  0
  4  5  1  1  0  0  0
  4  6  1  0  0  0  0
  6  7  1  6  0  0  0
  6  8  1  0  0  0  0
  8  9  1  0  0  0  0
  8 10  1  6  0  0  0
  8 13  1  0  0  0  0
 10 11  1  0  0  0  0
 12 13  1  6  0  0  0
 12 14  1  0  0  0  0
 12 21  1  0  0  0  0
 14 15  1  6  0  0  0
 14 16  1  0  0  0  0
 16 17  1  6  0  0  0
 16 18  1  0  0  0  0
 18 19  1  6  0  0  0
 18 20  1  0  0  0  0
 20 21  1  0  0  0  0
 20 22  1  1  0  0  0
 22 23  1  0  0  0  0
M  END
>  <CHROM.1>
60.62734359,173.62420565,-139.92387290,-169.96051613,60.48184604,-10.34927446
2.63854716,0.37463827,0.75417551,0.94394753,1.06407499

>  <Name>
ligand

>  <RI>
0

>  <Rbt.Current_Directory>
/home/itssahil/PROJECTS/Mol_Feturizer/New_Systems/rnas/4TS2

>  <Rbt.Executable>
rbdock ($Id: //depot/dev/client3/rdock/2013.1/src/exe/rbdock.cxx#4 $)

>  <Rbt.Library>
libRbt.so (2013.1, Build901 2013/11/27)

>  <Rbt.Parameter_File>
/export/apps/rDock/src/rDock_2013.1_src/data/scripts/dock_solv.prm

>  <Rbt.Receptor>
prm/blind_docking_60.prm

>  <SCORE>
-10.578

>  <SCORE.INTER>
-6.07128

>  <SCORE.INTER.CONST>
1

>  <SCORE.INTER.POLAR>
0

>  <SCORE.INTER.ROT>
5

>  <SCORE.INTER.SOLV>
9.30847

>  <SCORE.INTER.VDW>
-14.0837

>  <SCORE.INTER.norm>
-0.263969

>  <SCORE.INTRA>
-4.50675

>  <SCORE.INTRA.DIHEDRAL>
-6.60301

>  <SCORE.INTRA.DIHEDRAL.0>
12.4853

>  <SCORE.INTRA.POLAR>
0

>  <SCORE.INTRA.POLAR.0>
0

>  <SCORE.INTRA.REPUL>
0

>  <SCORE.INTRA.REPUL.0>
0

>  <SCORE.INTRA.SOLV>
1.2178

>  <SCORE.INTRA.SOLV.lig_0>
-31.1706

>  <SCORE.INTRA.VDW>
-1.81415

>  <SCORE.INTRA.VDW.0>
-1.16895

>  <SCORE.INTRA.norm>
-0.195946

>  <SCORE.RESTR>
0

>  <SCORE.RESTR.CAVITY>
0

>  <SCORE.RESTR.norm>
0

>  <SCORE.SYSTEM>
0

>  <SCORE.SYSTEM.CONST>
0

>  <SCORE.SYSTEM.DIHEDRAL>
0

>  <SCORE.SYSTEM.SOLV>
0

>  <SCORE.SYSTEM.norm>
0

>  <SCORE.heavy>
23

>  <SCORE.norm>
-0.459914

>  <RMSD>
13.593

$$$$
ligand
 OpenBabel11021811513D
libRbt.so/2013.1/901 2013/11/27
 23 24  0  0  0  0  0  0  0  0999 V2000
   -7.5097    3.9027    0.9560 C   0  0  0  0  0  0  0  0  0  0  0  0
   -7.2129    5.1228    1.6623 O   0  0  0  0  0  0  0  0  0  0  0  0
   -7.6935    4.2176   -0.5216 C   0  0  2  0  0  0  0  0  0  0  0  0
   -8.8596    5.1348   -0.8571 C   0  0  1  0  0  0  0  0  0  0  0  0
   -8.4865    6.4899   -0.5989 O   0  0  0  0  0  0  0  0  0  0  0  0
   -9.0872    4.8256   -2.3330 C   0  0  2  0  0  0  0  0  0  0  0  0
  -10.3665    5.1204   -2.9062 O   0  0  0  0  0  0  0  0  0  0  0  0
   -8.8341    3.3288   -2.3701 C   0  0  2  0  0  0  0  0  0  0  0  0
   -7.9285    3.0317   -1.2862 O   0  0  0  0  0  0  0  0  0  0  0  0
   -8.2348    2.9895   -3.7469 C   0  0  0  0  0  0  0  0  0  0  0  0
   -6.9628    3.6177   -3.9589 O   0  0  0  0  0  0  0  0  0  0  0  0
   -9.9173    1.2329   -1.8586 C   0  0  2  0  0  0  0  0  0  0  0  0
  -10.0686    2.6418   -2.1033 O   0  0  0  0  0  0  0  0  0  0  0  0
  -11.1800    0.5487   -2.3481 C   0  0  2  0  0  0  0  0  0  0  0  0
  -11.4857    1.0134   -3.6675 O   0  0  0  0  0  0  0  0  0  0  0  0
  -12.3489    0.8877   -1.4494 C   0  0  1  0  0  0  0  0  0  0  0  0
  -13.4477    0.0397   -1.7916 O   0  0  0  0  0  0  0  0  0  0  0  0
  -11.9751    0.6976    0.0083 C   0  0  2  0  0  0  0  0  0  0  0  0
  -13.0331    1.1944    0.8167 O   0  0  0  0  0  0  0  0  0  0  0  0
  -10.6917    1.4336    0.3690 C   0  0  2  0  0  0  0  0  0  0  0  0
   -9.6652    0.9444   -0.4835 O   0  0  0  0  0  0  0  0  0  0  0  0
  -10.3135    1.2207    1.8396 C   0  0  0  0  0  0  0  0  0  0  0  0
   -9.1841    2.0065    2.2478 O   0  0  0  0  0  0  0  0  0  0  0  0
  1  2  1  0  0  0  0
  3  1  1  1  0  0  0
  3  9  1  0  0  0  0
  3  4  1  0  0  0  0
  4  5  1  6  0  0  0
  4  6  1  0  0  0  0
  6  7  1  1  0  0  0
  6  8  1  0  0  0  0
  8  9  1  0  0  0  0
  8 10  1  6  0  0  0
  8 13  1  0  0  0  0
 10 11  1  0  0  0  0
 12 13  1  1  0  0  0
 12 14  1  0  0  0  0
 12 21  1  0  0  0  0
 14 15  1  6  0  0  0
 14 16  1  0  0  0  0
 16 17  1  6  0  0  0
 16 18  1  0  0  0  0
 18 19  1  1  0  0  0
 18 20  1  0  0  0  0
 20 21  1  0  0  0  0
 20 22  1  1  0  0  0
 22 23  1  0  0  0  0
M  END
>  <CHROM.1>
-63.16273175,63.27605516,-149.18163716,-168.75453707,-174.15392736,-9.75763849
2.69391394,-1.05302599,-0.05967555,0.77591731,1.64108130

>  <Name>
ligand

>  <RI>
0

>  <Rbt.Current_Directory>
/home/itssahil/PROJECTS/Mol_Feturizer/New_Systems/rnas/4TS2

>  <Rbt.Executable>
rbdock ($Id: //depot/dev/client3/rdock/2013.1/src/exe/rbdock.cxx#4 $)

>  <Rbt.Library>
libRbt.so (2013.1, Build901 2013/11/27)

>  <Rbt.Parameter_File>
/export/apps/rDock/src/rDock_2013.1_src/data/scripts/dock_solv.prm

>  <Rbt.Receptor>
prm/blind_docking_80.prm

>  <SCORE>
-14.5485

>  <SCORE.INTER>
-9.45996

>  <SCORE.INTER.CONST>
1

>  <SCORE.INTER.POLAR>
0

>  <SCORE.INTER.ROT>
5

>  <SCORE.INTER.SOLV>
13.8142

>  <SCORE.INTER.VDW>
-17.8447

>  <SCORE.INTER.norm>
-0.411303

>  <SCORE.INTRA>
-5.08853

>  <SCORE.INTRA.DIHEDRAL>
-8.02261

>  <SCORE.INTRA.DIHEDRAL.0>
12.4853

>  <SCORE.INTRA.POLAR>
0

>  <SCORE.INTRA.POLAR.0>
0

>  <SCORE.INTRA.REPUL>
0

>  <SCORE.INTRA.REPUL.0>
0

>  <SCORE.INTRA.SOLV>
0.492902

>  <SCORE.INTRA.SOLV.lig_0>
-31.1706

>  <SCORE.INTRA.VDW>
-1.32368

>  <SCORE.INTRA.VDW.0>
-1.16895

>  <SCORE.INTRA.norm>
-0.22124

>  <SCORE.RESTR>
0

>  <SCORE.RESTR.CAVITY>
0

>  <SCORE.RESTR.norm>
0

>  <SCORE.SYSTEM>
0

>  <SCORE.SYSTEM.CONST>
0

>  <SCORE.SYSTEM.DIHEDRAL>
0

>  <SCORE.SYSTEM.SOLV>
0

>  <SCORE.SYSTEM.norm>
0

>  <SCORE.heavy>
23

>  <SCORE.norm>
-0.632543

>  <RMSD>
13.593

$$$$
ligand
 OpenBabel11021811513D
libRbt.so/2013.1/901 2013/11/27
 23 24  0  0  0  0  0  0  0  0999 V2000
   -7.4835    3.8788    0.9331 C   0  0  0  0  0  0  0  0  0  0  0  0
   -7.1966    5.0985    1.6441 O   0  0  0  0  0  0  0  0  0  0  0  0
   -7.6676    4.1977   -0.5436 C   0  0  2  0  0  0  0  0  0  0  0  0
   -8.8259    5.1260   -0.8752 C   0  0  1  0  0  0  0  0  0  0  0  0
   -8.4398    6.4772   -0.6157 O   0  0  0  0  0  0  0  0  0  0  0  0
   -9.0596    4.8212   -2.3510 C   0  0  2  0  0  0  0  0  0  0  0  0
  -10.3374    5.1286   -2.9210 O   0  0  0  0  0  0  0  0  0  0  0  0
   -8.8204    3.3222   -2.3910 C   0  0  2  0  0  0  0  0  0  0  0  0
   -7.9152    3.0152   -1.3094 O   0  0  0  0  0  0  0  0  0  0  0  0
   -8.2273    2.9795   -3.7695 C   0  0  0  0  0  0  0  0  0  0  0  0
   -6.9580    3.6102   -3.9903 O   0  0  0  0  0  0  0  0  0  0  0  0
   -9.9201    1.2383   -1.8656 C   0  0  2  0  0  0  0  0  0  0  0  0
  -10.0606    2.6463   -2.1225 O   0  0  0  0  0  0  0  0  0  0  0  0
  -11.1879    0.5596   -2.3495 C   0  0  2  0  0  0  0  0  0  0  0  0
  -11.4898    1.0153   -3.6729 O   0  0  0  0  0  0  0  0  0  0  0  0
  -12.3543    0.9153   -1.4541 C   0  0  1  0  0  0  0  0  0  0  0  0
  -13.4595    0.0728   -1.7892 O   0  0  0  0  0  0  0  0  0  0  0  0
  -11.9823    0.7349    0.0053 C   0  0  2  0  0  0  0  0  0  0  0  0
  -13.0366    1.2466    0.8091 O   0  0  0  0  0  0  0  0  0  0  0  0
  -10.6934    1.4641    0.3600 C   0  0  2  0  0  0  0  0  0  0  0  0
   -9.6704    0.9597   -0.4880 O   0  0  0  0  0  0  0  0  0  0  0  0
  -10.3170    1.2609    1.8324 C   0  0  0  0  0  0  0  0  0  0  0  0
   -9.1915    2.0534    2.2383 O   0  0  0  0  0  0  0  0  0  0  0  0
  1  2  1  0  0  0  0
  3  1  1  1  0  0  0
  3  9  1  0  0  0  0
  3  4  1  0  0  0  0
  4  5  1  6  0  0  0
  4  6  1  0  0  0  0
  6  7  1  1  0  0  0
  6  8  1  0  0  0  0
  8  9  1  0  0  0  0
  8 10  1  6  0  0  0
  8 13  1  0  0  0  0
 10 11  1  0  0  0  0
 12 13  1  1  0  0  0
 12 14  1  0  0  0  0
 12 21  1  0  0  0  0
 14 15  1  6  0  0  0
 14 16  1  0  0  0  0
 16 17  1  6  0  0  0
 16 18  1  0  0  0  0
 18 19  1  1  0  0  0
 18 20  1  0  0  0  0
 20 21  1  0  0  0  0
 20 22  1  1  0  0  0
 22 23  1  0  0  0  0
M  END
>  <CHROM.1>
-62.18518234,62.52272525,-149.35619028,-168.10206382,-173.46689681,-9.74933660
2.70183762,-1.06632050,-0.05666217,0.76634040,1.63269960

>  <Name>
ligand

>  <RI>
0

>  <Rbt.Current_Directory>
/home/itssahil/PROJECTS/Mol_Feturizer/New_Systems/rnas/4TS2

>  <Rbt.Executable>
rbdock ($Id: //depot/dev/client3/rdock/2013.1/src/exe/rbdock.cxx#4 $)

>  <Rbt.Library>
libRbt.so (2013.1, Build901 2013/11/27)

>  <Rbt.Parameter_File>
/export/apps/rDock/src/rDock_2013.1_src/data/scripts/dock_solv.prm

>  <Rbt.Receptor>
prm/blind_docking_60.prm

>  <SCORE>
-14.4821

>  <SCORE.INTER>
-9.48592

>  <SCORE.INTER.CONST>
1

>  <SCORE.INTER.POLAR>
0

>  <SCORE.INTER.ROT>
5

>  <SCORE.INTER.SOLV>
13.8591

>  <SCORE.INTER.VDW>
-17.877

>  <SCORE.INTER.norm>
-0.412431

>  <SCORE.INTRA>
-4.99613

>  <SCORE.INTRA.DIHEDRAL>
-8.00263

>  <SCORE.INTRA.DIHEDRAL.0>
12.4853

>  <SCORE.INTRA.POLAR>
0

>  <SCORE.INTRA.POLAR.0>
0

>  <SCORE.INTRA.REPUL>
0

>  <SCORE.INTRA.REPUL.0>
0

>  <SCORE.INTRA.SOLV>
0.525571

>  <SCORE.INTRA.SOLV.lig_0>
-31.1706

>  <SCORE.INTRA.VDW>
-1.2576

>  <SCORE.INTRA.VDW.0>
-1.16895

>  <SCORE.INTRA.norm>
-0.217223

>  <SCORE.RESTR>
0

>  <SCORE.RESTR.CAVITY>
0

>  <SCORE.RESTR.norm>
0

>  <SCORE.SYSTEM>
0

>  <SCORE.SYSTEM.CONST>
0

>  <SCORE.SYSTEM.DIHEDRAL>
0

>  <SCORE.SYSTEM.SOLV>
0

>  <SCORE.SYSTEM.norm>
0

>  <SCORE.heavy>
23

>  <SCORE.norm>
-0.629654

>  <RMSD>
13.601

$$$$
ligand
 OpenBabel11021811513D
libRbt.so/2013.1/901 2013/11/27
 23 24  0  0  0  0  0  0  0  0999 V2000
   -7.9760    3.8487    1.0938 C   0  0  0  0  0  0  0  0  0  0  0  0
   -7.8701    5.0543    1.8754 O   0  0  0  0  0  0  0  0  0  0  0  0
   -7.9692    4.2139   -0.3837 C   0  0  2  0  0  0  0  0  0  0  0  0
   -9.1090    5.1099   -0.8436 C   0  0  1  0  0  0  0  0  0  0  0  0
   -8.8190    6.4643   -0.4916 O   0  0  0  0  0  0  0  0  0  0  0  0
   -9.1252    4.8504   -2.3462 C   0  0  2  0  0  0  0  0  0  0  0  0
  -10.3246    5.1305   -3.0778 O   0  0  0  0  0  0  0  0  0  0  0  0
   -8.8202    3.3637   -2.3989 C   0  0  2  0  0  0  0  0  0  0  0  0
   -8.0597    3.0516   -1.2124 O   0  0  0  0  0  0  0  0  0  0  0  0
   -8.0299    3.0936   -3.6920 C   0  0  0  0  0  0  0  0  0  0  0  0
   -6.7743    3.7867   -3.7198 O   0  0  0  0  0  0  0  0  0  0  0  0
   -9.8953    1.2309   -2.0484 C   0  0  2  0  0  0  0  0  0  0  0  0
  -10.0560    2.6328   -2.3255 O   0  0  0  0  0  0  0  0  0  0  0  0
  -11.1871    0.5390   -2.4422 C   0  0  2  0  0  0  0  0  0  0  0  0
  -11.5685    0.9663   -3.7545 O   0  0  0  0  0  0  0  0  0  0  0  0
  -12.2997    0.9104   -1.4866 C   0  0  1  0  0  0  0  0  0  0  0  0
  -13.4196    0.0584   -1.7381 O   0  0  0  0  0  0  0  0  0  0  0  0
  -11.8412    0.7614   -0.0484 C   0  0  2  0  0  0  0  0  0  0  0  0
  -12.8478    1.2872    0.8058 O   0  0  0  0  0  0  0  0  0  0  0  0
  -10.5362    1.5011    0.2140 C   0  0  2  0  0  0  0  0  0  0  0  0
   -9.5634    0.9817   -0.6826 O   0  0  0  0  0  0  0  0  0  0  0  0
  -10.0725    1.3296    1.6654 C   0  0  0  0  0  0  0  0  0  0  0  0
  -10.9712    1.9212    2.6151 O   0  0  0  0  0  0  0  0  0  0  0  0
  1  2  1  0  0  0  0
  3  1  1  1  0  0  0
  3  9  1  0  0  0  0
  3  4  1  0  0  0  0
  4  5  1  6  0  0  0
  4  6  1  0  0  0  0
  6  7  1  1  0  0  0
  6  8  1  0  0  0  0
  8  9  1  0  0  0  0
  8 10  1  6  0  0  0
  8 13  1  0  0  0  0
 10 11  1  0  0  0  0
 12 13  1  1  0  0  0
 12 14  1  0  0  0  0
 12 21  1  0  0  0  0
 14 15  1  6  0  0  0
 14 16  1  0  0  0  0
 16 17  1  1  0  0  0
 16 18  1  0  0  0  0
 18 19  1  1  0  0  0
 18 20  1  0  0  0  0
 20 21  1  0  0  0  0
 20 22  1  1  0  0  0
 22 23  1  0  0  0  0
M  END
>  <CHROM.1>
-60.93959469,62.08807016,-161.98318907,-166.02520229,-64.66066577,-9.88259836
2.71262815,-1.05126242,-0.02905613,0.80772774,1.47847757

>  <Name>
ligand

>  <RI>
0

>  <Rbt.Current_Directory>
/home/itssahil/PROJECTS/Mol_Feturizer/New_Systems/rnas/4TS2

>  <Rbt.Executable>
rbdock ($Id: //depot/dev/client3/rdock/2013.1/src/exe/rbdock.cxx#4 $)

>  <Rbt.Library>
libRbt.so (2013.1, Build901 2013/11/27)

>  <Rbt.Parameter_File>
/export/apps/rDock/src/rDock_2013.1_src/data/scripts/dock_solv.prm

>  <Rbt.Receptor>
prm/blind_docking_100.prm

>  <SCORE>
-15.9524

>  <SCORE.INTER>
-9.81141

>  <SCORE.INTER.CONST>
1

>  <SCORE.INTER.POLAR>
0

>  <SCORE.INTER.ROT>
5

>  <SCORE.INTER.SOLV>
12.5567

>  <SCORE.INTER.VDW>
-17.6598

>  <SCORE.INTER.norm>
-0.426583

>  <SCORE.INTRA>
-6.14097

>  <SCORE.INTRA.DIHEDRAL>
-10.0966

>  <SCORE.INTRA.DIHEDRAL.0>
12.4853

>  <SCORE.INTRA.POLAR>
0

>  <SCORE.INTRA.POLAR.0>
0

>  <SCORE.INTRA.REPUL>
0

>  <SCORE.INTRA.REPUL.0>
0

>  <SCORE.INTRA.SOLV>
0.545312

>  <SCORE.INTRA.SOLV.lig_0>
-31.1706

>  <SCORE.INTRA.VDW>
-1.36532

>  <SCORE.INTRA.VDW.0>
-1.16895

>  <SCORE.INTRA.norm>
-0.266999

>  <SCORE.RESTR>
0

>  <SCORE.RESTR.CAVITY>
0

>  <SCORE.RESTR.norm>
0

>  <SCORE.SYSTEM>
0

>  <SCORE.SYSTEM.CONST>
0

>  <SCORE.SYSTEM.DIHEDRAL>
0

>  <SCORE.SYSTEM.SOLV>
0

>  <SCORE.SYSTEM.norm>
0

>  <SCORE.heavy>
23

>  <SCORE.norm>
-0.693582

>  <RMSD>
13.605

$$$$
ligand
 OpenBabel11021811513D
libRbt.so/2013.1/901 2013/11/27
 23 24  0  0  0  0  0  0  0  0999 V2000
   -7.9422    3.8556    1.1020 C   0  0  0  0  0  0  0  0  0  0  0  0
   -7.8040    5.0603    1.8798 O   0  0  0  0  0  0  0  0  0  0  0  0
   -7.9452    4.2177   -0.3762 C   0  0  2  0  0  0  0  0  0  0  0  0
   -9.0862    5.1155   -0.8297 C   0  0  1  0  0  0  0  0  0  0  0  0
   -8.7905    6.4698   -0.4827 O   0  0  0  0  0  0  0  0  0  0  0  0
   -9.1139    4.8529   -2.3317 C   0  0  2  0  0  0  0  0  0  0  0  0
  -10.3179    5.1343   -3.0551 O   0  0  0  0  0  0  0  0  0  0  0  0
   -8.8128    3.3654   -2.3835 C   0  0  2  0  0  0  0  0  0  0  0  0
   -8.0445    3.0539   -1.2020 O   0  0  0  0  0  0  0  0  0  0  0  0
   -8.0325    3.0908   -3.6817 C   0  0  0  0  0  0  0  0  0  0  0  0
   -6.7824    3.7930   -3.7268 O   0  0  0  0  0  0  0  0  0  0  0  0
   -9.8899    1.2341   -2.0300 C   0  0  2  0  0  0  0  0  0  0  0  0
  -10.0497    2.6376   -2.2997 O   0  0  0  0  0  0  0  0  0  0  0  0
  -11.1786    0.5438   -2.4363 C   0  0  2  0  0  0  0  0  0  0  0  0
  -11.5519    0.9788   -3.7484 O   0  0  0  0  0  0  0  0  0  0  0  0
  -12.2976    0.9087   -1.4857 C   0  0  1  0  0  0  0  0  0  0  0  0
  -13.4154    0.0575   -1.7496 O   0  0  0  0  0  0  0  0  0  0  0  0
  -11.8483    0.7513   -0.0455 C   0  0  2  0  0  0  0  0  0  0  0  0
  -12.8608    1.2713    0.8053 O   0  0  0  0  0  0  0  0  0  0  0  0
  -10.5456    1.4902    0.2298 C   0  0  2  0  0  0  0  0  0  0  0  0
   -9.5667    0.9769   -0.6636 O   0  0  0  0  0  0  0  0  0  0  0  0
  -10.0911    1.3103    1.6831 C   0  0  0  0  0  0  0  0  0  0  0  0
  -10.9847    1.9150    2.6293 O   0  0  0  0  0  0  0  0  0  0  0  0
  1  2  1  0  0  0  0
  3  1  1  1  0  0  0
  3  9  1  0  0  0  0
  3  4  1  0  0  0  0
  4  5  1  6  0  0  0
  4  6  1  0  0  0  0
  6  7  1  1  0  0  0
  6  8  1  0  0  0  0
  8  9  1  0  0  0  0
  8 10  1  6  0  0  0
  8 13  1  0  0  0  0
 10 11  1  0  0  0  0
 12 13  1  1  0  0  0
 12 14  1  0  0  0  0
 12 21  1  0  0  0  0
 14 15  1  6  0  0  0
 14 16  1  0  0  0  0
 16 17  1  6  0  0  0
 16 18  1  0  0  0  0
 18 19  1  1  0  0  0
 18 20  1  0  0  0  0
 20 21  1  0  0  0  0
 20 22  1  1  0  0  0
 22 23  1  0  0  0  0
M  END
>  <CHROM.1>
-61.94603343,61.41902307,-160.96660446,-166.43252276,-65.64796278,-9.87451227
2.71257276,-1.04164868,-0.02991298,0.80578723,1.48360949

>  <Name>
ligand

>  <RI>
0

>  <Rbt.Current_Directory>
/home/itssahil/PROJECTS/Mol_Feturizer/New_Systems/rnas/4TS2

>  <Rbt.Executable>
rbdock ($Id: //depot/dev/client3/rdock/2013.1/src/exe/rbdock.cxx#4 $)

>  <Rbt.Library>
libRbt.so (2013.1, Build901 2013/11/27)

>  <Rbt.Parameter_File>
/export/apps/rDock/src/rDock_2013.1_src/data/scripts/dock_solv.prm

>  <Rbt.Receptor>
prm/blind_docking_60.prm

>  <SCORE>
-15.9069

>  <SCORE.INTER>
-9.74001

>  <SCORE.INTER.CONST>
1

>  <SCORE.INTER.POLAR>
0

>  <SCORE.INTER.ROT>
5

>  <SCORE.INTER.SOLV>
12.5783

>  <SCORE.INTER.VDW>
-17.6194

>  <SCORE.INTER.norm>
-0.423479

>  <SCORE.INTRA>
-6.16687

>  <SCORE.INTRA.DIHEDRAL>
-9.95119

>  <SCORE.INTRA.DIHEDRAL.0>
12.4853

>  <SCORE.INTRA.POLAR>
0

>  <SCORE.INTRA.POLAR.0>
0

>  <SCORE.INTRA.REPUL>
0

>  <SCORE.INTRA.REPUL.0>
0

>  <SCORE.INTRA.SOLV>
0.507973

>  <SCORE.INTRA.SOLV.lig_0>
-31.1706

>  <SCORE.INTRA.VDW>
-1.44526

>  <SCORE.INTRA.VDW.0>
-1.16895

>  <SCORE.INTRA.norm>
-0.268125

>  <SCORE.RESTR>
0

>  <SCORE.RESTR.CAVITY>
0

>  <SCORE.RESTR.norm>
0

>  <SCORE.SYSTEM>
0

>  <SCORE.SYSTEM.CONST>
0

>  <SCORE.SYSTEM.DIHEDRAL>
0

>  <SCORE.SYSTEM.SOLV>
0

>  <SCORE.SYSTEM.norm>
0

>  <SCORE.heavy>
23

>  <SCORE.norm>
-0.691603

>  <RMSD>
13.606

$$$$
ligand
 OpenBabel11021811513D
libRbt.so/2013.1/901 2013/11/27
 23 24  0  0  0  0  0  0  0  0999 V2000
  -12.0237    0.5653    1.8065 C   0  0  0  0  0  0  0  0  0  0  0  0
  -11.3682   -0.5465    2.4468 O   0  0  0  0  0  0  0  0  0  0  0  0
  -11.4875    1.8624    2.3952 C   0  0  2  0  0  0  0  0  0  0  0  0
  -12.1791    3.1324    1.9236 C   0  0  1  0  0  0  0  0  0  0  0  0
  -13.4059    3.2973    2.6377 O   0  0  0  0  0  0  0  0  0  0  0  0
  -11.1316    4.1952    2.2382 C   0  0  2  0  0  0  0  0  0  0  0  0
  -11.1881    5.4428    1.5366 O   0  0  0  0  0  0  0  0  0  0  0  0
   -9.8465    3.4634    1.8935 C   0  0  2  0  0  0  0  0  0  0  0  0
  -10.1075    2.0551    2.0718 O   0  0  0  0  0  0  0  0  0  0  0  0
   -8.7456    3.9815    2.8365 C   0  0  0  0  0  0  0  0  0  0  0  0
   -8.4427    5.3659    2.6144 O   0  0  0  0  0  0  0  0  0  0  0  0
   -8.4681    2.8706    0.0024 C   0  0  2  0  0  0  0  0  0  0  0  0
   -9.5493    3.6758    0.5030 O   0  0  0  0  0  0  0  0  0  0  0  0
   -7.7839    3.6615   -1.0970 C   0  0  2  0  0  0  0  0  0  0  0  0
   -7.5252    4.9900   -0.6296 O   0  0  0  0  0  0  0  0  0  0  0  0
   -8.6771    3.7587   -2.3143 C   0  0  1  0  0  0  0  0  0  0  0  0
   -7.9120    4.2876   -3.3998 O   0  0  0  0  0  0  0  0  0  0  0  0
   -9.2321    2.3953   -2.6804 C   0  0  2  0  0  0  0  0  0  0  0  0
  -10.1983    2.5598   -3.7093 O   0  0  0  0  0  0  0  0  0  0  0  0
   -9.8903    1.7090   -1.4910 C   0  0  2  0  0  0  0  0  0  0  0  0
   -8.9111    1.5974   -0.4670 O   0  0  0  0  0  0  0  0  0  0  0  0
  -10.4321    0.3249   -1.8672 C   0  0  0  0  0  0  0  0  0  0  0  0
  -11.0443   -0.3572   -0.7628 O   0  0  0  0  0  0  0  0  0  0  0  0
  1  2  1  0  0  0  0
  3  1  1  6  0  0  0
  3  9  1  0  0  0  0
  3  4  1  0  0  0  0
  4  5  1  1  0  0  0
  4  6  1  0  0  0  0
  6  7  1  6  0  0  0
  6  8  1  0  0  0  0
  8  9  1  0  0  0  0
  8 10  1  1  0  0  0
  8 13  1  0  0  0  0
 10 11  1  0  0  0  0
 12 13  1  6  0  0  0
 12 14  1  0  0  0  0
 12 21  1  0  0  0  0
 14 15  1  1  0  0  0
 14 16  1  0  0  0  0
 16 17  1  6  0  0  0
 16 18  1  0  0  0  0
 18 19  1  6  0  0  0
 18 20  1  0  0  0  0
 20 21  1  0  0  0  0
 20 22  1  6  0  0  0
 22 23  1  0  0  0  0
M  END
>  <CHROM.1>
-174.13333673,-65.37392182,-149.29178185,-171.02545460,179.23889892,-9.98346949
2.79699731,0.28070863,2.51534724,0.90018918,0.90561478

>  <Name>
ligand

>  <RI>
0

>  <Rbt.Current_Directory>
/home/itssahil/PROJECTS/Mol_Feturizer/New_Systems/rnas/4TS2

>  <Rbt.Executable>
rbdock ($Id: //depot/dev/client3/rdock/2013.1/src/exe/rbdock.cxx#4 $)

>  <Rbt.Library>
libRbt.so (2013.1, Build901 2013/11/27)

>  <Rbt.Parameter_File>
/export/apps/rDock/src/rDock_2013.1_src/data/scripts/dock_solv.prm

>  <Rbt.Receptor>
prm/blind_docking_100.prm

>  <SCORE>
-9.56684

>  <SCORE.INTER>
-4.03464

>  <SCORE.INTER.CONST>
1

>  <SCORE.INTER.POLAR>
0

>  <SCORE.INTER.ROT>
5

>  <SCORE.INTER.SOLV>
9.15559

>  <SCORE.INTER.VDW>
-12.675

>  <SCORE.INTER.norm>
-0.175419

>  <SCORE.INTRA>
-5.5322

>  <SCORE.INTRA.DIHEDRAL>
-8.25991

>  <SCORE.INTRA.DIHEDRAL.0>
12.4853

>  <SCORE.INTRA.POLAR>
0

>  <SCORE.INTRA.POLAR.0>
0

>  <SCORE.INTRA.REPUL>
0

>  <SCORE.INTRA.REPUL.0>
0

>  <SCORE.INTRA.SOLV>
0.632414

>  <SCORE.INTRA.SOLV.lig_0>
-31.1706

>  <SCORE.INTRA.VDW>
-1.71845

>  <SCORE.INTRA.VDW.0>
-1.16895

>  <SCORE.INTRA.norm>
-0.24053

>  <SCORE.RESTR>
0

>  <SCORE.RESTR.CAVITY>
0

>  <SCORE.RESTR.norm>
0

>  <SCORE.SYSTEM>
0

>  <SCORE.SYSTEM.CONST>
0

>  <SCORE.SYSTEM.DIHEDRAL>
0

>  <SCORE.SYSTEM.SOLV>
0

>  <SCORE.SYSTEM.norm>
0

>  <SCORE.heavy>
23

>  <SCORE.norm>
-0.415949

>  <RMSD>
13.609

$$$$
ligand
 OpenBabel11021811513D
libRbt.so/2013.1/901 2013/11/27
 23 24  0  0  0  0  0  0  0  0999 V2000
   -7.8876    3.8712    1.0904 C   0  0  0  0  0  0  0  0  0  0  0  0
   -7.7354    5.0718    1.8720 O   0  0  0  0  0  0  0  0  0  0  0  0
   -7.9083    4.2404   -0.3860 C   0  0  2  0  0  0  0  0  0  0  0  0
   -9.0573    5.1363   -0.8225 C   0  0  1  0  0  0  0  0  0  0  0  0
   -8.7624    6.4900   -0.4723 O   0  0  0  0  0  0  0  0  0  0  0  0
   -9.1008    4.8808   -2.3253 C   0  0  2  0  0  0  0  0  0  0  0  0
  -10.3137    5.1615   -3.0340 O   0  0  0  0  0  0  0  0  0  0  0  0
   -8.7952    3.3946   -2.3875 C   0  0  2  0  0  0  0  0  0  0  0  0
   -8.0127    3.0802   -1.2161 O   0  0  0  0  0  0  0  0  0  0  0  0
   -8.0284    3.1289   -3.6956 C   0  0  0  0  0  0  0  0  0  0  0  0
   -6.7796    3.8327   -3.7496 O   0  0  0  0  0  0  0  0  0  0  0  0
   -9.8611    1.2585   -2.0292 C   0  0  2  0  0  0  0  0  0  0  0  0
  -10.0286    2.6621   -2.2936 O   0  0  0  0  0  0  0  0  0  0  0  0
  -11.1535    0.5655   -2.4188 C   0  0  2  0  0  0  0  0  0  0  0  0
  -11.5464    1.0022   -3.7246 O   0  0  0  0  0  0  0  0  0  0  0  0
  -12.2601    0.9252   -1.4518 C   0  0  1  0  0  0  0  0  0  0  0  0
  -13.3790    0.0714   -1.7018 O   0  0  0  0  0  0  0  0  0  0  0  0
  -11.7901    0.7660   -0.0184 C   0  0  2  0  0  0  0  0  0  0  0  0
  -12.7920    1.2813    0.8477 O   0  0  0  0  0  0  0  0  0  0  0  0
  -10.4856    1.5079    0.2401 C   0  0  2  0  0  0  0  0  0  0  0  0
   -9.5180    0.9993   -0.6680 O   0  0  0  0  0  0  0  0  0  0  0  0
  -10.0103    1.3262    1.6865 C   0  0  0  0  0  0  0  0  0  0  0  0
  -10.9060    1.9029    2.6481 O   0  0  0  0  0  0  0  0  0  0  0  0
  1  2  1  0  0  0  0
  3  1  1  1  0  0  0
  3  9  1  0  0  0  0
  3  4  1  0  0  0  0
  4  5  1  6  0  0  0
  4  6  1  0  0  0  0
  6  7  1  1  0  0  0
  6  8  1  0  0  0  0
  8  9  1  0  0  0  0
  8 10  1  6  0  0  0
  8 13  1  0  0  0  0
 10 11  1  0  0  0  0
 12 13  1  1  0  0  0
 12 14  1  0  0  0  0
 12 21  1  0  0  0  0
 14 15  1  6  0  0  0
 14 16  1  0  0  0  0
 16 17  1  6  0  0  0
 16 18  1  0  0  0  0
 18 19  1  1  0  0  0
 18 20  1  0  0  0  0
 20 21  1  0  0  0  0
 20 22  1  1  0  0  0
 22 23  1  0  0  0  0
M  END
>  <CHROM.1>
-62.34525654,61.57812816,-161.21425307,-166.29133213,-64.46426397,-9.83789018
2.73292125,-1.03327359,-0.04963534,0.80961514,1.50068837

>  <Name>
ligand

>  <RI>
0

>  <Rbt.Current_Directory>
/home/itssahil/PROJECTS/Mol_Feturizer/New_Systems/rnas/4TS2

>  <Rbt.Executable>
rbdock ($Id: //depot/dev/client3/rdock/2013.1/src/exe/rbdock.cxx#4 $)

>  <Rbt.Library>
libRbt.so (2013.1, Build901 2013/11/27)

>  <Rbt.Parameter_File>
/export/apps/rDock/src/rDock_2013.1_src/data/scripts/dock_solv.prm

>  <Rbt.Receptor>
prm/blind_docking_20.prm

>  <SCORE>
-15.9135

>  <SCORE.INTER>
-9.7573

>  <SCORE.INTER.CONST>
1

>  <SCORE.INTER.POLAR>
0

>  <SCORE.INTER.ROT>
5

>  <SCORE.INTER.SOLV>
12.4948

>  <SCORE.INTER.VDW>
-17.6031

>  <SCORE.INTER.norm>
-0.424231

>  <SCORE.INTRA>
-6.15623

>  <SCORE.INTRA.DIHEDRAL>
-10.0082

>  <SCORE.INTRA.DIHEDRAL.0>
12.4853

>  <SCORE.INTRA.POLAR>
0

>  <SCORE.INTRA.POLAR.0>
0

>  <SCORE.INTRA.REPUL>
0

>  <SCORE.INTRA.REPUL.0>
0

>  <SCORE.INTRA.SOLV>
0.516007

>  <SCORE.INTRA.SOLV.lig_0>
-31.1706

>  <SCORE.INTRA.VDW>
-1.41015

>  <SCORE.INTRA.VDW.0>
-1.16895

>  <SCORE.INTRA.norm>
-0.267662

>  <SCORE.RESTR>
0

>  <SCORE.RESTR.CAVITY>
0

>  <SCORE.RESTR.norm>
0

>  <SCORE.SYSTEM>
0

>  <SCORE.SYSTEM.CONST>
0

>  <SCORE.SYSTEM.DIHEDRAL>
0

>  <SCORE.SYSTEM.SOLV>
0

>  <SCORE.SYSTEM.norm>
0

>  <SCORE.heavy>
23

>  <SCORE.norm>
-0.691893

>  <RMSD>
13.614

$$$$
ligand
 OpenBabel11021811513D
libRbt.so/2013.1/901 2013/11/27
 23 24  0  0  0  0  0  0  0  0999 V2000
   -7.9129    3.8667    1.1275 C   0  0  0  0  0  0  0  0  0  0  0  0
   -7.7919    5.0365    1.9597 O   0  0  0  0  0  0  0  0  0  0  0  0
   -7.9735    4.2997   -0.3303 C   0  0  2  0  0  0  0  0  0  0  0  0
   -9.1529    5.1846   -0.7037 C   0  0  1  0  0  0  0  0  0  0  0  0
   -8.8839    6.5286   -0.2995 O   0  0  0  0  0  0  0  0  0  0  0  0
   -9.2216    4.9943   -2.2152 C   0  0  2  0  0  0  0  0  0  0  0  0
  -10.4555    5.2751   -2.8866 O   0  0  0  0  0  0  0  0  0  0  0  0
   -8.8811    3.5206   -2.3495 C   0  0  2  0  0  0  0  0  0  0  0  0
   -8.0668    3.1749   -1.2089 O   0  0  0  0  0  0  0  0  0  0  0  0
   -8.1355    3.3321   -3.6831 C   0  0  0  0  0  0  0  0  0  0  0  0
   -8.3506    2.0323   -4.2504 O   0  0  0  0  0  0  0  0  0  0  0  0
   -9.8882    1.3528   -2.0119 C   0  0  2  0  0  0  0  0  0  0  0  0
  -10.0940    2.7536   -2.2638 O   0  0  0  0  0  0  0  0  0  0  0  0
  -11.1575    0.6271   -2.4176 C   0  0  2  0  0  0  0  0  0  0  0  0
  -11.5536    1.0654   -3.7219 O   0  0  0  0  0  0  0  0  0  0  0  0
  -12.2806    0.9454   -1.4552 C   0  0  1  0  0  0  0  0  0  0  0  0
  -13.3729    0.0626   -1.7216 O   0  0  0  0  0  0  0  0  0  0  0  0
  -11.8163    0.7855   -0.0200 C   0  0  2  0  0  0  0  0  0  0  0  0
  -12.8385    1.2633    0.8438 O   0  0  0  0  0  0  0  0  0  0  0  0
  -10.5354    1.5617    0.2552 C   0  0  2  0  0  0  0  0  0  0  0  0
   -9.5474    1.0899   -0.6509 O   0  0  0  0  0  0  0  0  0  0  0  0
  -10.0652    1.3792    1.7031 C   0  0  0  0  0  0  0  0  0  0  0  0
  -10.9854    1.9175    2.6640 O   0  0  0  0  0  0  0  0  0  0  0  0
  1  2  1  0  0  0  0
  3  1  1  1  0  0  0
  3  9  1  0  0  0  0
  3  4  1  0  0  0  0
  4  5  1  6  0  0  0
  4  6  1  0  0  0  0
  6  7  1  1  0  0  0
  6  8  1  0  0  0  0
  8  9  1  0  0  0  0
  8 10  1  6  0  0  0
  8 13  1  0  0  0  0
 10 11  1  0  0  0  0
 12 13  1  1  0  0  0
 12 14  1  0  0  0  0
 12 21  1  0  0  0  0
 14 15  1  6  0  0  0
 14 16  1  0  0  0  0
 16 17  1  6  0  0  0
 16 18  1  0  0  0  0
 18 19  1  1  0  0  0
 18 20  1  0  0  0  0
 20 21  1  0  0  0  0
 20 22  1  1  0  0  0
 22 23  1  0  0  0  0
M  END
>  <CHROM.1>
-61.58326833,-150.28028410,-160.86731819,-163.92302281,-64.31173876,-9.96850743
2.70144540,-1.01903309,0.16688485,0.85544229,1.47627986

>  <Name>
ligand

>  <RI>
0

>  <Rbt.Current_Directory>
/home/itssahil/PROJECTS/Mol_Feturizer/New_Systems/rnas/4TS2

>  <Rbt.Executable>
rbdock ($Id: //depot/dev/client3/rdock/2013.1/src/exe/rbdock.cxx#4 $)

>  <Rbt.Library>
libRbt.so (2013.1, Build901 2013/11/27)

>  <Rbt.Parameter_File>
/export/apps/rDock/src/rDock_2013.1_src/data/scripts/dock_solv.prm

>  <Rbt.Receptor>
prm/blind_docking_60.prm

>  <SCORE>
-13.6778

>  <SCORE.INTER>
-9.2937

>  <SCORE.INTER.CONST>
1

>  <SCORE.INTER.POLAR>
0

>  <SCORE.INTER.ROT>
5

>  <SCORE.INTER.SOLV>
12.772

>  <SCORE.INTER.VDW>
-17.3865

>  <SCORE.INTER.norm>
-0.404074

>  <SCORE.INTRA>
-4.38414

>  <SCORE.INTRA.DIHEDRAL>
-7.0944

>  <SCORE.INTRA.DIHEDRAL.0>
12.4853

>  <SCORE.INTRA.POLAR>
0

>  <SCORE.INTRA.POLAR.0>
0

>  <SCORE.INTRA.REPUL>
0

>  <SCORE.INTRA.REPUL.0>
0

>  <SCORE.INTRA.SOLV>
0.866967

>  <SCORE.INTRA.SOLV.lig_0>
-31.1706

>  <SCORE.INTRA.VDW>
-1.27043

>  <SCORE.INTRA.VDW.0>
-1.16895

>  <SCORE.INTRA.norm>
-0.190615

>  <SCORE.RESTR>
0

>  <SCORE.RESTR.CAVITY>
0

>  <SCORE.RESTR.norm>
0

>  <SCORE.SYSTEM>
0

>  <SCORE.SYSTEM.CONST>
0

>  <SCORE.SYSTEM.DIHEDRAL>
0

>  <SCORE.SYSTEM.SOLV>
0

>  <SCORE.SYSTEM.norm>
0

>  <SCORE.heavy>
23

>  <SCORE.norm>
-0.594689

>  <RMSD>
13.615

$$$$
ligand
 OpenBabel11021811513D
libRbt.so/2013.1/901 2013/11/27
 23 24  0  0  0  0  0  0  0  0999 V2000
  -11.0842    2.9803    4.6607 C   0  0  0  0  0  0  0  0  0  0  0  0
  -10.0717    2.3426    5.4630 O   0  0  0  0  0  0  0  0  0  0  0  0
  -10.4132    3.9325    3.6811 C   0  0  2  0  0  0  0  0  0  0  0  0
  -11.3542    4.8084    2.8682 C   0  0  1  0  0  0  0  0  0  0  0  0
  -11.7855    5.9110    3.6684 O   0  0  0  0  0  0  0  0  0  0  0  0
  -10.4724    5.2062    1.6893 C   0  0  2  0  0  0  0  0  0  0  0  0
  -11.1017    5.6356    0.4761 O   0  0  0  0  0  0  0  0  0  0  0  0
   -9.6971    3.9234    1.4461 C   0  0  2  0  0  0  0  0  0  0  0  0
   -9.6388    3.2255    2.7082 O   0  0  0  0  0  0  0  0  0  0  0  0
   -8.3020    4.3115    0.9238 C   0  0  0  0  0  0  0  0  0  0  0  0
   -7.4441    3.1738    0.7593 O   0  0  0  0  0  0  0  0  0  0  0  0
   -9.8585    1.8024    0.3045 C   0  0  2  0  0  0  0  0  0  0  0  0
  -10.4375    3.0994    0.5297 O   0  0  0  0  0  0  0  0  0  0  0  0
  -10.1873    1.3995   -1.1209 C   0  0  2  0  0  0  0  0  0  0  0  0
   -9.8703    2.4834   -2.0012 O   0  0  0  0  0  0  0  0  0  0  0  0
  -11.6637    1.0997   -1.2597 C   0  0  1  0  0  0  0  0  0  0  0  0
  -11.8875    0.4927   -2.5344 O   0  0  0  0  0  0  0  0  0  0  0  0
  -12.1279    0.1748   -0.1507 C   0  0  2  0  0  0  0  0  0  0  0  0
  -13.5433    0.0645   -0.2142 O   0  0  0  0  0  0  0  0  0  0  0  0
  -11.7350    0.6928    1.2263 C   0  0  2  0  0  0  0  0  0  0  0  0
  -10.3207    0.8309    1.2428 O   0  0  0  0  0  0  0  0  0  0  0  0
  -12.1933   -0.2578    2.3386 C   0  0  0  0  0  0  0  0  0  0  0  0
  -11.8365    0.2007    3.6509 O   0  0  0  0  0  0  0  0  0  0  0  0
  1  2  1  0  0  0  0
  3  1  1  6  0  0  0
  3  9  1  0  0  0  0
  3  4  1  0  0  0  0
  4  5  1  1  0  0  0
  4  6  1  0  0  0  0
  6  7  1  6  0  0  0
  6  8  1  0  0  0  0
  8  9  1  0  0  0  0
  8 10  1  6  0  0  0
  8 13  1  0  0  0  0
 10 11  1  0  0  0  0
 12 13  1  1  0  0  0
 12 14  1  0  0  0  0
 12 21  1  0  0  0  0
 14 15  1  6  0  0  0
 14 16  1  0  0  0  0
 16 17  1  6  0  0  0
 16 18  1  0  0  0  0
 18 19  1  1  0  0  0
 18 20  1  0  0  0  0
 20 21  1  0  0  0  0
 20 22  1  1  0  0  0
 22 23  1  0  0  0  0
M  END
>  <CHROM.1>
-173.13979215,175.39072677,-148.22226015,-175.07401527,179.91248100,-10.73966464
2.49525933,1.32452951,1.14662011,1.05212902,1.25484855

>  <Name>
ligand

>  <RI>
0

>  <Rbt.Current_Directory>
/home/itssahil/PROJECTS/Mol_Feturizer/New_Systems/rnas/4TS2

>  <Rbt.Executable>
rbdock ($Id: //depot/dev/client3/rdock/2013.1/src/exe/rbdock.cxx#4 $)

>  <Rbt.Library>
libRbt.so (2013.1, Build901 2013/11/27)

>  <Rbt.Parameter_File>
/export/apps/rDock/src/rDock_2013.1_src/data/scripts/dock_solv.prm

>  <Rbt.Receptor>
prm/blind_docking_100.prm

>  <SCORE>
-11.6497

>  <SCORE.INTER>
-6.11194

>  <SCORE.INTER.CONST>
1

>  <SCORE.INTER.POLAR>
0

>  <SCORE.INTER.ROT>
5

>  <SCORE.INTER.SOLV>
9.06169

>  <SCORE.INTER.VDW>
-14.0285

>  <SCORE.INTER.norm>
-0.265737

>  <SCORE.INTRA>
-5.53772

>  <SCORE.INTRA.DIHEDRAL>
-8.25267

>  <SCORE.INTRA.DIHEDRAL.0>
12.4853

>  <SCORE.INTRA.POLAR>
0

>  <SCORE.INTRA.POLAR.0>
0

>  <SCORE.INTRA.REPUL>
0

>  <SCORE.INTRA.REPUL.0>
0

>  <SCORE.INTRA.SOLV>
0.417703

>  <SCORE.INTRA.SOLV.lig_0>
-31.1706

>  <SCORE.INTRA.VDW>
-1.62024

>  <SCORE.INTRA.VDW.0>
-1.16895

>  <SCORE.INTRA.norm>
-0.24077

>  <SCORE.RESTR>
0

>  <SCORE.RESTR.CAVITY>
0

>  <SCORE.RESTR.norm>
0

>  <SCORE.SYSTEM>
0

>  <SCORE.SYSTEM.CONST>
0

>  <SCORE.SYSTEM.DIHEDRAL>
0

>  <SCORE.SYSTEM.SOLV>
0

>  <SCORE.SYSTEM.norm>
0

>  <SCORE.heavy>
23

>  <SCORE.norm>
-0.506507

>  <RMSD>
13.618

$$$$
ligand
 OpenBabel11021811513D
libRbt.so/2013.1/901 2013/11/27
 23 24  0  0  0  0  0  0  0  0999 V2000
   -7.5202    4.0023    0.9256 C   0  0  0  0  0  0  0  0  0  0  0  0
   -7.3112    5.2485    1.6176 O   0  0  0  0  0  0  0  0  0  0  0  0
   -7.7009    4.2843   -0.5591 C   0  0  2  0  0  0  0  0  0  0  0  0
   -8.8724    5.1856   -0.9181 C   0  0  1  0  0  0  0  0  0  0  0  0
   -8.5099    6.5486   -0.6876 O   0  0  0  0  0  0  0  0  0  0  0  0
   -9.0925    4.8433   -2.3878 C   0  0  2  0  0  0  0  0  0  0  0  0
  -10.3718    5.1166   -2.9716 O   0  0  0  0  0  0  0  0  0  0  0  0
   -8.8286    3.3479   -2.3921 C   0  0  2  0  0  0  0  0  0  0  0  0
   -7.9247    3.0807   -1.2989 O   0  0  0  0  0  0  0  0  0  0  0  0
   -8.2219    2.9837   -3.7592 C   0  0  0  0  0  0  0  0  0  0  0  0
   -6.9484    3.6073   -3.9755 O   0  0  0  0  0  0  0  0  0  0  0  0
   -9.9009    1.2514   -1.8609 C   0  0  2  0  0  0  0  0  0  0  0  0
  -10.0590    2.6580   -2.1149 O   0  0  0  0  0  0  0  0  0  0  0  0
  -11.1636    0.5588   -2.3386 C   0  0  2  0  0  0  0  0  0  0  0  0
  -11.4782    1.0129   -3.6596 O   0  0  0  0  0  0  0  0  0  0  0  0
  -12.3289    0.8998   -1.4361 C   0  0  1  0  0  0  0  0  0  0  0  0
  -13.4263    0.0452   -1.7662 O   0  0  0  0  0  0  0  0  0  0  0  0
  -11.9466    0.7217    0.0209 C   0  0  2  0  0  0  0  0  0  0  0  0
  -13.0021    1.2201    0.8315 O   0  0  0  0  0  0  0  0  0  0  0  0
  -10.6641    1.4651    0.3694 C   0  0  2  0  0  0  0  0  0  0  0  0
   -9.6403    0.9737   -0.4851 O   0  0  0  0  0  0  0  0  0  0  0  0
  -10.2771    1.2642    1.8394 C   0  0  0  0  0  0  0  0  0  0  0  0
   -9.1784    2.0920    2.2485 O   0  0  0  0  0  0  0  0  0  0  0  0
  1  2  1  0  0  0  0
  3  1  1  1  0  0  0
  3  9  1  0  0  0  0
  3  4  1  0  0  0  0
  4  5  1  6  0  0  0
  4  6  1  0  0  0  0
  6  7  1  1  0  0  0
  6  8  1  0  0  0  0
  8  9  1  0  0  0  0
  8 10  1  6  0  0  0
  8 13  1  0  0  0  0
 10 11  1  0  0  0  0
 12 13  1  1  0  0  0
 12 14  1  0  0  0  0
 12 21  1  0  0  0  0
 14 15  1  6  0  0  0
 14 16  1  0  0  0  0
 16 17  1  6  0  0  0
 16 18  1  0  0  0  0
 18 19  1  1  0  0  0
 18 20  1  0  0  0  0
 20 21  1  0  0  0  0
 20 22  1  1  0  0  0
 22 23  1  0  0  0  0
M  END
>  <CHROM.1>
-59.88351646,63.77510320,-149.23467329,-169.71142979,-172.09418504,-9.75297818
2.72761934,-1.06949808,-0.06095672,0.78729203,1.62373365

>  <Name>
ligand

>  <RI>
0

>  <Rbt.Current_Directory>
/home/itssahil/PROJECTS/Mol_Feturizer/New_Systems/rnas/4TS2

>  <Rbt.Executable>
rbdock ($Id: //depot/dev/client3/rdock/2013.1/src/exe/rbdock.cxx#4 $)

>  <Rbt.Library>
libRbt.so (2013.1, Build901 2013/11/27)

>  <Rbt.Parameter_File>
/export/apps/rDock/src/rDock_2013.1_src/data/scripts/dock_solv.prm

>  <Rbt.Receptor>
prm/blind_docking_20.prm

>  <SCORE>
-14.5575

>  <SCORE.INTER>
-9.44756

>  <SCORE.INTER.CONST>
1

>  <SCORE.INTER.POLAR>
0

>  <SCORE.INTER.ROT>
5

>  <SCORE.INTER.SOLV>
13.5942

>  <SCORE.INTER.VDW>
-17.7631

>  <SCORE.INTER.norm>
-0.410763

>  <SCORE.INTRA>
-5.1099

>  <SCORE.INTRA.DIHEDRAL>
-8.03739

>  <SCORE.INTRA.DIHEDRAL.0>
12.4853

>  <SCORE.INTRA.POLAR>
0

>  <SCORE.INTRA.POLAR.0>
0

>  <SCORE.INTRA.REPUL>
0

>  <SCORE.INTRA.REPUL.0>
0

>  <SCORE.INTRA.SOLV>
0.496242

>  <SCORE.INTRA.SOLV.lig_0>
-31.1706

>  <SCORE.INTRA.VDW>
-1.33933

>  <SCORE.INTRA.VDW.0>
-1.16895

>  <SCORE.INTRA.norm>
-0.22217

>  <SCORE.RESTR>
0

>  <SCORE.RESTR.CAVITY>
0

>  <SCORE.RESTR.norm>
0

>  <SCORE.SYSTEM>
0

>  <SCORE.SYSTEM.CONST>
0

>  <SCORE.SYSTEM.DIHEDRAL>
0

>  <SCORE.SYSTEM.SOLV>
0

>  <SCORE.SYSTEM.norm>
0

>  <SCORE.heavy>
23

>  <SCORE.norm>
-0.632933

>  <RMSD>
13.619

$$$$
ligand
 OpenBabel11021811513D
libRbt.so/2013.1/901 2013/11/27
 23 24  0  0  0  0  0  0  0  0999 V2000
   -6.2534    3.2615   -0.7963 C   0  0  0  0  0  0  0  0  0  0  0  0
   -5.6192    3.6996   -2.0134 O   0  0  0  0  0  0  0  0  0  0  0  0
   -7.3664    4.2361   -0.4389 C   0  0  2  0  0  0  0  0  0  0  0  0
   -8.1775    3.8814    0.7980 C   0  0  1  0  0  0  0  0  0  0  0  0
   -7.4489    4.2606    1.9674 O   0  0  0  0  0  0  0  0  0  0  0  0
   -9.4547    4.6845    0.5765 C   0  0  2  0  0  0  0  0  0  0  0  0
  -10.6474    4.2782    1.2581 O   0  0  0  0  0  0  0  0  0  0  0  0
   -9.6416    4.5462   -0.9242 C   0  0  2  0  0  0  0  0  0  0  0  0
   -8.3300    4.3417   -1.4908 O   0  0  0  0  0  0  0  0  0  0  0  0
  -10.3076    5.8371   -1.4338 C   0  0  0  0  0  0  0  0  0  0  0  0
  -10.4736    5.8406   -2.8586 O   0  0  0  0  0  0  0  0  0  0  0  0
   -9.7668    2.1379   -0.8137 C   0  0  2  0  0  0  0  0  0  0  0  0
  -10.4166    3.3647   -1.1891 O   0  0  0  0  0  0  0  0  0  0  0  0
  -10.0130    1.1349   -1.9252 C   0  0  2  0  0  0  0  0  0  0  0  0
   -9.7100    1.7447   -3.1848 O   0  0  0  0  0  0  0  0  0  0  0  0
  -11.4658    0.7132   -1.9463 C   0  0  1  0  0  0  0  0  0  0  0  0
  -11.6041   -0.4010   -2.8312 O   0  0  0  0  0  0  0  0  0  0  0  0
  -11.9334    0.3366   -0.5534 C   0  0  2  0  0  0  0  0  0  0  0  0
  -13.3377    0.1217   -0.5885 O   0  0  0  0  0  0  0  0  0  0  0  0
  -11.6266    1.4259    0.4655 C   0  0  2  0  0  0  0  0  0  0  0  0
  -10.2226    1.6453    0.4462 O   0  0  0  0  0  0  0  0  0  0  0  0
  -12.0873    1.0281    1.8728 C   0  0  0  0  0  0  0  0  0  0  0  0
  -11.4576   -0.1694    2.3517 O   0  0  0  0  0  0  0  0  0  0  0  0
  1  2  1  0  0  0  0
  3  1  1  6  0  0  0
  3  9  1  0  0  0  0
  3  4  1  0  0  0  0
  4  5  1  1  0  0  0
  4  6  1  0  0  0  0
  6  7  1  1  0  0  0
  6  8  1  0  0  0  0
  8  9  1  0  0  0  0
  8 10  1  6  0  0  0
  8 13  1  0  0  0  0
 10 11  1  0  0  0  0
 12 13  1  6  0  0  0
 12 14  1  0  0  0  0
 12 21  1  0  0  0  0
 14 15  1  6  0  0  0
 14 16  1  0  0  0  0
 16 17  1  6  0  0  0
 16 18  1  0  0  0  0
 18 19  1  6  0  0  0
 18 20  1  0  0  0  0
 20 21  1  0  0  0  0
 20 22  1  1  0  0  0
 22 23  1  0  0  0  0
M  END
>  <CHROM.1>
177.55164405,177.18427360,-137.63709039,-64.74980882,59.90738373,-9.88772301
2.68601455,-0.58700158,0.05498675,-0.78743803,-1.61786688

>  <Name>
ligand

>  <RI>
0

>  <Rbt.Current_Directory>
/home/itssahil/PROJECTS/Mol_Feturizer/New_Systems/rnas/4TS2

>  <Rbt.Executable>
rbdock ($Id: //depot/dev/client3/rdock/2013.1/src/exe/rbdock.cxx#4 $)

>  <Rbt.Library>
libRbt.so (2013.1, Build901 2013/11/27)

>  <Rbt.Parameter_File>
/export/apps/rDock/src/rDock_2013.1_src/data/scripts/dock_solv.prm

>  <Rbt.Receptor>
prm/blind_docking_20.prm

>  <SCORE>
-11.9081

>  <SCORE.INTER>
-8.32256

>  <SCORE.INTER.CONST>
1

>  <SCORE.INTER.POLAR>
0

>  <SCORE.INTER.ROT>
5

>  <SCORE.INTER.SOLV>
11.4178

>  <SCORE.INTER.VDW>
-16.2876

>  <SCORE.INTER.norm>
-0.36185

>  <SCORE.INTRA>
-3.58559

>  <SCORE.INTRA.DIHEDRAL>
-6.48053

>  <SCORE.INTRA.DIHEDRAL.0>
12.4853

>  <SCORE.INTRA.POLAR>
0

>  <SCORE.INTRA.POLAR.0>
0

>  <SCORE.INTRA.REPUL>
0

>  <SCORE.INTRA.REPUL.0>
0

>  <SCORE.INTRA.SOLV>
0.529845

>  <SCORE.INTRA.SOLV.lig_0>
-31.1706

>  <SCORE.INTRA.VDW>
-0.610245

>  <SCORE.INTRA.VDW.0>
-1.16895

>  <SCORE.INTRA.norm>
-0.155895

>  <SCORE.RESTR>
0

>  <SCORE.RESTR.CAVITY>
0

>  <SCORE.RESTR.norm>
0

>  <SCORE.SYSTEM>
0

>  <SCORE.SYSTEM.CONST>
0

>  <SCORE.SYSTEM.DIHEDRAL>
0

>  <SCORE.SYSTEM.SOLV>
0

>  <SCORE.SYSTEM.norm>
0

>  <SCORE.heavy>
23

>  <SCORE.norm>
-0.517745

>  <RMSD>
13.619

$$$$
ligand
 OpenBabel11021811513D
libRbt.so/2013.1/901 2013/11/27
 23 24  0  0  0  0  0  0  0  0999 V2000
  -10.4014    3.6234    3.7254 C   0  0  0  0  0  0  0  0  0  0  0  0
  -10.8991    4.6707    4.5803 O   0  0  0  0  0  0  0  0  0  0  0  0
   -9.4985    4.2367    2.6647 C   0  0  2  0  0  0  0  0  0  0  0  0
  -10.1814    5.1820    1.6883 C   0  0  1  0  0  0  0  0  0  0  0  0
  -10.3505    6.4599    2.3052 O   0  0  0  0  0  0  0  0  0  0  0  0
   -9.2038    5.1839    0.5179 C   0  0  2  0  0  0  0  0  0  0  0  0
   -9.6835    5.5684   -0.7760 O   0  0  0  0  0  0  0  0  0  0  0  0
   -8.7569    3.7328    0.4958 C   0  0  2  0  0  0  0  0  0  0  0  0
   -8.8970    3.2326    1.8425 O   0  0  0  0  0  0  0  0  0  0  0  0
   -7.2982    3.6997    0.0050 C   0  0  0  0  0  0  0  0  0  0  0  0
   -7.1659    4.1613   -1.3467 O   0  0  0  0  0  0  0  0  0  0  0  0
   -9.4894    1.5569   -0.2504 C   0  0  2  0  0  0  0  0  0  0  0  0
   -9.6544    2.9827   -0.3401 O   0  0  0  0  0  0  0  0  0  0  0  0
  -10.0682    0.9522   -1.5159 C   0  0  2  0  0  0  0  0  0  0  0  0
   -9.5562    1.6582   -2.6515 O   0  0  0  0  0  0  0  0  0  0  0  0
  -11.5755    1.0821   -1.5240 C   0  0  1  0  0  0  0  0  0  0  0  0
  -12.0952    0.2918   -2.5958 O   0  0  0  0  0  0  0  0  0  0  0  0
  -12.1590    0.6201   -0.2023 C   0  0  2  0  0  0  0  0  0  0  0  0
  -13.5469    0.9248   -0.1874 O   0  0  0  0  0  0  0  0  0  0  0  0
  -11.4919    1.3012    0.9852 C   0  0  2  0  0  0  0  0  0  0  0  0
  -10.1021    1.0117    0.9179 O   0  0  0  0  0  0  0  0  0  0  0  0
  -12.0766    0.8143    2.3164 C   0  0  0  0  0  0  0  0  0  0  0  0
  -11.9180   -0.5980    2.5158 O   0  0  0  0  0  0  0  0  0  0  0  0
  1  2  1  0  0  0  0
  3  1  1  1  0  0  0
  3  9  1  0  0  0  0
  3  4  1  0  0  0  0
  4  5  1  1  0  0  0
  4  6  1  0  0  0  0
  6  7  1  6  0  0  0
  6  8  1  0  0  0  0
  8  9  1  0  0  0  0
  8 10  1  6  0  0  0
  8 13  1  0  0  0  0
 10 11  1  0  0  0  0
 12 13  1  6  0  0  0
 12 14  1  0  0  0  0
 12 21  1  0  0  0  0
 14 15  1  6  0  0  0
 14 16  1  0  0  0  0
 16 17  1  6  0  0  0
 16 18  1  0  0  0  0
 18 19  1  6  0  0  0
 18 20  1  0  0  0  0
 20 21  1  0  0  0  0
 20 22  1  1  0  0  0
 22 23  1  0  0  0  0
M  END
>  <CHROM.1>
-64.55238061,-64.26572295,-158.23839179,-169.14451030,60.04777697,-10.27399567
2.71263571,0.56775844,0.93093678,0.84643121,1.03886547

>  <Name>
ligand

>  <RI>
0

>  <Rbt.Current_Directory>
/home/itssahil/PROJECTS/Mol_Feturizer/New_Systems/rnas/4TS2

>  <Rbt.Executable>
rbdock ($Id: //depot/dev/client3/rdock/2013.1/src/exe/rbdock.cxx#4 $)

>  <Rbt.Library>
libRbt.so (2013.1, Build901 2013/11/27)

>  <Rbt.Parameter_File>
/export/apps/rDock/src/rDock_2013.1_src/data/scripts/dock_solv.prm

>  <Rbt.Receptor>
prm/blind_docking_100.prm

>  <SCORE>
-11.7625

>  <SCORE.INTER>
-5.3756

>  <SCORE.INTER.CONST>
1

>  <SCORE.INTER.POLAR>
0

>  <SCORE.INTER.ROT>
5

>  <SCORE.INTER.SOLV>
8.77411

>  <SCORE.INTER.VDW>
-13.4418

>  <SCORE.INTER.norm>
-0.233722

>  <SCORE.INTRA>
-6.38689

>  <SCORE.INTRA.DIHEDRAL>
-9.81327

>  <SCORE.INTRA.DIHEDRAL.0>
12.4853

>  <SCORE.INTRA.POLAR>
0

>  <SCORE.INTRA.POLAR.0>
0

>  <SCORE.INTRA.REPUL>
0

>  <SCORE.INTRA.REPUL.0>
0

>  <SCORE.INTRA.SOLV>
0.559562

>  <SCORE.INTRA.SOLV.lig_0>
-31.1706

>  <SCORE.INTRA.VDW>
-1.76003

>  <SCORE.INTRA.VDW.0>
-1.16895

>  <SCORE.INTRA.norm>
-0.277691

>  <SCORE.RESTR>
0

>  <SCORE.RESTR.CAVITY>
0

>  <SCORE.RESTR.norm>
0

>  <SCORE.SYSTEM>
0

>  <SCORE.SYSTEM.CONST>
0

>  <SCORE.SYSTEM.DIHEDRAL>
0

>  <SCORE.SYSTEM.SOLV>
0

>  <SCORE.SYSTEM.norm>
0

>  <SCORE.heavy>
23

>  <SCORE.norm>
-0.511413

>  <RMSD>
13.629

$$$$
ligand
 OpenBabel11021811513D
libRbt.so/2013.1/901 2013/11/27
 23 24  0  0  0  0  0  0  0  0999 V2000
  -12.5200    0.3777    0.8609 C   0  0  0  0  0  0  0  0  0  0  0  0
  -12.5142    0.9845   -0.4457 O   0  0  0  0  0  0  0  0  0  0  0  0
  -11.9924    1.3817    1.8759 C   0  0  2  0  0  0  0  0  0  0  0  0
  -12.5853    2.7794    1.7857 C   0  0  1  0  0  0  0  0  0  0  0  0
  -13.8675    2.7921    2.4166 O   0  0  0  0  0  0  0  0  0  0  0  0
  -11.5321    3.6140    2.5066 C   0  0  2  0  0  0  0  0  0  0  0  0
  -11.4722    5.0206    2.2419 O   0  0  0  0  0  0  0  0  0  0  0  0
  -10.2494    2.9441    2.0463 C   0  0  2  0  0  0  0  0  0  0  0  0
  -10.5813    1.5730    1.7408 O   0  0  0  0  0  0  0  0  0  0  0  0
   -9.2245    3.0604    3.1890 C   0  0  0  0  0  0  0  0  0  0  0  0
   -9.6397    2.3583    4.3690 O   0  0  0  0  0  0  0  0  0  0  0  0
   -8.5859    3.0307    0.2991 C   0  0  2  0  0  0  0  0  0  0  0  0
   -9.8123    3.5658    0.8260 O   0  0  0  0  0  0  0  0  0  0  0  0
   -7.9328    4.1219   -0.5286 C   0  0  2  0  0  0  0  0  0  0  0  0
   -7.9124    5.3376    0.2277 O   0  0  0  0  0  0  0  0  0  0  0  0
   -8.7225    4.3710   -1.7948 C   0  0  1  0  0  0  0  0  0  0  0  0
   -7.9524    5.2156   -2.6533 O   0  0  0  0  0  0  0  0  0  0  0  0
   -9.0384    3.0625   -2.4939 C   0  0  2  0  0  0  0  0  0  0  0  0
   -9.9262    3.3264   -3.5717 O   0  0  0  0  0  0  0  0  0  0  0  0
   -9.6890    2.0561   -1.5543 C   0  0  2  0  0  0  0  0  0  0  0  0
   -8.7959    1.8460   -0.4690 O   0  0  0  0  0  0  0  0  0  0  0  0
   -9.9881    0.7313   -2.2660 C   0  0  0  0  0  0  0  0  0  0  0  0
  -10.4442   -0.2951   -1.3725 O   0  0  0  0  0  0  0  0  0  0  0  0
  1  2  1  0  0  0  0
  3  1  1  6  0  0  0
  3  9  1  0  0  0  0
  3  4  1  0  0  0  0
  4  5  1  1  0  0  0
  4  6  1  0  0  0  0
  6  7  1  6  0  0  0
  6  8  1  0  0  0  0
  8  9  1  0  0  0  0
  8 10  1  1  0  0  0
  8 13  1  0  0  0  0
 10 11  1  0  0  0  0
 12 13  1  6  0  0  0
 12 14  1  0  0  0  0
 12 21  1  0  0  0  0
 14 15  1  1  0  0  0
 14 16  1  0  0  0  0
 16 17  1  6  0  0  0
 16 18  1  0  0  0  0
 18 19  1  6  0  0  0
 18 20  1  0  0  0  0
 20 21  1  0  0  0  0
 20 22  1  6  0  0  0
 22 23  1  0  0  0  0
M  END
>  <CHROM.1>
47.17630966,63.45401257,-153.99485045,178.96240379,172.57613830,-10.22441767
2.75048162,0.31055557,2.42503399,0.78040263,1.13223994

>  <Name>
ligand

>  <RI>
0

>  <Rbt.Current_Directory>
/home/itssahil/PROJECTS/Mol_Feturizer/New_Systems/rnas/4TS2

>  <Rbt.Executable>
rbdock ($Id: //depot/dev/client3/rdock/2013.1/src/exe/rbdock.cxx#4 $)

>  <Rbt.Library>
libRbt.so (2013.1, Build901 2013/11/27)

>  <Rbt.Parameter_File>
/export/apps/rDock/src/rDock_2013.1_src/data/scripts/dock_solv.prm

>  <Rbt.Receptor>
prm/blind_docking_60.prm

>  <SCORE>
-8.51096

>  <SCORE.INTER>
-3.30249

>  <SCORE.INTER.CONST>
1

>  <SCORE.INTER.POLAR>
0

>  <SCORE.INTER.ROT>
5

>  <SCORE.INTER.SOLV>
9.01484

>  <SCORE.INTER.VDW>
-12.1399

>  <SCORE.INTER.norm>
-0.143587

>  <SCORE.INTRA>
-5.20847

>  <SCORE.INTRA.DIHEDRAL>
-8.72443

>  <SCORE.INTRA.DIHEDRAL.0>
12.4853

>  <SCORE.INTRA.POLAR>
0

>  <SCORE.INTRA.POLAR.0>
0

>  <SCORE.INTRA.REPUL>
0

>  <SCORE.INTRA.REPUL.0>
0

>  <SCORE.INTRA.SOLV>
1.31443

>  <SCORE.INTRA.SOLV.lig_0>
-31.1706

>  <SCORE.INTRA.VDW>
-1.50347

>  <SCORE.INTRA.VDW.0>
-1.16895

>  <SCORE.INTRA.norm>
-0.226455

>  <SCORE.RESTR>
0

>  <SCORE.RESTR.CAVITY>
0

>  <SCORE.RESTR.norm>
0

>  <SCORE.SYSTEM>
0

>  <SCORE.SYSTEM.CONST>
0

>  <SCORE.SYSTEM.DIHEDRAL>
0

>  <SCORE.SYSTEM.SOLV>
0

>  <SCORE.SYSTEM.norm>
0

>  <SCORE.heavy>
23

>  <SCORE.norm>
-0.370042

>  <RMSD>
13.632

$$$$
ligand
 OpenBabel11021811513D
libRbt.so/2013.1/901 2013/11/27
 23 24  0  0  0  0  0  0  0  0999 V2000
  -10.3673    3.6482    3.7205 C   0  0  0  0  0  0  0  0  0  0  0  0
  -10.8682    4.7178    4.5455 O   0  0  0  0  0  0  0  0  0  0  0  0
   -9.4644    4.2337    2.6443 C   0  0  2  0  0  0  0  0  0  0  0  0
  -10.1409    5.1774    1.6619 C   0  0  1  0  0  0  0  0  0  0  0  0
  -10.2844    6.4655    2.2640 O   0  0  0  0  0  0  0  0  0  0  0  0
   -9.1739    5.1491    0.4831 C   0  0  2  0  0  0  0  0  0  0  0  0
   -9.6590    5.5248   -0.8114 O   0  0  0  0  0  0  0  0  0  0  0  0
   -8.7501    3.6909    0.4756 C   0  0  2  0  0  0  0  0  0  0  0  0
   -8.8861    3.2100    1.8297 O   0  0  0  0  0  0  0  0  0  0  0  0
   -7.2965    3.6286   -0.0274 C   0  0  0  0  0  0  0  0  0  0  0  0
   -6.3802    4.2729    0.8686 O   0  0  0  0  0  0  0  0  0  0  0  0
   -9.5117    1.5180   -0.2498 C   0  0  2  0  0  0  0  0  0  0  0  0
   -9.6666    2.9447   -0.3429 O   0  0  0  0  0  0  0  0  0  0  0  0
  -10.0902    0.9147   -1.5162 C   0  0  2  0  0  0  0  0  0  0  0  0
   -9.5696    1.6150   -2.6514 O   0  0  0  0  0  0  0  0  0  0  0  0
  -11.5966    1.0549   -1.5297 C   0  0  1  0  0  0  0  0  0  0  0  0
  -12.1180    0.2660   -2.6017 O   0  0  0  0  0  0  0  0  0  0  0  0
  -12.1877    0.5994   -0.2091 C   0  0  2  0  0  0  0  0  0  0  0  0
  -13.5736    0.9136   -0.1996 O   0  0  0  0  0  0  0  0  0  0  0  0
  -11.5201    1.2783    0.9793 C   0  0  2  0  0  0  0  0  0  0  0  0
  -10.1321    0.9793    0.9174 O   0  0  0  0  0  0  0  0  0  0  0  0
  -12.1126    0.7980    2.3095 C   0  0  0  0  0  0  0  0  0  0  0  0
  -11.9763   -0.6170    2.5061 O   0  0  0  0  0  0  0  0  0  0  0  0
  1  2  1  0  0  0  0
  3  1  1  1  0  0  0
  3  9  1  0  0  0  0
  3  4  1  0  0  0  0
  4  5  1  1  0  0  0
  4  6  1  0  0  0  0
  6  7  1  6  0  0  0
  6  8  1  0  0  0  0
  8  9  1  0  0  0  0
  8 10  1  6  0  0  0
  8 13  1  0  0  0  0
 10 11  1  0  0  0  0
 12 13  1  6  0  0  0
 12 14  1  0  0  0  0
 12 21  1  0  0  0  0
 14 15  1  6  0  0  0
 14 16  1  0  0  0  0
 16 17  1  6  0  0  0
 16 18  1  0  0  0  0
 18 19  1  6  0  0  0
 18 20  1  0  0  0  0
 20 21  1  0  0  0  0
 20 22  1  1  0  0  0
 22 23  1  0  0  0  0
M  END
>  <CHROM.1>
-63.09728510,65.02181306,-157.12543884,-169.91809336,59.45688823,-10.23832022
2.69769109,0.65991722,0.87463900,0.78181185,1.06570497

>  <Name>
ligand

>  <RI>
0

>  <Rbt.Current_Directory>
/home/itssahil/PROJECTS/Mol_Feturizer/New_Systems/rnas/4TS2

>  <Rbt.Executable>
rbdock ($Id: //depot/dev/client3/rdock/2013.1/src/exe/rbdock.cxx#4 $)

>  <Rbt.Library>
libRbt.so (2013.1, Build901 2013/11/27)

>  <Rbt.Parameter_File>
/export/apps/rDock/src/rDock_2013.1_src/data/scripts/dock_solv.prm

>  <Rbt.Receptor>
prm/blind_docking_100.prm

>  <SCORE>
-12.1114

>  <SCORE.INTER>
-5.83066

>  <SCORE.INTER.CONST>
1

>  <SCORE.INTER.POLAR>
0

>  <SCORE.INTER.ROT>
5

>  <SCORE.INTER.SOLV>
9.86023

>  <SCORE.INTER.VDW>
-14.1072

>  <SCORE.INTER.norm>
-0.253507

>  <SCORE.INTRA>
-6.28073

>  <SCORE.INTRA.DIHEDRAL>
-9.63847

>  <SCORE.INTRA.DIHEDRAL.0>
12.4853

>  <SCORE.INTRA.POLAR>
0

>  <SCORE.INTRA.POLAR.0>
0

>  <SCORE.INTRA.REPUL>
0

>  <SCORE.INTRA.REPUL.0>
0

>  <SCORE.INTRA.SOLV>
0.292315

>  <SCORE.INTRA.SOLV.lig_0>
-31.1706

>  <SCORE.INTRA.VDW>
-1.60765

>  <SCORE.INTRA.VDW.0>
-1.16895

>  <SCORE.INTRA.norm>
-0.273075

>  <SCORE.RESTR>
0

>  <SCORE.RESTR.CAVITY>
0

>  <SCORE.RESTR.norm>
0

>  <SCORE.SYSTEM>
0

>  <SCORE.SYSTEM.CONST>
0

>  <SCORE.SYSTEM.DIHEDRAL>
0

>  <SCORE.SYSTEM.SOLV>
0

>  <SCORE.SYSTEM.norm>
0

>  <SCORE.heavy>
23

>  <SCORE.norm>
-0.526582

>  <RMSD>
13.640

$$$$
ligand
 OpenBabel11021811513D
libRbt.so/2013.1/901 2013/11/27
 23 24  0  0  0  0  0  0  0  0999 V2000
   -7.4835    4.0490    0.8764 C   0  0  0  0  0  0  0  0  0  0  0  0
   -7.2011    5.2912    1.5493 O   0  0  0  0  0  0  0  0  0  0  0  0
   -7.6589    4.3200   -0.6109 C   0  0  2  0  0  0  0  0  0  0  0  0
   -8.8292    5.2183   -0.9809 C   0  0  1  0  0  0  0  0  0  0  0  0
   -8.4680    6.5830   -0.7592 O   0  0  0  0  0  0  0  0  0  0  0  0
   -9.0438    4.8651   -2.4488 C   0  0  2  0  0  0  0  0  0  0  0  0
  -10.3211    5.1336   -3.0394 O   0  0  0  0  0  0  0  0  0  0  0  0
   -8.7795    3.3698   -2.4411 C   0  0  2  0  0  0  0  0  0  0  0  0
   -7.8796    3.1109   -1.3427 O   0  0  0  0  0  0  0  0  0  0  0  0
   -8.1677    2.9956   -3.8032 C   0  0  0  0  0  0  0  0  0  0  0  0
   -6.9053    3.6378   -4.0302 O   0  0  0  0  0  0  0  0  0  0  0  0
   -9.8545    1.2747   -1.9093 C   0  0  2  0  0  0  0  0  0  0  0  0
  -10.0108    2.6815   -2.1633 O   0  0  0  0  0  0  0  0  0  0  0  0
  -11.1192    0.5841   -2.3847 C   0  0  2  0  0  0  0  0  0  0  0  0
  -11.4354    1.0385   -3.7053 O   0  0  0  0  0  0  0  0  0  0  0  0
  -12.2824    0.9272   -1.4801 C   0  0  1  0  0  0  0  0  0  0  0  0
  -13.3817    0.0743   -1.8081 O   0  0  0  0  0  0  0  0  0  0  0  0
  -11.8977    0.7487   -0.0238 C   0  0  2  0  0  0  0  0  0  0  0  0
  -12.9509    1.2490    0.7885 O   0  0  0  0  0  0  0  0  0  0  0  0
  -10.6134    1.4901    0.3222 C   0  0  2  0  0  0  0  0  0  0  0  0
   -9.5919    0.9969   -0.5340 O   0  0  0  0  0  0  0  0  0  0  0  0
  -10.2241    1.2889    1.7915 C   0  0  0  0  0  0  0  0  0  0  0  0
   -9.1440    2.1376    2.2071 O   0  0  0  0  0  0  0  0  0  0  0  0
  1  2  1  0  0  0  0
  3  1  1  1  0  0  0
  3  9  1  0  0  0  0
  3  4  1  0  0  0  0
  4  5  1  6  0  0  0
  4  6  1  0  0  0  0
  6  7  1  1  0  0  0
  6  8  1  0  0  0  0
  8  9  1  0  0  0  0
  8 10  1  6  0  0  0
  8 13  1  0  0  0  0
 10 11  1  0  0  0  0
 12 13  1  1  0  0  0
 12 14  1  0  0  0  0
 12 21  1  0  0  0  0
 14 15  1  6  0  0  0
 14 16  1  0  0  0  0
 16 17  1  6  0  0  0
 16 18  1  0  0  0  0
 18 19  1  1  0  0  0
 18 20  1  0  0  0  0
 20 21  1  0  0  0  0
 20 22  1  1  0  0  0
 22 23  1  0  0  0  0
M  END
>  <CHROM.1>
-63.15048627,62.67833191,-149.31502482,-170.20223342,-170.71412840,-9.70391288
2.75623843,-1.12054643,-0.06329229,0.78695828,1.62512500

>  <Name>
ligand

>  <RI>
0

>  <Rbt.Current_Directory>
/home/itssahil/PROJECTS/Mol_Feturizer/New_Systems/rnas/4TS2

>  <Rbt.Executable>
rbdock ($Id: //depot/dev/client3/rdock/2013.1/src/exe/rbdock.cxx#4 $)

>  <Rbt.Library>
libRbt.so (2013.1, Build901 2013/11/27)

>  <Rbt.Parameter_File>
/export/apps/rDock/src/rDock_2013.1_src/data/scripts/dock_solv.prm

>  <Rbt.Receptor>
prm/blind_docking_20.prm

>  <SCORE>
-14.5749

>  <SCORE.INTER>
-9.44183

>  <SCORE.INTER.CONST>
1

>  <SCORE.INTER.POLAR>
0

>  <SCORE.INTER.ROT>
5

>  <SCORE.INTER.SOLV>
13.6535

>  <SCORE.INTER.VDW>
-17.7791

>  <SCORE.INTER.norm>
-0.410514

>  <SCORE.INTRA>
-5.13309

>  <SCORE.INTRA.DIHEDRAL>
-8.00511

>  <SCORE.INTRA.DIHEDRAL.0>
12.4853

>  <SCORE.INTRA.POLAR>
0

>  <SCORE.INTRA.POLAR.0>
0

>  <SCORE.INTRA.REPUL>
0

>  <SCORE.INTRA.REPUL.0>
0

>  <SCORE.INTRA.SOLV>
0.466736

>  <SCORE.INTRA.SOLV.lig_0>
-31.1706

>  <SCORE.INTRA.VDW>
-1.36391

>  <SCORE.INTRA.VDW.0>
-1.16895

>  <SCORE.INTRA.norm>
-0.223178

>  <SCORE.RESTR>
0

>  <SCORE.RESTR.CAVITY>
0

>  <SCORE.RESTR.norm>
0

>  <SCORE.SYSTEM>
0

>  <SCORE.SYSTEM.CONST>
0

>  <SCORE.SYSTEM.DIHEDRAL>
0

>  <SCORE.SYSTEM.SOLV>
0

>  <SCORE.SYSTEM.norm>
0

>  <SCORE.heavy>
23

>  <SCORE.norm>
-0.633692

>  <RMSD>
13.642

$$$$
ligand
 OpenBabel11021811513D
libRbt.so/2013.1/901 2013/11/27
 23 24  0  0  0  0  0  0  0  0999 V2000
   -9.6279    4.2952    3.4794 C   0  0  0  0  0  0  0  0  0  0  0  0
  -10.7253    3.3913    3.2468 O   0  0  0  0  0  0  0  0  0  0  0  0
   -9.1041    4.7937    2.1402 C   0  0  2  0  0  0  0  0  0  0  0  0
  -10.1077    5.5500    1.2833 C   0  0  1  0  0  0  0  0  0  0  0  0
  -10.2186    6.8935    1.7575 O   0  0  0  0  0  0  0  0  0  0  0  0
   -9.4866    5.4324   -0.1045 C   0  0  2  0  0  0  0  0  0  0  0  0
  -10.3306    5.5989   -1.2501 O   0  0  0  0  0  0  0  0  0  0  0  0
   -8.9332    4.0188   -0.0685 C   0  0  2  0  0  0  0  0  0  0  0  0
   -8.6588    3.7133    1.3153 O   0  0  0  0  0  0  0  0  0  0  0  0
   -7.6643    3.9906   -0.9397 C   0  0  0  0  0  0  0  0  0  0  0  0
   -6.9791    2.7326   -0.8666 O   0  0  0  0  0  0  0  0  0  0  0  0
   -9.6187    1.7209   -0.3466 C   0  0  2  0  0  0  0  0  0  0  0  0
   -9.9514    3.1093   -0.5188 O   0  0  0  0  0  0  0  0  0  0  0  0
  -10.1118    0.9798   -1.5754 C   0  0  2  0  0  0  0  0  0  0  0  0
   -9.6788    1.6755   -2.7496 O   0  0  0  0  0  0  0  0  0  0  0  0
  -11.6238    0.9285   -1.5921 C   0  0  1  0  0  0  0  0  0  0  0  0
  -12.0376    0.0217   -2.6167 O   0  0  0  0  0  0  0  0  0  0  0  0
  -12.1581    0.4768   -0.2462 C   0  0  2  0  0  0  0  0  0  0  0  0
  -13.5725    0.6142   -0.2500 O   0  0  0  0  0  0  0  0  0  0  0  0
  -11.5859    1.2995    0.9003 C   0  0  2  0  0  0  0  0  0  0  0  0
  -10.1711    1.1744    0.8509 O   0  0  0  0  0  0  0  0  0  0  0  0
  -12.1186    0.8237    2.2570 C   0  0  0  0  0  0  0  0  0  0  0  0
  -11.8210   -0.5546    2.5245 O   0  0  0  0  0  0  0  0  0  0  0  0
  1  2  1  0  0  0  0
  3  1  1  1  0  0  0
  3  9  1  0  0  0  0
  3  4  1  0  0  0  0
  4  5  1  1  0  0  0
  4  6  1  0  0  0  0
  6  7  1  6  0  0  0
  6  8  1  0  0  0  0
  8  9  1  0  0  0  0
  8 10  1  6  0  0  0
  8 13  1  0  0  0  0
 10 11  1  0  0  0  0
 12 13  1  6  0  0  0
 12 14  1  0  0  0  0
 12 21  1  0  0  0  0
 14 15  1  6  0  0  0
 14 16  1  0  0  0  0
 16 17  1  6  0  0  0
 16 18  1  0  0  0  0
 18 19  1  6  0  0  0
 18 20  1  0  0  0  0
 20 21  1  0  0  0  0
 20 22  1  1  0  0  0
 22 23  1  0  0  0  0
M  END
>  <CHROM.1>
60.33827543,173.96638201,-140.35155276,-171.36344610,58.70909087,-10.28323566
2.70980861,0.28579586,0.73299664,0.91553406,1.04241058

>  <Name>
ligand

>  <RI>
0

>  <Rbt.Current_Directory>
/home/itssahil/PROJECTS/Mol_Feturizer/New_Systems/rnas/4TS2

>  <Rbt.Executable>
rbdock ($Id: //depot/dev/client3/rdock/2013.1/src/exe/rbdock.cxx#4 $)

>  <Rbt.Library>
libRbt.so (2013.1, Build901 2013/11/27)

>  <Rbt.Parameter_File>
/export/apps/rDock/src/rDock_2013.1_src/data/scripts/dock_solv.prm

>  <Rbt.Receptor>
prm/blind_docking_60.prm

>  <SCORE>
-10.6481

>  <SCORE.INTER>
-6.08471

>  <SCORE.INTER.CONST>
1

>  <SCORE.INTER.POLAR>
0

>  <SCORE.INTER.ROT>
5

>  <SCORE.INTER.SOLV>
9.19465

>  <SCORE.INTER.VDW>
-14.0547

>  <SCORE.INTER.norm>
-0.264552

>  <SCORE.INTRA>
-4.5634

>  <SCORE.INTRA.DIHEDRAL>
-6.78524

>  <SCORE.INTRA.DIHEDRAL.0>
12.4853

>  <SCORE.INTRA.POLAR>
0

>  <SCORE.INTRA.POLAR.0>
0

>  <SCORE.INTRA.REPUL>
0

>  <SCORE.INTRA.REPUL.0>
0

>  <SCORE.INTRA.SOLV>
1.19321

>  <SCORE.INTRA.SOLV.lig_0>
-31.1706

>  <SCORE.INTRA.VDW>
-1.76739

>  <SCORE.INTRA.VDW.0>
-1.16895

>  <SCORE.INTRA.norm>
-0.198409

>  <SCORE.RESTR>
0

>  <SCORE.RESTR.CAVITY>
0

>  <SCORE.RESTR.norm>
0

>  <SCORE.SYSTEM>
0

>  <SCORE.SYSTEM.CONST>
0

>  <SCORE.SYSTEM.DIHEDRAL>
0

>  <SCORE.SYSTEM.SOLV>
0

>  <SCORE.SYSTEM.norm>
0

>  <SCORE.heavy>
23

>  <SCORE.norm>
-0.462961

>  <RMSD>
13.642

$$$$
ligand
 OpenBabel11021811513D
libRbt.so/2013.1/901 2013/11/27
 23 24  0  0  0  0  0  0  0  0999 V2000
   -7.5853    4.0921    0.9320 C   0  0  0  0  0  0  0  0  0  0  0  0
   -7.3301    5.3423    1.6009 O   0  0  0  0  0  0  0  0  0  0  0  0
   -7.7394    4.3509   -0.5599 C   0  0  2  0  0  0  0  0  0  0  0  0
   -8.9120    5.2354   -0.9550 C   0  0  1  0  0  0  0  0  0  0  0  0
   -8.5671    6.6050   -0.7374 O   0  0  0  0  0  0  0  0  0  0  0  0
   -9.0997    4.8698   -2.4235 C   0  0  2  0  0  0  0  0  0  0  0  0
  -10.3698    5.1220   -3.0363 O   0  0  0  0  0  0  0  0  0  0  0  0
   -8.8215    3.3771   -2.4008 C   0  0  2  0  0  0  0  0  0  0  0  0
   -7.9370    3.1346   -1.2863 O   0  0  0  0  0  0  0  0  0  0  0  0
   -8.1846    2.9991   -3.7502 C   0  0  0  0  0  0  0  0  0  0  0  0
   -6.9070    3.6218   -3.9449 O   0  0  0  0  0  0  0  0  0  0  0  0
   -9.8871    1.2723   -1.8889 C   0  0  2  0  0  0  0  0  0  0  0  0
  -10.0506    2.6792   -2.1377 O   0  0  0  0  0  0  0  0  0  0  0  0
  -11.1466    0.5765   -2.3704 C   0  0  2  0  0  0  0  0  0  0  0  0
  -11.4619    1.0344   -3.6899 O   0  0  0  0  0  0  0  0  0  0  0  0
  -12.3140    0.9094   -1.4675 C   0  0  1  0  0  0  0  0  0  0  0  0
  -13.4076    0.0516   -1.8018 O   0  0  0  0  0  0  0  0  0  0  0  0
  -11.9322    0.7272   -0.0109 C   0  0  2  0  0  0  0  0  0  0  0  0
  -12.9903    1.2183    0.8007 O   0  0  0  0  0  0  0  0  0  0  0  0
  -10.6529    1.4744    0.3415 C   0  0  2  0  0  0  0  0  0  0  0  0
   -9.6265    0.9905   -0.5140 O   0  0  0  0  0  0  0  0  0  0  0  0
  -10.2663    1.2695    1.8110 C   0  0  0  0  0  0  0  0  0  0  0  0
   -9.1258    2.0466    2.2047 O   0  0  0  0  0  0  0  0  0  0  0  0
  1  2  1  0  0  0  0
  3  1  1  1  0  0  0
  3  9  1  0  0  0  0
  3  4  1  0  0  0  0
  4  5  1  6  0  0  0
  4  6  1  0  0  0  0
  6  7  1  1  0  0  0
  6  8  1  0  0  0  0
  8  9  1  0  0  0  0
  8 10  1  6  0  0  0
  8 13  1  0  0  0  0
 10 11  1  0  0  0  0
 12 13  1  1  0  0  0
 12 14  1  0  0  0  0
 12 21  1  0  0  0  0
 14 15  1  6  0  0  0
 14 16  1  0  0  0  0
 16 17  1  6  0  0  0
 16 18  1  0  0  0  0
 18 19  1  1  0  0  0
 18 20  1  0  0  0  0
 20 21  1  0  0  0  0
 20 22  1  1  0  0  0
 22 23  1  0  0  0  0
M  END
>  <CHROM.1>
-62.94517324,64.34572630,-149.70423604,-171.00046559,-175.25408587,-9.75032030
2.75293924,-1.09250334,-0.05926247,0.79810812,1.62700160

>  <Name>
ligand

>  <RI>
0

>  <Rbt.Current_Directory>
/home/itssahil/PROJECTS/Mol_Feturizer/New_Systems/rnas/4TS2

>  <Rbt.Executable>
rbdock ($Id: //depot/dev/client3/rdock/2013.1/src/exe/rbdock.cxx#4 $)

>  <Rbt.Library>
libRbt.so (2013.1, Build901 2013/11/27)

>  <Rbt.Parameter_File>
/export/apps/rDock/src/rDock_2013.1_src/data/scripts/dock_solv.prm

>  <Rbt.Receptor>
prm/blind_docking_20.prm

>  <SCORE>
-14.525

>  <SCORE.INTER>
-9.22685

>  <SCORE.INTER.CONST>
1

>  <SCORE.INTER.POLAR>
0

>  <SCORE.INTER.ROT>
5

>  <SCORE.INTER.SOLV>
13.5621

>  <SCORE.INTER.VDW>
-17.6053

>  <SCORE.INTER.norm>
-0.401168

>  <SCORE.INTRA>
-5.29812

>  <SCORE.INTRA.DIHEDRAL>
-8.3152

>  <SCORE.INTRA.DIHEDRAL.0>
12.4853

>  <SCORE.INTRA.POLAR>
0

>  <SCORE.INTRA.POLAR.0>
0

>  <SCORE.INTRA.REPUL>
0

>  <SCORE.INTRA.REPUL.0>
0

>  <SCORE.INTRA.SOLV>
0.455164

>  <SCORE.INTRA.SOLV.lig_0>
-31.1706

>  <SCORE.INTRA.VDW>
-1.36811

>  <SCORE.INTRA.VDW.0>
-1.16895

>  <SCORE.INTRA.norm>
-0.230353

>  <SCORE.RESTR>
0

>  <SCORE.RESTR.CAVITY>
0

>  <SCORE.RESTR.norm>
0

>  <SCORE.SYSTEM>
0

>  <SCORE.SYSTEM.CONST>
0

>  <SCORE.SYSTEM.DIHEDRAL>
0

>  <SCORE.SYSTEM.SOLV>
0

>  <SCORE.SYSTEM.norm>
0

>  <SCORE.heavy>
23

>  <SCORE.norm>
-0.631521

>  <RMSD>
13.643

$$$$
ligand
 OpenBabel11021811513D
libRbt.so/2013.1/901 2013/11/27
 23 24  0  0  0  0  0  0  0  0999 V2000
   -7.9552    3.9535    1.0930 C   0  0  0  0  0  0  0  0  0  0  0  0
   -7.8296    5.1638    1.8644 O   0  0  0  0  0  0  0  0  0  0  0  0
   -7.9684    4.3083   -0.3870 C   0  0  2  0  0  0  0  0  0  0  0  0
   -9.1237    5.1874   -0.8409 C   0  0  1  0  0  0  0  0  0  0  0  0
   -8.8463    6.5475   -0.5015 O   0  0  0  0  0  0  0  0  0  0  0  0
   -9.1527    4.9171   -2.3414 C   0  0  2  0  0  0  0  0  0  0  0  0
  -10.3630    5.1777   -3.0621 O   0  0  0  0  0  0  0  0  0  0  0  0
   -8.8304    3.4338   -2.3870 C   0  0  2  0  0  0  0  0  0  0  0  0
   -8.0537    3.1392   -1.2067 O   0  0  0  0  0  0  0  0  0  0  0  0
   -8.0506    3.1641   -3.6866 C   0  0  0  0  0  0  0  0  0  0  0  0
   -6.8040    3.8721   -3.7328 O   0  0  0  0  0  0  0  0  0  0  0  0
   -9.8749    1.2855   -2.0389 C   0  0  2  0  0  0  0  0  0  0  0  0
  -10.0565    2.6887   -2.2955 O   0  0  0  0  0  0  0  0  0  0  0  0
  -11.1664    0.5839   -2.4160 C   0  0  2  0  0  0  0  0  0  0  0  0
  -11.5782    1.0228   -3.7152 O   0  0  0  0  0  0  0  0  0  0  0  0
  -12.2641    0.9310   -1.4344 C   0  0  1  0  0  0  0  0  0  0  0  0
  -13.3793    0.0695   -1.6746 O   0  0  0  0  0  0  0  0  0  0  0  0
  -11.7759    0.7698   -0.0074 C   0  0  2  0  0  0  0  0  0  0  0  0
  -12.7714    1.2737    0.8727 O   0  0  0  0  0  0  0  0  0  0  0  0
  -10.4743    1.5209    0.2387 C   0  0  2  0  0  0  0  0  0  0  0  0
   -9.5136    1.0235   -0.6830 O   0  0  0  0  0  0  0  0  0  0  0  0
   -9.9804    1.3370    1.6786 C   0  0  0  0  0  0  0  0  0  0  0  0
  -10.8510    1.9338    2.6509 O   0  0  0  0  0  0  0  0  0  0  0  0
  1  2  1  0  0  0  0
  3  1  1  1  0  0  0
  3  9  1  0  0  0  0
  3  4  1  0  0  0  0
  4  5  1  6  0  0  0
  4  6  1  0  0  0  0
  6  7  1  1  0  0  0
  6  8  1  0  0  0  0
  8  9  1  0  0  0  0
  8 10  1  6  0  0  0
  8 13  1  0  0  0  0
 10 11  1  0  0  0  0
 12 13  1  1  0  0  0
 12 14  1  0  0  0  0
 12 21  1  0  0  0  0
 14 15  1  6  0  0  0
 14 16  1  0  0  0  0
 16 17  1  6  0  0  0
 16 18  1  0  0  0  0
 18 19  1  1  0  0  0
 18 20  1  0  0  0  0
 20 21  1  0  0  0  0
 20 22  1  1  0  0  0
 22 23  1  0  0  0  0
M  END
>  <CHROM.1>
-62.03163496,62.07151741,-161.83858584,-167.29405617,-66.02048079,-9.86188514
2.76550796,-1.03328963,-0.05086733,0.82603436,1.50229383

>  <Name>
ligand

>  <RI>
0

>  <Rbt.Current_Directory>
/home/itssahil/PROJECTS/Mol_Feturizer/New_Systems/rnas/4TS2

>  <Rbt.Executable>
rbdock ($Id: //depot/dev/client3/rdock/2013.1/src/exe/rbdock.cxx#4 $)

>  <Rbt.Library>
libRbt.so (2013.1, Build901 2013/11/27)

>  <Rbt.Parameter_File>
/export/apps/rDock/src/rDock_2013.1_src/data/scripts/dock_solv.prm

>  <Rbt.Receptor>
prm/blind_docking_40.prm

>  <SCORE>
-15.9344

>  <SCORE.INTER>
-9.67373

>  <SCORE.INTER.CONST>
1

>  <SCORE.INTER.POLAR>
0

>  <SCORE.INTER.ROT>
5

>  <SCORE.INTER.SOLV>
12.3287

>  <SCORE.INTER.VDW>
-17.4921

>  <SCORE.INTER.norm>
-0.420597

>  <SCORE.INTRA>
-6.26068

>  <SCORE.INTRA.DIHEDRAL>
-10.1493

>  <SCORE.INTRA.DIHEDRAL.0>
12.4853

>  <SCORE.INTRA.POLAR>
0

>  <SCORE.INTRA.POLAR.0>
0

>  <SCORE.INTRA.REPUL>
0

>  <SCORE.INTRA.REPUL.0>
0

>  <SCORE.INTRA.SOLV>
0.514065

>  <SCORE.INTRA.SOLV.lig_0>
-31.1706

>  <SCORE.INTRA.VDW>
-1.44305

>  <SCORE.INTRA.VDW.0>
-1.16895

>  <SCORE.INTRA.norm>
-0.272203

>  <SCORE.RESTR>
0

>  <SCORE.RESTR.CAVITY>
0

>  <SCORE.RESTR.norm>
0

>  <SCORE.SYSTEM>
0

>  <SCORE.SYSTEM.CONST>
0

>  <SCORE.SYSTEM.DIHEDRAL>
0

>  <SCORE.SYSTEM.SOLV>
0

>  <SCORE.SYSTEM.norm>
0

>  <SCORE.heavy>
23

>  <SCORE.norm>
-0.6928

>  <RMSD>
13.644

$$$$
ligand
 OpenBabel11021811513D
libRbt.so/2013.1/901 2013/11/27
 23 24  0  0  0  0  0  0  0  0999 V2000
  -10.3193    2.4731    3.6137 C   0  0  0  0  0  0  0  0  0  0  0  0
  -10.8967    3.1170    4.7659 O   0  0  0  0  0  0  0  0  0  0  0  0
   -9.6970    3.5317    2.7145 C   0  0  2  0  0  0  0  0  0  0  0  0
  -10.6678    4.5392    2.1178 C   0  0  1  0  0  0  0  0  0  0  0  0
  -10.9811    5.5325    3.0962 O   0  0  0  0  0  0  0  0  0  0  0  0
   -9.8763    5.0703    0.9275 C   0  0  2  0  0  0  0  0  0  0  0  0
  -10.5904    5.6822   -0.1532 O   0  0  0  0  0  0  0  0  0  0  0  0
   -9.1795    3.8113    0.4424 C   0  0  2  0  0  0  0  0  0  0  0  0
   -9.0407    2.9438    1.5876 O   0  0  0  0  0  0  0  0  0  0  0  0
   -7.8203    4.2267   -0.1489 C   0  0  0  0  0  0  0  0  0  0  0  0
   -7.9604    5.0534   -1.3127 O   0  0  0  0  0  0  0  0  0  0  0  0
   -9.5929    1.8219   -0.8611 C   0  0  2  0  0  0  0  0  0  0  0  0
  -10.0309    3.1445   -0.5049 O   0  0  0  0  0  0  0  0  0  0  0  0
   -9.9034    1.6216   -2.3328 C   0  0  2  0  0  0  0  0  0  0  0  0
   -9.4284    2.7522   -3.0719 O   0  0  0  0  0  0  0  0  0  0  0  0
  -11.3968    1.5139   -2.5494 C   0  0  1  0  0  0  0  0  0  0  0  0
  -11.6326    1.0830   -3.8919 O   0  0  0  0  0  0  0  0  0  0  0  0
  -12.0097    0.5319   -1.5692 C   0  0  2  0  0  0  0  0  0  0  0  0
  -13.4244    0.5958   -1.6874 O   0  0  0  0  0  0  0  0  0  0  0  0
  -11.6205    0.8438   -0.1304 C   0  0  2  0  0  0  0  0  0  0  0  0
  -10.2016    0.8127   -0.0557 O   0  0  0  0  0  0  0  0  0  0  0  0
  -12.2307   -0.1647    0.8503 C   0  0  0  0  0  0  0  0  0  0  0  0
  -11.8355    0.0661    2.2106 O   0  0  0  0  0  0  0  0  0  0  0  0
  1  2  1  0  0  0  0
  3  1  1  6  0  0  0
  3  9  1  0  0  0  0
  3  4  1  0  0  0  0
  4  5  1  1  0  0  0
  4  6  1  0  0  0  0
  6  7  1  6  0  0  0
  6  8  1  0  0  0  0
  8  9  1  0  0  0  0
  8 10  1  6  0  0  0
  8 13  1  0  0  0  0
 10 11  1  0  0  0  0
 12 13  1  1  0  0  0
 12 14  1  0  0  0  0
 12 21  1  0  0  0  0
 14 15  1  6  0  0  0
 14 16  1  0  0  0  0
 16 17  1  6  0  0  0
 16 18  1  0  0  0  0
 18 19  1  1  0  0  0
 18 20  1  0  0  0  0
 20 21  1  0  0  0  0
 20 22  1  1  0  0  0
 22 23  1  0  0  0  0
M  END
>  <CHROM.1>
-63.64981279,-64.49019570,-143.41032274,-169.56320724,177.43088873,-10.45993177
2.64331075,0.17846314,1.19350852,0.96044966,1.33006889

>  <Name>
ligand

>  <RI>
0

>  <Rbt.Current_Directory>
/home/itssahil/PROJECTS/Mol_Feturizer/New_Systems/rnas/4TS2

>  <Rbt.Executable>
rbdock ($Id: //depot/dev/client3/rdock/2013.1/src/exe/rbdock.cxx#4 $)

>  <Rbt.Library>
libRbt.so (2013.1, Build901 2013/11/27)

>  <Rbt.Parameter_File>
/export/apps/rDock/src/rDock_2013.1_src/data/scripts/dock_solv.prm

>  <Rbt.Receptor>
prm/blind_docking_100.prm

>  <SCORE>
-12.3721

>  <SCORE.INTER>
-7.38635

>  <SCORE.INTER.CONST>
1

>  <SCORE.INTER.POLAR>
0

>  <SCORE.INTER.ROT>
5

>  <SCORE.INTER.SOLV>
9.16933

>  <SCORE.INTER.VDW>
-14.914

>  <SCORE.INTER.norm>
-0.321146

>  <SCORE.INTRA>
-4.98576

>  <SCORE.INTRA.DIHEDRAL>
-7.14622

>  <SCORE.INTRA.DIHEDRAL.0>
12.4853

>  <SCORE.INTRA.POLAR>
0

>  <SCORE.INTRA.POLAR.0>
0

>  <SCORE.INTRA.REPUL>
0

>  <SCORE.INTRA.REPUL.0>
0

>  <SCORE.INTRA.SOLV>
0.616771

>  <SCORE.INTRA.SOLV.lig_0>
-31.1706

>  <SCORE.INTRA.VDW>
-1.72104

>  <SCORE.INTRA.VDW.0>
-1.16895

>  <SCORE.INTRA.norm>
-0.216772

>  <SCORE.RESTR>
0

>  <SCORE.RESTR.CAVITY>
0

>  <SCORE.RESTR.norm>
0

>  <SCORE.SYSTEM>
0

>  <SCORE.SYSTEM.CONST>
0

>  <SCORE.SYSTEM.DIHEDRAL>
0

>  <SCORE.SYSTEM.SOLV>
0

>  <SCORE.SYSTEM.norm>
0

>  <SCORE.heavy>
23

>  <SCORE.norm>
-0.537918

>  <RMSD>
13.646

$$$$
ligand
 OpenBabel11021811513D
libRbt.so/2013.1/901 2013/11/27
 23 24  0  0  0  0  0  0  0  0999 V2000
   -7.9831    3.9782    1.0718 C   0  0  0  0  0  0  0  0  0  0  0  0
   -7.8625    5.2006    1.8246 O   0  0  0  0  0  0  0  0  0  0  0  0
   -7.9755    4.3086   -0.4139 C   0  0  2  0  0  0  0  0  0  0  0  0
   -9.1195    5.1870   -0.8968 C   0  0  1  0  0  0  0  0  0  0  0  0
   -8.8379    6.5508   -0.5764 O   0  0  0  0  0  0  0  0  0  0  0  0
   -9.1313    4.8920   -2.3930 C   0  0  2  0  0  0  0  0  0  0  0  0
  -10.3308    5.1480   -3.1331 O   0  0  0  0  0  0  0  0  0  0  0  0
   -8.8178    3.4063   -2.4101 C   0  0  2  0  0  0  0  0  0  0  0  0
   -8.0578    3.1266   -1.2153 O   0  0  0  0  0  0  0  0  0  0  0  0
   -8.0234    3.1104   -3.6950 C   0  0  0  0  0  0  0  0  0  0  0  0
   -6.7569    3.7833   -3.7216 O   0  0  0  0  0  0  0  0  0  0  0  0
   -9.8795    1.2681   -2.0513 C   0  0  2  0  0  0  0  0  0  0  0  0
  -10.0496    2.6703   -2.3218 O   0  0  0  0  0  0  0  0  0  0  0  0
  -11.1688    0.5704   -2.4426 C   0  0  2  0  0  0  0  0  0  0  0  0
  -11.5584    1.0010   -3.7514 O   0  0  0  0  0  0  0  0  0  0  0  0
  -12.2795    0.9312   -1.4807 C   0  0  1  0  0  0  0  0  0  0  0  0
  -13.3955    0.0736   -1.7311 O   0  0  0  0  0  0  0  0  0  0  0  0
  -11.8140    0.7788   -0.0451 C   0  0  2  0  0  0  0  0  0  0  0  0
  -12.8200    1.2949    0.8156 O   0  0  0  0  0  0  0  0  0  0  0  0
  -10.5122    1.5249    0.2149 C   0  0  2  0  0  0  0  0  0  0  0  0
   -9.5403    1.0151   -0.6880 O   0  0  0  0  0  0  0  0  0  0  0  0
  -10.0413    1.3500    1.6635 C   0  0  0  0  0  0  0  0  0  0  0  0
  -10.8997    1.9969    2.6145 O   0  0  0  0  0  0  0  0  0  0  0  0
  1  2  1  0  0  0  0
  3  1  1  1  0  0  0
  3  9  1  0  0  0  0
  3  4  1  0  0  0  0
  4  5  1  6  0  0  0
  4  6  1  0  0  0  0
  6  7  1  1  0  0  0
  6  8  1  0  0  0  0
  8  9  1  0  0  0  0
  8 10  1  6  0  0  0
  8 13  1  0  0  0  0
 10 11  1  0  0  0  0
 12 13  1  1  0  0  0
 12 14  1  0  0  0  0
 12 21  1  0  0  0  0
 14 15  1  6  0  0  0
 14 16  1  0  0  0  0
 16 17  1  6  0  0  0
 16 18  1  0  0  0  0
 18 19  1  1  0  0  0
 18 20  1  0  0  0  0
 20 21  1  0  0  0  0
 20 22  1  1  0  0  0
 22 23  1  0  0  0  0
M  END
>  <CHROM.1>
-61.91434699,63.55548726,-161.41184045,-167.80611510,-67.96357596,-9.87013228
2.75973439,-1.06612140,-0.02579553,0.81975468,1.47454436

>  <Name>
ligand

>  <RI>
0

>  <Rbt.Current_Directory>
/home/itssahil/PROJECTS/Mol_Feturizer/New_Systems/rnas/4TS2

>  <Rbt.Executable>
rbdock ($Id: //depot/dev/client3/rdock/2013.1/src/exe/rbdock.cxx#4 $)

>  <Rbt.Library>
libRbt.so (2013.1, Build901 2013/11/27)

>  <Rbt.Parameter_File>
/export/apps/rDock/src/rDock_2013.1_src/data/scripts/dock_solv.prm

>  <Rbt.Receptor>
prm/blind_docking_40.prm

>  <SCORE>
-15.8864

>  <SCORE.INTER>
-9.60752

>  <SCORE.INTER.CONST>
1

>  <SCORE.INTER.POLAR>
0

>  <SCORE.INTER.ROT>
5

>  <SCORE.INTER.SOLV>
12.3947

>  <SCORE.INTER.VDW>
-17.4699

>  <SCORE.INTER.norm>
-0.417718

>  <SCORE.INTRA>
-6.27885

>  <SCORE.INTRA.DIHEDRAL>
-10.0024

>  <SCORE.INTRA.DIHEDRAL.0>
12.4853

>  <SCORE.INTRA.POLAR>
0

>  <SCORE.INTRA.POLAR.0>
0

>  <SCORE.INTRA.REPUL>
0

>  <SCORE.INTRA.REPUL.0>
0

>  <SCORE.INTRA.SOLV>
0.488532

>  <SCORE.INTRA.SOLV.lig_0>
-31.1706

>  <SCORE.INTRA.VDW>
-1.52191

>  <SCORE.INTRA.VDW.0>
-1.16895

>  <SCORE.INTRA.norm>
-0.272993

>  <SCORE.RESTR>
0

>  <SCORE.RESTR.CAVITY>
0

>  <SCORE.RESTR.norm>
0

>  <SCORE.SYSTEM>
0

>  <SCORE.SYSTEM.CONST>
0

>  <SCORE.SYSTEM.DIHEDRAL>
0

>  <SCORE.SYSTEM.SOLV>
0

>  <SCORE.SYSTEM.norm>
0

>  <SCORE.heavy>
23

>  <SCORE.norm>
-0.690712

>  <RMSD>
13.646

$$$$
ligand
 OpenBabel11021811513D
libRbt.so/2013.1/901 2013/11/27
 23 24  0  0  0  0  0  0  0  0999 V2000
   -7.9983    3.9924    1.1183 C   0  0  0  0  0  0  0  0  0  0  0  0
   -7.8720    5.2104    1.8773 O   0  0  0  0  0  0  0  0  0  0  0  0
   -7.9924    4.3305   -0.3657 C   0  0  2  0  0  0  0  0  0  0  0  0
   -9.1406    5.2058   -0.8440 C   0  0  1  0  0  0  0  0  0  0  0  0
   -8.8657    6.5694   -0.5165 O   0  0  0  0  0  0  0  0  0  0  0  0
   -9.1511    4.9186   -2.3417 C   0  0  2  0  0  0  0  0  0  0  0  0
  -10.3519    5.1726   -3.0805 O   0  0  0  0  0  0  0  0  0  0  0  0
   -8.8303    3.4346   -2.3665 C   0  0  2  0  0  0  0  0  0  0  0  0
   -8.0689    3.1523   -1.1732 O   0  0  0  0  0  0  0  0  0  0  0  0
   -8.0346    3.1493   -3.6530 C   0  0  0  0  0  0  0  0  0  0  0  0
   -6.7920    3.8646   -3.6969 O   0  0  0  0  0  0  0  0  0  0  0  0
   -9.8813    1.2883   -2.0250 C   0  0  2  0  0  0  0  0  0  0  0  0
  -10.0585    2.6921   -2.2821 O   0  0  0  0  0  0  0  0  0  0  0  0
  -11.1694    0.5887   -2.4169 C   0  0  2  0  0  0  0  0  0  0  0  0
  -11.5664    1.0294   -3.7201 O   0  0  0  0  0  0  0  0  0  0  0  0
  -12.2774    0.9360   -1.4471 C   0  0  1  0  0  0  0  0  0  0  0  0
  -13.3908    0.0760   -1.7004 O   0  0  0  0  0  0  0  0  0  0  0  0
  -11.8049    0.7727   -0.0150 C   0  0  2  0  0  0  0  0  0  0  0  0
  -12.8094    1.2768    0.8547 O   0  0  0  0  0  0  0  0  0  0  0  0
  -10.5052    1.5220    0.2462 C   0  0  2  0  0  0  0  0  0  0  0  0
   -9.5351    1.0245   -0.6655 O   0  0  0  0  0  0  0  0  0  0  0  0
  -10.0273    1.3360    1.6911 C   0  0  0  0  0  0  0  0  0  0  0  0
  -10.9073    1.9337    2.6545 O   0  0  0  0  0  0  0  0  0  0  0  0
  1  2  1  0  0  0  0
  3  1  1  1  0  0  0
  3  9  1  0  0  0  0
  3  4  1  0  0  0  0
  4  5  1  6  0  0  0
  4  6  1  0  0  0  0
  6  7  1  1  0  0  0
  6  8  1  0  0  0  0
  8  9  1  0  0  0  0
  8 10  1  6  0  0  0
  8 13  1  0  0  0  0
 10 11  1  0  0  0  0
 12 13  1  1  0  0  0
 12 14  1  0  0  0  0
 12 21  1  0  0  0  0
 14 15  1  6  0  0  0
 14 16  1  0  0  0  0
 16 17  1  6  0  0  0
 16 18  1  0  0  0  0
 18 19  1  1  0  0  0
 18 20  1  0  0  0  0
 20 21  1  0  0  0  0
 20 22  1  1  0  0  0
 22 23  1  0  0  0  0
M  END
>  <CHROM.1>
-62.40753145,61.54454207,-161.52305144,-168.07665468,-66.06910399,-9.87793434
2.77307634,-1.02718132,-0.03716163,0.82717393,1.48873758

>  <Name>
ligand

>  <RI>
0

>  <Rbt.Current_Directory>
/home/itssahil/PROJECTS/Mol_Feturizer/New_Systems/rnas/4TS2

>  <Rbt.Executable>
rbdock ($Id: //depot/dev/client3/rdock/2013.1/src/exe/rbdock.cxx#4 $)

>  <Rbt.Library>
libRbt.so (2013.1, Build901 2013/11/27)

>  <Rbt.Parameter_File>
/export/apps/rDock/src/rDock_2013.1_src/data/scripts/dock_solv.prm

>  <Rbt.Receptor>
prm/blind_docking_20.prm

>  <SCORE>
-15.9324

>  <SCORE.INTER>
-9.6179

>  <SCORE.INTER.CONST>
1

>  <SCORE.INTER.POLAR>
0

>  <SCORE.INTER.ROT>
5

>  <SCORE.INTER.SOLV>
12.2531

>  <SCORE.INTER.VDW>
-17.4296

>  <SCORE.INTER.norm>
-0.41817

>  <SCORE.INTRA>
-6.3145

>  <SCORE.INTRA.DIHEDRAL>
-10.1818

>  <SCORE.INTRA.DIHEDRAL.0>
12.4853

>  <SCORE.INTRA.POLAR>
0

>  <SCORE.INTRA.POLAR.0>
0

>  <SCORE.INTRA.REPUL>
0

>  <SCORE.INTRA.REPUL.0>
0

>  <SCORE.INTRA.SOLV>
0.494439

>  <SCORE.INTRA.SOLV.lig_0>
-31.1706

>  <SCORE.INTRA.VDW>
-1.4708

>  <SCORE.INTRA.VDW.0>
-1.16895

>  <SCORE.INTRA.norm>
-0.274544

>  <SCORE.RESTR>
0

>  <SCORE.RESTR.CAVITY>
0

>  <SCORE.RESTR.norm>
0

>  <SCORE.SYSTEM>
0

>  <SCORE.SYSTEM.CONST>
0

>  <SCORE.SYSTEM.DIHEDRAL>
0

>  <SCORE.SYSTEM.SOLV>
0

>  <SCORE.SYSTEM.norm>
0

>  <SCORE.heavy>
23

>  <SCORE.norm>
-0.692713

>  <RMSD>
13.654

$$$$
ligand
 OpenBabel11021811513D
libRbt.so/2013.1/901 2013/11/27
 23 24  0  0  0  0  0  0  0  0999 V2000
   -7.8877    3.9920    1.0408 C   0  0  0  0  0  0  0  0  0  0  0  0
   -7.7516    5.2092    1.7993 O   0  0  0  0  0  0  0  0  0  0  0  0
   -7.9169    4.3331   -0.4422 C   0  0  2  0  0  0  0  0  0  0  0  0
   -9.0754    5.2104   -0.8913 C   0  0  1  0  0  0  0  0  0  0  0  0
   -8.7913    6.5731   -0.5677 O   0  0  0  0  0  0  0  0  0  0  0  0
   -9.1219    4.9262   -2.3888 C   0  0  2  0  0  0  0  0  0  0  0  0
  -10.3398    5.1828   -3.0982 O   0  0  0  0  0  0  0  0  0  0  0  0
   -8.8034    3.4419   -2.4242 C   0  0  2  0  0  0  0  0  0  0  0  0
   -8.0140    3.1565   -1.2499 O   0  0  0  0  0  0  0  0  0  0  0  0
   -8.0389    3.1583   -3.7299 C   0  0  0  0  0  0  0  0  0  0  0  0
   -6.8027    3.8818   -3.8074 O   0  0  0  0  0  0  0  0  0  0  0  0
   -9.8484    1.2993   -2.0435 C   0  0  2  0  0  0  0  0  0  0  0  0
  -10.0299    2.7004   -2.3118 O   0  0  0  0  0  0  0  0  0  0  0  0
  -11.1404    0.5949   -2.4137 C   0  0  2  0  0  0  0  0  0  0  0  0
  -11.5530    1.0228   -3.7163 O   0  0  0  0  0  0  0  0  0  0  0  0
  -12.2373    0.9505   -1.4344 C   0  0  1  0  0  0  0  0  0  0  0  0
  -13.3528    0.0872   -1.6665 O   0  0  0  0  0  0  0  0  0  0  0  0
  -11.7481    0.8013   -0.0064 C   0  0  2  0  0  0  0  0  0  0  0  0
  -12.7429    1.3128    0.8701 O   0  0  0  0  0  0  0  0  0  0  0  0
  -10.4462    1.5541    0.2325 C   0  0  2  0  0  0  0  0  0  0  0  0
   -9.4863    1.0488   -0.6857 O   0  0  0  0  0  0  0  0  0  0  0  0
   -9.9513    1.3824    1.6735 C   0  0  0  0  0  0  0  0  0  0  0  0
  -10.8269    1.9779    2.6422 O   0  0  0  0  0  0  0  0  0  0  0  0
  1  2  1  0  0  0  0
  3  1  1  1  0  0  0
  3  9  1  0  0  0  0
  3  4  1  0  0  0  0
  4  5  1  6  0  0  0
  4  6  1  0  0  0  0
  6  7  1  1  0  0  0
  6  8  1  0  0  0  0
  8  9  1  0  0  0  0
  8 10  1  6  0  0  0
  8 13  1  0  0  0  0
 10 11  1  0  0  0  0
 12 13  1  1  0  0  0
 12 14  1  0  0  0  0
 12 21  1  0  0  0  0
 14 15  1  6  0  0  0
 14 16  1  0  0  0  0
 16 17  1  1  0  0  0
 16 18  1  0  0  0  0
 18 19  1  1  0  0  0
 18 20  1  0  0  0  0
 20 21  1  0  0  0  0
 20 22  1  1  0  0  0
 22 23  1  0  0  0  0
M  END
>  <CHROM.1>
-62.00244711,61.02048961,-161.23209633,-167.26304022,-65.53144134,-9.82899680
2.78708030,-1.05986506,-0.06250968,0.82393215,1.50065587

>  <Name>
ligand

>  <RI>
0

>  <Rbt.Current_Directory>
/home/itssahil/PROJECTS/Mol_Feturizer/New_Systems/rnas/4TS2

>  <Rbt.Executable>
rbdock ($Id: //depot/dev/client3/rdock/2013.1/src/exe/rbdock.cxx#4 $)

>  <Rbt.Library>
libRbt.so (2013.1, Build901 2013/11/27)

>  <Rbt.Parameter_File>
/export/apps/rDock/src/rDock_2013.1_src/data/scripts/dock_solv.prm

>  <Rbt.Receptor>
prm/blind_docking_40.prm

>  <SCORE>
-15.9867

>  <SCORE.INTER>
-9.74638

>  <SCORE.INTER.CONST>
1

>  <SCORE.INTER.POLAR>
0

>  <SCORE.INTER.ROT>
5

>  <SCORE.INTER.SOLV>
12.3455

>  <SCORE.INTER.VDW>
-17.5461

>  <SCORE.INTER.norm>
-0.423756

>  <SCORE.INTRA>
-6.24032

>  <SCORE.INTRA.DIHEDRAL>
-10.0919

>  <SCORE.INTRA.DIHEDRAL.0>
12.4853

>  <SCORE.INTRA.POLAR>
0

>  <SCORE.INTRA.POLAR.0>
0

>  <SCORE.INTRA.REPUL>
0

>  <SCORE.INTRA.REPUL.0>
0

>  <SCORE.INTRA.SOLV>
0.504083

>  <SCORE.INTRA.SOLV.lig_0>
-31.1706

>  <SCORE.INTRA.VDW>
-1.44641

>  <SCORE.INTRA.VDW.0>
-1.16895

>  <SCORE.INTRA.norm>
-0.271318

>  <SCORE.RESTR>
0

>  <SCORE.RESTR.CAVITY>
0

>  <SCORE.RESTR.norm>
0

>  <SCORE.SYSTEM>
0

>  <SCORE.SYSTEM.CONST>
0

>  <SCORE.SYSTEM.DIHEDRAL>
0

>  <SCORE.SYSTEM.SOLV>
0

>  <SCORE.SYSTEM.norm>
0

>  <SCORE.heavy>
23

>  <SCORE.norm>
-0.695074

>  <RMSD>
13.659

$$$$
ligand
 OpenBabel11021811513D
libRbt.so/2013.1/901 2013/11/27
 23 24  0  0  0  0  0  0  0  0999 V2000
   -8.0256    3.9930    1.1604 C   0  0  0  0  0  0  0  0  0  0  0  0
   -7.9427    5.2087    1.9289 O   0  0  0  0  0  0  0  0  0  0  0  0
   -8.0129    4.3414   -0.3211 C   0  0  2  0  0  0  0  0  0  0  0  0
   -9.1629    5.2141   -0.8000 C   0  0  1  0  0  0  0  0  0  0  0  0
   -8.8969    6.5767   -0.4614 O   0  0  0  0  0  0  0  0  0  0  0  0
   -9.1633    4.9373   -2.2996 C   0  0  2  0  0  0  0  0  0  0  0  0
  -10.3611    5.1902   -3.0435 O   0  0  0  0  0  0  0  0  0  0  0  0
   -8.8347    3.4552   -2.3329 C   0  0  2  0  0  0  0  0  0  0  0  0
   -8.0787    3.1685   -1.1372 O   0  0  0  0  0  0  0  0  0  0  0  0
   -8.0301    3.1829   -3.6167 C   0  0  0  0  0  0  0  0  0  0  0  0
   -6.7767    3.8802   -3.6343 O   0  0  0  0  0  0  0  0  0  0  0  0
   -9.8766    1.3018   -2.0084 C   0  0  2  0  0  0  0  0  0  0  0  0
  -10.0594    2.7057   -2.2607 O   0  0  0  0  0  0  0  0  0  0  0  0
  -11.1567    0.5966   -2.4160 C   0  0  2  0  0  0  0  0  0  0  0  0
  -11.5438    1.0412   -3.7210 O   0  0  0  0  0  0  0  0  0  0  0  0
  -12.2760    0.9330   -1.4554 C   0  0  1  0  0  0  0  0  0  0  0  0
  -13.3820    0.0678   -1.7234 O   0  0  0  0  0  0  0  0  0  0  0  0
  -11.8165    0.7657   -0.0195 C   0  0  2  0  0  0  0  0  0  0  0  0
  -12.8322    1.2599    0.8427 O   0  0  0  0  0  0  0  0  0  0  0  0
  -10.5237    1.5212    0.2576 C   0  0  2  0  0  0  0  0  0  0  0  0
   -9.5420    1.0336   -0.6469 O   0  0  0  0  0  0  0  0  0  0  0  0
  -10.0587    1.3313    1.7063 C   0  0  0  0  0  0  0  0  0  0  0  0
  -10.9580    1.9080    2.6645 O   0  0  0  0  0  0  0  0  0  0  0  0
  1  2  1  0  0  0  0
  3  1  1  1  0  0  0
  3  9  1  0  0  0  0
  3  4  1  0  0  0  0
  4  5  1  6  0  0  0
  4  6  1  0  0  0  0
  6  7  1  1  0  0  0
  6  8  1  0  0  0  0
  8  9  1  0  0  0  0
  8 10  1  6  0  0  0
  8 13  1  0  0  0  0
 10 11  1  0  0  0  0
 12 13  1  1  0  0  0
 12 14  1  0  0  0  0
 12 21  1  0  0  0  0
 14 15  1  6  0  0  0
 14 16  1  0  0  0  0
 16 17  1  6  0  0  0
 16 18  1  0  0  0  0
 18 19  1  1  0  0  0
 18 20  1  0  0  0  0
 20 21  1  0  0  0  0
 20 22  1  1  0  0  0
 22 23  1  0  0  0  0
M  END
>  <CHROM.1>
-61.02539651,62.92381357,-161.38594468,-167.90280476,-65.49630974,-9.89038999
2.77880631,-1.00404822,-0.02291843,0.83075912,1.48118017

>  <Name>
ligand

>  <RI>
0

>  <Rbt.Current_Directory>
/home/itssahil/PROJECTS/Mol_Feturizer/New_Systems/rnas/4TS2

>  <Rbt.Executable>
rbdock ($Id: //depot/dev/client3/rdock/2013.1/src/exe/rbdock.cxx#4 $)

>  <Rbt.Library>
libRbt.so (2013.1, Build901 2013/11/27)

>  <Rbt.Parameter_File>
/export/apps/rDock/src/rDock_2013.1_src/data/scripts/dock_solv.prm

>  <Rbt.Receptor>
prm/blind_docking_100.prm

>  <SCORE>
-15.9326

>  <SCORE.INTER>
-9.64182

>  <SCORE.INTER.CONST>
1

>  <SCORE.INTER.POLAR>
0

>  <SCORE.INTER.ROT>
5

>  <SCORE.INTER.SOLV>
12.0986

>  <SCORE.INTER.VDW>
-17.3941

>  <SCORE.INTER.norm>
-0.41921

>  <SCORE.INTRA>
-6.29078

>  <SCORE.INTRA.DIHEDRAL>
-10.1539

>  <SCORE.INTRA.DIHEDRAL.0>
12.4853

>  <SCORE.INTRA.POLAR>
0

>  <SCORE.INTRA.POLAR.0>
0

>  <SCORE.INTRA.REPUL>
0

>  <SCORE.INTRA.REPUL.0>
0

>  <SCORE.INTRA.SOLV>
0.500255

>  <SCORE.INTRA.SOLV.lig_0>
-31.1706

>  <SCORE.INTRA.VDW>
-1.46395

>  <SCORE.INTRA.VDW.0>
-1.16895

>  <SCORE.INTRA.norm>
-0.273512

>  <SCORE.RESTR>
0

>  <SCORE.RESTR.CAVITY>
0

>  <SCORE.RESTR.norm>
0

>  <SCORE.SYSTEM>
0

>  <SCORE.SYSTEM.CONST>
0

>  <SCORE.SYSTEM.DIHEDRAL>
0

>  <SCORE.SYSTEM.SOLV>
0

>  <SCORE.SYSTEM.norm>
0

>  <SCORE.heavy>
23

>  <SCORE.norm>
-0.692722

>  <RMSD>
13.660

$$$$
ligand
 OpenBabel11021811513D
libRbt.so/2013.1/901 2013/11/27
 23 24  0  0  0  0  0  0  0  0999 V2000
   -7.6094    4.1158    0.9289 C   0  0  0  0  0  0  0  0  0  0  0  0
   -7.3157    5.3640    1.5856 O   0  0  0  0  0  0  0  0  0  0  0  0
   -7.7586    4.3651   -0.5651 C   0  0  2  0  0  0  0  0  0  0  0  0
   -8.9297    5.2475   -0.9696 C   0  0  1  0  0  0  0  0  0  0  0  0
   -8.5850    6.6184   -0.7596 O   0  0  0  0  0  0  0  0  0  0  0  0
   -9.1129    4.8726   -2.4363 C   0  0  2  0  0  0  0  0  0  0  0  0
  -10.3809    5.1214   -3.0547 O   0  0  0  0  0  0  0  0  0  0  0  0
   -8.8353    3.3801   -2.4032 C   0  0  2  0  0  0  0  0  0  0  0  0
   -7.9544    3.1443   -1.2844 O   0  0  0  0  0  0  0  0  0  0  0  0
   -8.1942    2.9933   -3.7482 C   0  0  0  0  0  0  0  0  0  0  0  0
   -6.9415    3.6569   -3.9673 O   0  0  0  0  0  0  0  0  0  0  0  0
   -9.9026    1.2802   -1.8749 C   0  0  2  0  0  0  0  0  0  0  0  0
  -10.0655    2.6843   -2.1396 O   0  0  0  0  0  0  0  0  0  0  0  0
  -11.1602    0.5789   -2.3535 C   0  0  2  0  0  0  0  0  0  0  0  0
  -11.4706    1.0223   -3.6791 O   0  0  0  0  0  0  0  0  0  0  0  0
  -12.3311    0.9213   -1.4587 C   0  0  1  0  0  0  0  0  0  0  0  0
  -13.4232    0.0597   -1.7878 O   0  0  0  0  0  0  0  0  0  0  0  0
  -11.9547    0.7551    0.0012 C   0  0  2  0  0  0  0  0  0  0  0  0
  -13.0160    1.2548    0.8034 O   0  0  0  0  0  0  0  0  0  0  0  0
  -10.6770    1.5064    0.3502 C   0  0  2  0  0  0  0  0  0  0  0  0
   -9.6472    1.0134   -0.4961 O   0  0  0  0  0  0  0  0  0  0  0  0
  -10.2959    1.3176    1.8234 C   0  0  0  0  0  0  0  0  0  0  0  0
   -9.1474    2.0871    2.2089 O   0  0  0  0  0  0  0  0  0  0  0  0
  1  2  1  0  0  0  0
  3  1  1  1  0  0  0
  3  9  1  0  0  0  0
  3  4  1  0  0  0  0
  4  5  1  6  0  0  0
  4  6  1  0  0  0  0
  6  7  1  1  0  0  0
  6  8  1  0  0  0  0
  8  9  1  0  0  0  0
  8 10  1  6  0  0  0
  8 13  1  0  0  0  0
 10 11  1  0  0  0  0
 12 13  1  1  0  0  0
 12 14  1  0  0  0  0
 12 21  1  0  0  0  0
 14 15  1  6  0  0  0
 14 16  1  0  0  0  0
 16 17  1  6  0  0  0
 16 18  1  0  0  0  0
 18 19  1  1  0  0  0
 18 20  1  0  0  0  0
 20 21  1  0  0  0  0
 20 22  1  1  0  0  0
 22 23  1  0  0  0  0
M  END
>  <CHROM.1>
-64.66690428,61.94309677,-149.81257863,-170.71143200,-175.94755219,-9.76734957
2.76878726,-1.09241261,-0.05876071,0.79700936,1.62031687

>  <Name>
ligand

>  <RI>
0

>  <Rbt.Current_Directory>
/home/itssahil/PROJECTS/Mol_Feturizer/New_Systems/rnas/4TS2

>  <Rbt.Executable>
rbdock ($Id: //depot/dev/client3/rdock/2013.1/src/exe/rbdock.cxx#4 $)

>  <Rbt.Library>
libRbt.so (2013.1, Build901 2013/11/27)

>  <Rbt.Parameter_File>
/export/apps/rDock/src/rDock_2013.1_src/data/scripts/dock_solv.prm

>  <Rbt.Receptor>
prm/blind_docking_20.prm

>  <SCORE>
-14.5804

>  <SCORE.INTER>
-9.29594

>  <SCORE.INTER.CONST>
1

>  <SCORE.INTER.POLAR>
0

>  <SCORE.INTER.ROT>
5

>  <SCORE.INTER.SOLV>
13.5261

>  <SCORE.INTER.VDW>
-17.6393

>  <SCORE.INTER.norm>
-0.404171

>  <SCORE.INTRA>
-5.28442

>  <SCORE.INTRA.DIHEDRAL>
-8.35704

>  <SCORE.INTRA.DIHEDRAL.0>
12.4853

>  <SCORE.INTRA.POLAR>
0

>  <SCORE.INTRA.POLAR.0>
0

>  <SCORE.INTRA.REPUL>
0

>  <SCORE.INTRA.REPUL.0>
0

>  <SCORE.INTRA.SOLV>
0.459801

>  <SCORE.INTRA.SOLV.lig_0>
-31.1706

>  <SCORE.INTRA.VDW>
-1.3358

>  <SCORE.INTRA.VDW.0>
-1.16895

>  <SCORE.INTRA.norm>
-0.229757

>  <SCORE.RESTR>
0

>  <SCORE.RESTR.CAVITY>
0

>  <SCORE.RESTR.norm>
0

>  <SCORE.SYSTEM>
0

>  <SCORE.SYSTEM.CONST>
0

>  <SCORE.SYSTEM.DIHEDRAL>
0

>  <SCORE.SYSTEM.SOLV>
0

>  <SCORE.SYSTEM.norm>
0

>  <SCORE.heavy>
23

>  <SCORE.norm>
-0.633929

>  <RMSD>
13.660

$$$$
ligand
 OpenBabel11021811513D
libRbt.so/2013.1/901 2013/11/27
 23 24  0  0  0  0  0  0  0  0999 V2000
  -10.7618    3.8417    3.6790 C   0  0  0  0  0  0  0  0  0  0  0  0
  -11.2989    4.9554    4.4183 O   0  0  0  0  0  0  0  0  0  0  0  0
   -9.7263    4.3569    2.6896 C   0  0  2  0  0  0  0  0  0  0  0  0
  -10.2553    5.2932    1.6139 C   0  0  1  0  0  0  0  0  0  0  0  0
  -10.4084    6.6047    2.1603 O   0  0  0  0  0  0  0  0  0  0  0  0
   -9.1706    5.1895    0.5470 C   0  0  2  0  0  0  0  0  0  0  0  0
   -9.4998    5.5410   -0.8022 O   0  0  0  0  0  0  0  0  0  0  0  0
   -8.8091    3.7168    0.6264 C   0  0  2  0  0  0  0  0  0  0  0  0
   -9.1077    3.2859    1.9712 O   0  0  0  0  0  0  0  0  0  0  0  0
   -7.3142    3.5828    0.2842 C   0  0  0  0  0  0  0  0  0  0  0  0
   -7.0297    3.9468   -1.0738 O   0  0  0  0  0  0  0  0  0  0  0  0
   -9.5145    1.5521   -0.1761 C   0  0  2  0  0  0  0  0  0  0  0  0
   -9.6637    2.9797   -0.2642 O   0  0  0  0  0  0  0  0  0  0  0  0
  -10.0895    0.9560   -1.4475 C   0  0  2  0  0  0  0  0  0  0  0  0
   -9.5608    1.6588   -2.5775 O   0  0  0  0  0  0  0  0  0  0  0  0
  -11.5952    1.1019   -1.4675 C   0  0  1  0  0  0  0  0  0  0  0  0
  -12.1145    0.3193   -2.5451 O   0  0  0  0  0  0  0  0  0  0  0  0
  -12.1942    0.6435   -0.1515 C   0  0  2  0  0  0  0  0  0  0  0  0
  -13.5789    0.9629   -0.1472 O   0  0  0  0  0  0  0  0  0  0  0  0
  -11.5296    1.3151    1.0427 C   0  0  2  0  0  0  0  0  0  0  0  0
  -10.1425    1.0110    0.9861 O   0  0  0  0  0  0  0  0  0  0  0  0
  -12.1302    0.8318    2.3682 C   0  0  0  0  0  0  0  0  0  0  0  0
  -11.9750   -0.5802    2.5727 O   0  0  0  0  0  0  0  0  0  0  0  0
  1  2  1  0  0  0  0
  3  1  1  6  0  0  0
  3  9  1  0  0  0  0
  3  4  1  0  0  0  0
  4  5  1  1  0  0  0
  4  6  1  0  0  0  0
  6  7  1  6  0  0  0
  6  8  1  0  0  0  0
  8  9  1  0  0  0  0
  8 10  1  6  0  0  0
  8 13  1  0  0  0  0
 10 11  1  0  0  0  0
 12 13  1  6  0  0  0
 12 14  1  0  0  0  0
 12 21  1  0  0  0  0
 14 15  1  6  0  0  0
 14 16  1  0  0  0  0
 16 17  1  6  0  0  0
 16 18  1  0  0  0  0
 18 19  1  6  0  0  0
 18 20  1  0  0  0  0
 20 21  1  0  0  0  0
 20 22  1  1  0  0  0
 22 23  1  0  0  0  0
M  END
>  <CHROM.1>
-63.31739629,-65.57967021,-161.01352639,-173.79768609,60.69924869,-10.33425525
2.74384280,0.61636699,0.98817298,0.80856271,0.94501856

>  <Name>
ligand

>  <RI>
0

>  <Rbt.Current_Directory>
/home/itssahil/PROJECTS/Mol_Feturizer/New_Systems/rnas/4TS2

>  <Rbt.Executable>
rbdock ($Id: //depot/dev/client3/rdock/2013.1/src/exe/rbdock.cxx#4 $)

>  <Rbt.Library>
libRbt.so (2013.1, Build901 2013/11/27)

>  <Rbt.Parameter_File>
/export/apps/rDock/src/rDock_2013.1_src/data/scripts/dock_solv.prm

>  <Rbt.Receptor>
prm/blind_docking_80.prm

>  <SCORE>
-11.492

>  <SCORE.INTER>
-4.78258

>  <SCORE.INTER.CONST>
1

>  <SCORE.INTER.POLAR>
0

>  <SCORE.INTER.ROT>
5

>  <SCORE.INTER.SOLV>
8.72218

>  <SCORE.INTER.VDW>
-13.0291

>  <SCORE.INTER.norm>
-0.207938

>  <SCORE.INTRA>
-6.70942

>  <SCORE.INTRA.DIHEDRAL>
-10.5792

>  <SCORE.INTRA.DIHEDRAL.0>
12.4853

>  <SCORE.INTRA.POLAR>
0

>  <SCORE.INTRA.POLAR.0>
0

>  <SCORE.INTRA.REPUL>
0

>  <SCORE.INTRA.REPUL.0>
0

>  <SCORE.INTRA.SOLV>
0.551409

>  <SCORE.INTRA.SOLV.lig_0>
-31.1706

>  <SCORE.INTRA.VDW>
-1.69551

>  <SCORE.INTRA.VDW.0>
-1.16895

>  <SCORE.INTRA.norm>
-0.291714

>  <SCORE.RESTR>
0

>  <SCORE.RESTR.CAVITY>
0

>  <SCORE.RESTR.norm>
0

>  <SCORE.SYSTEM>
0

>  <SCORE.SYSTEM.CONST>
0

>  <SCORE.SYSTEM.DIHEDRAL>
0

>  <SCORE.SYSTEM.SOLV>
0

>  <SCORE.SYSTEM.norm>
0

>  <SCORE.heavy>
23

>  <SCORE.norm>
-0.499652

>  <RMSD>
13.666

$$$$
ligand
 OpenBabel11021811513D
libRbt.so/2013.1/901 2013/11/27
 23 24  0  0  0  0  0  0  0  0999 V2000
   -8.0581    4.2901    1.0581 C   0  0  0  0  0  0  0  0  0  0  0  0
   -6.7823    3.7541    1.4588 O   0  0  0  0  0  0  0  0  0  0  0  0
   -8.0394    4.5447   -0.4423 C   0  0  2  0  0  0  0  0  0  0  0  0
   -9.1976    5.3695   -0.9826 C   0  0  1  0  0  0  0  0  0  0  0  0
   -8.9523    6.7543   -0.7289 O   0  0  0  0  0  0  0  0  0  0  0  0
   -9.1834    4.9988   -2.4617 C   0  0  2  0  0  0  0  0  0  0  0  0
  -10.3790    5.1878   -3.2278 O   0  0  0  0  0  0  0  0  0  0  0  0
   -8.8346    3.5222   -2.3994 C   0  0  2  0  0  0  0  0  0  0  0  0
   -8.0835    3.3219   -1.1832 O   0  0  0  0  0  0  0  0  0  0  0  0
   -8.0172    3.1808   -3.6583 C   0  0  0  0  0  0  0  0  0  0  0  0
   -6.7912    3.9220   -3.7314 O   0  0  0  0  0  0  0  0  0  0  0  0
   -9.8464    1.3607   -2.0362 C   0  0  2  0  0  0  0  0  0  0  0  0
  -10.0497    2.7619   -2.2879 O   0  0  0  0  0  0  0  0  0  0  0  0
  -11.1262    0.6404   -2.4177 C   0  0  2  0  0  0  0  0  0  0  0  0
  -11.5432    1.0776   -3.7159 O   0  0  0  0  0  0  0  0  0  0  0  0
  -12.2306    0.9666   -1.4364 C   0  0  1  0  0  0  0  0  0  0  0  0
  -13.3318    0.0886   -1.6813 O   0  0  0  0  0  0  0  0  0  0  0  0
  -11.7417    0.8077   -0.0093 C   0  0  2  0  0  0  0  0  0  0  0  0
  -12.7461    1.2927    0.8713 O   0  0  0  0  0  0  0  0  0  0  0  0
  -10.4524    1.5782    0.2414 C   0  0  2  0  0  0  0  0  0  0  0  0
   -9.4828    1.0994   -0.6808 O   0  0  0  0  0  0  0  0  0  0  0  0
   -9.9575    1.3968    1.6812 C   0  0  0  0  0  0  0  0  0  0  0  0
  -10.8178    2.0113    2.6518 O   0  0  0  0  0  0  0  0  0  0  0  0
  1  2  1  0  0  0  0
  3  1  1  1  0  0  0
  3  9  1  0  0  0  0
  3  4  1  0  0  0  0
  4  5  1  6  0  0  0
  4  6  1  0  0  0  0
  6  7  1  1  0  0  0
  6  8  1  0  0  0  0
  8  9  1  0  0  0  0
  8 10  1  6  0  0  0
  8 13  1  0  0  0  0
 10 11  1  0  0  0  0
 12 13  1  1  0  0  0
 12 14  1  0  0  0  0
 12 21  1  0  0  0  0
 14 15  1  6  0  0  0
 14 16  1  0  0  0  0
 16 17  1  6  0  0  0
 16 18  1  0  0  0  0
 18 19  1  1  0  0  0
 18 20  1  0  0  0  0
 20 21  1  0  0  0  0
 20 22  1  1  0  0  0
 22 23  1  0  0  0  0
M  END
>  <CHROM.1>
-168.01146250,61.22050927,-160.75659830,-171.90997955,-67.79256010,-9.81263894
2.78507246,-1.08321677,-0.22896649,0.79008999,1.65313310

>  <Name>
ligand

>  <RI>
0

>  <Rbt.Current_Directory>
/home/itssahil/PROJECTS/Mol_Feturizer/New_Systems/rnas/4TS2

>  <Rbt.Executable>
rbdock ($Id: //depot/dev/client3/rdock/2013.1/src/exe/rbdock.cxx#4 $)

>  <Rbt.Library>
libRbt.so (2013.1, Build901 2013/11/27)

>  <Rbt.Parameter_File>
/export/apps/rDock/src/rDock_2013.1_src/data/scripts/dock_solv.prm

>  <Rbt.Receptor>
prm/blind_docking_40.prm

>  <SCORE>
-14.7802

>  <SCORE.INTER>
-8.32974

>  <SCORE.INTER.CONST>
1

>  <SCORE.INTER.POLAR>
0

>  <SCORE.INTER.ROT>
5

>  <SCORE.INTER.SOLV>
13.1715

>  <SCORE.INTER.VDW>
-16.877

>  <SCORE.INTER.norm>
-0.362163

>  <SCORE.INTRA>
-6.45045

>  <SCORE.INTRA.DIHEDRAL>
-9.81192

>  <SCORE.INTRA.DIHEDRAL.0>
12.4853

>  <SCORE.INTRA.POLAR>
0

>  <SCORE.INTRA.POLAR.0>
0

>  <SCORE.INTRA.REPUL>
0

>  <SCORE.INTRA.REPUL.0>
0

>  <SCORE.INTRA.SOLV>
0.171397

>  <SCORE.INTRA.SOLV.lig_0>
-31.1706

>  <SCORE.INTRA.VDW>
-1.63019

>  <SCORE.INTRA.VDW.0>
-1.16895

>  <SCORE.INTRA.norm>
-0.280455

>  <SCORE.RESTR>
0

>  <SCORE.RESTR.CAVITY>
0

>  <SCORE.RESTR.norm>
0

>  <SCORE.SYSTEM>
0

>  <SCORE.SYSTEM.CONST>
0

>  <SCORE.SYSTEM.DIHEDRAL>
0

>  <SCORE.SYSTEM.SOLV>
0

>  <SCORE.SYSTEM.norm>
0

>  <SCORE.heavy>
23

>  <SCORE.norm>
-0.642617

>  <RMSD>
13.670

$$$$
ligand
 OpenBabel11021811513D
libRbt.so/2013.1/901 2013/11/27
 23 24  0  0  0  0  0  0  0  0999 V2000
  -10.3765    0.5156   -2.5795 C   0  0  0  0  0  0  0  0  0  0  0  0
  -11.3487    0.3700   -3.6326 O   0  0  0  0  0  0  0  0  0  0  0  0
  -11.0552    0.2650   -1.2405 C   0  0  2  0  0  0  0  0  0  0  0  0
  -12.3553    1.0207   -1.0120 C   0  0  1  0  0  0  0  0  0  0  0  0
  -13.4184    0.3518   -1.6936 O   0  0  0  0  0  0  0  0  0  0  0  0
  -12.4753    0.9860    0.5078 C   0  0  2  0  0  0  0  0  0  0  0  0
  -13.2946    1.9676    1.1538 O   0  0  0  0  0  0  0  0  0  0  0  0
  -11.0268    1.1601    0.9289 C   0  0  2  0  0  0  0  0  0  0  0  0
  -10.2147    0.6432   -0.1466 O   0  0  0  0  0  0  0  0  0  0  0  0
  -10.8249    0.3846    2.2432 C   0  0  0  0  0  0  0  0  0  0  0  0
  -11.6805    0.8569    3.2932 O   0  0  0  0  0  0  0  0  0  0  0  0
   -9.3415    2.8784    1.1158 C   0  0  2  0  0  0  0  0  0  0  0  0
  -10.7432    2.5644    1.0489 O   0  0  0  0  0  0  0  0  0  0  0  0
   -9.1068    3.6349    2.4100 C   0  0  2  0  0  0  0  0  0  0  0  0
   -9.7304    2.9281    3.4878 O   0  0  0  0  0  0  0  0  0  0  0  0
   -9.7224    5.0149    2.3363 C   0  0  1  0  0  0  0  0  0  0  0  0
   -9.2724    5.7752    3.4601 O   0  0  0  0  0  0  0  0  0  0  0  0
   -9.3298    5.7071    1.0449 C   0  0  2  0  0  0  0  0  0  0  0  0
  -10.0678    6.9166    0.9356 O   0  0  0  0  0  0  0  0  0  0  0  0
   -9.6161    4.8428   -0.1756 C   0  0  2  0  0  0  0  0  0  0  0  0
   -8.8978    3.6270   -0.0158 O   0  0  0  0  0  0  0  0  0  0  0  0
   -9.1996    5.5442   -1.4739 C   0  0  0  0  0  0  0  0  0  0  0  0
   -7.7848    5.7679   -1.5618 O   0  0  0  0  0  0  0  0  0  0  0  0
  1  2  1  0  0  0  0
  3  1  1  6  0  0  0
  3  9  1  0  0  0  0
  3  4  1  0  0  0  0
  4  5  1  6  0  0  0
  4  6  1  0  0  0  0
  6  7  1  1  0  0  0
  6  8  1  0  0  0  0
  8  9  1  0  0  0  0
  8 10  1  1  0  0  0
  8 13  1  0  0  0  0
 10 11  1  0  0  0  0
 12 13  1  6  0  0  0
 12 14  1  0  0  0  0
 12 21  1  0  0  0  0
 14 15  1  1  0  0  0
 14 16  1  0  0  0  0
 16 17  1  1  0  0  0
 16 18  1  0  0  0  0
 18 19  1  6  0  0  0
 18 20  1  0  0  0  0
 20 21  1  0  0  0  0
 20 22  1  6  0  0  0
 22 23  1  0  0  0  0
M  END
>  <CHROM.1>
-49.20616708,-59.72560091,-122.37671858,-165.38878684,64.48731156,-10.47958320
2.78132852,0.45462194,-2.61224993,1.03880458,1.41962369

>  <Name>
ligand

>  <RI>
0

>  <Rbt.Current_Directory>
/home/itssahil/PROJECTS/Mol_Feturizer/New_Systems/rnas/4TS2

>  <Rbt.Executable>
rbdock ($Id: //depot/dev/client3/rdock/2013.1/src/exe/rbdock.cxx#4 $)

>  <Rbt.Library>
libRbt.so (2013.1, Build901 2013/11/27)

>  <Rbt.Parameter_File>
/export/apps/rDock/src/rDock_2013.1_src/data/scripts/dock_solv.prm

>  <Rbt.Receptor>
prm/blind_docking_60.prm

>  <SCORE>
-6.63022

>  <SCORE.INTER>
-4.03729

>  <SCORE.INTER.CONST>
1

>  <SCORE.INTER.POLAR>
0

>  <SCORE.INTER.ROT>
5

>  <SCORE.INTER.SOLV>
9.44035

>  <SCORE.INTER.VDW>
-12.7716

>  <SCORE.INTER.norm>
-0.175534

>  <SCORE.INTRA>
-2.5958

>  <SCORE.INTRA.DIHEDRAL>
-4.01222

>  <SCORE.INTRA.DIHEDRAL.0>
12.4853

>  <SCORE.INTRA.POLAR>
0

>  <SCORE.INTRA.POLAR.0>
0

>  <SCORE.INTRA.REPUL>
0

>  <SCORE.INTRA.REPUL.0>
0

>  <SCORE.INTRA.SOLV>
0.689275

>  <SCORE.INTRA.SOLV.lig_0>
-31.1706

>  <SCORE.INTRA.VDW>
-0.934328

>  <SCORE.INTRA.VDW.0>
-1.16895

>  <SCORE.INTRA.norm>
-0.112861

>  <SCORE.RESTR>
0.0028686

>  <SCORE.RESTR.CAVITY>
0.0028686

>  <SCORE.RESTR.norm>
0.000124722

>  <SCORE.SYSTEM>
0

>  <SCORE.SYSTEM.CONST>
0

>  <SCORE.SYSTEM.DIHEDRAL>
0

>  <SCORE.SYSTEM.SOLV>
0

>  <SCORE.SYSTEM.norm>
0

>  <SCORE.heavy>
23

>  <SCORE.norm>
-0.28827

>  <RMSD>
13.673

$$$$
ligand
 OpenBabel11021811513D
libRbt.so/2013.1/901 2013/11/27
 23 24  0  0  0  0  0  0  0  0999 V2000
  -10.6113    2.6166    5.4123 C   0  0  0  0  0  0  0  0  0  0  0  0
  -11.3305    3.2982    6.4580 O   0  0  0  0  0  0  0  0  0  0  0  0
  -10.0169    3.6493    4.4653 C   0  0  2  0  0  0  0  0  0  0  0  0
  -11.0213    4.5469    3.7588 C   0  0  1  0  0  0  0  0  0  0  0  0
  -11.4405    5.5825    4.6499 O   0  0  0  0  0  0  0  0  0  0  0  0
  -10.2119    5.0457    2.5666 C   0  0  2  0  0  0  0  0  0  0  0  0
  -10.9136    5.5330    1.4166 O   0  0  0  0  0  0  0  0  0  0  0  0
   -9.4160    3.8050    2.2020 C   0  0  2  0  0  0  0  0  0  0  0  0
   -9.2746    3.0297    3.4112 O   0  0  0  0  0  0  0  0  0  0  0  0
   -8.0603    4.2675    1.6381 C   0  0  0  0  0  0  0  0  0  0  0  0
   -7.3443    5.1061    2.5556 O   0  0  0  0  0  0  0  0  0  0  0  0
   -9.6234    1.7215    1.0004 C   0  0  2  0  0  0  0  0  0  0  0  0
  -10.1799    3.0196    1.2712 O   0  0  0  0  0  0  0  0  0  0  0  0
   -9.8212    1.4418   -0.4778 C   0  0  2  0  0  0  0  0  0  0  0  0
   -9.3833    2.5761   -1.2339 O   0  0  0  0  0  0  0  0  0  0  0  0
  -11.2853    1.2125   -0.7824 C   0  0  1  0  0  0  0  0  0  0  0  0
  -11.4003    0.7138   -2.1172 O   0  0  0  0  0  0  0  0  0  0  0  0
  -11.8873    0.2250    0.1991 C   0  0  2  0  0  0  0  0  0  0  0  0
  -13.2920    0.1764   -0.0098 O   0  0  0  0  0  0  0  0  0  0  0  0
  -11.6172    0.6205    1.6446 C   0  0  2  0  0  0  0  0  0  0  0  0
  -10.2078    0.7005    1.8090 O   0  0  0  0  0  0  0  0  0  0  0  0
  -12.2144   -0.3931    2.6279 C   0  0  0  0  0  0  0  0  0  0  0  0
  -11.9836   -0.0457    4.0011 O   0  0  0  0  0  0  0  0  0  0  0  0
  1  2  1  0  0  0  0
  3  1  1  6  0  0  0
  3  9  1  0  0  0  0
  3  4  1  0  0  0  0
  4  5  1  1  0  0  0
  4  6  1  0  0  0  0
  6  7  1  6  0  0  0
  6  8  1  0  0  0  0
  8  9  1  0  0  0  0
  8 10  1  6  0  0  0
  8 13  1  0  0  0  0
 10 11  1  0  0  0  0
 12 13  1  1  0  0  0
 12 14  1  0  0  0  0
 12 21  1  0  0  0  0
 14 15  1  6  0  0  0
 14 16  1  0  0  0  0
 16 17  1  6  0  0  0
 16 18  1  0  0  0  0
 18 19  1  1  0  0  0
 18 20  1  0  0  0  0
 20 21  1  0  0  0  0
 20 22  1  1  0  0  0
 22 23  1  0  0  0  0
M  END
>  <CHROM.1>
-61.10178272,56.55570004,-141.17066196,-171.21322236,-179.68416076,-10.55295083
2.54953781,2.03054311,1.20462820,0.94293616,1.18467122

>  <Name>
ligand

>  <RI>
0

>  <Rbt.Current_Directory>
/home/itssahil/PROJECTS/Mol_Feturizer/New_Systems/rnas/4TS2

>  <Rbt.Executable>
rbdock ($Id: //depot/dev/client3/rdock/2013.1/src/exe/rbdock.cxx#4 $)

>  <Rbt.Library>
libRbt.so (2013.1, Build901 2013/11/27)

>  <Rbt.Parameter_File>
/export/apps/rDock/src/rDock_2013.1_src/data/scripts/dock_solv.prm

>  <Rbt.Receptor>
prm/blind_docking_100.prm

>  <SCORE>
-11.881

>  <SCORE.INTER>
-7.06352

>  <SCORE.INTER.CONST>
1

>  <SCORE.INTER.POLAR>
0

>  <SCORE.INTER.ROT>
5

>  <SCORE.INTER.SOLV>
9.65586

>  <SCORE.INTER.VDW>
-14.861

>  <SCORE.INTER.norm>
-0.30711

>  <SCORE.INTRA>
-4.81743

>  <SCORE.INTRA.DIHEDRAL>
-6.97823

>  <SCORE.INTRA.DIHEDRAL.0>
12.4853

>  <SCORE.INTRA.POLAR>
0

>  <SCORE.INTRA.POLAR.0>
0

>  <SCORE.INTRA.REPUL>
0

>  <SCORE.INTRA.REPUL.0>
0

>  <SCORE.INTRA.SOLV>
0.141218

>  <SCORE.INTRA.SOLV.lig_0>
-31.1706

>  <SCORE.INTRA.VDW>
-1.39893

>  <SCORE.INTRA.VDW.0>
-1.16895

>  <SCORE.INTRA.norm>
-0.209454

>  <SCORE.RESTR>
0

>  <SCORE.RESTR.CAVITY>
0

>  <SCORE.RESTR.norm>
0

>  <SCORE.SYSTEM>
0

>  <SCORE.SYSTEM.CONST>
0

>  <SCORE.SYSTEM.DIHEDRAL>
0

>  <SCORE.SYSTEM.SOLV>
0

>  <SCORE.SYSTEM.norm>
0

>  <SCORE.heavy>
23

>  <SCORE.norm>
-0.516563

>  <RMSD>
13.686

$$$$
ligand
 OpenBabel11021811513D
libRbt.so/2013.1/901 2013/11/27
 23 24  0  0  0  0  0  0  0  0999 V2000
   -9.4226    2.4896   -1.9306 C   0  0  0  0  0  0  0  0  0  0  0  0
   -9.3194    2.4543   -3.3672 O   0  0  0  0  0  0  0  0  0  0  0  0
  -10.2881    1.3265   -1.4674 C   0  0  2  0  0  0  0  0  0  0  0  0
  -11.7024    1.2974   -2.0264 C   0  0  1  0  0  0  0  0  0  0  0  0
  -11.6765    0.7695   -3.3542 O   0  0  0  0  0  0  0  0  0  0  0  0
  -12.4195    0.4050   -1.0190 C   0  0  2  0  0  0  0  0  0  0  0  0
  -13.8452    0.4976   -0.9134 O   0  0  0  0  0  0  0  0  0  0  0  0
  -11.7730    0.8410    0.2840 C   0  0  2  0  0  0  0  0  0  0  0  0
  -10.4558    1.3297   -0.0469 O   0  0  0  0  0  0  0  0  0  0  0  0
  -11.7290   -0.3826    1.2170 C   0  0  0  0  0  0  0  0  0  0  0  0
  -13.0309   -0.9369    1.4530 O   0  0  0  0  0  0  0  0  0  0  0  0
  -12.1039    2.3430    2.1447 C   0  0  2  0  0  0  0  0  0  0  0  0
  -12.5196    1.9429    0.8275 O   0  0  0  0  0  0  0  0  0  0  0  0
  -13.0011    3.4882    2.5758 C   0  0  2  0  0  0  0  0  0  0  0  0
  -14.3671    3.1310    2.3380 O   0  0  0  0  0  0  0  0  0  0  0  0
  -12.6954    4.7326    1.7715 C   0  0  1  0  0  0  0  0  0  0  0  0
  -13.3764    5.8391    2.3675 O   0  0  0  0  0  0  0  0  0  0  0  0
  -11.2015    4.9938    1.7378 C   0  0  2  0  0  0  0  0  0  0  0  0
  -10.9471    6.0584    0.8315 O   0  0  0  0  0  0  0  0  0  0  0  0
  -10.4177    3.7673    1.2903 C   0  0  2  0  0  0  0  0  0  0  0  0
  -10.7257    2.7119    2.1908 O   0  0  0  0  0  0  0  0  0  0  0  0
   -8.9083    4.0364    1.2766 C   0  0  0  0  0  0  0  0  0  0  0  0
   -8.1375    2.8902    0.8872 O   0  0  0  0  0  0  0  0  0  0  0  0
  1  2  1  0  0  0  0
  3  1  1  6  0  0  0
  3  9  1  0  0  0  0
  3  4  1  0  0  0  0
  4  5  1  6  0  0  0
  4  6  1  0  0  0  0
  6  7  1  1  0  0  0
  6  8  1  0  0  0  0
  8  9  1  0  0  0  0
  8 10  1  1  0  0  0
  8 13  1  0  0  0  0
 10 11  1  0  0  0  0
 12 13  1  6  0  0  0
 12 14  1  0  0  0  0
 12 21  1  0  0  0  0
 14 15  1  6  0  0  0
 14 16  1  0  0  0  0
 16 17  1  1  0  0  0
 16 18  1  0  0  0  0
 18 19  1  6  0  0  0
 18 20  1  0  0  0  0
 20 21  1  0  0  0  0
 20 22  1  1  0  0  0
 22 23  1  0  0  0  0
M  END
>  <CHROM.1>
-58.88174566,-57.60082215,-178.98443026,172.81461958,178.70669096,-11.48574638
2.43624044,0.38271619,-1.35656913,0.62889039,0.67079795

>  <Name>
ligand

>  <RI>
0

>  <Rbt.Current_Directory>
/home/itssahil/PROJECTS/Mol_Feturizer/New_Systems/rnas/4TS2

>  <Rbt.Executable>
rbdock ($Id: //depot/dev/client3/rdock/2013.1/src/exe/rbdock.cxx#4 $)

>  <Rbt.Library>
libRbt.so (2013.1, Build901 2013/11/27)

>  <Rbt.Parameter_File>
/export/apps/rDock/src/rDock_2013.1_src/data/scripts/dock_solv.prm

>  <Rbt.Receptor>
prm/blind_docking_80.prm

>  <SCORE>
-15.5233

>  <SCORE.INTER>
-8.75904

>  <SCORE.INTER.CONST>
1

>  <SCORE.INTER.POLAR>
0

>  <SCORE.INTER.ROT>
5

>  <SCORE.INTER.SOLV>
11.4792

>  <SCORE.INTER.VDW>
-16.5991

>  <SCORE.INTER.norm>
-0.380828

>  <SCORE.INTRA>
-6.76427

>  <SCORE.INTRA.DIHEDRAL>
-12.0087

>  <SCORE.INTRA.DIHEDRAL.0>
12.4853

>  <SCORE.INTRA.POLAR>
0

>  <SCORE.INTRA.POLAR.0>
0

>  <SCORE.INTRA.REPUL>
0

>  <SCORE.INTRA.REPUL.0>
0

>  <SCORE.INTRA.SOLV>
0.801917

>  <SCORE.INTRA.SOLV.lig_0>
-31.1706

>  <SCORE.INTRA.VDW>
-1.16086

>  <SCORE.INTRA.VDW.0>
-1.16895

>  <SCORE.INTRA.norm>
-0.294099

>  <SCORE.RESTR>
0

>  <SCORE.RESTR.CAVITY>
0

>  <SCORE.RESTR.norm>
0

>  <SCORE.SYSTEM>
0

>  <SCORE.SYSTEM.CONST>
0

>  <SCORE.SYSTEM.DIHEDRAL>
0

>  <SCORE.SYSTEM.SOLV>
0

>  <SCORE.SYSTEM.norm>
0

>  <SCORE.heavy>
23

>  <SCORE.norm>
-0.674926

>  <RMSD>
13.697

$$$$
ligand
 OpenBabel11021811513D
libRbt.so/2013.1/901 2013/11/27
 23 24  0  0  0  0  0  0  0  0999 V2000
  -11.4444    2.6348    4.6233 C   0  0  0  0  0  0  0  0  0  0  0  0
  -10.3733    1.9725    5.3230 O   0  0  0  0  0  0  0  0  0  0  0  0
  -10.8638    3.7618    3.7811 C   0  0  2  0  0  0  0  0  0  0  0  0
  -11.8758    4.5858    2.9999 C   0  0  1  0  0  0  0  0  0  0  0  0
  -12.4902    5.5349    3.8740 O   0  0  0  0  0  0  0  0  0  0  0  0
  -11.0018    5.2141    1.9197 C   0  0  2  0  0  0  0  0  0  0  0  0
  -11.6258    5.6796    0.7172 O   0  0  0  0  0  0  0  0  0  0  0  0
  -10.0487    4.0753    1.6026 C   0  0  2  0  0  0  0  0  0  0  0  0
   -9.9555    3.2654    2.7938 O   0  0  0  0  0  0  0  0  0  0  0  0
   -8.6963    4.6938    1.2048 C   0  0  0  0  0  0  0  0  0  0  0  0
   -8.0908    5.4226    2.2817 O   0  0  0  0  0  0  0  0  0  0  0  0
   -9.8748    2.0712    0.2680 C   0  0  2  0  0  0  0  0  0  0  0  0
  -10.6262    3.2599    0.5690 O   0  0  0  0  0  0  0  0  0  0  0  0
  -10.3487    1.5638   -1.0812 C   0  0  2  0  0  0  0  0  0  0  0  0
  -10.3655    2.6507   -2.0132 O   0  0  0  0  0  0  0  0  0  0  0  0
  -11.7545    1.0144   -0.9768 C   0  0  1  0  0  0  0  0  0  0  0  0
  -12.0674    0.3294   -2.1919 O   0  0  0  0  0  0  0  0  0  0  0  0
  -11.8723    0.0681    0.2028 C   0  0  2  0  0  0  0  0  0  0  0  0
  -13.2396   -0.2814    0.3696 O   0  0  0  0  0  0  0  0  0  0  0  0
  -11.3635    0.6978    1.4926 C   0  0  2  0  0  0  0  0  0  0  0  0
  -10.0094    1.0729    1.2793 O   0  0  0  0  0  0  0  0  0  0  0  0
  -11.4707   -0.2726    2.6748 C   0  0  0  0  0  0  0  0  0  0  0  0
  -12.8255   -0.6259    2.9897 O   0  0  0  0  0  0  0  0  0  0  0  0
  1  2  1  0  0  0  0
  3  1  1  6  0  0  0
  3  9  1  0  0  0  0
  3  4  1  0  0  0  0
  4  5  1  1  0  0  0
  4  6  1  0  0  0  0
  6  7  1  6  0  0  0
  6  8  1  0  0  0  0
  8  9  1  0  0  0  0
  8 10  1  6  0  0  0
  8 13  1  0  0  0  0
 10 11  1  0  0  0  0
 12 13  1  1  0  0  0
 12 14  1  0  0  0  0
 12 21  1  0  0  0  0
 14 15  1  6  0  0  0
 14 16  1  0  0  0  0
 16 17  1  6  0  0  0
 16 18  1  0  0  0  0
 18 19  1  1  0  0  0
 18 20  1  0  0  0  0
 20 21  1  0  0  0  0
 20 22  1  1  0  0  0
 22 23  1  0  0  0  0
M  END
>  <CHROM.1>
-178.61929314,63.81809897,-162.86553837,-174.35839232,-63.99690989,-10.97678426
2.53549835,1.51516328,0.95000276,1.16160377,1.24125017

>  <Name>
ligand

>  <RI>
0

>  <Rbt.Current_Directory>
/home/itssahil/PROJECTS/Mol_Feturizer/New_Systems/rnas/4TS2

>  <Rbt.Executable>
rbdock ($Id: //depot/dev/client3/rdock/2013.1/src/exe/rbdock.cxx#4 $)

>  <Rbt.Library>
libRbt.so (2013.1, Build901 2013/11/27)

>  <Rbt.Parameter_File>
/export/apps/rDock/src/rDock_2013.1_src/data/scripts/dock_solv.prm

>  <Rbt.Receptor>
prm/blind_docking_100.prm

>  <SCORE>
-11.9543

>  <SCORE.INTER>
-5.12188

>  <SCORE.INTER.CONST>
1

>  <SCORE.INTER.POLAR>
0

>  <SCORE.INTER.ROT>
5

>  <SCORE.INTER.SOLV>
8.39285

>  <SCORE.INTER.VDW>
-13.1455

>  <SCORE.INTER.norm>
-0.222691

>  <SCORE.INTRA>
-6.83245

>  <SCORE.INTRA.DIHEDRAL>
-10.8525

>  <SCORE.INTRA.DIHEDRAL.0>
12.4853

>  <SCORE.INTRA.POLAR>
0

>  <SCORE.INTRA.POLAR.0>
0

>  <SCORE.INTRA.REPUL>
0

>  <SCORE.INTRA.REPUL.0>
0

>  <SCORE.INTRA.SOLV>
0.326056

>  <SCORE.INTRA.SOLV.lig_0>
-31.1706

>  <SCORE.INTRA.VDW>
-1.56923

>  <SCORE.INTRA.VDW.0>
-1.16895

>  <SCORE.INTRA.norm>
-0.297063

>  <SCORE.RESTR>
0

>  <SCORE.RESTR.CAVITY>
0

>  <SCORE.RESTR.norm>
0

>  <SCORE.SYSTEM>
0

>  <SCORE.SYSTEM.CONST>
0

>  <SCORE.SYSTEM.DIHEDRAL>
0

>  <SCORE.SYSTEM.SOLV>
0

>  <SCORE.SYSTEM.norm>
0

>  <SCORE.heavy>
23

>  <SCORE.norm>
-0.519754

>  <RMSD>
13.698

$$$$
ligand
 OpenBabel11021811513D
libRbt.so/2013.1/901 2013/11/27
 23 24  0  0  0  0  0  0  0  0999 V2000
  -11.4009    5.1100    1.4955 C   0  0  0  0  0  0  0  0  0  0  0  0
  -12.8301    5.2836    1.4435 O   0  0  0  0  0  0  0  0  0  0  0  0
  -11.0904    3.6769    1.9033 C   0  0  2  0  0  0  0  0  0  0  0  0
   -9.6133    3.3309    2.0125 C   0  0  1  0  0  0  0  0  0  0  0  0
   -9.1045    3.8121    3.2582 O   0  0  0  0  0  0  0  0  0  0  0  0
   -9.6382    1.8104    1.8994 C   0  0  2  0  0  0  0  0  0  0  0  0
   -8.4434    1.1332    1.4917 O   0  0  0  0  0  0  0  0  0  0  0  0
  -10.7312    1.6025    0.8660 C   0  0  2  0  0  0  0  0  0  0  0  0
  -11.6182    2.7371    0.9630 O   0  0  0  0  0  0  0  0  0  0  0  0
  -11.4375    0.2743    1.1925 C   0  0  0  0  0  0  0  0  0  0  0  0
  -12.0781    0.2971    2.4757 O   0  0  0  0  0  0  0  0  0  0  0  0
  -11.0700    1.9194   -1.5030 C   0  0  2  0  0  0  0  0  0  0  0  0
  -10.1417    1.6249   -0.4450 O   0  0  0  0  0  0  0  0  0  0  0  0
  -10.9122    0.8413   -2.5590 C   0  0  2  0  0  0  0  0  0  0  0  0
  -10.9368   -0.4433   -1.9272 O   0  0  0  0  0  0  0  0  0  0  0  0
   -9.5856    0.9876   -3.2715 C   0  0  1  0  0  0  0  0  0  0  0  0
   -9.5815    0.1220   -4.4091 O   0  0  0  0  0  0  0  0  0  0  0  0
   -9.3679    2.4244   -3.7063 C   0  0  2  0  0  0  0  0  0  0  0  0
   -8.0440    2.5517   -4.2068 O   0  0  0  0  0  0  0  0  0  0  0  0
   -9.5562    3.4037   -2.5554 C   0  0  2  0  0  0  0  0  0  0  0  0
  -10.8728    3.2223   -2.0518 O   0  0  0  0  0  0  0  0  0  0  0  0
   -9.3514    4.8538   -3.0093 C   0  0  0  0  0  0  0  0  0  0  0  0
   -9.4889    5.8011   -1.9400 O   0  0  0  0  0  0  0  0  0  0  0  0
  1  2  1  0  0  0  0
  3  1  1  6  0  0  0
  3  9  1  0  0  0  0
  3  4  1  0  0  0  0
  4  5  1  1  0  0  0
  4  6  1  0  0  0  0
  6  7  1  6  0  0  0
  6  8  1  0  0  0  0
  8  9  1  0  0  0  0
  8 10  1  1  0  0  0
  8 13  1  0  0  0  0
 10 11  1  0  0  0  0
 12 13  1  1  0  0  0
 12 14  1  0  0  0  0
 12 21  1  0  0  0  0
 14 15  1  1  0  0  0
 14 16  1  0  0  0  0
 16 17  1  6  0  0  0
 16 18  1  0  0  0  0
 18 19  1  1  0  0  0
 18 20  1  0  0  0  0
 20 21  1  0  0  0  0
 20 22  1  6  0  0  0
 22 23  1  0  0  0  0
M  END
>  <CHROM.1>
-179.67440355,62.59936738,-128.65254340,-158.81066355,-178.53023022,-10.30095796
2.45511093,-0.54139853,-2.67440170,-1.31091139,-2.85500126

>  <Name>
ligand

>  <RI>
0

>  <Rbt.Current_Directory>
/home/itssahil/PROJECTS/Mol_Feturizer/New_Systems/rnas/4TS2

>  <Rbt.Executable>
rbdock ($Id: //depot/dev/client3/rdock/2013.1/src/exe/rbdock.cxx#4 $)

>  <Rbt.Library>
libRbt.so (2013.1, Build901 2013/11/27)

>  <Rbt.Parameter_File>
/export/apps/rDock/src/rDock_2013.1_src/data/scripts/dock_solv.prm

>  <Rbt.Receptor>
prm/blind_docking_40.prm

>  <SCORE>
-7.98237

>  <SCORE.INTER>
-4.70247

>  <SCORE.INTER.CONST>
1

>  <SCORE.INTER.POLAR>
0

>  <SCORE.INTER.ROT>
5

>  <SCORE.INTER.SOLV>
13.146

>  <SCORE.INTER.VDW>
-14.4503

>  <SCORE.INTER.norm>
-0.204455

>  <SCORE.INTRA>
-3.27991

>  <SCORE.INTRA.DIHEDRAL>
-3.8499

>  <SCORE.INTRA.DIHEDRAL.0>
12.4853

>  <SCORE.INTRA.POLAR>
0

>  <SCORE.INTRA.POLAR.0>
0

>  <SCORE.INTRA.REPUL>
0

>  <SCORE.INTRA.REPUL.0>
0

>  <SCORE.INTRA.SOLV>
-0.380609

>  <SCORE.INTRA.SOLV.lig_0>
-31.1706

>  <SCORE.INTRA.VDW>
-1.16465

>  <SCORE.INTRA.VDW.0>
-1.16895

>  <SCORE.INTRA.norm>
-0.142605

>  <SCORE.RESTR>
0

>  <SCORE.RESTR.CAVITY>
0

>  <SCORE.RESTR.norm>
0

>  <SCORE.SYSTEM>
0

>  <SCORE.SYSTEM.CONST>
0

>  <SCORE.SYSTEM.DIHEDRAL>
0

>  <SCORE.SYSTEM.SOLV>
0

>  <SCORE.SYSTEM.norm>
0

>  <SCORE.heavy>
23

>  <SCORE.norm>
-0.34706

>  <RMSD>
13.707

$$$$
ligand
 OpenBabel11021811513D
libRbt.so/2013.1/901 2013/11/27
 23 24  0  0  0  0  0  0  0  0999 V2000
  -13.1638    3.2128    2.4265 C   0  0  0  0  0  0  0  0  0  0  0  0
  -13.0714    2.3039    3.5405 O   0  0  0  0  0  0  0  0  0  0  0  0
  -11.8154    3.8896    2.2261 C   0  0  2  0  0  0  0  0  0  0  0  0
  -11.8108    5.0737    1.2715 C   0  0  1  0  0  0  0  0  0  0  0  0
  -12.3080    6.2301    1.9481 O   0  0  0  0  0  0  0  0  0  0  0  0
  -10.3367    5.1645    0.8915 C   0  0  2  0  0  0  0  0  0  0  0  0
   -9.9817    5.8334   -0.3245 O   0  0  0  0  0  0  0  0  0  0  0  0
   -9.9560    3.6970    0.8071 C   0  0  2  0  0  0  0  0  0  0  0  0
  -10.8472    2.9833    1.6901 O   0  0  0  0  0  0  0  0  0  0  0  0
   -8.4817    3.5707    1.2317 C   0  0  0  0  0  0  0  0  0  0  0  0
   -7.5952    4.2609    0.3399 O   0  0  0  0  0  0  0  0  0  0  0  0
   -9.6967    1.9094   -0.7945 C   0  0  2  0  0  0  0  0  0  0  0  0
  -10.2041    3.2286   -0.5293 O   0  0  0  0  0  0  0  0  0  0  0  0
   -9.9138    1.6272   -2.2695 C   0  0  2  0  0  0  0  0  0  0  0  0
   -9.4398    2.7398   -3.0361 O   0  0  0  0  0  0  0  0  0  0  0  0
  -11.3871    1.4492   -2.5637 C   0  0  1  0  0  0  0  0  0  0  0  0
  -11.5285    0.9461   -3.8943 O   0  0  0  0  0  0  0  0  0  0  0  0
  -12.0184    0.4908   -1.5718 C   0  0  2  0  0  0  0  0  0  0  0  0
  -13.4253    0.4918   -1.7719 O   0  0  0  0  0  0  0  0  0  0  0  0
  -11.7250    0.8858   -0.1307 C   0  0  2  0  0  0  0  0  0  0  0  0
  -10.3126    0.9157    0.0246 O   0  0  0  0  0  0  0  0  0  0  0  0
  -12.3524   -0.0988    0.8631 C   0  0  0  0  0  0  0  0  0  0  0  0
  -11.9941    0.1745    2.2257 O   0  0  0  0  0  0  0  0  0  0  0  0
  1  2  1  0  0  0  0
  3  1  1  6  0  0  0
  3  9  1  0  0  0  0
  3  4  1  0  0  0  0
  4  5  1  1  0  0  0
  4  6  1  0  0  0  0
  6  7  1  6  0  0  0
  6  8  1  0  0  0  0
  8  9  1  0  0  0  0
  8 10  1  1  0  0  0
  8 13  1  0  0  0  0
 10 11  1  0  0  0  0
 12 13  1  1  0  0  0
 12 14  1  0  0  0  0
 12 21  1  0  0  0  0
 14 15  1  6  0  0  0
 14 16  1  0  0  0  0
 16 17  1  6  0  0  0
 16 18  1  0  0  0  0
 18 19  1  1  0  0  0
 18 20  1  0  0  0  0
 20 21  1  0  0  0  0
 20 22  1  1  0  0  0
 22 23  1  0  0  0  0
M  END
>  <CHROM.1>
-168.47341368,-63.62422185,-174.37801253,171.08673843,174.66799680,-11.01780008
2.65272764,0.11437446,1.52896656,0.81060872,0.86486565

>  <Name>
ligand

>  <RI>
0

>  <Rbt.Current_Directory>
/home/itssahil/PROJECTS/Mol_Feturizer/New_Systems/rnas/4TS2

>  <Rbt.Executable>
rbdock ($Id: //depot/dev/client3/rdock/2013.1/src/exe/rbdock.cxx#4 $)

>  <Rbt.Library>
libRbt.so (2013.1, Build901 2013/11/27)

>  <Rbt.Parameter_File>
/export/apps/rDock/src/rDock_2013.1_src/data/scripts/dock_solv.prm

>  <Rbt.Receptor>
prm/blind_docking_80.prm

>  <SCORE>
-15.6679

>  <SCORE.INTER>
-8.98214

>  <SCORE.INTER.CONST>
1

>  <SCORE.INTER.POLAR>
0

>  <SCORE.INTER.ROT>
5

>  <SCORE.INTER.SOLV>
9.05759

>  <SCORE.INTER.VDW>
-15.9406

>  <SCORE.INTER.norm>
-0.390528

>  <SCORE.INTRA>
-6.68578

>  <SCORE.INTRA.DIHEDRAL>
-11.1648

>  <SCORE.INTRA.DIHEDRAL.0>
12.4853

>  <SCORE.INTRA.POLAR>
0

>  <SCORE.INTRA.POLAR.0>
0

>  <SCORE.INTRA.REPUL>
0

>  <SCORE.INTRA.REPUL.0>
0

>  <SCORE.INTRA.SOLV>
0.941

>  <SCORE.INTRA.SOLV.lig_0>
-31.1706

>  <SCORE.INTRA.VDW>
-1.57388

>  <SCORE.INTRA.VDW.0>
-1.16895

>  <SCORE.INTRA.norm>
-0.290686

>  <SCORE.RESTR>
0

>  <SCORE.RESTR.CAVITY>
0

>  <SCORE.RESTR.norm>
0

>  <SCORE.SYSTEM>
0

>  <SCORE.SYSTEM.CONST>
0

>  <SCORE.SYSTEM.DIHEDRAL>
0

>  <SCORE.SYSTEM.SOLV>
0

>  <SCORE.SYSTEM.norm>
0

>  <SCORE.heavy>
23

>  <SCORE.norm>
-0.681214

>  <RMSD>
13.713

$$$$
ligand
 OpenBabel11021811513D
libRbt.so/2013.1/901 2013/11/27
 23 24  0  0  0  0  0  0  0  0999 V2000
   -9.4582    2.5253   -1.9199 C   0  0  0  0  0  0  0  0  0  0  0  0
   -9.3565    2.4982   -3.3567 O   0  0  0  0  0  0  0  0  0  0  0  0
  -10.3136    1.3529   -1.4615 C   0  0  2  0  0  0  0  0  0  0  0  0
  -11.7264    1.3120   -2.0235 C   0  0  1  0  0  0  0  0  0  0  0  0
  -11.6929    0.7879   -3.3526 O   0  0  0  0  0  0  0  0  0  0  0  0
  -12.4371    0.4102   -1.0199 C   0  0  2  0  0  0  0  0  0  0  0  0
  -13.8638    0.4891   -0.9170 O   0  0  0  0  0  0  0  0  0  0  0  0
  -11.7974    0.8488    0.2856 C   0  0  2  0  0  0  0  0  0  0  0  0
  -10.4842    1.3508   -0.0413 O   0  0  0  0  0  0  0  0  0  0  0  0
  -11.7438   -0.3768    1.2155 C   0  0  0  0  0  0  0  0  0  0  0  0
  -13.0416   -0.9398    1.4528 O   0  0  0  0  0  0  0  0  0  0  0  0
  -12.1448    2.3440    2.1487 C   0  0  2  0  0  0  0  0  0  0  0  0
  -12.5554    1.9421    0.8304 O   0  0  0  0  0  0  0  0  0  0  0  0
  -13.0521    3.4812    2.5801 C   0  0  2  0  0  0  0  0  0  0  0  0
  -14.4147    3.1129    2.3400 O   0  0  0  0  0  0  0  0  0  0  0  0
  -12.7556    4.7291    1.7777 C   0  0  1  0  0  0  0  0  0  0  0  0
  -13.4466    5.8292    2.3743 O   0  0  0  0  0  0  0  0  0  0  0  0
  -11.2640    5.0027    1.7464 C   0  0  2  0  0  0  0  0  0  0  0  0
  -11.0172    6.0706    0.8419 O   0  0  0  0  0  0  0  0  0  0  0  0
  -10.4694    3.7834    1.2983 C   0  0  2  0  0  0  0  0  0  0  0  0
  -10.7698    2.7243    2.1971 O   0  0  0  0  0  0  0  0  0  0  0  0
   -8.9623    4.0651    1.2871 C   0  0  0  0  0  0  0  0  0  0  0  0
   -8.1811    2.9242    0.9026 O   0  0  0  0  0  0  0  0  0  0  0  0
  1  2  1  0  0  0  0
  3  1  1  6  0  0  0
  3  9  1  0  0  0  0
  3  4  1  0  0  0  0
  4  5  1  6  0  0  0
  4  6  1  0  0  0  0
  6  7  1  1  0  0  0
  6  8  1  0  0  0  0
  8  9  1  0  0  0  0
  8 10  1  1  0  0  0
  8 13  1  0  0  0  0
 10 11  1  0  0  0  0
 12 13  1  6  0  0  0
 12 14  1  0  0  0  0
 12 21  1  0  0  0  0
 14 15  1  6  0  0  0
 14 16  1  0  0  0  0
 16 17  1  1  0  0  0
 16 18  1  0  0  0  0
 18 19  1  6  0  0  0
 18 20  1  0  0  0  0
 20 21  1  0  0  0  0
 20 22  1  1  0  0  0
 22 23  1  0  0  0  0
M  END
>  <CHROM.1>
-58.63754787,-57.90141600,-179.09186771,172.90545921,178.46162547,-11.52423215
2.44674632,0.38787757,-1.34662468,0.63371216,0.66691129

>  <Name>
ligand

>  <RI>
0

>  <Rbt.Current_Directory>
/home/itssahil/PROJECTS/Mol_Feturizer/New_Systems/rnas/4TS2

>  <Rbt.Executable>
rbdock ($Id: //depot/dev/client3/rdock/2013.1/src/exe/rbdock.cxx#4 $)

>  <Rbt.Library>
libRbt.so (2013.1, Build901 2013/11/27)

>  <Rbt.Parameter_File>
/export/apps/rDock/src/rDock_2013.1_src/data/scripts/dock_solv.prm

>  <Rbt.Receptor>
prm/blind_docking_40.prm

>  <SCORE>
-15.4854

>  <SCORE.INTER>
-8.72264

>  <SCORE.INTER.CONST>
1

>  <SCORE.INTER.POLAR>
0

>  <SCORE.INTER.ROT>
5

>  <SCORE.INTER.SOLV>
11.5255

>  <SCORE.INTER.VDW>
-16.5903

>  <SCORE.INTER.norm>
-0.379245

>  <SCORE.INTRA>
-6.76279

>  <SCORE.INTRA.DIHEDRAL>
-12.0192

>  <SCORE.INTRA.DIHEDRAL.0>
12.4853

>  <SCORE.INTRA.POLAR>
0

>  <SCORE.INTRA.POLAR.0>
0

>  <SCORE.INTRA.REPUL>
0

>  <SCORE.INTRA.REPUL.0>
0

>  <SCORE.INTRA.SOLV>
0.804982

>  <SCORE.INTRA.SOLV.lig_0>
-31.1706

>  <SCORE.INTRA.VDW>
-1.15569

>  <SCORE.INTRA.VDW.0>
-1.16895

>  <SCORE.INTRA.norm>
-0.294034

>  <SCORE.RESTR>
0

>  <SCORE.RESTR.CAVITY>
0

>  <SCORE.RESTR.norm>
0

>  <SCORE.SYSTEM>
0

>  <SCORE.SYSTEM.CONST>
0

>  <SCORE.SYSTEM.DIHEDRAL>
0

>  <SCORE.SYSTEM.SOLV>
0

>  <SCORE.SYSTEM.norm>
0

>  <SCORE.heavy>
23

>  <SCORE.norm>
-0.67328

>  <RMSD>
13.720

$$$$
ligand
 OpenBabel11021811513D
libRbt.so/2013.1/901 2013/11/27
 23 24  0  0  0  0  0  0  0  0999 V2000
  -13.1684    3.2533    2.4212 C   0  0  0  0  0  0  0  0  0  0  0  0
  -13.0707    2.3127    3.5080 O   0  0  0  0  0  0  0  0  0  0  0  0
  -11.8146    3.9187    2.2186 C   0  0  2  0  0  0  0  0  0  0  0  0
  -11.8003    5.0990    1.2594 C   0  0  1  0  0  0  0  0  0  0  0  0
  -12.2886    6.2619    1.9315 O   0  0  0  0  0  0  0  0  0  0  0  0
  -10.3255    5.1767    0.8796 C   0  0  2  0  0  0  0  0  0  0  0  0
   -9.9649    5.8380   -0.3389 O   0  0  0  0  0  0  0  0  0  0  0  0
   -9.9564    3.7058    0.8009 C   0  0  2  0  0  0  0  0  0  0  0  0
  -10.8535    3.0026    1.6864 O   0  0  0  0  0  0  0  0  0  0  0  0
   -8.4833    3.5695    1.2265 C   0  0  0  0  0  0  0  0  0  0  0  0
   -7.5896    4.2335    0.3220 O   0  0  0  0  0  0  0  0  0  0  0  0
   -9.7049    1.9127   -0.7957 C   0  0  2  0  0  0  0  0  0  0  0  0
  -10.2078    3.2343   -0.5338 O   0  0  0  0  0  0  0  0  0  0  0  0
   -9.9328    1.6235   -2.2677 C   0  0  2  0  0  0  0  0  0  0  0  0
   -9.4618    2.7313   -3.0432 O   0  0  0  0  0  0  0  0  0  0  0  0
  -11.4084    1.4471   -2.5509 C   0  0  1  0  0  0  0  0  0  0  0  0
  -11.5600    0.9375   -3.8779 O   0  0  0  0  0  0  0  0  0  0  0  0
  -12.0347    0.4949   -1.5499 C   0  0  2  0  0  0  0  0  0  0  0  0
  -13.4430    0.4979   -1.7403 O   0  0  0  0  0  0  0  0  0  0  0  0
  -11.7307    0.8967   -0.1128 C   0  0  2  0  0  0  0  0  0  0  0  0
  -10.3172    0.9245    0.0326 O   0  0  0  0  0  0  0  0  0  0  0  0
  -12.3532   -0.0816    0.8903 C   0  0  0  0  0  0  0  0  0  0  0  0
  -11.9842    0.1972    2.2489 O   0  0  0  0  0  0  0  0  0  0  0  0
  1  2  1  0  0  0  0
  3  1  1  6  0  0  0
  3  9  1  0  0  0  0
  3  4  1  0  0  0  0
  4  5  1  1  0  0  0
  4  6  1  0  0  0  0
  6  7  1  6  0  0  0
  6  8  1  0  0  0  0
  8  9  1  0  0  0  0
  8 10  1  1  0  0  0
  8 13  1  0  0  0  0
 10 11  1  0  0  0  0
 12 13  1  1  0  0  0
 12 14  1  0  0  0  0
 12 21  1  0  0  0  0
 14 15  1  6  0  0  0
 14 16  1  0  0  0  0
 16 17  1  6  0  0  0
 16 18  1  0  0  0  0
 18 19  1  1  0  0  0
 18 20  1  0  0  0  0
 20 21  1  0  0  0  0
 20 22  1  1  0  0  0
 22 23  1  0  0  0  0
M  END
>  <CHROM.1>
-170.51630786,-64.44055504,-174.72039540,170.79105383,174.62724596,-11.02157244
2.66153990,0.11486157,1.51691303,0.81004120,0.86258621

>  <Name>
ligand

>  <RI>
0

>  <Rbt.Current_Directory>
/home/itssahil/PROJECTS/Mol_Feturizer/New_Systems/rnas/4TS2

>  <Rbt.Executable>
rbdock ($Id: //depot/dev/client3/rdock/2013.1/src/exe/rbdock.cxx#4 $)

>  <Rbt.Library>
libRbt.so (2013.1, Build901 2013/11/27)

>  <Rbt.Parameter_File>
/export/apps/rDock/src/rDock_2013.1_src/data/scripts/dock_solv.prm

>  <Rbt.Receptor>
prm/blind_docking_80.prm

>  <SCORE>
-15.6856

>  <SCORE.INTER>
-8.99513

>  <SCORE.INTER.CONST>
1

>  <SCORE.INTER.POLAR>
0

>  <SCORE.INTER.ROT>
5

>  <SCORE.INTER.SOLV>
9.0598

>  <SCORE.INTER.VDW>
-15.95

>  <SCORE.INTER.norm>
-0.391092

>  <SCORE.INTRA>
-6.69051

>  <SCORE.INTRA.DIHEDRAL>
-11.2826

>  <SCORE.INTRA.DIHEDRAL.0>
12.4853

>  <SCORE.INTRA.POLAR>
0

>  <SCORE.INTRA.POLAR.0>
0

>  <SCORE.INTRA.REPUL>
0

>  <SCORE.INTRA.REPUL.0>
0

>  <SCORE.INTRA.SOLV>
0.96965

>  <SCORE.INTRA.SOLV.lig_0>
-31.1706

>  <SCORE.INTRA.VDW>
-1.53403

>  <SCORE.INTRA.VDW.0>
-1.16895

>  <SCORE.INTRA.norm>
-0.290892

>  <SCORE.RESTR>
0

>  <SCORE.RESTR.CAVITY>
0

>  <SCORE.RESTR.norm>
0

>  <SCORE.SYSTEM>
0

>  <SCORE.SYSTEM.CONST>
0

>  <SCORE.SYSTEM.DIHEDRAL>
0

>  <SCORE.SYSTEM.SOLV>
0

>  <SCORE.SYSTEM.norm>
0

>  <SCORE.heavy>
23

>  <SCORE.norm>
-0.681984

>  <RMSD>
13.721

$$$$
ligand
 OpenBabel11021811513D
libRbt.so/2013.1/901 2013/11/27
 23 24  0  0  0  0  0  0  0  0999 V2000
  -13.1212    3.2424    2.4610 C   0  0  0  0  0  0  0  0  0  0  0  0
  -12.9899    2.3544    3.5878 O   0  0  0  0  0  0  0  0  0  0  0  0
  -11.7883    3.9361    2.2190 C   0  0  2  0  0  0  0  0  0  0  0  0
  -11.8220    5.0989    1.2391 C   0  0  1  0  0  0  0  0  0  0  0  0
  -12.3246    6.2617    1.9004 O   0  0  0  0  0  0  0  0  0  0  0  0
  -10.3574    5.2049    0.8277 C   0  0  2  0  0  0  0  0  0  0  0  0
  -10.0375    5.8525   -0.4094 O   0  0  0  0  0  0  0  0  0  0  0  0
   -9.9544    3.7421    0.7673 C   0  0  2  0  0  0  0  0  0  0  0  0
  -10.8162    3.0338    1.6833 O   0  0  0  0  0  0  0  0  0  0  0  0
   -8.4702    3.6487    1.1649 C   0  0  0  0  0  0  0  0  0  0  0  0
   -7.6072    4.2767    0.2064 O   0  0  0  0  0  0  0  0  0  0  0  0
   -9.7021    1.9220   -0.7984 C   0  0  2  0  0  0  0  0  0  0  0  0
  -10.2211    3.2406   -0.5534 O   0  0  0  0  0  0  0  0  0  0  0  0
   -9.9169    1.6153   -2.2688 C   0  0  2  0  0  0  0  0  0  0  0  0
   -9.4529    2.7202   -3.0525 O   0  0  0  0  0  0  0  0  0  0  0  0
  -11.3886    1.4197   -2.5599 C   0  0  1  0  0  0  0  0  0  0  0  0
  -11.5257    0.8950   -3.8825 O   0  0  0  0  0  0  0  0  0  0  0  0
  -12.0111    0.4710   -1.5532 C   0  0  2  0  0  0  0  0  0  0  0  0
  -13.4180    0.4565   -1.7529 O   0  0  0  0  0  0  0  0  0  0  0  0
  -11.7210    0.8908   -0.1184 C   0  0  2  0  0  0  0  0  0  0  0  0
  -10.3090    0.9356    0.0360 O   0  0  0  0  0  0  0  0  0  0  0  0
  -12.3395   -0.0840    0.8906 C   0  0  0  0  0  0  0  0  0  0  0  0
  -12.0121    0.2340    2.2512 O   0  0  0  0  0  0  0  0  0  0  0  0
  1  2  1  0  0  0  0
  3  1  1  6  0  0  0
  3  9  1  0  0  0  0
  3  4  1  0  0  0  0
  4  5  1  1  0  0  0
  4  6  1  0  0  0  0
  6  7  1  6  0  0  0
  6  8  1  0  0  0  0
  8  9  1  0  0  0  0
  8 10  1  1  0  0  0
  8 13  1  0  0  0  0
 10 11  1  0  0  0  0
 12 13  1  1  0  0  0
 12 14  1  0  0  0  0
 12 21  1  0  0  0  0
 14 15  1  6  0  0  0
 14 16  1  0  0  0  0
 16 17  1  6  0  0  0
 16 18  1  0  0  0  0
 18 19  1  1  0  0  0
 18 20  1  0  0  0  0
 20 21  1  0  0  0  0
 20 22  1  1  0  0  0
 22 23  1  0  0  0  0
M  END
>  <CHROM.1>
-168.77956606,-66.49281217,-173.23102873,171.31809291,176.20424294,-11.01535846
2.66948690,0.10044902,1.53989708,0.82503086,0.85112349

>  <Name>
ligand

>  <RI>
0

>  <Rbt.Current_Directory>
/home/itssahil/PROJECTS/Mol_Feturizer/New_Systems/rnas/4TS2

>  <Rbt.Executable>
rbdock ($Id: //depot/dev/client3/rdock/2013.1/src/exe/rbdock.cxx#4 $)

>  <Rbt.Library>
libRbt.so (2013.1, Build901 2013/11/27)

>  <Rbt.Parameter_File>
/export/apps/rDock/src/rDock_2013.1_src/data/scripts/dock_solv.prm

>  <Rbt.Receptor>
prm/blind_docking_40.prm

>  <SCORE>
-15.6923

>  <SCORE.INTER>
-9.0317

>  <SCORE.INTER.CONST>
1

>  <SCORE.INTER.POLAR>
0

>  <SCORE.INTER.ROT>
5

>  <SCORE.INTER.SOLV>
8.85654

>  <SCORE.INTER.VDW>
-15.9067

>  <SCORE.INTER.norm>
-0.392683

>  <SCORE.INTRA>
-6.6606

>  <SCORE.INTRA.DIHEDRAL>
-11.1135

>  <SCORE.INTRA.DIHEDRAL.0>
12.4853

>  <SCORE.INTRA.POLAR>
0

>  <SCORE.INTRA.POLAR.0>
0

>  <SCORE.INTRA.REPUL>
0

>  <SCORE.INTRA.REPUL.0>
0

>  <SCORE.INTRA.SOLV>
0.963104

>  <SCORE.INTRA.SOLV.lig_0>
-31.1706

>  <SCORE.INTRA.VDW>
-1.58542

>  <SCORE.INTRA.VDW.0>
-1.16895

>  <SCORE.INTRA.norm>
-0.289591

>  <SCORE.RESTR>
0

>  <SCORE.RESTR.CAVITY>
0

>  <SCORE.RESTR.norm>
0

>  <SCORE.SYSTEM>
0

>  <SCORE.SYSTEM.CONST>
0

>  <SCORE.SYSTEM.DIHEDRAL>
0

>  <SCORE.SYSTEM.SOLV>
0

>  <SCORE.SYSTEM.norm>
0

>  <SCORE.heavy>
23

>  <SCORE.norm>
-0.682274

>  <RMSD>
13.724

$$$$
ligand
 OpenBabel11021811513D
libRbt.so/2013.1/901 2013/11/27
 23 24  0  0  0  0  0  0  0  0999 V2000
   -9.4398    3.0947    3.6434 C   0  0  0  0  0  0  0  0  0  0  0  0
  -10.2017    1.9722    3.1586 O   0  0  0  0  0  0  0  0  0  0  0  0
   -9.3226    4.1302    2.5341 C   0  0  2  0  0  0  0  0  0  0  0  0
  -10.6135    4.8439    2.1635 C   0  0  1  0  0  0  0  0  0  0  0  0
  -10.8767    5.8740    3.1184 O   0  0  0  0  0  0  0  0  0  0  0  0
  -10.2949    5.3624    0.7652 C   0  0  2  0  0  0  0  0  0  0  0  0
  -11.3814    5.6795   -0.1130 O   0  0  0  0  0  0  0  0  0  0  0  0
   -9.4848    4.2119    0.1942 C   0  0  2  0  0  0  0  0  0  0  0  0
   -8.8655    3.5422    1.3129 O   0  0  0  0  0  0  0  0  0  0  0  0
   -8.4521    4.8054   -0.7810 C   0  0  0  0  0  0  0  0  0  0  0  0
   -7.5654    3.8098   -1.3104 O   0  0  0  0  0  0  0  0  0  0  0  0
   -9.7907    1.9964   -0.7145 C   0  0  2  0  0  0  0  0  0  0  0  0
  -10.3812    3.2761   -0.4282 O   0  0  0  0  0  0  0  0  0  0  0  0
  -10.0025    1.7185   -2.1910 C   0  0  2  0  0  0  0  0  0  0  0  0
   -9.6099    2.8692   -2.9474 O   0  0  0  0  0  0  0  0  0  0  0  0
  -11.4636    1.4474   -2.4749 C   0  0  1  0  0  0  0  0  0  0  0  0
  -11.5840    0.9523   -3.8105 O   0  0  0  0  0  0  0  0  0  0  0  0
  -12.0211    0.4375   -1.4900 C   0  0  2  0  0  0  0  0  0  0  0  0
  -13.4269    0.3483   -1.6781 O   0  0  0  0  0  0  0  0  0  0  0  0
  -11.7410    0.8336   -0.0466 C   0  0  2  0  0  0  0  0  0  0  0  0
  -10.3322    0.9545    0.0971 O   0  0  0  0  0  0  0  0  0  0  0  0
  -12.2930   -0.2023    0.9400 C   0  0  0  0  0  0  0  0  0  0  0  0
  -12.2559    0.2456    2.3030 O   0  0  0  0  0  0  0  0  0  0  0  0
  1  2  1  0  0  0  0
  3  1  1  1  0  0  0
  3  9  1  0  0  0  0
  3  4  1  0  0  0  0
  4  5  1  1  0  0  0
  4  6  1  0  0  0  0
  6  7  1  6  0  0  0
  6  8  1  0  0  0  0
  8  9  1  0  0  0  0
  8 10  1  6  0  0  0
  8 13  1  0  0  0  0
 10 11  1  0  0  0  0
 12 13  1  1  0  0  0
 12 14  1  0  0  0  0
 12 21  1  0  0  0  0
 14 15  1  6  0  0  0
 14 16  1  0  0  0  0
 16 17  1  6  0  0  0
 16 18  1  0  0  0  0
 18 19  1  1  0  0  0
 18 20  1  0  0  0  0
 20 21  1  0  0  0  0
 20 22  1  1  0  0  0
 22 23  1  0  0  0  0
M  END
>  <CHROM.1>
68.99275847,175.88162168,-125.46424292,-165.45601635,-169.79064071,-10.50395485
2.69668192,0.09565188,0.95559319,0.98478955,1.34782368

>  <Name>
ligand

>  <RI>
0

>  <Rbt.Current_Directory>
/home/itssahil/PROJECTS/Mol_Feturizer/New_Systems/rnas/4TS2

>  <Rbt.Executable>
rbdock ($Id: //depot/dev/client3/rdock/2013.1/src/exe/rbdock.cxx#4 $)

>  <Rbt.Library>
libRbt.so (2013.1, Build901 2013/11/27)

>  <Rbt.Parameter_File>
/export/apps/rDock/src/rDock_2013.1_src/data/scripts/dock_solv.prm

>  <Rbt.Receptor>
prm/blind_docking_60.prm

>  <SCORE>
-11.1921

>  <SCORE.INTER>
-8.01833

>  <SCORE.INTER.CONST>
1

>  <SCORE.INTER.POLAR>
0

>  <SCORE.INTER.ROT>
5

>  <SCORE.INTER.SOLV>
9.60789

>  <SCORE.INTER.VDW>
-15.4815

>  <SCORE.INTER.norm>
-0.348623

>  <SCORE.INTRA>
-3.17374

>  <SCORE.INTRA.DIHEDRAL>
-3.93844

>  <SCORE.INTRA.DIHEDRAL.0>
12.4853

>  <SCORE.INTRA.POLAR>
0

>  <SCORE.INTRA.POLAR.0>
0

>  <SCORE.INTRA.REPUL>
0

>  <SCORE.INTRA.REPUL.0>
0

>  <SCORE.INTRA.SOLV>
1.22712

>  <SCORE.INTRA.SOLV.lig_0>
-31.1706

>  <SCORE.INTRA.VDW>
-1.81808

>  <SCORE.INTRA.VDW.0>
-1.16895

>  <SCORE.INTRA.norm>
-0.137989

>  <SCORE.RESTR>
0

>  <SCORE.RESTR.CAVITY>
0

>  <SCORE.RESTR.norm>
0

>  <SCORE.SYSTEM>
0

>  <SCORE.SYSTEM.CONST>
0

>  <SCORE.SYSTEM.DIHEDRAL>
0

>  <SCORE.SYSTEM.SOLV>
0

>  <SCORE.SYSTEM.norm>
0

>  <SCORE.heavy>
23

>  <SCORE.norm>
-0.486612

>  <RMSD>
13.733

$$$$
ligand
 OpenBabel11021811513D
libRbt.so/2013.1/901 2013/11/27
 23 24  0  0  0  0  0  0  0  0999 V2000
  -13.0403    3.0267    2.5639 C   0  0  0  0  0  0  0  0  0  0  0  0
  -12.7438    2.1156    3.6398 O   0  0  0  0  0  0  0  0  0  0  0  0
  -11.8025    3.8605    2.2655 C   0  0  2  0  0  0  0  0  0  0  0  0
  -12.0126    5.0311    1.3173 C   0  0  1  0  0  0  0  0  0  0  0  0
  -12.5942    6.1226    2.0334 O   0  0  0  0  0  0  0  0  0  0  0  0
  -10.5929    5.2974    0.8284 C   0  0  2  0  0  0  0  0  0  0  0  0
  -10.4134    5.9975   -0.4085 O   0  0  0  0  0  0  0  0  0  0  0  0
  -10.0448    3.8862    0.7105 C   0  0  2  0  0  0  0  0  0  0  0  0
  -10.7745    3.0749    1.6553 O   0  0  0  0  0  0  0  0  0  0  0  0
   -8.5385    3.9416    1.0231 C   0  0  0  0  0  0  0  0  0  0  0  0
   -7.9342    2.6407    1.0325 O   0  0  0  0  0  0  0  0  0  0  0  0
   -9.7326    2.1096   -0.8938 C   0  0  2  0  0  0  0  0  0  0  0  0
  -10.3335    3.3838   -0.6052 O   0  0  0  0  0  0  0  0  0  0  0  0
   -9.9558    1.8255   -2.3675 C   0  0  2  0  0  0  0  0  0  0  0  0
   -9.5823    2.9781   -3.1306 O   0  0  0  0  0  0  0  0  0  0  0  0
  -11.4166    1.5387   -2.6367 C   0  0  1  0  0  0  0  0  0  0  0  0
  -11.5447    1.0387   -3.9698 O   0  0  0  0  0  0  0  0  0  0  0  0
  -11.9543    0.5257   -1.6438 C   0  0  2  0  0  0  0  0  0  0  0  0
  -13.3607    0.4216   -1.8181 O   0  0  0  0  0  0  0  0  0  0  0  0
  -11.6643    0.9285   -0.2042 C   0  0  2  0  0  0  0  0  0  0  0  0
  -10.2556    1.0643   -0.0743 O   0  0  0  0  0  0  0  0  0  0  0  0
  -12.1962   -0.1104    0.7903 C   0  0  0  0  0  0  0  0  0  0  0  0
  -11.7745    0.1373    2.1396 O   0  0  0  0  0  0  0  0  0  0  0  0
  1  2  1  0  0  0  0
  3  1  1  6  0  0  0
  3  9  1  0  0  0  0
  3  4  1  0  0  0  0
  4  5  1  1  0  0  0
  4  6  1  0  0  0  0
  6  7  1  6  0  0  0
  6  8  1  0  0  0  0
  8  9  1  0  0  0  0
  8 10  1  1  0  0  0
  8 13  1  0  0  0  0
 10 11  1  0  0  0  0
 12 13  1  1  0  0  0
 12 14  1  0  0  0  0
 12 21  1  0  0  0  0
 14 15  1  6  0  0  0
 14 16  1  0  0  0  0
 16 17  1  6  0  0  0
 16 18  1  0  0  0  0
 18 19  1  1  0  0  0
 18 20  1  0  0  0  0
 20 21  1  0  0  0  0
 20 22  1  1  0  0  0
 22 23  1  0  0  0  0
M  END
>  <CHROM.1>
-170.07517737,175.89334463,-171.63631136,173.32984337,171.55541027,-11.05718355
2.63698613,0.10298745,1.65935131,0.95576119,0.86009203

>  <Name>
ligand

>  <RI>
0

>  <Rbt.Current_Directory>
/home/itssahil/PROJECTS/Mol_Feturizer/New_Systems/rnas/4TS2

>  <Rbt.Executable>
rbdock ($Id: //depot/dev/client3/rdock/2013.1/src/exe/rbdock.cxx#4 $)

>  <Rbt.Library>
libRbt.so (2013.1, Build901 2013/11/27)

>  <Rbt.Parameter_File>
/export/apps/rDock/src/rDock_2013.1_src/data/scripts/dock_solv.prm

>  <Rbt.Receptor>
prm/blind_docking_100.prm

>  <SCORE>
-14.7238

>  <SCORE.INTER>
-8.53327

>  <SCORE.INTER.CONST>
1

>  <SCORE.INTER.POLAR>
0

>  <SCORE.INTER.ROT>
5

>  <SCORE.INTER.SOLV>
9.81504

>  <SCORE.INTER.VDW>
-15.8939

>  <SCORE.INTER.norm>
-0.371012

>  <SCORE.INTRA>
-6.19054

>  <SCORE.INTRA.DIHEDRAL>
-11.1332

>  <SCORE.INTRA.DIHEDRAL.0>
12.4853

>  <SCORE.INTRA.POLAR>
0

>  <SCORE.INTRA.POLAR.0>
0

>  <SCORE.INTRA.REPUL>
0

>  <SCORE.INTRA.REPUL.0>
0

>  <SCORE.INTRA.SOLV>
1.03076

>  <SCORE.INTRA.SOLV.lig_0>
-31.1706

>  <SCORE.INTRA.VDW>
-1.13932

>  <SCORE.INTRA.VDW.0>
-1.16895

>  <SCORE.INTRA.norm>
-0.269154

>  <SCORE.RESTR>
0

>  <SCORE.RESTR.CAVITY>
0

>  <SCORE.RESTR.norm>
0

>  <SCORE.SYSTEM>
0

>  <SCORE.SYSTEM.CONST>
0

>  <SCORE.SYSTEM.DIHEDRAL>
0

>  <SCORE.SYSTEM.SOLV>
0

>  <SCORE.SYSTEM.norm>
0

>  <SCORE.heavy>
23

>  <SCORE.norm>
-0.640166

>  <RMSD>
13.734

$$$$
ligand
 OpenBabel11021811513D
libRbt.so/2013.1/901 2013/11/27
 23 24  0  0  0  0  0  0  0  0999 V2000
   -5.6699    3.1153   -2.5890 C   0  0  0  0  0  0  0  0  0  0  0  0
   -5.2331    3.4393   -3.9231 O   0  0  0  0  0  0  0  0  0  0  0  0
   -6.6620    4.1710   -2.1223 C   0  0  2  0  0  0  0  0  0  0  0  0
   -7.2439    3.9565   -0.7335 C   0  0  1  0  0  0  0  0  0  0  0  0
   -6.2993    4.3880    0.2481 O   0  0  0  0  0  0  0  0  0  0  0  0
   -8.5100    4.8046   -0.7896 C   0  0  2  0  0  0  0  0  0  0  0  0
   -9.5709    4.5150    0.1284 O   0  0  0  0  0  0  0  0  0  0  0  0
   -8.9748    4.5591   -2.2143 C   0  0  2  0  0  0  0  0  0  0  0  0
   -7.7981    4.2435   -2.9884 O   0  0  0  0  0  0  0  0  0  0  0  0
   -9.6757    5.8387   -2.7050 C   0  0  0  0  0  0  0  0  0  0  0  0
  -10.9015    6.0932   -2.0047 O   0  0  0  0  0  0  0  0  0  0  0  0
   -9.1450    2.1632   -1.9726 C   0  0  2  0  0  0  0  0  0  0  0  0
   -9.8278    3.4020   -2.2320 O   0  0  0  0  0  0  0  0  0  0  0  0
   -9.8614    1.0775   -2.7539 C   0  0  2  0  0  0  0  0  0  0  0  0
  -10.0517    1.5166   -4.1034 O   0  0  0  0  0  0  0  0  0  0  0  0
  -11.2230    0.8035   -2.1539 C   0  0  1  0  0  0  0  0  0  0  0  0
  -11.7561   -0.3789   -2.7548 O   0  0  0  0  0  0  0  0  0  0  0  0
  -11.1190    0.6257   -0.6511 C   0  0  2  0  0  0  0  0  0  0  0  0
  -12.4312    0.5501   -0.1110 O   0  0  0  0  0  0  0  0  0  0  0  0
  -10.3794    1.7809    0.0104 C   0  0  2  0  0  0  0  0  0  0  0  0
   -9.0887    1.8553   -0.5799 O   0  0  0  0  0  0  0  0  0  0  0  0
  -10.2644    1.5829    1.5265 C   0  0  0  0  0  0  0  0  0  0  0  0
   -9.5997    2.6708    2.1855 O   0  0  0  0  0  0  0  0  0  0  0  0
  1  2  1  0  0  0  0
  3  1  1  6  0  0  0
  3  9  1  0  0  0  0
  3  4  1  0  0  0  0
  4  5  1  1  0  0  0
  4  6  1  0  0  0  0
  6  7  1  1  0  0  0
  6  8  1  0  0  0  0
  8  9  1  0  0  0  0
  8 10  1  6  0  0  0
  8 13  1  0  0  0  0
 10 11  1  0  0  0  0
 12 13  1  1  0  0  0
 12 14  1  0  0  0  0
 12 21  1  0  0  0  0
 14 15  1  6  0  0  0
 14 16  1  0  0  0  0
 16 17  1  6  0  0  0
 16 18  1  0  0  0  0
 18 19  1  1  0  0  0
 18 20  1  0  0  0  0
 20 21  1  0  0  0  0
 20 22  1  1  0  0  0
 22 23  1  0  0  0  0
M  END
>  <CHROM.1>
178.77180240,-67.22333124,-148.20116096,-69.12439932,-178.60247000,-9.19459239
2.90692293,-1.44499905,-0.01654523,-0.71861025,-1.94668512

>  <Name>
ligand

>  <RI>
0

>  <Rbt.Current_Directory>
/home/itssahil/PROJECTS/Mol_Feturizer/New_Systems/rnas/4TS2

>  <Rbt.Executable>
rbdock ($Id: //depot/dev/client3/rdock/2013.1/src/exe/rbdock.cxx#4 $)

>  <Rbt.Library>
libRbt.so (2013.1, Build901 2013/11/27)

>  <Rbt.Parameter_File>
/export/apps/rDock/src/rDock_2013.1_src/data/scripts/dock_solv.prm

>  <Rbt.Receptor>
prm/blind_docking_60.prm

>  <SCORE>
-11.8249

>  <SCORE.INTER>
-7.95468

>  <SCORE.INTER.CONST>
1

>  <SCORE.INTER.POLAR>
0

>  <SCORE.INTER.ROT>
5

>  <SCORE.INTER.SOLV>
11.1019

>  <SCORE.INTER.VDW>
-15.9371

>  <SCORE.INTER.norm>
-0.345856

>  <SCORE.INTRA>
-3.87025

>  <SCORE.INTRA.DIHEDRAL>
-7.83862

>  <SCORE.INTRA.DIHEDRAL.0>
12.4853

>  <SCORE.INTRA.POLAR>
0

>  <SCORE.INTRA.POLAR.0>
0

>  <SCORE.INTRA.REPUL>
0

>  <SCORE.INTRA.REPUL.0>
0

>  <SCORE.INTRA.SOLV>
1.05783

>  <SCORE.INTRA.SOLV.lig_0>
-31.1706

>  <SCORE.INTRA.VDW>
-0.479859

>  <SCORE.INTRA.VDW.0>
-1.16895

>  <SCORE.INTRA.norm>
-0.168272

>  <SCORE.RESTR>
0

>  <SCORE.RESTR.CAVITY>
0

>  <SCORE.RESTR.norm>
0

>  <SCORE.SYSTEM>
0

>  <SCORE.SYSTEM.CONST>
0

>  <SCORE.SYSTEM.DIHEDRAL>
0

>  <SCORE.SYSTEM.SOLV>
0

>  <SCORE.SYSTEM.norm>
0

>  <SCORE.heavy>
23

>  <SCORE.norm>
-0.514128

>  <RMSD>
13.734

$$$$
ligand
 OpenBabel11021811513D
libRbt.so/2013.1/901 2013/11/27
 23 24  0  0  0  0  0  0  0  0999 V2000
  -13.1850    3.1676    2.4843 C   0  0  0  0  0  0  0  0  0  0  0  0
  -13.0376    2.2816    3.6107 O   0  0  0  0  0  0  0  0  0  0  0  0
  -11.8696    3.8972    2.2524 C   0  0  2  0  0  0  0  0  0  0  0  0
  -11.9295    5.0651    1.2798 C   0  0  1  0  0  0  0  0  0  0  0  0
  -12.4650    6.2102    1.9464 O   0  0  0  0  0  0  0  0  0  0  0  0
  -10.4665    5.2118    0.8754 C   0  0  2  0  0  0  0  0  0  0  0  0
  -10.1584    5.8755   -0.3562 O   0  0  0  0  0  0  0  0  0  0  0  0
  -10.0253    3.7603    0.8075 C   0  0  2  0  0  0  0  0  0  0  0  0
  -10.8722    3.0240    1.7152 O   0  0  0  0  0  0  0  0  0  0  0  0
   -8.5408    3.7030    1.2108 C   0  0  0  0  0  0  0  0  0  0  0  0
   -7.6920    4.3712    0.2671 O   0  0  0  0  0  0  0  0  0  0  0  0
   -9.7335    1.9507   -0.7634 C   0  0  2  0  0  0  0  0  0  0  0  0
  -10.2734    3.2607   -0.5175 O   0  0  0  0  0  0  0  0  0  0  0  0
   -9.9308    1.6473   -2.2370 C   0  0  2  0  0  0  0  0  0  0  0  0
   -9.4757    2.7621   -3.0119 O   0  0  0  0  0  0  0  0  0  0  0  0
  -11.3969    1.4320   -2.5420 C   0  0  1  0  0  0  0  0  0  0  0  0
  -11.5148    0.9111   -3.8680 O   0  0  0  0  0  0  0  0  0  0  0  0
  -12.0148    0.4702   -1.5449 C   0  0  2  0  0  0  0  0  0  0  0  0
  -13.4195    0.4365   -1.7572 O   0  0  0  0  0  0  0  0  0  0  0  0
  -11.7435    0.8879   -0.1059 C   0  0  2  0  0  0  0  0  0  0  0  0
  -10.3336    0.9522    0.0614 O   0  0  0  0  0  0  0  0  0  0  0  0
  -12.3569   -0.1000    0.8935 C   0  0  0  0  0  0  0  0  0  0  0  0
  -12.0186    0.1975    2.2561 O   0  0  0  0  0  0  0  0  0  0  0  0
  1  2  1  0  0  0  0
  3  1  1  6  0  0  0
  3  9  1  0  0  0  0
  3  4  1  0  0  0  0
  4  5  1  1  0  0  0
  4  6  1  0  0  0  0
  6  7  1  6  0  0  0
  6  8  1  0  0  0  0
  8  9  1  0  0  0  0
  8 10  1  1  0  0  0
  8 13  1  0  0  0  0
 10 11  1  0  0  0  0
 12 13  1  1  0  0  0
 12 14  1  0  0  0  0
 12 21  1  0  0  0  0
 14 15  1  6  0  0  0
 14 16  1  0  0  0  0
 16 17  1  6  0  0  0
 16 18  1  0  0  0  0
 18 19  1  1  0  0  0
 18 20  1  0  0  0  0
 20 21  1  0  0  0  0
 20 22  1  1  0  0  0
 22 23  1  0  0  0  0
M  END
>  <CHROM.1>
-168.45889235,-65.89815969,-173.21433863,172.04626695,174.73902509,-11.06516995
2.66976819,0.12964939,1.56347246,0.83573222,0.84233207

>  <Name>
ligand

>  <RI>
0

>  <Rbt.Current_Directory>
/home/itssahil/PROJECTS/Mol_Feturizer/New_Systems/rnas/4TS2

>  <Rbt.Executable>
rbdock ($Id: //depot/dev/client3/rdock/2013.1/src/exe/rbdock.cxx#4 $)

>  <Rbt.Library>
libRbt.so (2013.1, Build901 2013/11/27)

>  <Rbt.Parameter_File>
/export/apps/rDock/src/rDock_2013.1_src/data/scripts/dock_solv.prm

>  <Rbt.Receptor>
prm/blind_docking_100.prm

>  <SCORE>
-15.7069

>  <SCORE.INTER>
-9.01375

>  <SCORE.INTER.CONST>
1

>  <SCORE.INTER.POLAR>
0

>  <SCORE.INTER.ROT>
5

>  <SCORE.INTER.SOLV>
8.91886

>  <SCORE.INTER.VDW>
-15.9155

>  <SCORE.INTER.norm>
-0.391902

>  <SCORE.INTRA>
-6.69315

>  <SCORE.INTRA.DIHEDRAL>
-11.1276

>  <SCORE.INTRA.DIHEDRAL.0>
12.4853

>  <SCORE.INTRA.POLAR>
0

>  <SCORE.INTRA.POLAR.0>
0

>  <SCORE.INTRA.REPUL>
0

>  <SCORE.INTRA.REPUL.0>
0

>  <SCORE.INTRA.SOLV>
0.971376

>  <SCORE.INTRA.SOLV.lig_0>
-31.1706

>  <SCORE.INTRA.VDW>
-1.61505

>  <SCORE.INTRA.VDW.0>
-1.16895

>  <SCORE.INTRA.norm>
-0.291007

>  <SCORE.RESTR>
0

>  <SCORE.RESTR.CAVITY>
0

>  <SCORE.RESTR.norm>
0

>  <SCORE.SYSTEM>
0

>  <SCORE.SYSTEM.CONST>
0

>  <SCORE.SYSTEM.DIHEDRAL>
0

>  <SCORE.SYSTEM.SOLV>
0

>  <SCORE.SYSTEM.norm>
0

>  <SCORE.heavy>
23

>  <SCORE.norm>
-0.682909

>  <RMSD>
13.735

$$$$
ligand
 OpenBabel11021811513D
libRbt.so/2013.1/901 2013/11/27
 23 24  0  0  0  0  0  0  0  0999 V2000
  -12.5171    4.2218    2.6187 C   0  0  0  0  0  0  0  0  0  0  0  0
  -12.1329    3.6314    3.8754 O   0  0  0  0  0  0  0  0  0  0  0  0
  -11.2773    4.7769    1.9324 C   0  0  2  0  0  0  0  0  0  0  0  0
  -11.5262    5.5237    0.6309 C   0  0  1  0  0  0  0  0  0  0  0  0
  -11.9765    6.8481    0.9230 O   0  0  0  0  0  0  0  0  0  0  0  0
  -10.1532    5.4680   -0.0302 C   0  0  2  0  0  0  0  0  0  0  0  0
  -10.0680    5.6394   -1.4499 O   0  0  0  0  0  0  0  0  0  0  0  0
   -9.6902    4.0735    0.3530 C   0  0  2  0  0  0  0  0  0  0  0  0
  -10.3576    3.7369    1.5878 O   0  0  0  0  0  0  0  0  0  0  0  0
   -8.1588    4.1139    0.5044 C   0  0  0  0  0  0  0  0  0  0  0  0
   -7.4933    4.3718   -0.7399 O   0  0  0  0  0  0  0  0  0  0  0  0
   -9.7024    1.7903   -0.4309 C   0  0  2  0  0  0  0  0  0  0  0  0
  -10.1374    3.1437   -0.6481 O   0  0  0  0  0  0  0  0  0  0  0  0
  -10.1298    0.9765   -1.6382 C   0  0  2  0  0  0  0  0  0  0  0  0
   -9.7422    1.6662   -2.8316 O   0  0  0  0  0  0  0  0  0  0  0  0
  -11.6335    0.8108   -1.6602 C   0  0  1  0  0  0  0  0  0  0  0  0
  -11.9708   -0.1558   -2.6578 O   0  0  0  0  0  0  0  0  0  0  0  0
  -12.1417    0.3619   -0.3033 C   0  0  2  0  0  0  0  0  0  0  0  0
  -13.5624    0.3922   -0.3180 O   0  0  0  0  0  0  0  0  0  0  0  0
  -11.6410    1.2605    0.8195 C   0  0  2  0  0  0  0  0  0  0  0  0
  -10.2205    1.2410    0.7805 O   0  0  0  0  0  0  0  0  0  0  0  0
  -12.1458    0.7880    2.1880 C   0  0  0  0  0  0  0  0  0  0  0  0
  -11.6836   -0.5260    2.5334 O   0  0  0  0  0  0  0  0  0  0  0  0
  1  2  1  0  0  0  0
  3  1  1  6  0  0  0
  3  9  1  0  0  0  0
  3  4  1  0  0  0  0
  4  5  1  1  0  0  0
  4  6  1  0  0  0  0
  6  7  1  6  0  0  0
  6  8  1  0  0  0  0
  8  9  1  0  0  0  0
  8 10  1  1  0  0  0
  8 13  1  0  0  0  0
 10 11  1  0  0  0  0
 12 13  1  6  0  0  0
 12 14  1  0  0  0  0
 12 21  1  0  0  0  0
 14 15  1  6  0  0  0
 14 16  1  0  0  0  0
 16 17  1  6  0  0  0
 16 18  1  0  0  0  0
 18 19  1  6  0  0  0
 18 20  1  0  0  0  0
 20 21  1  0  0  0  0
 20 22  1  1  0  0  0
 22 23  1  0  0  0  0
M  END
>  <CHROM.1>
-175.90864599,-65.99029611,-174.15012322,177.08242581,62.07714751,-10.87422175
2.78155460,0.25957802,1.16292976,0.93553041,0.58954751

>  <Name>
ligand

>  <RI>
0

>  <Rbt.Current_Directory>
/home/itssahil/PROJECTS/Mol_Feturizer/New_Systems/rnas/4TS2

>  <Rbt.Executable>
rbdock ($Id: //depot/dev/client3/rdock/2013.1/src/exe/rbdock.cxx#4 $)

>  <Rbt.Library>
libRbt.so (2013.1, Build901 2013/11/27)

>  <Rbt.Parameter_File>
/export/apps/rDock/src/rDock_2013.1_src/data/scripts/dock_solv.prm

>  <Rbt.Receptor>
prm/blind_docking_60.prm

>  <SCORE>
-12.9014

>  <SCORE.INTER>
-5.61779

>  <SCORE.INTER.CONST>
1

>  <SCORE.INTER.POLAR>
0

>  <SCORE.INTER.ROT>
5

>  <SCORE.INTER.SOLV>
8.45774

>  <SCORE.INTER.VDW>
-13.4978

>  <SCORE.INTER.norm>
-0.244252

>  <SCORE.INTRA>
-7.28358

>  <SCORE.INTRA.DIHEDRAL>
-12.0053

>  <SCORE.INTRA.DIHEDRAL.0>
12.4853

>  <SCORE.INTRA.POLAR>
0

>  <SCORE.INTRA.POLAR.0>
0

>  <SCORE.INTRA.REPUL>
0

>  <SCORE.INTRA.REPUL.0>
0

>  <SCORE.INTRA.SOLV>
0.478175

>  <SCORE.INTRA.SOLV.lig_0>
-31.1706

>  <SCORE.INTRA.VDW>
-1.52002

>  <SCORE.INTRA.VDW.0>
-1.16895

>  <SCORE.INTRA.norm>
-0.316677

>  <SCORE.RESTR>
0

>  <SCORE.RESTR.CAVITY>
0

>  <SCORE.RESTR.norm>
0

>  <SCORE.SYSTEM>
0

>  <SCORE.SYSTEM.CONST>
0

>  <SCORE.SYSTEM.DIHEDRAL>
0

>  <SCORE.SYSTEM.SOLV>
0

>  <SCORE.SYSTEM.norm>
0

>  <SCORE.heavy>
23

>  <SCORE.norm>
-0.560929

>  <RMSD>
13.735

$$$$
ligand
 OpenBabel11021811513D
libRbt.so/2013.1/901 2013/11/27
 23 24  0  0  0  0  0  0  0  0999 V2000
  -10.6958    2.6829    5.5860 C   0  0  0  0  0  0  0  0  0  0  0  0
  -11.4252    3.3429    6.6385 O   0  0  0  0  0  0  0  0  0  0  0  0
  -10.0216    3.7340    4.7159 C   0  0  2  0  0  0  0  0  0  0  0  0
  -10.9608    4.6701    3.9710 C   0  0  1  0  0  0  0  0  0  0  0  0
  -11.4252    5.6848    4.8637 O   0  0  0  0  0  0  0  0  0  0  0  0
  -10.0630    5.1916    2.8540 C   0  0  2  0  0  0  0  0  0  0  0  0
  -10.6756    5.7262    1.6746 O   0  0  0  0  0  0  0  0  0  0  0  0
   -9.2624    3.9492    2.5056 C   0  0  2  0  0  0  0  0  0  0  0  0
   -9.2172    3.1345    3.6962 O   0  0  0  0  0  0  0  0  0  0  0  0
   -7.8641    4.4055    2.0517 C   0  0  0  0  0  0  0  0  0  0  0  0
   -7.9045    5.1600    0.8324 O   0  0  0  0  0  0  0  0  0  0  0  0
   -9.3611    1.9506    1.1551 C   0  0  2  0  0  0  0  0  0  0  0  0
   -9.9716    3.2063    1.4996 O   0  0  0  0  0  0  0  0  0  0  0  0
   -9.6578    1.6880   -0.3096 C   0  0  2  0  0  0  0  0  0  0  0  0
   -9.3500    2.8617   -1.0698 O   0  0  0  0  0  0  0  0  0  0  0  0
  -11.1248    1.3744   -0.5052 C   0  0  1  0  0  0  0  0  0  0  0  0
  -11.3146    0.8955   -1.8386 O   0  0  0  0  0  0  0  0  0  0  0  0
  -11.5869    0.3327    0.4959 C   0  0  2  0  0  0  0  0  0  0  0  0
  -12.9983    0.2013    0.3955 O   0  0  0  0  0  0  0  0  0  0  0  0
  -11.2279    0.7161    1.9252 C   0  0  2  0  0  0  0  0  0  0  0  0
   -9.8173    0.8800    1.9817 O   0  0  0  0  0  0  0  0  0  0  0  0
  -11.6835   -0.3515    2.9271 C   0  0  0  0  0  0  0  0  0  0  0  0
  -11.3088   -0.0485    4.2789 O   0  0  0  0  0  0  0  0  0  0  0  0
  1  2  1  0  0  0  0
  3  1  1  6  0  0  0
  3  9  1  0  0  0  0
  3  4  1  0  0  0  0
  4  5  1  1  0  0  0
  4  6  1  0  0  0  0
  6  7  1  6  0  0  0
  6  8  1  0  0  0  0
  8  9  1  0  0  0  0
  8 10  1  6  0  0  0
  8 13  1  0  0  0  0
 10 11  1  0  0  0  0
 12 13  1  1  0  0  0
 12 14  1  0  0  0  0
 12 21  1  0  0  0  0
 14 15  1  6  0  0  0
 14 16  1  0  0  0  0
 16 17  1  6  0  0  0
 16 18  1  0  0  0  0
 18 19  1  1  0  0  0
 18 20  1  0  0  0  0
 20 21  1  0  0  0  0
 20 22  1  1  0  0  0
 22 23  1  0  0  0  0
M  END
>  <CHROM.1>
-63.74476634,-65.45020750,-148.07159518,-175.59618052,177.45576649,-10.39855343
2.67638932,2.18921359,1.37422622,1.05519916,1.12309101

>  <Name>
ligand

>  <RI>
0

>  <Rbt.Current_Directory>
/home/itssahil/PROJECTS/Mol_Feturizer/New_Systems/rnas/4TS2

>  <Rbt.Executable>
rbdock ($Id: //depot/dev/client3/rdock/2013.1/src/exe/rbdock.cxx#4 $)

>  <Rbt.Library>
libRbt.so (2013.1, Build901 2013/11/27)

>  <Rbt.Parameter_File>
/export/apps/rDock/src/rDock_2013.1_src/data/scripts/dock_solv.prm

>  <Rbt.Receptor>
prm/blind_docking_80.prm

>  <SCORE>
-11.9072

>  <SCORE.INTER>
-6.40148

>  <SCORE.INTER.CONST>
1

>  <SCORE.INTER.POLAR>
0

>  <SCORE.INTER.ROT>
5

>  <SCORE.INTER.SOLV>
8.77847

>  <SCORE.INTER.VDW>
-14.1271

>  <SCORE.INTER.norm>
-0.278325

>  <SCORE.INTRA>
-5.50571

>  <SCORE.INTRA.DIHEDRAL>
-8.31054

>  <SCORE.INTRA.DIHEDRAL.0>
12.4853

>  <SCORE.INTRA.POLAR>
0

>  <SCORE.INTRA.POLAR.0>
0

>  <SCORE.INTRA.REPUL>
0

>  <SCORE.INTRA.REPUL.0>
0

>  <SCORE.INTRA.SOLV>
0.667151

>  <SCORE.INTRA.SOLV.lig_0>
-31.1706

>  <SCORE.INTRA.VDW>
-1.68402

>  <SCORE.INTRA.VDW.0>
-1.16895

>  <SCORE.INTRA.norm>
-0.239379

>  <SCORE.RESTR>
0

>  <SCORE.RESTR.CAVITY>
0

>  <SCORE.RESTR.norm>
0

>  <SCORE.SYSTEM>
0

>  <SCORE.SYSTEM.CONST>
0

>  <SCORE.SYSTEM.DIHEDRAL>
0

>  <SCORE.SYSTEM.SOLV>
0

>  <SCORE.SYSTEM.norm>
0

>  <SCORE.heavy>
23

>  <SCORE.norm>
-0.517704

>  <RMSD>
13.737

$$$$
ligand
 OpenBabel11021811513D
libRbt.so/2013.1/901 2013/11/27
 23 24  0  0  0  0  0  0  0  0999 V2000
  -13.1044    3.2156    2.4903 C   0  0  0  0  0  0  0  0  0  0  0  0
  -12.9431    2.2965    3.5879 O   0  0  0  0  0  0  0  0  0  0  0  0
  -11.7804    3.9223    2.2372 C   0  0  2  0  0  0  0  0  0  0  0  0
  -11.8334    5.0840    1.2567 C   0  0  1  0  0  0  0  0  0  0  0  0
  -12.3423    6.2423    1.9212 O   0  0  0  0  0  0  0  0  0  0  0  0
  -10.3732    5.2042    0.8337 C   0  0  2  0  0  0  0  0  0  0  0  0
  -10.0696    5.8540   -0.4064 O   0  0  0  0  0  0  0  0  0  0  0  0
   -9.9562    3.7454    0.7712 C   0  0  2  0  0  0  0  0  0  0  0  0
  -10.8036    3.0293    1.6945 O   0  0  0  0  0  0  0  0  0  0  0  0
   -8.4680    3.6671    1.1571 C   0  0  0  0  0  0  0  0  0  0  0  0
   -8.2237    4.1371    2.4901 O   0  0  0  0  0  0  0  0  0  0  0  0
   -9.7053    1.9233   -0.7924 C   0  0  2  0  0  0  0  0  0  0  0  0
  -10.2283    3.2403   -0.5470 O   0  0  0  0  0  0  0  0  0  0  0  0
   -9.9142    1.6186   -2.2641 C   0  0  2  0  0  0  0  0  0  0  0  0
   -9.4500    2.7259   -3.0443 O   0  0  0  0  0  0  0  0  0  0  0  0
  -11.3844    1.4200   -2.5607 C   0  0  1  0  0  0  0  0  0  0  0  0
  -11.5155    0.8972   -3.8847 O   0  0  0  0  0  0  0  0  0  0  0  0
  -12.0082    0.4682   -1.5578 C   0  0  2  0  0  0  0  0  0  0  0  0
  -13.4143    0.4507   -1.7625 O   0  0  0  0  0  0  0  0  0  0  0  0
  -11.7243    0.8862   -0.1213 C   0  0  2  0  0  0  0  0  0  0  0  0
  -10.3129    0.9341    0.0383 O   0  0  0  0  0  0  0  0  0  0  0  0
  -12.3440   -0.0918    0.8839 C   0  0  0  0  0  0  0  0  0  0  0  0
  -11.9764    0.1915    2.2419 O   0  0  0  0  0  0  0  0  0  0  0  0
  1  2  1  0  0  0  0
  3  1  1  6  0  0  0
  3  9  1  0  0  0  0
  3  4  1  0  0  0  0
  4  5  1  1  0  0  0
  4  6  1  0  0  0  0
  6  7  1  6  0  0  0
  6  8  1  0  0  0  0
  8  9  1  0  0  0  0
  8 10  1  1  0  0  0
  8 13  1  0  0  0  0
 10 11  1  0  0  0  0
 12 13  1  1  0  0  0
 12 14  1  0  0  0  0
 12 21  1  0  0  0  0
 14 15  1  6  0  0  0
 14 16  1  0  0  0  0
 16 17  1  6  0  0  0
 16 18  1  0  0  0  0
 18 19  1  1  0  0  0
 18 20  1  0  0  0  0
 20 21  1  0  0  0  0
 20 22  1  1  0  0  0
 22 23  1  0  0  0  0
M  END
>  <CHROM.1>
-170.70315637,61.37057838,-172.65504379,171.68519424,173.74348099,-11.04251758
2.65514330,0.21372794,1.46448265,0.88165031,0.94485852

>  <Name>
ligand

>  <RI>
0

>  <Rbt.Current_Directory>
/home/itssahil/PROJECTS/Mol_Feturizer/New_Systems/rnas/4TS2

>  <Rbt.Executable>
rbdock ($Id: //depot/dev/client3/rdock/2013.1/src/exe/rbdock.cxx#4 $)

>  <Rbt.Library>
libRbt.so (2013.1, Build901 2013/11/27)

>  <Rbt.Parameter_File>
/export/apps/rDock/src/rDock_2013.1_src/data/scripts/dock_solv.prm

>  <Rbt.Receptor>
prm/blind_docking_80.prm

>  <SCORE>
-15.8721

>  <SCORE.INTER>
-9.20098

>  <SCORE.INTER.CONST>
1

>  <SCORE.INTER.POLAR>
0

>  <SCORE.INTER.ROT>
5

>  <SCORE.INTER.SOLV>
9.58092

>  <SCORE.INTER.VDW>
-16.261

>  <SCORE.INTER.norm>
-0.400043

>  <SCORE.INTRA>
-6.6711

>  <SCORE.INTRA.DIHEDRAL>
-11.2391

>  <SCORE.INTRA.DIHEDRAL.0>
12.4853

>  <SCORE.INTRA.POLAR>
0

>  <SCORE.INTRA.POLAR.0>
0

>  <SCORE.INTRA.REPUL>
0

>  <SCORE.INTRA.REPUL.0>
0

>  <SCORE.INTRA.SOLV>
0.770867

>  <SCORE.INTRA.SOLV.lig_0>
-31.1706

>  <SCORE.INTRA.VDW>
-1.43698

>  <SCORE.INTRA.VDW.0>
-1.16895

>  <SCORE.INTRA.norm>
-0.290048

>  <SCORE.RESTR>
0

>  <SCORE.RESTR.CAVITY>
0

>  <SCORE.RESTR.norm>
0

>  <SCORE.SYSTEM>
0

>  <SCORE.SYSTEM.CONST>
0

>  <SCORE.SYSTEM.DIHEDRAL>
0

>  <SCORE.SYSTEM.SOLV>
0

>  <SCORE.SYSTEM.norm>
0

>  <SCORE.heavy>
23

>  <SCORE.norm>
-0.69009

>  <RMSD>
13.743

$$$$
ligand
 OpenBabel11021811513D
libRbt.so/2013.1/901 2013/11/27
 23 24  0  0  0  0  0  0  0  0999 V2000
  -12.9603    2.9246    2.5446 C   0  0  0  0  0  0  0  0  0  0  0  0
  -12.6303    2.0062    3.6044 O   0  0  0  0  0  0  0  0  0  0  0  0
  -11.7542    3.8087    2.2616 C   0  0  2  0  0  0  0  0  0  0  0  0
  -12.0125    4.9998    1.3516 C   0  0  1  0  0  0  0  0  0  0  0  0
  -12.6239    6.0486    2.1056 O   0  0  0  0  0  0  0  0  0  0  0  0
  -10.6073    5.3289    0.8593 C   0  0  2  0  0  0  0  0  0  0  0  0
  -10.4630    6.0719   -0.3569 O   0  0  0  0  0  0  0  0  0  0  0  0
  -10.0129    3.9414    0.6937 C   0  0  2  0  0  0  0  0  0  0  0  0
  -10.7061    3.0774    1.6191 O   0  0  0  0  0  0  0  0  0  0  0  0
   -8.5065    4.0384    0.9953 C   0  0  0  0  0  0  0  0  0  0  0  0
   -7.8648    2.7556    0.9916 O   0  0  0  0  0  0  0  0  0  0  0  0
   -9.6635    2.2212   -0.9636 C   0  0  2  0  0  0  0  0  0  0  0  0
  -10.2968    3.4696   -0.6344 O   0  0  0  0  0  0  0  0  0  0  0  0
   -9.9269    1.9520   -2.4335 C   0  0  2  0  0  0  0  0  0  0  0  0
   -9.6188    3.1281   -3.1898 O   0  0  0  0  0  0  0  0  0  0  0  0
  -11.3856    1.6194   -2.6581 C   0  0  1  0  0  0  0  0  0  0  0  0
  -11.5421    1.1355   -3.9941 O   0  0  0  0  0  0  0  0  0  0  0  0
  -11.8546    0.5737   -1.6644 C   0  0  2  0  0  0  0  0  0  0  0  0
  -13.2619    0.4241   -1.7931 O   0  0  0  0  0  0  0  0  0  0  0  0
  -11.5296    0.9644   -0.2289 C   0  0  2  0  0  0  0  0  0  0  0  0
  -10.1227    1.1464   -0.1442 O   0  0  0  0  0  0  0  0  0  0  0  0
  -11.9919   -0.1070    0.7659 C   0  0  0  0  0  0  0  0  0  0  0  0
  -11.4896    0.1058    2.0933 O   0  0  0  0  0  0  0  0  0  0  0  0
  1  2  1  0  0  0  0
  3  1  1  6  0  0  0
  3  9  1  0  0  0  0
  3  4  1  0  0  0  0
  4  5  1  1  0  0  0
  4  6  1  0  0  0  0
  6  7  1  6  0  0  0
  6  8  1  0  0  0  0
  8  9  1  0  0  0  0
  8 10  1  1  0  0  0
  8 13  1  0  0  0  0
 10 11  1  0  0  0  0
 12 13  1  1  0  0  0
 12 14  1  0  0  0  0
 12 21  1  0  0  0  0
 14 15  1  6  0  0  0
 14 16  1  0  0  0  0
 16 17  1  6  0  0  0
 16 18  1  0  0  0  0
 18 19  1  1  0  0  0
 18 20  1  0  0  0  0
 20 21  1  0  0  0  0
 20 22  1  1  0  0  0
 22 23  1  0  0  0  0
M  END
>  <CHROM.1>
-169.15630674,174.48482129,-173.42711189,173.74020616,169.24297374,-10.99418440
2.67142973,0.08468094,1.67276461,0.99891741,0.86831270

>  <Name>
ligand

>  <RI>
0

>  <Rbt.Current_Directory>
/home/itssahil/PROJECTS/Mol_Feturizer/New_Systems/rnas/4TS2

>  <Rbt.Executable>
rbdock ($Id: //depot/dev/client3/rdock/2013.1/src/exe/rbdock.cxx#4 $)

>  <Rbt.Library>
libRbt.so (2013.1, Build901 2013/11/27)

>  <Rbt.Parameter_File>
/export/apps/rDock/src/rDock_2013.1_src/data/scripts/dock_solv.prm

>  <Rbt.Receptor>
prm/blind_docking_80.prm

>  <SCORE>
-14.6787

>  <SCORE.INTER>
-8.44981

>  <SCORE.INTER.CONST>
1

>  <SCORE.INTER.POLAR>
0

>  <SCORE.INTER.ROT>
5

>  <SCORE.INTER.SOLV>
9.81258

>  <SCORE.INTER.VDW>
-15.8374

>  <SCORE.INTER.norm>
-0.367383

>  <SCORE.INTRA>
-6.22886

>  <SCORE.INTRA.DIHEDRAL>
-11.0353

>  <SCORE.INTRA.DIHEDRAL.0>
12.4853

>  <SCORE.INTRA.POLAR>
0

>  <SCORE.INTRA.POLAR.0>
0

>  <SCORE.INTRA.REPUL>
0

>  <SCORE.INTRA.REPUL.0>
0

>  <SCORE.INTRA.SOLV>
1.06323

>  <SCORE.INTRA.SOLV.lig_0>
-31.1706

>  <SCORE.INTRA.VDW>
-1.24281

>  <SCORE.INTRA.VDW.0>
-1.16895

>  <SCORE.INTRA.norm>
-0.27082

>  <SCORE.RESTR>
0

>  <SCORE.RESTR.CAVITY>
0

>  <SCORE.RESTR.norm>
0

>  <SCORE.SYSTEM>
0

>  <SCORE.SYSTEM.CONST>
0

>  <SCORE.SYSTEM.DIHEDRAL>
0

>  <SCORE.SYSTEM.SOLV>
0

>  <SCORE.SYSTEM.norm>
0

>  <SCORE.heavy>
23

>  <SCORE.norm>
-0.638203

>  <RMSD>
13.745

$$$$
ligand
 OpenBabel11021811513D
libRbt.so/2013.1/901 2013/11/27
 23 24  0  0  0  0  0  0  0  0999 V2000
   -9.8563    2.7210    3.7144 C   0  0  0  0  0  0  0  0  0  0  0  0
  -10.3533    3.3620    4.9051 O   0  0  0  0  0  0  0  0  0  0  0  0
   -9.4777    3.7889    2.6981 C   0  0  2  0  0  0  0  0  0  0  0  0
  -10.6230    4.6580    2.2017 C   0  0  1  0  0  0  0  0  0  0  0  0
  -10.9107    5.6642    3.1748 O   0  0  0  0  0  0  0  0  0  0  0  0
  -10.0585    5.2040    0.8945 C   0  0  2  0  0  0  0  0  0  0  0  0
  -10.9718    5.6809   -0.1009 O   0  0  0  0  0  0  0  0  0  0  0  0
   -9.2988    3.9995    0.3675 C   0  0  2  0  0  0  0  0  0  0  0  0
   -8.9159    3.2128    1.5155 O   0  0  0  0  0  0  0  0  0  0  0  0
   -8.0832    4.5207   -0.4202 C   0  0  0  0  0  0  0  0  0  0  0  0
   -8.4655    5.2705   -1.5818 O   0  0  0  0  0  0  0  0  0  0  0  0
   -9.6825    1.8917   -0.7452 C   0  0  2  0  0  0  0  0  0  0  0  0
  -10.1900    3.1993   -0.4277 O   0  0  0  0  0  0  0  0  0  0  0  0
   -9.9439    1.6487   -2.2200 C   0  0  2  0  0  0  0  0  0  0  0  0
   -9.5015    2.7856   -2.9697 O   0  0  0  0  0  0  0  0  0  0  0  0
  -11.4245    1.4679   -2.4730 C   0  0  1  0  0  0  0  0  0  0  0  0
  -11.6042    1.0006   -3.8119 O   0  0  0  0  0  0  0  0  0  0  0  0
  -12.0180    0.4778   -1.4889 C   0  0  2  0  0  0  0  0  0  0  0  0
  -13.4304    0.4738   -1.6450 O   0  0  0  0  0  0  0  0  0  0  0  0
  -11.6822    0.8351   -0.0473 C   0  0  2  0  0  0  0  0  0  0  0  0
  -10.2659    0.8713    0.0648 O   0  0  0  0  0  0  0  0  0  0  0  0
  -12.2716   -0.1812    0.9379 C   0  0  0  0  0  0  0  0  0  0  0  0
  -11.9902    0.1377    2.3086 O   0  0  0  0  0  0  0  0  0  0  0  0
  1  2  1  0  0  0  0
  3  1  1  1  0  0  0
  3  9  1  0  0  0  0
  3  4  1  0  0  0  0
  4  5  1  1  0  0  0
  4  6  1  0  0  0  0
  6  7  1  6  0  0  0
  6  8  1  0  0  0  0
  8  9  1  0  0  0  0
  8 10  1  6  0  0  0
  8 13  1  0  0  0  0
 10 11  1  0  0  0  0
 12 13  1  1  0  0  0
 12 14  1  0  0  0  0
 12 21  1  0  0  0  0
 14 15  1  6  0  0  0
 14 16  1  0  0  0  0
 16 17  1  6  0  0  0
 16 18  1  0  0  0  0
 18 19  1  1  0  0  0
 18 20  1  0  0  0  0
 20 21  1  0  0  0  0
 20 22  1  1  0  0  0
 22 23  1  0  0  0  0
M  END
>  <CHROM.1>
-63.19009344,-64.24574194,-134.57571307,-167.24840650,-179.11636356,-10.49083510
2.73343902,0.21337987,1.08163730,1.02136792,1.39322046

>  <Name>
ligand

>  <RI>
0

>  <Rbt.Current_Directory>
/home/itssahil/PROJECTS/Mol_Feturizer/New_Systems/rnas/4TS2

>  <Rbt.Executable>
rbdock ($Id: //depot/dev/client3/rdock/2013.1/src/exe/rbdock.cxx#4 $)

>  <Rbt.Library>
libRbt.so (2013.1, Build901 2013/11/27)

>  <Rbt.Parameter_File>
/export/apps/rDock/src/rDock_2013.1_src/data/scripts/dock_solv.prm

>  <Rbt.Receptor>
prm/blind_docking_80.prm

>  <SCORE>
-12.2641

>  <SCORE.INTER>
-8.06781

>  <SCORE.INTER.CONST>
1

>  <SCORE.INTER.POLAR>
0

>  <SCORE.INTER.ROT>
5

>  <SCORE.INTER.SOLV>
9.45661

>  <SCORE.INTER.VDW>
-15.4641

>  <SCORE.INTER.norm>
-0.350774

>  <SCORE.INTRA>
-4.19626

>  <SCORE.INTRA.DIHEDRAL>
-5.59335

>  <SCORE.INTRA.DIHEDRAL.0>
12.4853

>  <SCORE.INTRA.POLAR>
0

>  <SCORE.INTRA.POLAR.0>
0

>  <SCORE.INTRA.REPUL>
0

>  <SCORE.INTRA.REPUL.0>
0

>  <SCORE.INTRA.SOLV>
0.44178

>  <SCORE.INTRA.SOLV.lig_0>
-31.1706

>  <SCORE.INTRA.VDW>
-1.62047

>  <SCORE.INTRA.VDW.0>
-1.16895

>  <SCORE.INTRA.norm>
-0.182446

>  <SCORE.RESTR>
0

>  <SCORE.RESTR.CAVITY>
0

>  <SCORE.RESTR.norm>
0

>  <SCORE.SYSTEM>
0

>  <SCORE.SYSTEM.CONST>
0

>  <SCORE.SYSTEM.DIHEDRAL>
0

>  <SCORE.SYSTEM.SOLV>
0

>  <SCORE.SYSTEM.norm>
0

>  <SCORE.heavy>
23

>  <SCORE.norm>
-0.53322

>  <RMSD>
13.745

$$$$
ligand
 OpenBabel11021811513D
libRbt.so/2013.1/901 2013/11/27
 23 24  0  0  0  0  0  0  0  0999 V2000
  -13.1382    3.1937    2.4701 C   0  0  0  0  0  0  0  0  0  0  0  0
  -12.9755    2.3099    3.5962 O   0  0  0  0  0  0  0  0  0  0  0  0
  -11.8262    3.9229    2.2189 C   0  0  2  0  0  0  0  0  0  0  0  0
  -11.8985    5.0866    1.2421 C   0  0  1  0  0  0  0  0  0  0  0  0
  -12.4263    6.2343    1.9103 O   0  0  0  0  0  0  0  0  0  0  0  0
  -10.4406    5.2322    0.8192 C   0  0  2  0  0  0  0  0  0  0  0  0
  -10.1480    5.8907   -0.4189 O   0  0  0  0  0  0  0  0  0  0  0  0
   -9.9996    3.7806    0.7521 C   0  0  2  0  0  0  0  0  0  0  0  0
  -10.8349    3.0478    1.6733 O   0  0  0  0  0  0  0  0  0  0  0  0
   -8.5103    3.7257    1.1374 C   0  0  0  0  0  0  0  0  0  0  0  0
   -7.6778    4.4264    0.2027 O   0  0  0  0  0  0  0  0  0  0  0  0
   -9.7255    1.9647   -0.8147 C   0  0  2  0  0  0  0  0  0  0  0  0
  -10.2637    3.2751   -0.5676 O   0  0  0  0  0  0  0  0  0  0  0  0
   -9.9381    1.6562   -2.2851 C   0  0  2  0  0  0  0  0  0  0  0  0
   -9.4919    2.7685   -3.0685 O   0  0  0  0  0  0  0  0  0  0  0  0
  -11.4072    1.4389   -2.5739 C   0  0  1  0  0  0  0  0  0  0  0  0
  -11.5386    0.9134   -3.8968 O   0  0  0  0  0  0  0  0  0  0  0  0
  -12.0139    0.4802   -1.5672 C   0  0  2  0  0  0  0  0  0  0  0  0
  -13.4207    0.4449   -1.7646 O   0  0  0  0  0  0  0  0  0  0  0  0
  -11.7279    0.9029   -0.1325 C   0  0  2  0  0  0  0  0  0  0  0  0
  -10.3164    0.9686    0.0198 O   0  0  0  0  0  0  0  0  0  0  0  0
  -12.3301   -0.0820    0.8766 C   0  0  0  0  0  0  0  0  0  0  0  0
  -11.9520    0.2016    2.2317 O   0  0  0  0  0  0  0  0  0  0  0  0
  1  2  1  0  0  0  0
  3  1  1  6  0  0  0
  3  9  1  0  0  0  0
  3  4  1  0  0  0  0
  4  5  1  1  0  0  0
  4  6  1  0  0  0  0
  6  7  1  6  0  0  0
  6  8  1  0  0  0  0
  8  9  1  0  0  0  0
  8 10  1  1  0  0  0
  8 13  1  0  0  0  0
 10 11  1  0  0  0  0
 12 13  1  1  0  0  0
 12 14  1  0  0  0  0
 12 21  1  0  0  0  0
 14 15  1  6  0  0  0
 14 16  1  0  0  0  0
 16 17  1  6  0  0  0
 16 18  1  0  0  0  0
 18 19  1  1  0  0  0
 18 20  1  0  0  0  0
 20 21  1  0  0  0  0
 20 22  1  1  0  0  0
 22 23  1  0  0  0  0
M  END
>  <CHROM.1>
-168.61429719,-64.05078282,-173.08985000,172.01320670,173.35283372,-11.04541098
2.68758825,0.09078085,1.54439539,0.84602611,0.84853473

>  <Name>
ligand

>  <RI>
0

>  <Rbt.Current_Directory>
/home/itssahil/PROJECTS/Mol_Feturizer/New_Systems/rnas/4TS2

>  <Rbt.Executable>
rbdock ($Id: //depot/dev/client3/rdock/2013.1/src/exe/rbdock.cxx#4 $)

>  <Rbt.Library>
libRbt.so (2013.1, Build901 2013/11/27)

>  <Rbt.Parameter_File>
/export/apps/rDock/src/rDock_2013.1_src/data/scripts/dock_solv.prm

>  <Rbt.Receptor>
prm/blind_docking_20.prm

>  <SCORE>
-15.6249

>  <SCORE.INTER>
-8.93247

>  <SCORE.INTER.CONST>
1

>  <SCORE.INTER.POLAR>
0

>  <SCORE.INTER.ROT>
5

>  <SCORE.INTER.SOLV>
8.93339

>  <SCORE.INTER.VDW>
-15.8661

>  <SCORE.INTER.norm>
-0.388368

>  <SCORE.INTRA>
-6.69248

>  <SCORE.INTRA.DIHEDRAL>
-11.1197

>  <SCORE.INTRA.DIHEDRAL.0>
12.4853

>  <SCORE.INTRA.POLAR>
0

>  <SCORE.INTRA.POLAR.0>
0

>  <SCORE.INTRA.REPUL>
0

>  <SCORE.INTRA.REPUL.0>
0

>  <SCORE.INTRA.SOLV>
0.949276

>  <SCORE.INTRA.SOLV.lig_0>
-31.1706

>  <SCORE.INTRA.VDW>
-1.60725

>  <SCORE.INTRA.VDW.0>
-1.16895

>  <SCORE.INTRA.norm>
-0.290977

>  <SCORE.RESTR>
0

>  <SCORE.RESTR.CAVITY>
0

>  <SCORE.RESTR.norm>
0

>  <SCORE.SYSTEM>
0

>  <SCORE.SYSTEM.CONST>
0

>  <SCORE.SYSTEM.DIHEDRAL>
0

>  <SCORE.SYSTEM.SOLV>
0

>  <SCORE.SYSTEM.norm>
0

>  <SCORE.heavy>
23

>  <SCORE.norm>
-0.679345

>  <RMSD>
13.747

$$$$
ligand
 OpenBabel11021811513D
libRbt.so/2013.1/901 2013/11/27
 23 24  0  0  0  0  0  0  0  0999 V2000
  -13.2922    3.3468    2.3375 C   0  0  0  0  0  0  0  0  0  0  0  0
  -13.2265    2.4337    3.4498 O   0  0  0  0  0  0  0  0  0  0  0  0
  -11.9313    4.0034    2.1544 C   0  0  2  0  0  0  0  0  0  0  0  0
  -11.8899    5.1661    1.1747 C   0  0  1  0  0  0  0  0  0  0  0  0
  -12.3888    6.3427    1.8140 O   0  0  0  0  0  0  0  0  0  0  0  0
  -10.4064    5.2313    0.8279 C   0  0  2  0  0  0  0  0  0  0  0  0
  -10.0148    5.8691   -0.3937 O   0  0  0  0  0  0  0  0  0  0  0  0
  -10.0416    3.7579    0.7844 C   0  0  2  0  0  0  0  0  0  0  0  0
  -10.9619    3.0742    1.6613 O   0  0  0  0  0  0  0  0  0  0  0  0
   -8.5794    3.6239    1.2465 C   0  0  0  0  0  0  0  0  0  0  0  0
   -7.6599    4.2446    0.3372 O   0  0  0  0  0  0  0  0  0  0  0  0
   -9.7239    1.9519   -0.7856 C   0  0  2  0  0  0  0  0  0  0  0  0
  -10.2640    3.2631   -0.5470 O   0  0  0  0  0  0  0  0  0  0  0  0
   -9.9250    1.6385   -2.2566 C   0  0  2  0  0  0  0  0  0  0  0  0
   -9.4727    2.7484   -3.0401 O   0  0  0  0  0  0  0  0  0  0  0  0
  -11.3918    1.4203   -2.5562 C   0  0  1  0  0  0  0  0  0  0  0  0
  -11.5130    0.8905   -3.8783 O   0  0  0  0  0  0  0  0  0  0  0  0
  -12.0063    0.4649   -1.5510 C   0  0  2  0  0  0  0  0  0  0  0  0
  -13.4116    0.4289   -1.7593 O   0  0  0  0  0  0  0  0  0  0  0  0
  -11.7314    0.8922   -0.1155 C   0  0  2  0  0  0  0  0  0  0  0  0
  -10.3211    0.9585    0.0475 O   0  0  0  0  0  0  0  0  0  0  0  0
  -12.3415   -0.0893    0.8921 C   0  0  0  0  0  0  0  0  0  0  0  0
  -12.0168    0.2295    2.2531 O   0  0  0  0  0  0  0  0  0  0  0  0
  1  2  1  0  0  0  0
  3  1  1  6  0  0  0
  3  9  1  0  0  0  0
  3  4  1  0  0  0  0
  4  5  1  1  0  0  0
  4  6  1  0  0  0  0
  6  7  1  6  0  0  0
  6  8  1  0  0  0  0
  8  9  1  0  0  0  0
  8 10  1  1  0  0  0
  8 13  1  0  0  0  0
 10 11  1  0  0  0  0
 12 13  1  1  0  0  0
 12 14  1  0  0  0  0
 12 21  1  0  0  0  0
 14 15  1  6  0  0  0
 14 16  1  0  0  0  0
 16 17  1  6  0  0  0
 16 18  1  0  0  0  0
 18 19  1  1  0  0  0
 18 20  1  0  0  0  0
 20 21  1  0  0  0  0
 20 22  1  1  0  0  0
 22 23  1  0  0  0  0
M  END
>  <CHROM.1>
-170.05968040,-65.62233229,-174.69357525,168.94516774,175.65099196,-11.06767693
2.69198195,0.09231018,1.55688305,0.80860162,0.81017818

>  <Name>
ligand

>  <RI>
0

>  <Rbt.Current_Directory>
/home/itssahil/PROJECTS/Mol_Feturizer/New_Systems/rnas/4TS2

>  <Rbt.Executable>
rbdock ($Id: //depot/dev/client3/rdock/2013.1/src/exe/rbdock.cxx#4 $)

>  <Rbt.Library>
libRbt.so (2013.1, Build901 2013/11/27)

>  <Rbt.Parameter_File>
/export/apps/rDock/src/rDock_2013.1_src/data/scripts/dock_solv.prm

>  <Rbt.Receptor>
prm/blind_docking_60.prm

>  <SCORE>
-15.7675

>  <SCORE.INTER>
-9.16316

>  <SCORE.INTER.CONST>
1

>  <SCORE.INTER.POLAR>
0

>  <SCORE.INTER.ROT>
5

>  <SCORE.INTER.SOLV>
9.18154

>  <SCORE.INTER.VDW>
-16.1026

>  <SCORE.INTER.norm>
-0.398398

>  <SCORE.INTRA>
-6.60435

>  <SCORE.INTRA.DIHEDRAL>
-11.0567

>  <SCORE.INTRA.DIHEDRAL.0>
12.4853

>  <SCORE.INTRA.POLAR>
0

>  <SCORE.INTRA.POLAR.0>
0

>  <SCORE.INTRA.REPUL>
0

>  <SCORE.INTRA.REPUL.0>
0

>  <SCORE.INTRA.SOLV>
0.903187

>  <SCORE.INTRA.SOLV.lig_0>
-31.1706

>  <SCORE.INTRA.VDW>
-1.52761

>  <SCORE.INTRA.VDW.0>
-1.16895

>  <SCORE.INTRA.norm>
-0.287146

>  <SCORE.RESTR>
0

>  <SCORE.RESTR.CAVITY>
0

>  <SCORE.RESTR.norm>
0

>  <SCORE.SYSTEM>
0

>  <SCORE.SYSTEM.CONST>
0

>  <SCORE.SYSTEM.DIHEDRAL>
0

>  <SCORE.SYSTEM.SOLV>
0

>  <SCORE.SYSTEM.norm>
0

>  <SCORE.heavy>
23

>  <SCORE.norm>
-0.685544

>  <RMSD>
13.753

$$$$
ligand
 OpenBabel11021811513D
libRbt.so/2013.1/901 2013/11/27
 23 24  0  0  0  0  0  0  0  0999 V2000
  -10.3418    3.2016    4.9014 C   0  0  0  0  0  0  0  0  0  0  0  0
  -11.0583    4.0174    5.8483 O   0  0  0  0  0  0  0  0  0  0  0  0
   -9.5377    4.1050    3.9776 C   0  0  2  0  0  0  0  0  0  0  0  0
  -10.3522    5.0776    3.1385 C   0  0  1  0  0  0  0  0  0  0  0  0
  -10.7222    6.2011    3.9405 O   0  0  0  0  0  0  0  0  0  0  0  0
   -9.3785    5.4133    2.0139 C   0  0  2  0  0  0  0  0  0  0  0  0
   -9.9029    5.9198    0.7808 O   0  0  0  0  0  0  0  0  0  0  0  0
   -8.7114    4.0692    1.7812 C   0  0  2  0  0  0  0  0  0  0  0  0
   -8.7817    3.3470    3.0290 O   0  0  0  0  0  0  0  0  0  0  0  0
   -7.2618    4.3366    1.3374 C   0  0  0  0  0  0  0  0  0  0  0  0
   -7.1933    5.0250    0.0808 O   0  0  0  0  0  0  0  0  0  0  0  0
   -9.1097    1.9462    0.7033 C   0  0  2  0  0  0  0  0  0  0  0  0
   -9.4754    3.3327    0.8113 O   0  0  0  0  0  0  0  0  0  0  0  0
   -9.5087    1.4779   -0.6838 C   0  0  2  0  0  0  0  0  0  0  0  0
   -9.0317    2.4177   -1.6530 O   0  0  0  0  0  0  0  0  0  0  0  0
  -11.0149    1.4035   -0.8050 C   0  0  1  0  0  0  0  0  0  0  0  0
  -11.3412    0.7309   -2.0235 O   0  0  0  0  0  0  0  0  0  0  0  0
  -11.6105    0.6630    0.3773 C   0  0  2  0  0  0  0  0  0  0  0  0
  -13.0260    0.7720    0.3150 O   0  0  0  0  0  0  0  0  0  0  0  0
  -11.1304    1.2303    1.7065 C   0  0  2  0  0  0  0  0  0  0  0  0
   -9.7118    1.1448    1.7196 O   0  0  0  0  0  0  0  0  0  0  0  0
  -11.7241    0.4639    2.8944 C   0  0  0  0  0  0  0  0  0  0  0  0
  -11.2689   -0.8951    2.9694 O   0  0  0  0  0  0  0  0  0  0  0  0
  1  2  1  0  0  0  0
  3  1  1  6  0  0  0
  3  9  1  0  0  0  0
  3  4  1  0  0  0  0
  4  5  1  1  0  0  0
  4  6  1  0  0  0  0
  6  7  1  6  0  0  0
  6  8  1  0  0  0  0
  8  9  1  0  0  0  0
  8 10  1  6  0  0  0
  8 13  1  0  0  0  0
 10 11  1  0  0  0  0
 12 13  1  1  0  0  0
 12 14  1  0  0  0  0
 12 21  1  0  0  0  0
 14 15  1  6  0  0  0
 14 16  1  0  0  0  0
 16 17  1  6  0  0  0
 16 18  1  0  0  0  0
 18 19  1  1  0  0  0
 18 20  1  0  0  0  0
 20 21  1  0  0  0  0
 20 22  1  1  0  0  0
 22 23  1  0  0  0  0
M  END
>  <CHROM.1>
-61.55190894,-64.05337134,-155.47952507,-167.95821300,65.79156108,-10.06188806
2.84480436,1.61068256,1.11447654,0.94862813,1.07123003

>  <Name>
ligand

>  <RI>
0

>  <Rbt.Current_Directory>
/home/itssahil/PROJECTS/Mol_Feturizer/New_Systems/rnas/4TS2

>  <Rbt.Executable>
rbdock ($Id: //depot/dev/client3/rdock/2013.1/src/exe/rbdock.cxx#4 $)

>  <Rbt.Library>
libRbt.so (2013.1, Build901 2013/11/27)

>  <Rbt.Parameter_File>
/export/apps/rDock/src/rDock_2013.1_src/data/scripts/dock_solv.prm

>  <Rbt.Receptor>
prm/blind_docking_100.prm

>  <SCORE>
-11.2376

>  <SCORE.INTER>
-5.19442

>  <SCORE.INTER.CONST>
1

>  <SCORE.INTER.POLAR>
0

>  <SCORE.INTER.ROT>
5

>  <SCORE.INTER.SOLV>
9.06915

>  <SCORE.INTER.VDW>
-13.4193

>  <SCORE.INTER.norm>
-0.225844

>  <SCORE.INTRA>
-6.04323

>  <SCORE.INTRA.DIHEDRAL>
-9.17147

>  <SCORE.INTRA.DIHEDRAL.0>
12.4853

>  <SCORE.INTRA.POLAR>
0

>  <SCORE.INTRA.POLAR.0>
0

>  <SCORE.INTRA.REPUL>
0

>  <SCORE.INTRA.REPUL.0>
0

>  <SCORE.INTRA.SOLV>
0.555652

>  <SCORE.INTRA.SOLV.lig_0>
-31.1706

>  <SCORE.INTRA.VDW>
-1.73532

>  <SCORE.INTRA.VDW.0>
-1.16895

>  <SCORE.INTRA.norm>
-0.262749

>  <SCORE.RESTR>
0

>  <SCORE.RESTR.CAVITY>
0

>  <SCORE.RESTR.norm>
0

>  <SCORE.SYSTEM>
0

>  <SCORE.SYSTEM.CONST>
0

>  <SCORE.SYSTEM.DIHEDRAL>
0

>  <SCORE.SYSTEM.SOLV>
0

>  <SCORE.SYSTEM.norm>
0

>  <SCORE.heavy>
23

>  <SCORE.norm>
-0.488593

>  <RMSD>
13.754

$$$$
ligand
 OpenBabel11021811513D
libRbt.so/2013.1/901 2013/11/27
 23 24  0  0  0  0  0  0  0  0999 V2000
  -13.2089    3.2274    2.5065 C   0  0  0  0  0  0  0  0  0  0  0  0
  -13.0549    2.2943    3.5932 O   0  0  0  0  0  0  0  0  0  0  0  0
  -11.8821    3.9340    2.2683 C   0  0  2  0  0  0  0  0  0  0  0  0
  -11.9234    5.0941    1.2855 C   0  0  1  0  0  0  0  0  0  0  0  0
  -12.4406    6.2534    1.9419 O   0  0  0  0  0  0  0  0  0  0  0  0
  -10.4582    5.2140    0.8800 C   0  0  2  0  0  0  0  0  0  0  0  0
  -10.1397    5.8618   -0.3573 O   0  0  0  0  0  0  0  0  0  0  0  0
  -10.0402    3.7552    0.8248 C   0  0  2  0  0  0  0  0  0  0  0  0
  -10.8987    3.0404    1.7389 O   0  0  0  0  0  0  0  0  0  0  0  0
   -8.5568    3.6778    1.2288 C   0  0  0  0  0  0  0  0  0  0  0  0
   -8.3304    4.1396    2.5679 O   0  0  0  0  0  0  0  0  0  0  0  0
   -9.7481    1.9412   -0.7410 C   0  0  2  0  0  0  0  0  0  0  0  0
  -10.2963    3.2479   -0.4958 O   0  0  0  0  0  0  0  0  0  0  0  0
   -9.9523    1.6318   -2.2124 C   0  0  2  0  0  0  0  0  0  0  0  0
   -9.5103    2.7475   -2.9935 O   0  0  0  0  0  0  0  0  0  0  0  0
  -11.4186    1.4047   -2.5076 C   0  0  1  0  0  0  0  0  0  0  0  0
  -11.5408    0.8788   -3.8313 O   0  0  0  0  0  0  0  0  0  0  0  0
  -12.0231    0.4414   -1.5038 C   0  0  2  0  0  0  0  0  0  0  0  0
  -13.4288    0.3966   -1.7073 O   0  0  0  0  0  0  0  0  0  0  0  0
  -11.7460    0.8655   -0.0677 C   0  0  2  0  0  0  0  0  0  0  0  0
  -10.3357    0.9408    0.0906 O   0  0  0  0  0  0  0  0  0  0  0  0
  -12.3459   -0.1238    0.9384 C   0  0  0  0  0  0  0  0  0  0  0  0
  -11.9991    0.1788    2.2977 O   0  0  0  0  0  0  0  0  0  0  0  0
  1  2  1  0  0  0  0
  3  1  1  6  0  0  0
  3  9  1  0  0  0  0
  3  4  1  0  0  0  0
  4  5  1  1  0  0  0
  4  6  1  0  0  0  0
  6  7  1  6  0  0  0
  6  8  1  0  0  0  0
  8  9  1  0  0  0  0
  8 10  1  1  0  0  0
  8 13  1  0  0  0  0
 10 11  1  0  0  0  0
 12 13  1  1  0  0  0
 12 14  1  0  0  0  0
 12 21  1  0  0  0  0
 14 15  1  6  0  0  0
 14 16  1  0  0  0  0
 16 17  1  6  0  0  0
 16 18  1  0  0  0  0
 18 19  1  1  0  0  0
 18 20  1  0  0  0  0
 20 21  1  0  0  0  0
 20 22  1  1  0  0  0
 22 23  1  0  0  0  0
M  END
>  <CHROM.1>
-171.63104217,61.84859730,-173.03641582,170.56013039,174.61993232,-11.10370648
2.65417610,0.26074925,1.48415218,0.89190142,0.92168354

>  <Name>
ligand

>  <RI>
0

>  <Rbt.Current_Directory>
/home/itssahil/PROJECTS/Mol_Feturizer/New_Systems/rnas/4TS2

>  <Rbt.Executable>
rbdock ($Id: //depot/dev/client3/rdock/2013.1/src/exe/rbdock.cxx#4 $)

>  <Rbt.Library>
libRbt.so (2013.1, Build901 2013/11/27)

>  <Rbt.Parameter_File>
/export/apps/rDock/src/rDock_2013.1_src/data/scripts/dock_solv.prm

>  <Rbt.Receptor>
prm/blind_docking_100.prm

>  <SCORE>
-15.8515

>  <SCORE.INTER>
-9.19205

>  <SCORE.INTER.CONST>
1

>  <SCORE.INTER.POLAR>
0

>  <SCORE.INTER.ROT>
5

>  <SCORE.INTER.SOLV>
9.59008

>  <SCORE.INTER.VDW>
-16.2581

>  <SCORE.INTER.norm>
-0.399654

>  <SCORE.INTRA>
-6.6595

>  <SCORE.INTRA.DIHEDRAL>
-11.2415

>  <SCORE.INTRA.DIHEDRAL.0>
12.4853

>  <SCORE.INTRA.POLAR>
0

>  <SCORE.INTRA.POLAR.0>
0

>  <SCORE.INTRA.REPUL>
0

>  <SCORE.INTRA.REPUL.0>
0

>  <SCORE.INTRA.SOLV>
0.75444

>  <SCORE.INTRA.SOLV.lig_0>
-31.1706

>  <SCORE.INTRA.VDW>
-1.41595

>  <SCORE.INTRA.VDW.0>
-1.16895

>  <SCORE.INTRA.norm>
-0.289543

>  <SCORE.RESTR>
0

>  <SCORE.RESTR.CAVITY>
0

>  <SCORE.RESTR.norm>
0

>  <SCORE.SYSTEM>
0

>  <SCORE.SYSTEM.CONST>
0

>  <SCORE.SYSTEM.DIHEDRAL>
0

>  <SCORE.SYSTEM.SOLV>
0

>  <SCORE.SYSTEM.norm>
0

>  <SCORE.heavy>
23

>  <SCORE.norm>
-0.689198

>  <RMSD>
13.755

$$$$
ligand
 OpenBabel11021811513D
libRbt.so/2013.1/901 2013/11/27
 23 24  0  0  0  0  0  0  0  0999 V2000
  -12.8255    2.9947    2.5943 C   0  0  0  0  0  0  0  0  0  0  0  0
  -12.4372    2.0813    3.6386 O   0  0  0  0  0  0  0  0  0  0  0  0
  -11.6401    3.8843    2.2482 C   0  0  2  0  0  0  0  0  0  0  0  0
  -11.9411    5.0435    1.3105 C   0  0  1  0  0  0  0  0  0  0  0  0
  -12.5435    6.1075    2.0502 O   0  0  0  0  0  0  0  0  0  0  0  0
  -10.5556    5.3745    0.7661 C   0  0  2  0  0  0  0  0  0  0  0  0
  -10.4575    6.0813   -0.4760 O   0  0  0  0  0  0  0  0  0  0  0  0
   -9.9483    3.9899    0.6250 C   0  0  2  0  0  0  0  0  0  0  0  0
  -10.6020    3.1465    1.5970 O   0  0  0  0  0  0  0  0  0  0  0  0
   -8.4349    4.1147    0.8780 C   0  0  0  0  0  0  0  0  0  0  0  0
   -7.7820    2.8384    0.9268 O   0  0  0  0  0  0  0  0  0  0  0  0
   -9.6408    2.2143   -0.9814 C   0  0  2  0  0  0  0  0  0  0  0  0
  -10.2654    3.4739   -0.6788 O   0  0  0  0  0  0  0  0  0  0  0  0
   -9.9003    1.9192   -2.4470 C   0  0  2  0  0  0  0  0  0  0  0  0
   -9.5793    3.0780   -3.2243 O   0  0  0  0  0  0  0  0  0  0  0  0
  -11.3607    1.5941   -2.6716 C   0  0  1  0  0  0  0  0  0  0  0  0
  -11.5154    1.0860   -3.9988 O   0  0  0  0  0  0  0  0  0  0  0  0
  -11.8424    0.5714   -1.6602 C   0  0  2  0  0  0  0  0  0  0  0  0
  -13.2503    0.4307   -1.7922 O   0  0  0  0  0  0  0  0  0  0  0  0
  -11.5203    0.9868   -0.2310 C   0  0  2  0  0  0  0  0  0  0  0  0
  -10.1123    1.1591   -0.1436 O   0  0  0  0  0  0  0  0  0  0  0  0
  -11.9955   -0.0615    0.7820 C   0  0  0  0  0  0  0  0  0  0  0  0
  -11.4377    0.1293    2.0904 O   0  0  0  0  0  0  0  0  0  0  0  0
  1  2  1  0  0  0  0
  3  1  1  6  0  0  0
  3  9  1  0  0  0  0
  3  4  1  0  0  0  0
  4  5  1  1  0  0  0
  4  6  1  0  0  0  0
  6  7  1  6  0  0  0
  6  8  1  0  0  0  0
  8  9  1  0  0  0  0
  8 10  1  1  0  0  0
  8 13  1  0  0  0  0
 10 11  1  0  0  0  0
 12 13  1  1  0  0  0
 12 14  1  0  0  0  0
 12 21  1  0  0  0  0
 14 15  1  6  0  0  0
 14 16  1  0  0  0  0
 16 17  1  6  0  0  0
 16 18  1  0  0  0  0
 18 19  1  1  0  0  0
 18 20  1  0  0  0  0
 20 21  1  0  0  0  0
 20 22  1  1  0  0  0
 22 23  1  0  0  0  0
M  END
>  <CHROM.1>
-171.18622104,173.04757924,-171.50325458,174.58362048,165.97293460,-10.93988050
2.69752089,0.05767964,1.63764116,1.00943863,0.87953941

>  <Name>
ligand

>  <RI>
0

>  <Rbt.Current_Directory>
/home/itssahil/PROJECTS/Mol_Feturizer/New_Systems/rnas/4TS2

>  <Rbt.Executable>
rbdock ($Id: //depot/dev/client3/rdock/2013.1/src/exe/rbdock.cxx#4 $)

>  <Rbt.Library>
libRbt.so (2013.1, Build901 2013/11/27)

>  <Rbt.Parameter_File>
/export/apps/rDock/src/rDock_2013.1_src/data/scripts/dock_solv.prm

>  <Rbt.Receptor>
prm/blind_docking_100.prm

>  <SCORE>
-14.6812

>  <SCORE.INTER>
-8.44823

>  <SCORE.INTER.CONST>
1

>  <SCORE.INTER.POLAR>
0

>  <SCORE.INTER.ROT>
5

>  <SCORE.INTER.SOLV>
9.62261

>  <SCORE.INTER.VDW>
-15.773

>  <SCORE.INTER.norm>
-0.367315

>  <SCORE.INTRA>
-6.23294

>  <SCORE.INTRA.DIHEDRAL>
-10.7696

>  <SCORE.INTRA.DIHEDRAL.0>
12.4853

>  <SCORE.INTRA.POLAR>
0

>  <SCORE.INTRA.POLAR.0>
0

>  <SCORE.INTRA.REPUL>
0

>  <SCORE.INTRA.REPUL.0>
0

>  <SCORE.INTRA.SOLV>
1.02092

>  <SCORE.INTRA.SOLV.lig_0>
-31.1706

>  <SCORE.INTRA.VDW>
-1.35859

>  <SCORE.INTRA.VDW.0>
-1.16895

>  <SCORE.INTRA.norm>
-0.270997

>  <SCORE.RESTR>
0

>  <SCORE.RESTR.CAVITY>
0

>  <SCORE.RESTR.norm>
0

>  <SCORE.SYSTEM>
0

>  <SCORE.SYSTEM.CONST>
0

>  <SCORE.SYSTEM.DIHEDRAL>
0

>  <SCORE.SYSTEM.SOLV>
0

>  <SCORE.SYSTEM.norm>
0

>  <SCORE.heavy>
23

>  <SCORE.norm>
-0.638312

>  <RMSD>
13.756

$$$$
ligand
 OpenBabel11021811513D
libRbt.so/2013.1/901 2013/11/27
 23 24  0  0  0  0  0  0  0  0999 V2000
  -13.1735    3.2003    2.4322 C   0  0  0  0  0  0  0  0  0  0  0  0
  -13.0286    2.2699    3.5225 O   0  0  0  0  0  0  0  0  0  0  0  0
  -11.8483    3.9156    2.2117 C   0  0  2  0  0  0  0  0  0  0  0  0
  -11.8891    5.0903    1.2464 C   0  0  1  0  0  0  0  0  0  0  0  0
  -12.4142    6.2374    1.9177 O   0  0  0  0  0  0  0  0  0  0  0  0
  -10.4224    5.2220    0.8504 C   0  0  2  0  0  0  0  0  0  0  0  0
  -10.1000    5.8898   -0.3753 O   0  0  0  0  0  0  0  0  0  0  0  0
   -9.9983    3.7658    0.7753 C   0  0  2  0  0  0  0  0  0  0  0  0
  -10.8586    3.0339    1.6739 O   0  0  0  0  0  0  0  0  0  0  0  0
   -8.5167    3.6880    1.1858 C   0  0  0  0  0  0  0  0  0  0  0  0
   -8.2999    4.1241    2.5350 O   0  0  0  0  0  0  0  0  0  0  0  0
   -9.7026    1.9713   -0.8121 C   0  0  2  0  0  0  0  0  0  0  0  0
  -10.2456    3.2777   -0.5542 O   0  0  0  0  0  0  0  0  0  0  0  0
   -9.9203    1.6713   -2.2835 C   0  0  2  0  0  0  0  0  0  0  0  0
   -9.4826    2.7908   -3.0617 O   0  0  0  0  0  0  0  0  0  0  0  0
  -11.3897    1.4493   -2.5673 C   0  0  1  0  0  0  0  0  0  0  0  0
  -11.5246    0.9318   -3.8930 O   0  0  0  0  0  0  0  0  0  0  0  0
  -11.9876    0.4813   -1.5641 C   0  0  2  0  0  0  0  0  0  0  0  0
  -13.3951    0.4409   -1.7556 O   0  0  0  0  0  0  0  0  0  0  0  0
  -11.6970    0.8960   -0.1280 C   0  0  2  0  0  0  0  0  0  0  0  0
  -10.2852    0.9671    0.0185 O   0  0  0  0  0  0  0  0  0  0  0  0
  -12.2904   -0.0980    0.8773 C   0  0  0  0  0  0  0  0  0  0  0  0
  -11.9095    0.1800    2.2328 O   0  0  0  0  0  0  0  0  0  0  0  0
  1  2  1  0  0  0  0
  3  1  1  6  0  0  0
  3  9  1  0  0  0  0
  3  4  1  0  0  0  0
  4  5  1  1  0  0  0
  4  6  1  0  0  0  0
  6  7  1  6  0  0  0
  6  8  1  0  0  0  0
  8  9  1  0  0  0  0
  8 10  1  1  0  0  0
  8 13  1  0  0  0  0
 10 11  1  0  0  0  0
 12 13  1  1  0  0  0
 12 14  1  0  0  0  0
 12 21  1  0  0  0  0
 14 15  1  6  0  0  0
 14 16  1  0  0  0  0
 16 17  1  6  0  0  0
 16 18  1  0  0  0  0
 18 19  1  1  0  0  0
 18 20  1  0  0  0  0
 20 21  1  0  0  0  0
 20 22  1  1  0  0  0
 22 23  1  0  0  0  0
M  END
>  <CHROM.1>
-170.52854800,62.13626741,-174.13941607,171.15436920,173.46154933,-11.06456527
2.66939271,0.20605706,1.48433307,0.89341151,0.93348938

>  <Name>
ligand

>  <RI>
0

>  <Rbt.Current_Directory>
/home/itssahil/PROJECTS/Mol_Feturizer/New_Systems/rnas/4TS2

>  <Rbt.Executable>
rbdock ($Id: //depot/dev/client3/rdock/2013.1/src/exe/rbdock.cxx#4 $)

>  <Rbt.Library>
libRbt.so (2013.1, Build901 2013/11/27)

>  <Rbt.Parameter_File>
/export/apps/rDock/src/rDock_2013.1_src/data/scripts/dock_solv.prm

>  <Rbt.Receptor>
prm/blind_docking_80.prm

>  <SCORE>
-15.879

>  <SCORE.INTER>
-9.18921

>  <SCORE.INTER.CONST>
1

>  <SCORE.INTER.POLAR>
0

>  <SCORE.INTER.ROT>
5

>  <SCORE.INTER.SOLV>
9.70331

>  <SCORE.INTER.VDW>
-16.2939

>  <SCORE.INTER.norm>
-0.399531

>  <SCORE.INTRA>
-6.6898

>  <SCORE.INTRA.DIHEDRAL>
-11.2444

>  <SCORE.INTRA.DIHEDRAL.0>
12.4853

>  <SCORE.INTRA.POLAR>
0

>  <SCORE.INTRA.POLAR.0>
0

>  <SCORE.INTRA.REPUL>
0

>  <SCORE.INTRA.REPUL.0>
0

>  <SCORE.INTRA.SOLV>
0.779867

>  <SCORE.INTRA.SOLV.lig_0>
-31.1706

>  <SCORE.INTRA.VDW>
-1.45752

>  <SCORE.INTRA.VDW.0>
-1.16895

>  <SCORE.INTRA.norm>
-0.290861

>  <SCORE.RESTR>
0

>  <SCORE.RESTR.CAVITY>
0

>  <SCORE.RESTR.norm>
0

>  <SCORE.SYSTEM>
0

>  <SCORE.SYSTEM.CONST>
0

>  <SCORE.SYSTEM.DIHEDRAL>
0

>  <SCORE.SYSTEM.SOLV>
0

>  <SCORE.SYSTEM.norm>
0

>  <SCORE.heavy>
23

>  <SCORE.norm>
-0.690392

>  <RMSD>
13.758

$$$$
ligand
 OpenBabel11021811513D
libRbt.so/2013.1/901 2013/11/27
 23 24  0  0  0  0  0  0  0  0999 V2000
  -11.6869    2.9079    4.4954 C   0  0  0  0  0  0  0  0  0  0  0  0
  -10.6831    2.3026    5.3329 O   0  0  0  0  0  0  0  0  0  0  0  0
  -11.0328    3.9765    3.6313 C   0  0  2  0  0  0  0  0  0  0  0  0
  -11.9796    4.7829    2.7556 C   0  0  1  0  0  0  0  0  0  0  0  0
  -12.6152    5.7894    3.5463 O   0  0  0  0  0  0  0  0  0  0  0  0
  -11.0328    5.3345    1.6951 C   0  0  2  0  0  0  0  0  0  0  0  0
  -11.5789    5.7523    0.4384 O   0  0  0  0  0  0  0  0  0  0  0  0
  -10.0939    4.1591    1.4881 C   0  0  2  0  0  0  0  0  0  0  0  0
  -10.0860    3.4093    2.7214 O   0  0  0  0  0  0  0  0  0  0  0  0
   -8.7065    4.7248    1.1349 C   0  0  0  0  0  0  0  0  0  0  0  0
   -8.1517    5.5139    2.1966 O   0  0  0  0  0  0  0  0  0  0  0  0
   -9.8629    2.1184    0.2193 C   0  0  2  0  0  0  0  0  0  0  0  0
  -10.6361    3.3056    0.4662 O   0  0  0  0  0  0  0  0  0  0  0  0
  -10.3212    1.5459   -1.1091 C   0  0  2  0  0  0  0  0  0  0  0  0
  -10.3520    2.5918   -2.0866 O   0  0  0  0  0  0  0  0  0  0  0  0
  -11.7178    0.9771   -0.9873 C   0  0  1  0  0  0  0  0  0  0  0  0
  -12.0128    0.2358   -2.1735 O   0  0  0  0  0  0  0  0  0  0  0  0
  -11.8253    0.0800    0.2310 C   0  0  2  0  0  0  0  0  0  0  0  0
  -13.1872   -0.2858    0.4067 O   0  0  0  0  0  0  0  0  0  0  0  0
  -11.3339    0.7727    1.4949 C   0  0  2  0  0  0  0  0  0  0  0  0
   -9.9854    1.1618    1.2716 O   0  0  0  0  0  0  0  0  0  0  0  0
  -11.4303   -0.1483    2.7170 C   0  0  0  0  0  0  0  0  0  0  0  0
  -12.7799   -0.5173    3.0364 O   0  0  0  0  0  0  0  0  0  0  0  0
  1  2  1  0  0  0  0
  3  1  1  6  0  0  0
  3  9  1  0  0  0  0
  3  4  1  0  0  0  0
  4  5  1  1  0  0  0
  4  6  1  0  0  0  0
  6  7  1  6  0  0  0
  6  8  1  0  0  0  0
  8  9  1  0  0  0  0
  8 10  1  6  0  0  0
  8 13  1  0  0  0  0
 10 11  1  0  0  0  0
 12 13  1  1  0  0  0
 12 14  1  0  0  0  0
 12 21  1  0  0  0  0
 14 15  1  6  0  0  0
 14 16  1  0  0  0  0
 16 17  1  6  0  0  0
 16 18  1  0  0  0  0
 18 19  1  1  0  0  0
 18 20  1  0  0  0  0
 20 21  1  0  0  0  0
 20 22  1  1  0  0  0
 22 23  1  0  0  0  0
M  END
>  <CHROM.1>
-175.82460338,62.74749666,-164.20955963,-177.35838194,-63.66910209,-11.01230527
2.62713340,1.43821653,1.04093990,1.16779146,1.10663508

>  <Name>
ligand

>  <RI>
0

>  <Rbt.Current_Directory>
/home/itssahil/PROJECTS/Mol_Feturizer/New_Systems/rnas/4TS2

>  <Rbt.Executable>
rbdock ($Id: //depot/dev/client3/rdock/2013.1/src/exe/rbdock.cxx#4 $)

>  <Rbt.Library>
libRbt.so (2013.1, Build901 2013/11/27)

>  <Rbt.Parameter_File>
/export/apps/rDock/src/rDock_2013.1_src/data/scripts/dock_solv.prm

>  <Rbt.Receptor>
prm/blind_docking_60.prm

>  <SCORE>
-11.9732

>  <SCORE.INTER>
-5.0698

>  <SCORE.INTER.CONST>
1

>  <SCORE.INTER.POLAR>
0

>  <SCORE.INTER.ROT>
5

>  <SCORE.INTER.SOLV>
7.70823

>  <SCORE.INTER.VDW>
-12.8826

>  <SCORE.INTER.norm>
-0.220426

>  <SCORE.INTRA>
-6.90341

>  <SCORE.INTRA.DIHEDRAL>
-11.1063

>  <SCORE.INTRA.DIHEDRAL.0>
12.4853

>  <SCORE.INTRA.POLAR>
0

>  <SCORE.INTRA.POLAR.0>
0

>  <SCORE.INTRA.REPUL>
0

>  <SCORE.INTRA.REPUL.0>
0

>  <SCORE.INTRA.SOLV>
0.303826

>  <SCORE.INTRA.SOLV.lig_0>
-31.1706

>  <SCORE.INTRA.VDW>
-1.50216

>  <SCORE.INTRA.VDW.0>
-1.16895

>  <SCORE.INTRA.norm>
-0.300148

>  <SCORE.RESTR>
0

>  <SCORE.RESTR.CAVITY>
0

>  <SCORE.RESTR.norm>
0

>  <SCORE.SYSTEM>
0

>  <SCORE.SYSTEM.CONST>
0

>  <SCORE.SYSTEM.DIHEDRAL>
0

>  <SCORE.SYSTEM.SOLV>
0

>  <SCORE.SYSTEM.norm>
0

>  <SCORE.heavy>
23

>  <SCORE.norm>
-0.520574

>  <RMSD>
13.760

$$$$
ligand
 OpenBabel11021811513D
libRbt.so/2013.1/901 2013/11/27
 23 24  0  0  0  0  0  0  0  0999 V2000
   -8.7545    4.4906    1.7040 C   0  0  0  0  0  0  0  0  0  0  0  0
  -10.1132    4.0539    1.9006 O   0  0  0  0  0  0  0  0  0  0  0  0
   -8.5474    4.8180    0.2321 C   0  0  2  0  0  0  0  0  0  0  0  0
   -9.6786    5.5851   -0.4352 C   0  0  1  0  0  0  0  0  0  0  0  0
   -9.5766    6.9698   -0.0969 O   0  0  0  0  0  0  0  0  0  0  0  0
   -9.4316    5.2881   -1.9104 C   0  0  2  0  0  0  0  0  0  0  0  0
  -10.5204    5.4299   -2.8304 O   0  0  0  0  0  0  0  0  0  0  0  0
   -8.9839    3.8381   -1.8553 C   0  0  2  0  0  0  0  0  0  0  0  0
   -8.3956    3.6322   -0.5535 O   0  0  0  0  0  0  0  0  0  0  0  0
   -7.9764    3.6156   -2.9978 C   0  0  0  0  0  0  0  0  0  0  0  0
   -6.8197    4.4553   -2.8774 O   0  0  0  0  0  0  0  0  0  0  0  0
   -9.8507    1.5850   -1.8565 C   0  0  2  0  0  0  0  0  0  0  0  0
  -10.1416    2.9905   -1.9461 O   0  0  0  0  0  0  0  0  0  0  0  0
  -11.0702    0.8357   -2.3603 C   0  0  2  0  0  0  0  0  0  0  0  0
  -11.4853    1.3987   -3.6096 O   0  0  0  0  0  0  0  0  0  0  0  0
  -12.2163    0.9701   -1.3819 C   0  0  1  0  0  0  0  0  0  0  0  0
  -13.2502    0.0596   -1.7634 O   0  0  0  0  0  0  0  0  0  0  0  0
  -11.7511    0.6719    0.0307 C   0  0  2  0  0  0  0  0  0  0  0  0
  -12.8059    0.9820    0.9311 O   0  0  0  0  0  0  0  0  0  0  0  0
  -10.5225    1.4872    0.4110 C   0  0  2  0  0  0  0  0  0  0  0  0
   -9.5019    1.1859   -0.5311 O   0  0  0  0  0  0  0  0  0  0  0  0
  -10.0500    1.1655    1.8337 C   0  0  0  0  0  0  0  0  0  0  0  0
  -11.0018    1.5422    2.8396 O   0  0  0  0  0  0  0  0  0  0  0  0
  1  2  1  0  0  0  0
  3  1  1  1  0  0  0
  3  9  1  0  0  0  0
  3  4  1  0  0  0  0
  4  5  1  6  0  0  0
  4  6  1  0  0  0  0
  6  7  1  6  0  0  0
  6  8  1  0  0  0  0
  8  9  1  0  0  0  0
  8 10  1  6  0  0  0
  8 13  1  0  0  0  0
 10 11  1  0  0  0  0
 12 13  1  1  0  0  0
 12 14  1  0  0  0  0
 12 21  1  0  0  0  0
 14 15  1  6  0  0  0
 14 16  1  0  0  0  0
 16 17  1  6  0  0  0
 16 18  1  0  0  0  0
 18 19  1  1  0  0  0
 18 20  1  0  0  0  0
 20 21  1  0  0  0  0
 20 22  1  1  0  0  0
 22 23  1  0  0  0  0
M  END
>  <CHROM.1>
42.46890963,60.47975603,-163.97794604,-177.88366897,-64.87842355,-10.12081285
2.91969296,-0.73586532,-0.09123732,0.95906343,1.46523745

>  <Name>
ligand

>  <RI>
0

>  <Rbt.Current_Directory>
/home/itssahil/PROJECTS/Mol_Feturizer/New_Systems/rnas/4TS2

>  <Rbt.Executable>
rbdock ($Id: //depot/dev/client3/rdock/2013.1/src/exe/rbdock.cxx#4 $)

>  <Rbt.Library>
libRbt.so (2013.1, Build901 2013/11/27)

>  <Rbt.Parameter_File>
/export/apps/rDock/src/rDock_2013.1_src/data/scripts/dock_solv.prm

>  <Rbt.Receptor>
prm/blind_docking_100.prm

>  <SCORE>
-12.8798

>  <SCORE.INTER>
-7.30671

>  <SCORE.INTER.CONST>
1

>  <SCORE.INTER.POLAR>
0

>  <SCORE.INTER.ROT>
5

>  <SCORE.INTER.SOLV>
9.98391

>  <SCORE.INTER.VDW>
-15.1324

>  <SCORE.INTER.norm>
-0.317683

>  <SCORE.INTRA>
-5.57307

>  <SCORE.INTRA.DIHEDRAL>
-10.1068

>  <SCORE.INTRA.DIHEDRAL.0>
12.4853

>  <SCORE.INTRA.POLAR>
0

>  <SCORE.INTRA.POLAR.0>
0

>  <SCORE.INTRA.REPUL>
0

>  <SCORE.INTRA.REPUL.0>
0

>  <SCORE.INTRA.SOLV>
1.47471

>  <SCORE.INTRA.SOLV.lig_0>
-31.1706

>  <SCORE.INTRA.VDW>
-1.25703

>  <SCORE.INTRA.VDW.0>
-1.16895

>  <SCORE.INTRA.norm>
-0.242307

>  <SCORE.RESTR>
0

>  <SCORE.RESTR.CAVITY>
0

>  <SCORE.RESTR.norm>
0

>  <SCORE.SYSTEM>
0

>  <SCORE.SYSTEM.CONST>
0

>  <SCORE.SYSTEM.DIHEDRAL>
0

>  <SCORE.SYSTEM.SOLV>
0

>  <SCORE.SYSTEM.norm>
0

>  <SCORE.heavy>
23

>  <SCORE.norm>
-0.55999

>  <RMSD>
13.762

$$$$
ligand
 OpenBabel11021811513D
libRbt.so/2013.1/901 2013/11/27
 23 24  0  0  0  0  0  0  0  0999 V2000
  -13.1774    3.2191    2.4812 C   0  0  0  0  0  0  0  0  0  0  0  0
  -13.0140    2.2737    3.5559 O   0  0  0  0  0  0  0  0  0  0  0  0
  -11.8539    3.9319    2.2429 C   0  0  2  0  0  0  0  0  0  0  0  0
  -11.9022    5.0964    1.2657 C   0  0  1  0  0  0  0  0  0  0  0  0
  -12.4221    6.2506    1.9289 O   0  0  0  0  0  0  0  0  0  0  0  0
  -10.4386    5.2237    0.8569 C   0  0  2  0  0  0  0  0  0  0  0  0
  -10.1258    5.8786   -0.3782 O   0  0  0  0  0  0  0  0  0  0  0  0
  -10.0152    3.7668    0.7938 C   0  0  2  0  0  0  0  0  0  0  0  0
  -10.8685    3.0444    1.7067 O   0  0  0  0  0  0  0  0  0  0  0  0
   -8.5304    3.6932    1.1935 C   0  0  0  0  0  0  0  0  0  0  0  0
   -8.3045    4.1338    2.5398 O   0  0  0  0  0  0  0  0  0  0  0  0
   -9.7337    1.9547   -0.7762 C   0  0  2  0  0  0  0  0  0  0  0  0
  -10.2728    3.2647   -0.5285 O   0  0  0  0  0  0  0  0  0  0  0  0
   -9.9386    1.6502   -2.2485 C   0  0  2  0  0  0  0  0  0  0  0  0
   -9.4878    2.7645   -3.0266 O   0  0  0  0  0  0  0  0  0  0  0  0
  -11.4062    1.4343   -2.5458 C   0  0  1  0  0  0  0  0  0  0  0  0
  -11.5307    0.9124   -3.8708 O   0  0  0  0  0  0  0  0  0  0  0  0
  -12.0186    0.4731   -1.5449 C   0  0  2  0  0  0  0  0  0  0  0  0
  -13.4244    0.4388   -1.7499 O   0  0  0  0  0  0  0  0  0  0  0  0
  -11.7401    0.8918   -0.1075 C   0  0  2  0  0  0  0  0  0  0  0  0
  -10.3294    0.9566    0.0524 O   0  0  0  0  0  0  0  0  0  0  0  0
  -12.3481   -0.0955    0.8957 C   0  0  0  0  0  0  0  0  0  0  0  0
  -11.9693    0.1787    2.2526 O   0  0  0  0  0  0  0  0  0  0  0  0
  1  2  1  0  0  0  0
  3  1  1  6  0  0  0
  3  9  1  0  0  0  0
  3  4  1  0  0  0  0
  4  5  1  1  0  0  0
  4  6  1  0  0  0  0
  6  7  1  6  0  0  0
  6  8  1  0  0  0  0
  8  9  1  0  0  0  0
  8 10  1  1  0  0  0
  8 13  1  0  0  0  0
 10 11  1  0  0  0  0
 12 13  1  1  0  0  0
 12 14  1  0  0  0  0
 12 21  1  0  0  0  0
 14 15  1  6  0  0  0
 14 16  1  0  0  0  0
 16 17  1  6  0  0  0
 16 18  1  0  0  0  0
 18 19  1  1  0  0  0
 18 20  1  0  0  0  0
 20 21  1  0  0  0  0
 20 22  1  1  0  0  0
 22 23  1  0  0  0  0
M  END
>  <CHROM.1>
-172.09430237,62.58128735,-173.07012148,171.25093710,172.93658747,-11.08498925
2.66669902,0.22785435,1.47816554,0.89100259,0.93286115

>  <Name>
ligand

>  <RI>
0

>  <Rbt.Current_Directory>
/home/itssahil/PROJECTS/Mol_Feturizer/New_Systems/rnas/4TS2

>  <Rbt.Executable>
rbdock ($Id: //depot/dev/client3/rdock/2013.1/src/exe/rbdock.cxx#4 $)

>  <Rbt.Library>
libRbt.so (2013.1, Build901 2013/11/27)

>  <Rbt.Parameter_File>
/export/apps/rDock/src/rDock_2013.1_src/data/scripts/dock_solv.prm

>  <Rbt.Receptor>
prm/blind_docking_40.prm

>  <SCORE>
-15.8879

>  <SCORE.INTER>
-9.22216

>  <SCORE.INTER.CONST>
1

>  <SCORE.INTER.POLAR>
0

>  <SCORE.INTER.ROT>
5

>  <SCORE.INTER.SOLV>
9.64994

>  <SCORE.INTER.VDW>
-16.2981

>  <SCORE.INTER.norm>
-0.400963

>  <SCORE.INTRA>
-6.66574

>  <SCORE.INTRA.DIHEDRAL>
-11.2472

>  <SCORE.INTRA.DIHEDRAL.0>
12.4853

>  <SCORE.INTRA.POLAR>
0

>  <SCORE.INTRA.POLAR.0>
0

>  <SCORE.INTRA.REPUL>
0

>  <SCORE.INTRA.REPUL.0>
0

>  <SCORE.INTRA.SOLV>
0.775289

>  <SCORE.INTRA.SOLV.lig_0>
-31.1706

>  <SCORE.INTRA.VDW>
-1.42978

>  <SCORE.INTRA.VDW.0>
-1.16895

>  <SCORE.INTRA.norm>
-0.289815

>  <SCORE.RESTR>
0

>  <SCORE.RESTR.CAVITY>
0

>  <SCORE.RESTR.norm>
0

>  <SCORE.SYSTEM>
0

>  <SCORE.SYSTEM.CONST>
0

>  <SCORE.SYSTEM.DIHEDRAL>
0

>  <SCORE.SYSTEM.SOLV>
0

>  <SCORE.SYSTEM.norm>
0

>  <SCORE.heavy>
23

>  <SCORE.norm>
-0.690778

>  <RMSD>
13.763

$$$$
ligand
 OpenBabel11021811513D
libRbt.so/2013.1/901 2013/11/27
 23 24  0  0  0  0  0  0  0  0999 V2000
  -10.9039    0.3858   -2.8321 C   0  0  0  0  0  0  0  0  0  0  0  0
   -9.5790   -0.1575   -2.9903 O   0  0  0  0  0  0  0  0  0  0  0  0
  -11.3453    0.2026   -1.3871 C   0  0  2  0  0  0  0  0  0  0  0  0
  -12.6341    0.9112   -0.9996 C   0  0  1  0  0  0  0  0  0  0  0  0
  -13.7515    0.1450   -1.4543 O   0  0  0  0  0  0  0  0  0  0  0  0
  -12.5087    0.9824    0.5185 C   0  0  2  0  0  0  0  0  0  0  0  0
  -13.2704    1.9694    1.2242 O   0  0  0  0  0  0  0  0  0  0  0  0
  -11.0242    1.2548    0.6861 C   0  0  2  0  0  0  0  0  0  0  0  0
  -10.3649    0.6990   -0.4714 O   0  0  0  0  0  0  0  0  0  0  0  0
  -10.5712    0.5881    1.9976 C   0  0  0  0  0  0  0  0  0  0  0  0
  -11.2566    1.1136    3.1428 O   0  0  0  0  0  0  0  0  0  0  0  0
   -9.4239    3.0591    0.5809 C   0  0  2  0  0  0  0  0  0  0  0  0
  -10.8072    2.6758    0.6670 O   0  0  0  0  0  0  0  0  0  0  0  0
   -9.1406    4.0006    1.7366 C   0  0  2  0  0  0  0  0  0  0  0  0
   -9.6462    3.4257    2.9466 O   0  0  0  0  0  0  0  0  0  0  0  0
   -9.8357    5.3272    1.5220 C   0  0  1  0  0  0  0  0  0  0  0  0
   -9.3502    6.2581    2.4922 O   0  0  0  0  0  0  0  0  0  0  0  0
   -9.5745    5.8470    0.1212 C   0  0  2  0  0  0  0  0  0  0  0  0
  -10.3845    6.9943   -0.0956 O   0  0  0  0  0  0  0  0  0  0  0  0
   -9.8980    4.8069   -0.9430 C   0  0  2  0  0  0  0  0  0  0  0  0
   -9.1037    3.6596   -0.6739 O   0  0  0  0  0  0  0  0  0  0  0  0
   -9.6140    5.3360   -2.3538 C   0  0  0  0  0  0  0  0  0  0  0  0
   -9.7641    4.3336   -3.3698 O   0  0  0  0  0  0  0  0  0  0  0  0
  1  2  1  0  0  0  0
  3  1  1  6  0  0  0
  3  9  1  0  0  0  0
  3  4  1  0  0  0  0
  4  5  1  1  0  0  0
  4  6  1  0  0  0  0
  6  7  1  6  0  0  0
  6  8  1  0  0  0  0
  8  9  1  0  0  0  0
  8 10  1  1  0  0  0
  8 13  1  0  0  0  0
 10 11  1  0  0  0  0
 12 13  1  6  0  0  0
 12 14  1  0  0  0  0
 12 21  1  0  0  0  0
 14 15  1  1  0  0  0
 14 16  1  0  0  0  0
 16 17  1  1  0  0  0
 16 18  1  0  0  0  0
 18 19  1  6  0  0  0
 18 20  1  0  0  0  0
 20 21  1  0  0  0  0
 20 22  1  6  0  0  0
 22 23  1  0  0  0  0
M  END
>  <CHROM.1>
171.00738129,-60.84379762,-125.77297874,-169.61885673,173.40282847,-10.60076730
2.77851670,0.00347955,-2.63814313,1.14222099,1.34490597

>  <Name>
ligand

>  <RI>
0

>  <Rbt.Current_Directory>
/home/itssahil/PROJECTS/Mol_Feturizer/New_Systems/rnas/4TS2

>  <Rbt.Executable>
rbdock ($Id: //depot/dev/client3/rdock/2013.1/src/exe/rbdock.cxx#4 $)

>  <Rbt.Library>
libRbt.so (2013.1, Build901 2013/11/27)

>  <Rbt.Parameter_File>
/export/apps/rDock/src/rDock_2013.1_src/data/scripts/dock_solv.prm

>  <Rbt.Receptor>
prm/blind_docking_100.prm

>  <SCORE>
-10.4328

>  <SCORE.INTER>
-6.91789

>  <SCORE.INTER.CONST>
1

>  <SCORE.INTER.POLAR>
0

>  <SCORE.INTER.ROT>
5

>  <SCORE.INTER.SOLV>
11.1493

>  <SCORE.INTER.VDW>
-15.2617

>  <SCORE.INTER.norm>
-0.300778

>  <SCORE.INTRA>
-3.51489

>  <SCORE.INTRA.DIHEDRAL>
-4.61887

>  <SCORE.INTRA.DIHEDRAL.0>
12.4853

>  <SCORE.INTRA.POLAR>
0

>  <SCORE.INTRA.POLAR.0>
0

>  <SCORE.INTRA.REPUL>
0

>  <SCORE.INTRA.REPUL.0>
0

>  <SCORE.INTRA.SOLV>
0.107009

>  <SCORE.INTRA.SOLV.lig_0>
-31.1706

>  <SCORE.INTRA.VDW>
-1.25896

>  <SCORE.INTRA.VDW.0>
-1.16895

>  <SCORE.INTRA.norm>
-0.152821

>  <SCORE.RESTR>
0

>  <SCORE.RESTR.CAVITY>
0

>  <SCORE.RESTR.norm>
0

>  <SCORE.SYSTEM>
0

>  <SCORE.SYSTEM.CONST>
0

>  <SCORE.SYSTEM.DIHEDRAL>
0

>  <SCORE.SYSTEM.SOLV>
0

>  <SCORE.SYSTEM.norm>
0

>  <SCORE.heavy>
23

>  <SCORE.norm>
-0.453599

>  <RMSD>
13.765

$$$$
ligand
 OpenBabel11021811513D
libRbt.so/2013.1/901 2013/11/27
 23 24  0  0  0  0  0  0  0  0999 V2000
  -13.1973    3.2260    2.4751 C   0  0  0  0  0  0  0  0  0  0  0  0
  -13.0457    2.2915    3.5610 O   0  0  0  0  0  0  0  0  0  0  0  0
  -11.8709    3.9354    2.2431 C   0  0  2  0  0  0  0  0  0  0  0  0
  -11.9115    5.0999    1.2654 C   0  0  1  0  0  0  0  0  0  0  0  0
  -12.4317    6.2555    1.9259 O   0  0  0  0  0  0  0  0  0  0  0  0
  -10.4456    5.2234    0.8637 C   0  0  2  0  0  0  0  0  0  0  0  0
  -10.1252    5.8773   -0.3700 O   0  0  0  0  0  0  0  0  0  0  0  0
  -10.0256    3.7654    0.8029 C   0  0  2  0  0  0  0  0  0  0  0  0
  -10.8851    3.0454    1.7118 O   0  0  0  0  0  0  0  0  0  0  0  0
   -8.5430    3.6881    1.2098 C   0  0  0  0  0  0  0  0  0  0  0  0
   -8.3159    4.1711    2.5413 O   0  0  0  0  0  0  0  0  0  0  0  0
   -9.7355    1.9551   -0.7675 C   0  0  2  0  0  0  0  0  0  0  0  0
  -10.2780    3.2637   -0.5205 O   0  0  0  0  0  0  0  0  0  0  0  0
   -9.9297    1.6536   -2.2419 C   0  0  2  0  0  0  0  0  0  0  0  0
   -9.4751    2.7703   -3.0142 O   0  0  0  0  0  0  0  0  0  0  0  0
  -11.3950    1.4364   -2.5498 C   0  0  1  0  0  0  0  0  0  0  0  0
  -11.5096    0.9174   -3.8768 O   0  0  0  0  0  0  0  0  0  0  0  0
  -12.0129    0.4721   -1.5553 C   0  0  2  0  0  0  0  0  0  0  0  0
  -13.4172    0.4364   -1.7701 O   0  0  0  0  0  0  0  0  0  0  0  0
  -11.7449    0.8879   -0.1151 C   0  0  2  0  0  0  0  0  0  0  0  0
  -10.3354    0.9543    0.0547 O   0  0  0  0  0  0  0  0  0  0  0  0
  -12.3584   -0.1025    0.8816 C   0  0  0  0  0  0  0  0  0  0  0  0
  -12.0167    0.1890    2.2447 O   0  0  0  0  0  0  0  0  0  0  0  0
  1  2  1  0  0  0  0
  3  1  1  6  0  0  0
  3  9  1  0  0  0  0
  3  4  1  0  0  0  0
  4  5  1  1  0  0  0
  4  6  1  0  0  0  0
  6  7  1  6  0  0  0
  6  8  1  0  0  0  0
  8  9  1  0  0  0  0
  8 10  1  1  0  0  0
  8 13  1  0  0  0  0
 10 11  1  0  0  0  0
 12 13  1  1  0  0  0
 12 14  1  0  0  0  0
 12 21  1  0  0  0  0
 14 15  1  6  0  0  0
 14 16  1  0  0  0  0
 16 17  1  6  0  0  0
 16 18  1  0  0  0  0
 18 19  1  1  0  0  0
 18 20  1  0  0  0  0
 20 21  1  0  0  0  0
 20 22  1  1  0  0  0
 22 23  1  0  0  0  0
M  END
>  <CHROM.1>
-171.43277984,60.59371242,-172.83121451,170.96393242,174.40594049,-11.09184260
2.67033134,0.22828007,1.48558799,0.88408561,0.92629500

>  <Name>
ligand

>  <RI>
0

>  <Rbt.Current_Directory>
/home/itssahil/PROJECTS/Mol_Feturizer/New_Systems/rnas/4TS2

>  <Rbt.Executable>
rbdock ($Id: //depot/dev/client3/rdock/2013.1/src/exe/rbdock.cxx#4 $)

>  <Rbt.Library>
libRbt.so (2013.1, Build901 2013/11/27)

>  <Rbt.Parameter_File>
/export/apps/rDock/src/rDock_2013.1_src/data/scripts/dock_solv.prm

>  <Rbt.Receptor>
prm/blind_docking_20.prm

>  <SCORE>
-15.9017

>  <SCORE.INTER>
-9.24069

>  <SCORE.INTER.CONST>
1

>  <SCORE.INTER.POLAR>
0

>  <SCORE.INTER.ROT>
5

>  <SCORE.INTER.SOLV>
9.64347

>  <SCORE.INTER.VDW>
-16.3083

>  <SCORE.INTER.norm>
-0.401769

>  <SCORE.INTRA>
-6.66101

>  <SCORE.INTRA.DIHEDRAL>
-11.267

>  <SCORE.INTRA.DIHEDRAL.0>
12.4853

>  <SCORE.INTRA.POLAR>
0

>  <SCORE.INTRA.POLAR.0>
0

>  <SCORE.INTRA.REPUL>
0

>  <SCORE.INTRA.REPUL.0>
0

>  <SCORE.INTRA.SOLV>
0.764517

>  <SCORE.INTRA.SOLV.lig_0>
-31.1706

>  <SCORE.INTRA.VDW>
-1.40977

>  <SCORE.INTRA.VDW.0>
-1.16895

>  <SCORE.INTRA.norm>
-0.289609

>  <SCORE.RESTR>
0

>  <SCORE.RESTR.CAVITY>
0

>  <SCORE.RESTR.norm>
0

>  <SCORE.SYSTEM>
0

>  <SCORE.SYSTEM.CONST>
0

>  <SCORE.SYSTEM.DIHEDRAL>
0

>  <SCORE.SYSTEM.SOLV>
0

>  <SCORE.SYSTEM.norm>
0

>  <SCORE.heavy>
23

>  <SCORE.norm>
-0.691378

>  <RMSD>
13.767

$$$$
ligand
 OpenBabel11021811513D
libRbt.so/2013.1/901 2013/11/27
 23 24  0  0  0  0  0  0  0  0999 V2000
  -13.1627    3.1537    2.4859 C   0  0  0  0  0  0  0  0  0  0  0  0
  -13.0037    2.2507    3.5971 O   0  0  0  0  0  0  0  0  0  0  0  0
  -11.8532    3.8954    2.2589 C   0  0  2  0  0  0  0  0  0  0  0  0
  -11.9243    5.0749    1.3012 C   0  0  1  0  0  0  0  0  0  0  0  0
  -12.4655    6.2078    1.9837 O   0  0  0  0  0  0  0  0  0  0  0  0
  -10.4637    5.2367    0.8939 C   0  0  2  0  0  0  0  0  0  0  0  0
  -10.1644    5.9179   -0.3303 O   0  0  0  0  0  0  0  0  0  0  0  0
  -10.0127    3.7894    0.8064 C   0  0  2  0  0  0  0  0  0  0  0  0
  -10.8515    3.0359    1.7076 O   0  0  0  0  0  0  0  0  0  0  0  0
   -8.5266    3.7374    1.2042 C   0  0  0  0  0  0  0  0  0  0  0  0
   -8.3100    4.1438    2.5627 O   0  0  0  0  0  0  0  0  0  0  0  0
   -9.7025    2.0071   -0.7920 C   0  0  2  0  0  0  0  0  0  0  0  0
  -10.2618    3.3046   -0.5239 O   0  0  0  0  0  0  0  0  0  0  0  0
   -9.9165    1.7159   -2.2657 C   0  0  2  0  0  0  0  0  0  0  0  0
   -9.4928    2.8467   -3.0350 O   0  0  0  0  0  0  0  0  0  0  0  0
  -11.3830    1.4778   -2.5513 C   0  0  1  0  0  0  0  0  0  0  0  0
  -11.5115    0.9689   -3.8810 O   0  0  0  0  0  0  0  0  0  0  0  0
  -11.9688    0.4947   -1.5557 C   0  0  2  0  0  0  0  0  0  0  0  0
  -13.3757    0.4382   -1.7476 O   0  0  0  0  0  0  0  0  0  0  0  0
  -11.6834    0.9018   -0.1164 C   0  0  2  0  0  0  0  0  0  0  0  0
  -10.2726    0.9893    0.0307 O   0  0  0  0  0  0  0  0  0  0  0  0
  -12.2643   -0.1074    0.8811 C   0  0  0  0  0  0  0  0  0  0  0  0
  -11.8946    0.1703    2.2398 O   0  0  0  0  0  0  0  0  0  0  0  0
  1  2  1  0  0  0  0
  3  1  1  6  0  0  0
  3  9  1  0  0  0  0
  3  4  1  0  0  0  0
  4  5  1  1  0  0  0
  4  6  1  0  0  0  0
  6  7  1  6  0  0  0
  6  8  1  0  0  0  0
  8  9  1  0  0  0  0
  8 10  1  1  0  0  0
  8 13  1  0  0  0  0
 10 11  1  0  0  0  0
 12 13  1  1  0  0  0
 12 14  1  0  0  0  0
 12 21  1  0  0  0  0
 14 15  1  6  0  0  0
 14 16  1  0  0  0  0
 16 17  1  6  0  0  0
 16 18  1  0  0  0  0
 18 19  1  1  0  0  0
 18 20  1  0  0  0  0
 20 21  1  0  0  0  0
 20 22  1  1  0  0  0
 22 23  1  0  0  0  0
M  END
>  <CHROM.1>
-168.69806564,63.31219773,-173.73297445,171.47878867,173.87455105,-11.06832802
2.68038720,0.23533975,1.49786263,0.90527693,0.93657736

>  <Name>
ligand

>  <RI>
0

>  <Rbt.Current_Directory>
/home/itssahil/PROJECTS/Mol_Feturizer/New_Systems/rnas/4TS2

>  <Rbt.Executable>
rbdock ($Id: //depot/dev/client3/rdock/2013.1/src/exe/rbdock.cxx#4 $)

>  <Rbt.Library>
libRbt.so (2013.1, Build901 2013/11/27)

>  <Rbt.Parameter_File>
/export/apps/rDock/src/rDock_2013.1_src/data/scripts/dock_solv.prm

>  <Rbt.Receptor>
prm/blind_docking_20.prm

>  <SCORE>
-15.7763

>  <SCORE.INTER>
-9.11092

>  <SCORE.INTER.CONST>
1

>  <SCORE.INTER.POLAR>
0

>  <SCORE.INTER.ROT>
5

>  <SCORE.INTER.SOLV>
9.57239

>  <SCORE.INTER.VDW>
-16.1981

>  <SCORE.INTER.norm>
-0.396127

>  <SCORE.INTRA>
-6.66536

>  <SCORE.INTRA.DIHEDRAL>
-11.1094

>  <SCORE.INTRA.DIHEDRAL.0>
12.4853

>  <SCORE.INTRA.POLAR>
0

>  <SCORE.INTRA.POLAR.0>
0

>  <SCORE.INTRA.REPUL>
0

>  <SCORE.INTRA.REPUL.0>
0

>  <SCORE.INTRA.SOLV>
0.755754

>  <SCORE.INTRA.SOLV.lig_0>
-31.1706

>  <SCORE.INTRA.VDW>
-1.48855

>  <SCORE.INTRA.VDW.0>
-1.16895

>  <SCORE.INTRA.norm>
-0.289798

>  <SCORE.RESTR>
0

>  <SCORE.RESTR.CAVITY>
0

>  <SCORE.RESTR.norm>
0

>  <SCORE.SYSTEM>
0

>  <SCORE.SYSTEM.CONST>
0

>  <SCORE.SYSTEM.DIHEDRAL>
0

>  <SCORE.SYSTEM.SOLV>
0

>  <SCORE.SYSTEM.norm>
0

>  <SCORE.heavy>
23

>  <SCORE.norm>
-0.685925

>  <RMSD>
13.769

$$$$
ligand
 OpenBabel11021811513D
libRbt.so/2013.1/901 2013/11/27
 23 24  0  0  0  0  0  0  0  0999 V2000
  -12.8347    2.5977    2.6385 C   0  0  0  0  0  0  0  0  0  0  0  0
  -12.2946    1.5952    3.5209 O   0  0  0  0  0  0  0  0  0  0  0  0
  -11.7632    3.6423    2.3605 C   0  0  2  0  0  0  0  0  0  0  0  0
  -12.2006    4.8186    1.5011 C   0  0  1  0  0  0  0  0  0  0  0  0
  -12.9231    5.7517    2.3070 O   0  0  0  0  0  0  0  0  0  0  0  0
  -10.8648    5.3466    0.9890 C   0  0  2  0  0  0  0  0  0  0  0  0
  -10.8529    6.1424   -0.2021 O   0  0  0  0  0  0  0  0  0  0  0  0
  -10.0984    4.0560    0.7588 C   0  0  2  0  0  0  0  0  0  0  0  0
  -10.6465    3.0777    1.6676 O   0  0  0  0  0  0  0  0  0  0  0  0
   -8.6100    4.3409    1.0291 C   0  0  0  0  0  0  0  0  0  0  0  0
   -7.8137    3.1479    1.0136 O   0  0  0  0  0  0  0  0  0  0  0  0
   -9.6203    2.4148   -0.9457 C   0  0  2  0  0  0  0  0  0  0  0  0
  -10.3546    3.5955   -0.5788 O   0  0  0  0  0  0  0  0  0  0  0  0
   -9.8898    2.1508   -2.4155 C   0  0  2  0  0  0  0  0  0  0  0  0
   -9.7030    3.3636   -3.1533 O   0  0  0  0  0  0  0  0  0  0  0  0
  -11.3177    1.6940   -2.6187 C   0  0  1  0  0  0  0  0  0  0  0  0
  -11.4588    1.2232   -3.9610 O   0  0  0  0  0  0  0  0  0  0  0  0
  -11.6712    0.5923   -1.6377 C   0  0  2  0  0  0  0  0  0  0  0  0
  -13.0621    0.3205   -1.7423 O   0  0  0  0  0  0  0  0  0  0  0  0
  -11.3519    0.9834   -0.2011 C   0  0  2  0  0  0  0  0  0  0  0  0
   -9.9651    1.2882   -0.1398 O   0  0  0  0  0  0  0  0  0  0  0  0
  -11.6964   -0.1433    0.7802 C   0  0  0  0  0  0  0  0  0  0  0  0
  -13.0939   -0.4696    0.7916 O   0  0  0  0  0  0  0  0  0  0  0  0
  1  2  1  0  0  0  0
  3  1  1  6  0  0  0
  3  9  1  0  0  0  0
  3  4  1  0  0  0  0
  4  5  1  1  0  0  0
  4  6  1  0  0  0  0
  6  7  1  6  0  0  0
  6  8  1  0  0  0  0
  8  9  1  0  0  0  0
  8 10  1  1  0  0  0
  8 13  1  0  0  0  0
 10 11  1  0  0  0  0
 12 13  1  1  0  0  0
 12 14  1  0  0  0  0
 12 21  1  0  0  0  0
 14 15  1  6  0  0  0
 14 16  1  0  0  0  0
 16 17  1  6  0  0  0
 16 18  1  0  0  0  0
 18 19  1  1  0  0  0
 18 20  1  0  0  0  0
 20 21  1  0  0  0  0
 20 22  1  1  0  0  0
 22 23  1  0  0  0  0
M  END
>  <CHROM.1>
-176.73865290,172.27139138,-174.17133677,176.59806995,-62.21195616,-11.05590947
2.66387422,0.07550438,1.57242524,0.93821910,0.87130777

>  <Name>
ligand

>  <RI>
0

>  <Rbt.Current_Directory>
/home/itssahil/PROJECTS/Mol_Feturizer/New_Systems/rnas/4TS2

>  <Rbt.Executable>
rbdock ($Id: //depot/dev/client3/rdock/2013.1/src/exe/rbdock.cxx#4 $)

>  <Rbt.Library>
libRbt.so (2013.1, Build901 2013/11/27)

>  <Rbt.Parameter_File>
/export/apps/rDock/src/rDock_2013.1_src/data/scripts/dock_solv.prm

>  <Rbt.Receptor>
prm/blind_docking_20.prm

>  <SCORE>
-14.8024

>  <SCORE.INTER>
-8.09124

>  <SCORE.INTER.CONST>
1

>  <SCORE.INTER.POLAR>
0

>  <SCORE.INTER.ROT>
5

>  <SCORE.INTER.SOLV>
10.2383

>  <SCORE.INTER.VDW>
-15.7402

>  <SCORE.INTER.norm>
-0.351793

>  <SCORE.INTRA>
-6.71118

>  <SCORE.INTRA.DIHEDRAL>
-11.9348

>  <SCORE.INTRA.DIHEDRAL.0>
12.4853

>  <SCORE.INTRA.POLAR>
0

>  <SCORE.INTRA.POLAR.0>
0

>  <SCORE.INTRA.REPUL>
0

>  <SCORE.INTRA.REPUL.0>
0

>  <SCORE.INTRA.SOLV>
0.8982

>  <SCORE.INTRA.SOLV.lig_0>
-31.1706

>  <SCORE.INTRA.VDW>
-1.1929

>  <SCORE.INTRA.VDW.0>
-1.16895

>  <SCORE.INTRA.norm>
-0.29179

>  <SCORE.RESTR>
0

>  <SCORE.RESTR.CAVITY>
0

>  <SCORE.RESTR.norm>
0

>  <SCORE.SYSTEM>
0

>  <SCORE.SYSTEM.CONST>
0

>  <SCORE.SYSTEM.DIHEDRAL>
0

>  <SCORE.SYSTEM.SOLV>
0

>  <SCORE.SYSTEM.norm>
0

>  <SCORE.heavy>
23

>  <SCORE.norm>
-0.643583

>  <RMSD>
13.769

$$$$
ligand
 OpenBabel11021811513D
libRbt.so/2013.1/901 2013/11/27
 23 24  0  0  0  0  0  0  0  0999 V2000
  -12.8304    2.8334    2.4370 C   0  0  0  0  0  0  0  0  0  0  0  0
  -12.4468    1.7575    3.3150 O   0  0  0  0  0  0  0  0  0  0  0  0
  -11.6225    3.7258    2.1898 C   0  0  2  0  0  0  0  0  0  0  0  0
  -11.8747    4.9443    1.3151 C   0  0  1  0  0  0  0  0  0  0  0  0
  -12.4915    5.9694    2.0968 O   0  0  0  0  0  0  0  0  0  0  0  0
  -10.4661    5.2885    0.8431 C   0  0  2  0  0  0  0  0  0  0  0  0
  -10.3135    6.0686   -0.3487 O   0  0  0  0  0  0  0  0  0  0  0  0
   -9.8703    3.9067    0.6389 C   0  0  2  0  0  0  0  0  0  0  0  0
  -10.5698    3.0147    1.5324 O   0  0  0  0  0  0  0  0  0  0  0  0
   -8.3661    3.9944    0.9539 C   0  0  0  0  0  0  0  0  0  0  0  0
   -8.1139    4.3529    2.3198 O   0  0  0  0  0  0  0  0  0  0  0  0
   -9.4934    2.2485   -1.0745 C   0  0  2  0  0  0  0  0  0  0  0  0
  -10.1448    3.4761   -0.7050 O   0  0  0  0  0  0  0  0  0  0  0  0
   -9.8064    1.9904   -2.5367 C   0  0  2  0  0  0  0  0  0  0  0  0
   -9.5573    3.1831   -3.2887 O   0  0  0  0  0  0  0  0  0  0  0  0
  -11.2638    1.6232   -2.7098 C   0  0  1  0  0  0  0  0  0  0  0  0
  -11.4594    1.1517   -4.0451 O   0  0  0  0  0  0  0  0  0  0  0  0
  -11.6677    0.5539   -1.7127 C   0  0  2  0  0  0  0  0  0  0  0  0
  -13.0747    0.3697   -1.7895 O   0  0  0  0  0  0  0  0  0  0  0  0
  -11.2976    0.9353   -0.2856 C   0  0  2  0  0  0  0  0  0  0  0  0
   -9.8935    1.1523   -0.2523 O   0  0  0  0  0  0  0  0  0  0  0  0
  -11.6941   -0.1595    0.7119 C   0  0  0  0  0  0  0  0  0  0  0  0
  -13.1053   -0.4204    0.7271 O   0  0  0  0  0  0  0  0  0  0  0  0
  1  2  1  0  0  0  0
  3  1  1  6  0  0  0
  3  9  1  0  0  0  0
  3  4  1  0  0  0  0
  4  5  1  1  0  0  0
  4  6  1  0  0  0  0
  6  7  1  6  0  0  0
  6  8  1  0  0  0  0
  8  9  1  0  0  0  0
  8 10  1  1  0  0  0
  8 13  1  0  0  0  0
 10 11  1  0  0  0  0
 12 13  1  1  0  0  0
 12 14  1  0  0  0  0
 12 21  1  0  0  0  0
 14 15  1  6  0  0  0
 14 16  1  0  0  0  0
 16 17  1  6  0  0  0
 16 18  1  0  0  0  0
 18 19  1  1  0  0  0
 18 20  1  0  0  0  0
 20 21  1  0  0  0  0
 20 22  1  1  0  0  0
 22 23  1  0  0  0  0
M  END
>  <CHROM.1>
-177.93627934,62.82608345,-176.13300607,172.88466601,-60.72898036,-10.94319557
2.68995729,0.01947062,1.35810722,0.90367948,0.97265935

>  <Name>
ligand

>  <RI>
0

>  <Rbt.Current_Directory>
/home/itssahil/PROJECTS/Mol_Feturizer/New_Systems/rnas/4TS2

>  <Rbt.Executable>
rbdock ($Id: //depot/dev/client3/rdock/2013.1/src/exe/rbdock.cxx#4 $)

>  <Rbt.Library>
libRbt.so (2013.1, Build901 2013/11/27)

>  <Rbt.Parameter_File>
/export/apps/rDock/src/rDock_2013.1_src/data/scripts/dock_solv.prm

>  <Rbt.Receptor>
prm/blind_docking_80.prm

>  <SCORE>
-15.1533

>  <SCORE.INTER>
-8.36628

>  <SCORE.INTER.CONST>
1

>  <SCORE.INTER.POLAR>
0

>  <SCORE.INTER.ROT>
5

>  <SCORE.INTER.SOLV>
10.2925

>  <SCORE.INTER.VDW>
-15.9417

>  <SCORE.INTER.norm>
-0.363751

>  <SCORE.INTRA>
-6.78705

>  <SCORE.INTRA.DIHEDRAL>
-11.9294

>  <SCORE.INTRA.DIHEDRAL.0>
12.4853

>  <SCORE.INTRA.POLAR>
0

>  <SCORE.INTRA.POLAR.0>
0

>  <SCORE.INTRA.REPUL>
0

>  <SCORE.INTRA.REPUL.0>
0

>  <SCORE.INTRA.SOLV>
0.676783

>  <SCORE.INTRA.SOLV.lig_0>
-31.1706

>  <SCORE.INTRA.VDW>
-1.16073

>  <SCORE.INTRA.VDW.0>
-1.16895

>  <SCORE.INTRA.norm>
-0.295089

>  <SCORE.RESTR>
0

>  <SCORE.RESTR.CAVITY>
0

>  <SCORE.RESTR.norm>
0

>  <SCORE.SYSTEM>
0

>  <SCORE.SYSTEM.CONST>
0

>  <SCORE.SYSTEM.DIHEDRAL>
0

>  <SCORE.SYSTEM.SOLV>
0

>  <SCORE.SYSTEM.norm>
0

>  <SCORE.heavy>
23

>  <SCORE.norm>
-0.658841

>  <RMSD>
13.769

$$$$
ligand
 OpenBabel11021811513D
libRbt.so/2013.1/901 2013/11/27
 23 24  0  0  0  0  0  0  0  0999 V2000
   -6.1556    3.2837   -2.8520 C   0  0  0  0  0  0  0  0  0  0  0  0
   -5.9991    3.9099   -4.1400 O   0  0  0  0  0  0  0  0  0  0  0  0
   -6.9209    4.2250   -1.9330 C   0  0  2  0  0  0  0  0  0  0  0  0
   -7.1121    3.7369   -0.5052 C   0  0  1  0  0  0  0  0  0  0  0  0
   -5.9122    3.9624    0.2376 O   0  0  0  0  0  0  0  0  0  0  0  0
   -8.2952    4.5799   -0.0414 C   0  0  2  0  0  0  0  0  0  0  0  0
   -9.0793    4.1128    1.0629 O   0  0  0  0  0  0  0  0  0  0  0  0
   -9.1449    4.6251   -1.2991 C   0  0  2  0  0  0  0  0  0  0  0  0
   -8.2446    4.4703   -2.4166 O   0  0  0  0  0  0  0  0  0  0  0  0
   -9.8798    5.9775   -1.3190 C   0  0  0  0  0  0  0  0  0  0  0  0
  -10.7114    6.1646   -0.1653 O   0  0  0  0  0  0  0  0  0  0  0  0
   -9.3770    2.2289   -1.4788 C   0  0  2  0  0  0  0  0  0  0  0  0
  -10.0342    3.4955   -1.3001 O   0  0  0  0  0  0  0  0  0  0  0  0
   -9.6927    1.7475   -2.8826 C   0  0  2  0  0  0  0  0  0  0  0  0
   -9.4523    2.8115   -3.8101 O   0  0  0  0  0  0  0  0  0  0  0  0
  -11.1486    1.3506   -2.9919 C   0  0  1  0  0  0  0  0  0  0  0  0
  -11.3453    0.6784   -4.2381 O   0  0  0  0  0  0  0  0  0  0  0  0
  -11.5438    0.4454   -1.8407 C   0  0  2  0  0  0  0  0  0  0  0  0
  -12.9499    0.2445   -1.8832 O   0  0  0  0  0  0  0  0  0  0  0  0
  -11.1718    1.0437   -0.4907 C   0  0  2  0  0  0  0  0  0  0  0  0
   -9.7688    1.2703   -0.4963 O   0  0  0  0  0  0  0  0  0  0  0  0
  -11.5594    0.1133    0.6648 C   0  0  0  0  0  0  0  0  0  0  0  0
  -11.3456    0.7028    1.9557 O   0  0  0  0  0  0  0  0  0  0  0  0
  1  2  1  0  0  0  0
  3  1  1  6  0  0  0
  3  9  1  0  0  0  0
  3  4  1  0  0  0  0
  4  5  1  1  0  0  0
  4  6  1  0  0  0  0
  6  7  1  1  0  0  0
  6  8  1  0  0  0  0
  8  9  1  0  0  0  0
  8 10  1  6  0  0  0
  8 13  1  0  0  0  0
 10 11  1  0  0  0  0
 12 13  1  1  0  0  0
 12 14  1  0  0  0  0
 12 21  1  0  0  0  0
 14 15  1  6  0  0  0
 14 16  1  0  0  0  0
 16 17  1  6  0  0  0
 16 18  1  0  0  0  0
 18 19  1  1  0  0  0
 18 20  1  0  0  0  0
 20 21  1  0  0  0  0
 20 22  1  1  0  0  0
 22 23  1  0  0  0  0
M  END
>  <CHROM.1>
-177.14084695,-58.99545791,-107.10937288,-68.85782672,-174.13510503,-9.43691038
2.83696692,-1.39493796,-0.16438722,-0.70395225,-1.94522620

>  <Name>
ligand

>  <RI>
0

>  <Rbt.Current_Directory>
/home/itssahil/PROJECTS/Mol_Feturizer/New_Systems/rnas/4TS2

>  <Rbt.Executable>
rbdock ($Id: //depot/dev/client3/rdock/2013.1/src/exe/rbdock.cxx#4 $)

>  <Rbt.Library>
libRbt.so (2013.1, Build901 2013/11/27)

>  <Rbt.Parameter_File>
/export/apps/rDock/src/rDock_2013.1_src/data/scripts/dock_solv.prm

>  <Rbt.Receptor>
prm/blind_docking_100.prm

>  <SCORE>
-11.3284

>  <SCORE.INTER>
-9.07072

>  <SCORE.INTER.CONST>
1

>  <SCORE.INTER.POLAR>
0

>  <SCORE.INTER.ROT>
5

>  <SCORE.INTER.SOLV>
11.3863

>  <SCORE.INTER.VDW>
-16.7759

>  <SCORE.INTER.norm>
-0.394379

>  <SCORE.INTRA>
-2.33185

>  <SCORE.INTRA.DIHEDRAL>
-5.3914

>  <SCORE.INTRA.DIHEDRAL.0>
12.4853

>  <SCORE.INTRA.POLAR>
0

>  <SCORE.INTRA.POLAR.0>
0

>  <SCORE.INTRA.REPUL>
0

>  <SCORE.INTRA.REPUL.0>
0

>  <SCORE.INTRA.SOLV>
0.727067

>  <SCORE.INTRA.SOLV.lig_0>
-31.1706

>  <SCORE.INTRA.VDW>
0.000317156

>  <SCORE.INTRA.VDW.0>
-1.16895

>  <SCORE.INTRA.norm>
-0.101385

>  <SCORE.RESTR>
0.0741396

>  <SCORE.RESTR.CAVITY>
0.0741396

>  <SCORE.RESTR.norm>
0.00322346

>  <SCORE.SYSTEM>
0

>  <SCORE.SYSTEM.CONST>
0

>  <SCORE.SYSTEM.DIHEDRAL>
0

>  <SCORE.SYSTEM.SOLV>
0

>  <SCORE.SYSTEM.norm>
0

>  <SCORE.heavy>
23

>  <SCORE.norm>
-0.49254

>  <RMSD>
13.774

$$$$
ligand
 OpenBabel11021811513D
libRbt.so/2013.1/901 2013/11/27
 23 24  0  0  0  0  0  0  0  0999 V2000
  -10.0130    4.1320    3.8128 C   0  0  0  0  0  0  0  0  0  0  0  0
  -10.3577    5.3093    4.5682 O   0  0  0  0  0  0  0  0  0  0  0  0
   -9.1400    4.5376    2.6339 C   0  0  2  0  0  0  0  0  0  0  0  0
   -9.8088    5.4273    1.5973 C   0  0  1  0  0  0  0  0  0  0  0  0
   -9.8247    6.7760    2.0694 O   0  0  0  0  0  0  0  0  0  0  0  0
   -8.9210    5.2088    0.3768 C   0  0  2  0  0  0  0  0  0  0  0  0
   -9.4580    5.4894   -0.9212 O   0  0  0  0  0  0  0  0  0  0  0  0
   -8.6009    3.7293    0.4975 C   0  0  2  0  0  0  0  0  0  0  0  0
   -8.6859    3.3972    1.8996 O   0  0  0  0  0  0  0  0  0  0  0  0
   -7.1892    3.5077   -0.0748 C   0  0  0  0  0  0  0  0  0  0  0  0
   -6.1801    4.1945    0.6786 O   0  0  0  0  0  0  0  0  0  0  0  0
   -9.4570    1.5507   -0.0924 C   0  0  2  0  0  0  0  0  0  0  0  0
   -9.6161    2.9767   -0.1879 O   0  0  0  0  0  0  0  0  0  0  0  0
  -10.0296    0.9439   -1.3598 C   0  0  2  0  0  0  0  0  0  0  0  0
   -9.5073    1.6443   -2.4943 O   0  0  0  0  0  0  0  0  0  0  0  0
  -11.5363    1.0794   -1.3784 C   0  0  1  0  0  0  0  0  0  0  0  0
  -12.0518    0.2876   -2.4512 O   0  0  0  0  0  0  0  0  0  0  0  0
  -12.1303    0.6238   -0.0592 C   0  0  2  0  0  0  0  0  0  0  0  0
  -13.5172    0.9338   -0.0547 O   0  0  0  0  0  0  0  0  0  0  0  0
  -11.4687    1.3063    1.1305 C   0  0  2  0  0  0  0  0  0  0  0  0
  -10.0796    1.0115    1.0735 O   0  0  0  0  0  0  0  0  0  0  0  0
  -12.0641    0.8260    2.4593 C   0  0  0  0  0  0  0  0  0  0  0  0
  -11.4502    1.4380    3.6030 O   0  0  0  0  0  0  0  0  0  0  0  0
  1  2  1  0  0  0  0
  3  1  1  1  0  0  0
  3  9  1  0  0  0  0
  3  4  1  0  0  0  0
  4  5  1  1  0  0  0
  4  6  1  0  0  0  0
  6  7  1  6  0  0  0
  6  8  1  0  0  0  0
  8  9  1  0  0  0  0
  8 10  1  6  0  0  0
  8 13  1  0  0  0  0
 10 11  1  0  0  0  0
 12 13  1  6  0  0  0
 12 14  1  0  0  0  0
 12 21  1  0  0  0  0
 14 15  1  6  0  0  0
 14 16  1  0  0  0  0
 16 17  1  6  0  0  0
 16 18  1  0  0  0  0
 18 19  1  6  0  0  0
 18 20  1  0  0  0  0
 20 21  1  0  0  0  0
 20 22  1  1  0  0  0
 22 23  1  0  0  0  0
M  END
>  <CHROM.1>
-64.56785367,63.55374497,-149.68319659,-177.27806389,179.25477058,-10.05086525
2.89631520,0.76148982,0.92539078,0.73889529,1.06050136

>  <Name>
ligand

>  <RI>
0

>  <Rbt.Current_Directory>
/home/itssahil/PROJECTS/Mol_Feturizer/New_Systems/rnas/4TS2

>  <Rbt.Executable>
rbdock ($Id: //depot/dev/client3/rdock/2013.1/src/exe/rbdock.cxx#4 $)

>  <Rbt.Library>
libRbt.so (2013.1, Build901 2013/11/27)

>  <Rbt.Parameter_File>
/export/apps/rDock/src/rDock_2013.1_src/data/scripts/dock_solv.prm

>  <Rbt.Receptor>
prm/blind_docking_100.prm

>  <SCORE>
-11.1745

>  <SCORE.INTER>
-5.52076

>  <SCORE.INTER.CONST>
1

>  <SCORE.INTER.POLAR>
0

>  <SCORE.INTER.ROT>
5

>  <SCORE.INTER.SOLV>
9.52663

>  <SCORE.INTER.VDW>
-13.7894

>  <SCORE.INTER.norm>
-0.240033

>  <SCORE.INTRA>
-5.6537

>  <SCORE.INTRA.DIHEDRAL>
-8.63867

>  <SCORE.INTRA.DIHEDRAL.0>
12.4853

>  <SCORE.INTRA.POLAR>
0

>  <SCORE.INTRA.POLAR.0>
0

>  <SCORE.INTRA.REPUL>
0

>  <SCORE.INTRA.REPUL.0>
0

>  <SCORE.INTRA.SOLV>
0.295765

>  <SCORE.INTRA.SOLV.lig_0>
-31.1706

>  <SCORE.INTRA.VDW>
-1.48225

>  <SCORE.INTRA.VDW.0>
-1.16895

>  <SCORE.INTRA.norm>
-0.245813

>  <SCORE.RESTR>
0

>  <SCORE.RESTR.CAVITY>
0

>  <SCORE.RESTR.norm>
0

>  <SCORE.SYSTEM>
0

>  <SCORE.SYSTEM.CONST>
0

>  <SCORE.SYSTEM.DIHEDRAL>
0

>  <SCORE.SYSTEM.SOLV>
0

>  <SCORE.SYSTEM.norm>
0

>  <SCORE.heavy>
23

>  <SCORE.norm>
-0.485846

>  <RMSD>
13.777

$$$$
ligand
 OpenBabel11021811513D
libRbt.so/2013.1/901 2013/11/27
 23 24  0  0  0  0  0  0  0  0999 V2000
  -12.4022    4.3021    2.6031 C   0  0  0  0  0  0  0  0  0  0  0  0
  -12.0192    3.7241    3.8660 O   0  0  0  0  0  0  0  0  0  0  0  0
  -11.1570    4.8185    1.8966 C   0  0  2  0  0  0  0  0  0  0  0  0
  -11.4024    5.5551    0.5886 C   0  0  1  0  0  0  0  0  0  0  0  0
  -11.8174    6.8936    0.8689 O   0  0  0  0  0  0  0  0  0  0  0  0
  -10.0386    5.4581   -0.0866 C   0  0  2  0  0  0  0  0  0  0  0  0
   -9.9651    5.6100   -1.5092 O   0  0  0  0  0  0  0  0  0  0  0  0
   -9.6050    4.0576    0.3090 C   0  0  2  0  0  0  0  0  0  0  0  0
  -10.2666    3.7524    1.5551 O   0  0  0  0  0  0  0  0  0  0  0  0
   -8.0715    4.0628    0.4433 C   0  0  0  0  0  0  0  0  0  0  0  0
   -7.6201    4.8967    1.5196 O   0  0  0  0  0  0  0  0  0  0  0  0
   -9.6764    1.7668   -0.4491 C   0  0  2  0  0  0  0  0  0  0  0  0
  -10.0857    3.1266   -0.6755 O   0  0  0  0  0  0  0  0  0  0  0  0
  -10.1097    0.9552   -1.6557 C   0  0  2  0  0  0  0  0  0  0  0  0
   -9.7015    1.6324   -2.8494 O   0  0  0  0  0  0  0  0  0  0  0  0
  -11.6159    0.8162   -1.6877 C   0  0  1  0  0  0  0  0  0  0  0  0
  -11.9633   -0.1489   -2.6834 O   0  0  0  0  0  0  0  0  0  0  0  0
  -12.1416    0.3826   -0.3325 C   0  0  2  0  0  0  0  0  0  0  0  0
  -13.5614    0.4381   -0.3574 O   0  0  0  0  0  0  0  0  0  0  0  0
  -11.6329    1.2774    0.7898 C   0  0  2  0  0  0  0  0  0  0  0  0
  -10.2127    1.2324    0.7610 O   0  0  0  0  0  0  0  0  0  0  0  0
  -12.1556    0.8202    2.1568 C   0  0  0  0  0  0  0  0  0  0  0  0
  -11.7357   -0.5078    2.5026 O   0  0  0  0  0  0  0  0  0  0  0  0
  1  2  1  0  0  0  0
  3  1  1  6  0  0  0
  3  9  1  0  0  0  0
  3  4  1  0  0  0  0
  4  5  1  1  0  0  0
  4  6  1  0  0  0  0
  6  7  1  6  0  0  0
  6  8  1  0  0  0  0
  8  9  1  0  0  0  0
  8 10  1  1  0  0  0
  8 13  1  0  0  0  0
 10 11  1  0  0  0  0
 12 13  1  6  0  0  0
 12 14  1  0  0  0  0
 12 21  1  0  0  0  0
 14 15  1  6  0  0  0
 14 16  1  0  0  0  0
 16 17  1  6  0  0  0
 16 18  1  0  0  0  0
 18 19  1  6  0  0  0
 18 20  1  0  0  0  0
 20 21  1  0  0  0  0
 20 22  1  1  0  0  0
 22 23  1  0  0  0  0
M  END
>  <CHROM.1>
-175.61882489,65.39997434,-172.88589757,176.83796431,61.20718463,-10.82732654
2.81756270,0.33649984,1.10134638,0.96549403,0.74071250

>  <Name>
ligand

>  <RI>
0

>  <Rbt.Current_Directory>
/home/itssahil/PROJECTS/Mol_Feturizer/New_Systems/rnas/4TS2

>  <Rbt.Executable>
rbdock ($Id: //depot/dev/client3/rdock/2013.1/src/exe/rbdock.cxx#4 $)

>  <Rbt.Library>
libRbt.so (2013.1, Build901 2013/11/27)

>  <Rbt.Parameter_File>
/export/apps/rDock/src/rDock_2013.1_src/data/scripts/dock_solv.prm

>  <Rbt.Receptor>
prm/blind_docking_100.prm

>  <SCORE>
-13.1037

>  <SCORE.INTER>
-5.85953

>  <SCORE.INTER.CONST>
1

>  <SCORE.INTER.POLAR>
0

>  <SCORE.INTER.ROT>
5

>  <SCORE.INTER.SOLV>
8.7607

>  <SCORE.INTER.VDW>
-13.7599

>  <SCORE.INTER.norm>
-0.254762

>  <SCORE.INTRA>
-7.2442

>  <SCORE.INTRA.DIHEDRAL>
-11.8618

>  <SCORE.INTRA.DIHEDRAL.0>
12.4853

>  <SCORE.INTRA.POLAR>
0

>  <SCORE.INTRA.POLAR.0>
0

>  <SCORE.INTRA.REPUL>
0

>  <SCORE.INTRA.REPUL.0>
0

>  <SCORE.INTRA.SOLV>
0.268891

>  <SCORE.INTRA.SOLV.lig_0>
-31.1706

>  <SCORE.INTRA.VDW>
-1.44774

>  <SCORE.INTRA.VDW.0>
-1.16895

>  <SCORE.INTRA.norm>
-0.314965

>  <SCORE.RESTR>
0

>  <SCORE.RESTR.CAVITY>
0

>  <SCORE.RESTR.norm>
0

>  <SCORE.SYSTEM>
0

>  <SCORE.SYSTEM.CONST>
0

>  <SCORE.SYSTEM.DIHEDRAL>
0

>  <SCORE.SYSTEM.SOLV>
0

>  <SCORE.SYSTEM.norm>
0

>  <SCORE.heavy>
23

>  <SCORE.norm>
-0.569727

>  <RMSD>
13.779

$$$$
ligand
 OpenBabel11021811513D
libRbt.so/2013.1/901 2013/11/27
 23 24  0  0  0  0  0  0  0  0999 V2000
  -12.0887    3.4552    2.2005 C   0  0  0  0  0  0  0  0  0  0  0  0
  -11.5728    2.5775    3.2197 O   0  0  0  0  0  0  0  0  0  0  0  0
  -10.9417    4.2721    1.6230 C   0  0  2  0  0  0  0  0  0  0  0  0
  -11.3325    5.3036    0.5758 C   0  0  1  0  0  0  0  0  0  0  0  0
  -11.8530    6.4651    1.2255 O   0  0  0  0  0  0  0  0  0  0  0  0
  -10.0084    5.5375   -0.1436 C   0  0  2  0  0  0  0  0  0  0  0  0
  -10.0346    6.0741   -1.4716 O   0  0  0  0  0  0  0  0  0  0  0  0
   -9.4231    4.1364   -0.1613 C   0  0  2  0  0  0  0  0  0  0  0  0
   -9.9776    3.4383    0.9739 O   0  0  0  0  0  0  0  0  0  0  0  0
   -7.8915    4.2679   -0.0801 C   0  0  0  0  0  0  0  0  0  0  0  0
   -7.2471    3.0092    0.1610 O   0  0  0  0  0  0  0  0  0  0  0  0
   -9.3042    2.1516   -1.5303 C   0  0  2  0  0  0  0  0  0  0  0  0
   -9.8728    3.4597   -1.3474 O   0  0  0  0  0  0  0  0  0  0  0  0
   -9.6384    1.7043   -2.9412 C   0  0  2  0  0  0  0  0  0  0  0  0
   -9.3144    2.7559   -3.8573 O   0  0  0  0  0  0  0  0  0  0  0  0
  -11.1173    1.4114   -3.0680 C   0  0  1  0  0  0  0  0  0  0  0  0
  -11.3477    0.7643   -4.3216 O   0  0  0  0  0  0  0  0  0  0  0  0
  -11.5868    0.5273   -1.9284 C   0  0  2  0  0  0  0  0  0  0  0  0
  -13.0030    0.4260   -1.9863 O   0  0  0  0  0  0  0  0  0  0  0  0
  -11.1877    1.0876   -0.5698 C   0  0  2  0  0  0  0  0  0  0  0  0
   -9.7723    1.2153   -0.5597 O   0  0  0  0  0  0  0  0  0  0  0  0
  -11.6515    0.1779    0.5740 C   0  0  0  0  0  0  0  0  0  0  0  0
  -13.0707   -0.0354    0.5810 O   0  0  0  0  0  0  0  0  0  0  0  0
  1  2  1  0  0  0  0
  3  1  1  6  0  0  0
  3  9  1  0  0  0  0
  3  4  1  0  0  0  0
  4  5  1  1  0  0  0
  4  6  1  0  0  0  0
  6  7  1  6  0  0  0
  6  8  1  0  0  0  0
  8  9  1  0  0  0  0
  8 10  1  1  0  0  0
  8 13  1  0  0  0  0
 10 11  1  0  0  0  0
 12 13  1  1  0  0  0
 12 14  1  0  0  0  0
 12 21  1  0  0  0  0
 14 15  1  6  0  0  0
 14 16  1  0  0  0  0
 16 17  1  6  0  0  0
 16 18  1  0  0  0  0
 18 19  1  1  0  0  0
 18 20  1  0  0  0  0
 20 21  1  0  0  0  0
 20 22  1  1  0  0  0
 22 23  1  0  0  0  0
M  END
>  <CHROM.1>
-177.08224944,169.11338495,-168.22611327,175.61391647,-58.01564123,-10.58531357
2.78020050,-0.55704601,1.34316793,0.87540811,0.88323420

>  <Name>
ligand

>  <RI>
0

>  <Rbt.Current_Directory>
/home/itssahil/PROJECTS/Mol_Feturizer/New_Systems/rnas/4TS2

>  <Rbt.Executable>
rbdock ($Id: //depot/dev/client3/rdock/2013.1/src/exe/rbdock.cxx#4 $)

>  <Rbt.Library>
libRbt.so (2013.1, Build901 2013/11/27)

>  <Rbt.Parameter_File>
/export/apps/rDock/src/rDock_2013.1_src/data/scripts/dock_solv.prm

>  <Rbt.Receptor>
prm/blind_docking_100.prm

>  <SCORE>
-13.2783

>  <SCORE.INTER>
-6.81165

>  <SCORE.INTER.CONST>
1

>  <SCORE.INTER.POLAR>
0

>  <SCORE.INTER.ROT>
5

>  <SCORE.INTER.SOLV>
10.4151

>  <SCORE.INTER.VDW>
-14.9461

>  <SCORE.INTER.norm>
-0.296159

>  <SCORE.INTRA>
-6.46665

>  <SCORE.INTRA.DIHEDRAL>
-11.2283

>  <SCORE.INTRA.DIHEDRAL.0>
12.4853

>  <SCORE.INTRA.POLAR>
0

>  <SCORE.INTRA.POLAR.0>
0

>  <SCORE.INTRA.REPUL>
0

>  <SCORE.INTRA.REPUL.0>
0

>  <SCORE.INTRA.SOLV>
0.583679

>  <SCORE.INTRA.SOLV.lig_0>
-31.1706

>  <SCORE.INTRA.VDW>
-1.14432

>  <SCORE.INTRA.VDW.0>
-1.16895

>  <SCORE.INTRA.norm>
-0.281159

>  <SCORE.RESTR>
1.91996e-05

>  <SCORE.RESTR.CAVITY>
1.91996e-05

>  <SCORE.RESTR.norm>
8.34764e-07

>  <SCORE.SYSTEM>
0

>  <SCORE.SYSTEM.CONST>
0

>  <SCORE.SYSTEM.DIHEDRAL>
0

>  <SCORE.SYSTEM.SOLV>
0

>  <SCORE.SYSTEM.norm>
0

>  <SCORE.heavy>
23

>  <SCORE.norm>
-0.577317

>  <RMSD>
13.780

$$$$
ligand
 OpenBabel11021811513D
libRbt.so/2013.1/901 2013/11/27
 23 24  0  0  0  0  0  0  0  0999 V2000
  -12.8811    2.8942    2.3604 C   0  0  0  0  0  0  0  0  0  0  0  0
  -12.5603    1.8307    3.2777 O   0  0  0  0  0  0  0  0  0  0  0  0
  -11.6413    3.7488    2.1394 C   0  0  2  0  0  0  0  0  0  0  0  0
  -11.8398    4.9810    1.2701 C   0  0  1  0  0  0  0  0  0  0  0  0
  -12.4359    6.0200    2.0495 O   0  0  0  0  0  0  0  0  0  0  0  0
  -10.4134    5.2828    0.8233 C   0  0  2  0  0  0  0  0  0  0  0  0
  -10.2163    6.0660   -0.3599 O   0  0  0  0  0  0  0  0  0  0  0  0
   -9.8592    3.8840    0.6182 C   0  0  2  0  0  0  0  0  0  0  0  0
  -10.6014    3.0087    1.4936 O   0  0  0  0  0  0  0  0  0  0  0  0
   -8.3582    3.9207    0.9580 C   0  0  0  0  0  0  0  0  0  0  0  0
   -7.6165    4.7644    0.0660 O   0  0  0  0  0  0  0  0  0  0  0  0
   -9.5005    2.2312   -1.1043 C   0  0  2  0  0  0  0  0  0  0  0  0
  -10.1255    3.4720   -0.7331 O   0  0  0  0  0  0  0  0  0  0  0  0
   -9.8021    1.9919   -2.5720 C   0  0  2  0  0  0  0  0  0  0  0  0
   -9.5142    3.1835   -3.3119 O   0  0  0  0  0  0  0  0  0  0  0  0
  -11.2661    1.6626   -2.7653 C   0  0  1  0  0  0  0  0  0  0  0  0
  -11.4572    1.2061   -4.1064 O   0  0  0  0  0  0  0  0  0  0  0  0
  -11.7086    0.5964   -1.7814 C   0  0  2  0  0  0  0  0  0  0  0  0
  -13.1187    0.4481   -1.8764 O   0  0  0  0  0  0  0  0  0  0  0  0
  -11.3463    0.9578   -0.3471 C   0  0  2  0  0  0  0  0  0  0  0  0
   -9.9377    1.1393   -0.2954 O   0  0  0  0  0  0  0  0  0  0  0  0
  -11.7821   -0.1341    0.6371 C   0  0  0  0  0  0  0  0  0  0  0  0
  -13.1972   -0.3727    0.6200 O   0  0  0  0  0  0  0  0  0  0  0  0
  1  2  1  0  0  0  0
  3  1  1  6  0  0  0
  3  9  1  0  0  0  0
  3  4  1  0  0  0  0
  4  5  1  1  0  0  0
  4  6  1  0  0  0  0
  6  7  1  6  0  0  0
  6  8  1  0  0  0  0
  8  9  1  0  0  0  0
  8 10  1  1  0  0  0
  8 13  1  0  0  0  0
 10 11  1  0  0  0  0
 12 13  1  1  0  0  0
 12 14  1  0  0  0  0
 12 21  1  0  0  0  0
 14 15  1  6  0  0  0
 14 16  1  0  0  0  0
 16 17  1  6  0  0  0
 16 18  1  0  0  0  0
 18 19  1  1  0  0  0
 18 20  1  0  0  0  0
 20 21  1  0  0  0  0
 20 22  1  1  0  0  0
 22 23  1  0  0  0  0
M  END
>  <CHROM.1>
-175.70448828,-64.08594388,-176.27270358,172.47965418,-59.90830829,-10.93065161
2.72827576,-0.13277585,1.34166368,0.84183461,0.89084576

>  <Name>
ligand

>  <RI>
0

>  <Rbt.Current_Directory>
/home/itssahil/PROJECTS/Mol_Feturizer/New_Systems/rnas/4TS2

>  <Rbt.Executable>
rbdock ($Id: //depot/dev/client3/rdock/2013.1/src/exe/rbdock.cxx#4 $)

>  <Rbt.Library>
libRbt.so (2013.1, Build901 2013/11/27)

>  <Rbt.Parameter_File>
/export/apps/rDock/src/rDock_2013.1_src/data/scripts/dock_solv.prm

>  <Rbt.Receptor>
prm/blind_docking_100.prm

>  <SCORE>
-14.9436

>  <SCORE.INTER>
-8.19327

>  <SCORE.INTER.CONST>
1

>  <SCORE.INTER.POLAR>
0

>  <SCORE.INTER.ROT>
5

>  <SCORE.INTER.SOLV>
9.81498

>  <SCORE.INTER.VDW>
-15.6672

>  <SCORE.INTER.norm>
-0.356229

>  <SCORE.INTRA>
-6.75029

>  <SCORE.INTRA.DIHEDRAL>
-11.8703

>  <SCORE.INTRA.DIHEDRAL.0>
12.4853

>  <SCORE.INTRA.POLAR>
0

>  <SCORE.INTRA.POLAR.0>
0

>  <SCORE.INTRA.REPUL>
0

>  <SCORE.INTRA.REPUL.0>
0

>  <SCORE.INTRA.SOLV>
0.795979

>  <SCORE.INTRA.SOLV.lig_0>
-31.1706

>  <SCORE.INTRA.VDW>
-1.21314

>  <SCORE.INTRA.VDW.0>
-1.16895

>  <SCORE.INTRA.norm>
-0.293491

>  <SCORE.RESTR>
0

>  <SCORE.RESTR.CAVITY>
0

>  <SCORE.RESTR.norm>
0

>  <SCORE.SYSTEM>
0

>  <SCORE.SYSTEM.CONST>
0

>  <SCORE.SYSTEM.DIHEDRAL>
0

>  <SCORE.SYSTEM.SOLV>
0

>  <SCORE.SYSTEM.norm>
0

>  <SCORE.heavy>
23

>  <SCORE.norm>
-0.64972

>  <RMSD>
13.780

$$$$
ligand
 OpenBabel11021811513D
libRbt.so/2013.1/901 2013/11/27
 23 24  0  0  0  0  0  0  0  0999 V2000
  -13.2251    3.3476    2.3459 C   0  0  0  0  0  0  0  0  0  0  0  0
  -13.1125    2.3919    3.4180 O   0  0  0  0  0  0  0  0  0  0  0  0
  -11.8772    4.0243    2.1417 C   0  0  2  0  0  0  0  0  0  0  0  0
  -11.8683    5.1868    1.1610 C   0  0  1  0  0  0  0  0  0  0  0  0
  -12.3748    6.3563    1.8075 O   0  0  0  0  0  0  0  0  0  0  0  0
  -10.3913    5.2740    0.7914 C   0  0  2  0  0  0  0  0  0  0  0  0
  -10.0282    5.9168   -0.4363 O   0  0  0  0  0  0  0  0  0  0  0  0
  -10.0053    3.8062    0.7429 C   0  0  2  0  0  0  0  0  0  0  0  0
  -10.9017    3.1094    1.6342 O   0  0  0  0  0  0  0  0  0  0  0  0
   -8.5343    3.6943    1.1826 C   0  0  0  0  0  0  0  0  0  0  0  0
   -7.6433    4.3746    0.2876 O   0  0  0  0  0  0  0  0  0  0  0  0
   -9.7018    1.9958   -0.8249 C   0  0  2  0  0  0  0  0  0  0  0  0
  -10.2407    3.3073   -0.5847 O   0  0  0  0  0  0  0  0  0  0  0  0
   -9.9154    1.6790   -2.2934 C   0  0  2  0  0  0  0  0  0  0  0  0
   -9.4706    2.7872   -3.0833 O   0  0  0  0  0  0  0  0  0  0  0  0
  -11.3846    1.4592   -2.5798 C   0  0  1  0  0  0  0  0  0  0  0  0
  -11.5168    0.9262   -3.8997 O   0  0  0  0  0  0  0  0  0  0  0  0
  -11.9899    0.5057   -1.5672 C   0  0  2  0  0  0  0  0  0  0  0  0
  -13.3969    0.4684   -1.7633 O   0  0  0  0  0  0  0  0  0  0  0  0
  -11.7029    0.9366   -0.1352 C   0  0  2  0  0  0  0  0  0  0  0  0
  -10.2913    1.0040    0.0156 O   0  0  0  0  0  0  0  0  0  0  0  0
  -12.3037   -0.0430    0.8799 C   0  0  0  0  0  0  0  0  0  0  0  0
  -11.9533    0.2692    2.2362 O   0  0  0  0  0  0  0  0  0  0  0  0
  1  2  1  0  0  0  0
  3  1  1  6  0  0  0
  3  9  1  0  0  0  0
  3  4  1  0  0  0  0
  4  5  1  1  0  0  0
  4  6  1  0  0  0  0
  6  7  1  6  0  0  0
  6  8  1  0  0  0  0
  8  9  1  0  0  0  0
  8 10  1  1  0  0  0
  8 13  1  0  0  0  0
 10 11  1  0  0  0  0
 12 13  1  1  0  0  0
 12 14  1  0  0  0  0
 12 21  1  0  0  0  0
 14 15  1  6  0  0  0
 14 16  1  0  0  0  0
 16 17  1  6  0  0  0
 16 18  1  0  0  0  0
 18 19  1  1  0  0  0
 18 20  1  0  0  0  0
 20 21  1  0  0  0  0
 20 22  1  1  0  0  0
 22 23  1  0  0  0  0
M  END
>  <CHROM.1>
-172.65086131,-63.25559280,-174.59839950,169.81710436,174.89821905,-11.03791392
2.73054477,0.06528429,1.53480793,0.82324151,0.82158735

>  <Name>
ligand

>  <RI>
0

>  <Rbt.Current_Directory>
/home/itssahil/PROJECTS/Mol_Feturizer/New_Systems/rnas/4TS2

>  <Rbt.Executable>
rbdock ($Id: //depot/dev/client3/rdock/2013.1/src/exe/rbdock.cxx#4 $)

>  <Rbt.Library>
libRbt.so (2013.1, Build901 2013/11/27)

>  <Rbt.Parameter_File>
/export/apps/rDock/src/rDock_2013.1_src/data/scripts/dock_solv.prm

>  <Rbt.Receptor>
prm/blind_docking_80.prm

>  <SCORE>
-15.7026

>  <SCORE.INTER>
-9.04307

>  <SCORE.INTER.CONST>
1

>  <SCORE.INTER.POLAR>
0

>  <SCORE.INTER.ROT>
5

>  <SCORE.INTER.SOLV>
9.02746

>  <SCORE.INTER.VDW>
-15.9712

>  <SCORE.INTER.norm>
-0.393177

>  <SCORE.INTRA>
-6.65956

>  <SCORE.INTRA.DIHEDRAL>
-11.3345

>  <SCORE.INTRA.DIHEDRAL.0>
12.4853

>  <SCORE.INTRA.POLAR>
0

>  <SCORE.INTRA.POLAR.0>
0

>  <SCORE.INTRA.REPUL>
0

>  <SCORE.INTRA.REPUL.0>
0

>  <SCORE.INTRA.SOLV>
0.957258

>  <SCORE.INTRA.SOLV.lig_0>
-31.1706

>  <SCORE.INTRA.VDW>
-1.47094

>  <SCORE.INTRA.VDW.0>
-1.16895

>  <SCORE.INTRA.norm>
-0.289546

>  <SCORE.RESTR>
0

>  <SCORE.RESTR.CAVITY>
0

>  <SCORE.RESTR.norm>
0

>  <SCORE.SYSTEM>
0

>  <SCORE.SYSTEM.CONST>
0

>  <SCORE.SYSTEM.DIHEDRAL>
0

>  <SCORE.SYSTEM.SOLV>
0

>  <SCORE.SYSTEM.norm>
0

>  <SCORE.heavy>
23

>  <SCORE.norm>
-0.682723

>  <RMSD>
13.780

$$$$
ligand
 OpenBabel11021811513D
libRbt.so/2013.1/901 2013/11/27
 23 24  0  0  0  0  0  0  0  0999 V2000
   -8.1330    3.9169    1.5013 C   0  0  0  0  0  0  0  0  0  0  0  0
   -8.0784    4.9552    2.4986 O   0  0  0  0  0  0  0  0  0  0  0  0
   -8.2893    4.5560    0.1289 C   0  0  2  0  0  0  0  0  0  0  0  0
   -9.5676    5.3527   -0.0825 C   0  0  1  0  0  0  0  0  0  0  0  0
   -9.4279    6.6415    0.5188 O   0  0  0  0  0  0  0  0  0  0  0  0
   -9.6681    5.3866   -1.6038 C   0  0  2  0  0  0  0  0  0  0  0  0
  -10.9473    5.6288   -2.2015 O   0  0  0  0  0  0  0  0  0  0  0  0
   -9.1791    3.9962   -1.9695 C   0  0  2  0  0  0  0  0  0  0  0  0
   -8.2940    3.5734   -0.9106 O   0  0  0  0  0  0  0  0  0  0  0  0
   -8.4645    4.0941   -3.3294 C   0  0  0  0  0  0  0  0  0  0  0  0
   -7.9617    2.8266   -3.7749 O   0  0  0  0  0  0  0  0  0  0  0  0
   -9.9408    1.7059   -1.9233 C   0  0  2  0  0  0  0  0  0  0  0  0
  -10.3008    3.0970   -1.9809 O   0  0  0  0  0  0  0  0  0  0  0  0
  -11.1417    0.9062   -2.3931 C   0  0  2  0  0  0  0  0  0  0  0  0
  -11.6294    1.4654   -3.6177 O   0  0  0  0  0  0  0  0  0  0  0  0
  -12.2554    0.9727   -1.3713 C   0  0  1  0  0  0  0  0  0  0  0  0
  -13.2588    0.0191   -1.7282 O   0  0  0  0  0  0  0  0  0  0  0  0
  -11.7240    0.6781    0.0185 C   0  0  2  0  0  0  0  0  0  0  0  0
  -12.7577    0.9256    0.9617 O   0  0  0  0  0  0  0  0  0  0  0  0
  -10.5218    1.5459    0.3656 C   0  0  2  0  0  0  0  0  0  0  0  0
   -9.5242    1.3062   -0.6178 O   0  0  0  0  0  0  0  0  0  0  0  0
   -9.9817    1.2281    1.7650 C   0  0  0  0  0  0  0  0  0  0  0  0
  -10.9057    1.5599    2.8117 O   0  0  0  0  0  0  0  0  0  0  0  0
  1  2  1  0  0  0  0
  3  1  1  1  0  0  0
  3  9  1  0  0  0  0
  3  4  1  0  0  0  0
  4  5  1  6  0  0  0
  4  6  1  0  0  0  0
  6  7  1  1  0  0  0
  6  8  1  0  0  0  0
  8  9  1  0  0  0  0
  8 10  1  6  0  0  0
  8 13  1  0  0  0  0
 10 11  1  0  0  0  0
 12 13  1  1  0  0  0
 12 14  1  0  0  0  0
 12 21  1  0  0  0  0
 14 15  1  6  0  0  0
 14 16  1  0  0  0  0
 16 17  1  6  0  0  0
 16 18  1  0  0  0  0
 18 19  1  1  0  0  0
 18 20  1  0  0  0  0
 20 21  1  0  0  0  0
 20 22  1  1  0  0  0
 22 23  1  0  0  0  0
M  END
>  <CHROM.1>
-62.79886548,-179.86854502,-161.81254877,-162.69823837,-65.55532421,-10.09575007
2.88511065,-0.72557044,0.13286466,0.94488300,1.61299953

>  <Name>
ligand

>  <RI>
0

>  <Rbt.Current_Directory>
/home/itssahil/PROJECTS/Mol_Feturizer/New_Systems/rnas/4TS2

>  <Rbt.Executable>
rbdock ($Id: //depot/dev/client3/rdock/2013.1/src/exe/rbdock.cxx#4 $)

>  <Rbt.Library>
libRbt.so (2013.1, Build901 2013/11/27)

>  <Rbt.Parameter_File>
/export/apps/rDock/src/rDock_2013.1_src/data/scripts/dock_solv.prm

>  <Rbt.Receptor>
prm/blind_docking_40.prm

>  <SCORE>
-14.1078

>  <SCORE.INTER>
-8.19311

>  <SCORE.INTER.CONST>
1

>  <SCORE.INTER.POLAR>
0

>  <SCORE.INTER.ROT>
5

>  <SCORE.INTER.SOLV>
11.9388

>  <SCORE.INTER.VDW>
-16.375

>  <SCORE.INTER.norm>
-0.356222

>  <SCORE.INTRA>
-5.91472

>  <SCORE.INTRA.DIHEDRAL>
-9.62088

>  <SCORE.INTRA.DIHEDRAL.0>
12.4853

>  <SCORE.INTRA.POLAR>
0

>  <SCORE.INTRA.POLAR.0>
0

>  <SCORE.INTRA.REPUL>
0

>  <SCORE.INTRA.REPUL.0>
0

>  <SCORE.INTRA.SOLV>
0.717199

>  <SCORE.INTRA.SOLV.lig_0>
-31.1706

>  <SCORE.INTRA.VDW>
-1.46288

>  <SCORE.INTRA.VDW.0>
-1.16895

>  <SCORE.INTRA.norm>
-0.257162

>  <SCORE.RESTR>
0

>  <SCORE.RESTR.CAVITY>
0

>  <SCORE.RESTR.norm>
0

>  <SCORE.SYSTEM>
0

>  <SCORE.SYSTEM.CONST>
0

>  <SCORE.SYSTEM.DIHEDRAL>
0

>  <SCORE.SYSTEM.SOLV>
0

>  <SCORE.SYSTEM.norm>
0

>  <SCORE.heavy>
23

>  <SCORE.norm>
-0.613384

>  <RMSD>
13.781

$$$$
ligand
 OpenBabel11021811513D
libRbt.so/2013.1/901 2013/11/27
 23 24  0  0  0  0  0  0  0  0999 V2000
  -10.1285    0.6545   -2.6228 C   0  0  0  0  0  0  0  0  0  0  0  0
  -10.9038   -0.0422   -3.6173 O   0  0  0  0  0  0  0  0  0  0  0  0
  -10.7500    0.4166   -1.2540 C   0  0  2  0  0  0  0  0  0  0  0  0
  -12.1739    0.9230   -1.0826 C   0  0  1  0  0  0  0  0  0  0  0  0
  -13.0826   -0.0080   -1.6740 O   0  0  0  0  0  0  0  0  0  0  0  0
  -12.2905    1.0236    0.4346 C   0  0  2  0  0  0  0  0  0  0  0  0
  -13.2890    1.8878    0.9900 O   0  0  0  0  0  0  0  0  0  0  0  0
  -10.9060    1.5205    0.8112 C   0  0  2  0  0  0  0  0  0  0  0  0
  -10.0041    1.0635   -0.2189 O   0  0  0  0  0  0  0  0  0  0  0  0
  -10.5608    0.9404    2.1947 C   0  0  0  0  0  0  0  0  0  0  0  0
  -11.4527    1.4022    3.2189 O   0  0  0  0  0  0  0  0  0  0  0  0
   -9.6145    3.5498    1.0162 C   0  0  2  0  0  0  0  0  0  0  0  0
  -10.9040    2.9579    0.7817 O   0  0  0  0  0  0  0  0  0  0  0  0
   -9.8236    5.0436    1.1807 C   0  0  2  0  0  0  0  0  0  0  0  0
  -10.8904    5.2700    2.1086 O   0  0  0  0  0  0  0  0  0  0  0  0
  -10.2096    5.6733   -0.1397 C   0  0  1  0  0  0  0  0  0  0  0  0
  -10.1549    7.0949    0.0001 O   0  0  0  0  0  0  0  0  0  0  0  0
   -9.2724    5.2193   -1.2427 C   0  0  2  0  0  0  0  0  0  0  0  0
   -9.7748    5.6879   -2.4867 O   0  0  0  0  0  0  0  0  0  0  0  0
   -9.1509    3.7025   -1.2998 C   0  0  2  0  0  0  0  0  0  0  0  0
   -8.6869    3.2633   -0.0303 O   0  0  0  0  0  0  0  0  0  0  0  0
   -8.1881    3.2549   -2.4061 C   0  0  0  0  0  0  0  0  0  0  0  0
   -8.6757    3.5433   -3.7247 O   0  0  0  0  0  0  0  0  0  0  0  0
  1  2  1  0  0  0  0
  3  1  1  6  0  0  0
  3  9  1  0  0  0  0
  3  4  1  0  0  0  0
  4  5  1  1  0  0  0
  4  6  1  0  0  0  0
  6  7  1  6  0  0  0
  6  8  1  0  0  0  0
  8  9  1  0  0  0  0
  8 10  1  1  0  0  0
  8 13  1  0  0  0  0
 10 11  1  0  0  0  0
 12 13  1  6  0  0  0
 12 14  1  0  0  0  0
 12 21  1  0  0  0  0
 14 15  1  1  0  0  0
 14 16  1  0  0  0  0
 16 17  1  1  0  0  0
 16 18  1  0  0  0  0
 18 19  1  6  0  0  0
 18 20  1  0  0  0  0
 20 21  1  0  0  0  0
 20 22  1  6  0  0  0
 22 23  1  0  0  0  0
M  END
>  <CHROM.1>
-61.61707735,-62.97035352,-170.80236359,-175.21674579,-66.84020742,-10.48769686
2.79101079,-0.40550344,-2.49255557,1.05575349,0.86919448

>  <Name>
ligand

>  <RI>
0

>  <Rbt.Current_Directory>
/home/itssahil/PROJECTS/Mol_Feturizer/New_Systems/rnas/4TS2

>  <Rbt.Executable>
rbdock ($Id: //depot/dev/client3/rdock/2013.1/src/exe/rbdock.cxx#4 $)

>  <Rbt.Library>
libRbt.so (2013.1, Build901 2013/11/27)

>  <Rbt.Parameter_File>
/export/apps/rDock/src/rDock_2013.1_src/data/scripts/dock_solv.prm

>  <Rbt.Receptor>
prm/blind_docking_80.prm

>  <SCORE>
-11.5442

>  <SCORE.INTER>
-4.79185

>  <SCORE.INTER.CONST>
1

>  <SCORE.INTER.POLAR>
0

>  <SCORE.INTER.ROT>
5

>  <SCORE.INTER.SOLV>
10.3382

>  <SCORE.INTER.VDW>
-13.574

>  <SCORE.INTER.norm>
-0.208341

>  <SCORE.INTRA>
-6.75237

>  <SCORE.INTRA.DIHEDRAL>
-11.7743

>  <SCORE.INTRA.DIHEDRAL.0>
12.4853

>  <SCORE.INTRA.POLAR>
0

>  <SCORE.INTRA.POLAR.0>
0

>  <SCORE.INTRA.REPUL>
0

>  <SCORE.INTRA.REPUL.0>
0

>  <SCORE.INTRA.SOLV>
0.760454

>  <SCORE.INTRA.SOLV.lig_0>
-31.1706

>  <SCORE.INTRA.VDW>
-1.24545

>  <SCORE.INTRA.VDW.0>
-1.16895

>  <SCORE.INTRA.norm>
-0.293581

>  <SCORE.RESTR>
0

>  <SCORE.RESTR.CAVITY>
0

>  <SCORE.RESTR.norm>
0

>  <SCORE.SYSTEM>
0

>  <SCORE.SYSTEM.CONST>
0

>  <SCORE.SYSTEM.DIHEDRAL>
0

>  <SCORE.SYSTEM.SOLV>
0

>  <SCORE.SYSTEM.norm>
0

>  <SCORE.heavy>
23

>  <SCORE.norm>
-0.501923

>  <RMSD>
13.783

$$$$
ligand
 OpenBabel11021811513D
libRbt.so/2013.1/901 2013/11/27
 23 24  0  0  0  0  0  0  0  0999 V2000
  -13.0518    3.2127    2.7151 C   0  0  0  0  0  0  0  0  0  0  0  0
  -13.6581    2.7467    1.4942 O   0  0  0  0  0  0  0  0  0  0  0  0
  -11.7650    3.9524    2.3785 C   0  0  2  0  0  0  0  0  0  0  0  0
  -11.9057    5.0958    1.3854 C   0  0  1  0  0  0  0  0  0  0  0  0
  -12.4109    6.2500    2.0598 O   0  0  0  0  0  0  0  0  0  0  0  0
  -10.4752    5.2503    0.8802 C   0  0  2  0  0  0  0  0  0  0  0  0
  -10.2594    5.8879   -0.3844 O   0  0  0  0  0  0  0  0  0  0  0  0
  -10.0199    3.8031    0.8162 C   0  0  2  0  0  0  0  0  0  0  0  0
  -10.7939    3.0786    1.7957 O   0  0  0  0  0  0  0  0  0  0  0  0
   -8.5111    3.7733    1.1200 C   0  0  0  0  0  0  0  0  0  0  0  0
   -8.2148    4.1946    2.4588 O   0  0  0  0  0  0  0  0  0  0  0  0
   -9.7783    1.9760   -0.7430 C   0  0  2  0  0  0  0  0  0  0  0  0
  -10.3494    3.2688   -0.4771 O   0  0  0  0  0  0  0  0  0  0  0  0
   -9.9866    1.6819   -2.2169 C   0  0  2  0  0  0  0  0  0  0  0  0
   -9.5710    2.8158   -2.9862 O   0  0  0  0  0  0  0  0  0  0  0  0
  -11.4504    1.4309   -2.5055 C   0  0  1  0  0  0  0  0  0  0  0  0
  -11.5715    0.9199   -3.8351 O   0  0  0  0  0  0  0  0  0  0  0  0
  -12.0297    0.4435   -1.5105 C   0  0  2  0  0  0  0  0  0  0  0  0
  -13.4357    0.3747   -1.7053 O   0  0  0  0  0  0  0  0  0  0  0  0
  -11.7510    0.8541   -0.0708 C   0  0  2  0  0  0  0  0  0  0  0  0
  -10.3413    0.9540    0.0793 O   0  0  0  0  0  0  0  0  0  0  0  0
  -12.3253   -0.1593    0.9262 C   0  0  0  0  0  0  0  0  0  0  0  0
  -12.0740    0.1951    2.2940 O   0  0  0  0  0  0  0  0  0  0  0  0
  1  2  1  0  0  0  0
  3  1  1  6  0  0  0
  3  9  1  0  0  0  0
  3  4  1  0  0  0  0
  4  5  1  1  0  0  0
  4  6  1  0  0  0  0
  6  7  1  6  0  0  0
  6  8  1  0  0  0  0
  8  9  1  0  0  0  0
  8 10  1  1  0  0  0
  8 13  1  0  0  0  0
 10 11  1  0  0  0  0
 12 13  1  1  0  0  0
 12 14  1  0  0  0  0
 12 21  1  0  0  0  0
 14 15  1  6  0  0  0
 14 16  1  0  0  0  0
 16 17  1  6  0  0  0
 16 18  1  0  0  0  0
 18 19  1  1  0  0  0
 18 20  1  0  0  0  0
 20 21  1  0  0  0  0
 20 22  1  1  0  0  0
 22 23  1  0  0  0  0
M  END
>  <CHROM.1>
54.96886679,64.93997953,-169.11390034,170.39466280,179.71361898,-11.12695968
2.69775776,0.17355473,1.38529582,0.79603655,0.89323842

>  <Name>
ligand

>  <RI>
0

>  <Rbt.Current_Directory>
/home/itssahil/PROJECTS/Mol_Feturizer/New_Systems/rnas/4TS2

>  <Rbt.Executable>
rbdock ($Id: //depot/dev/client3/rdock/2013.1/src/exe/rbdock.cxx#4 $)

>  <Rbt.Library>
libRbt.so (2013.1, Build901 2013/11/27)

>  <Rbt.Parameter_File>
/export/apps/rDock/src/rDock_2013.1_src/data/scripts/dock_solv.prm

>  <Rbt.Receptor>
prm/blind_docking_20.prm

>  <SCORE>
-15.7739

>  <SCORE.INTER>
-9.13448

>  <SCORE.INTER.CONST>
1

>  <SCORE.INTER.POLAR>
0

>  <SCORE.INTER.ROT>
5

>  <SCORE.INTER.SOLV>
10.3897

>  <SCORE.INTER.VDW>
-16.4862

>  <SCORE.INTER.norm>
-0.397151

>  <SCORE.INTRA>
-6.63942

>  <SCORE.INTRA.DIHEDRAL>
-11.0631

>  <SCORE.INTRA.DIHEDRAL.0>
12.4853

>  <SCORE.INTRA.POLAR>
0

>  <SCORE.INTRA.POLAR.0>
0

>  <SCORE.INTRA.REPUL>
0

>  <SCORE.INTRA.REPUL.0>
0

>  <SCORE.INTRA.SOLV>
1.37426

>  <SCORE.INTRA.SOLV.lig_0>
-31.1706

>  <SCORE.INTRA.VDW>
-1.795

>  <SCORE.INTRA.VDW.0>
-1.16895

>  <SCORE.INTRA.norm>
-0.288671

>  <SCORE.RESTR>
0

>  <SCORE.RESTR.CAVITY>
0

>  <SCORE.RESTR.norm>
0

>  <SCORE.SYSTEM>
0

>  <SCORE.SYSTEM.CONST>
0

>  <SCORE.SYSTEM.DIHEDRAL>
0

>  <SCORE.SYSTEM.SOLV>
0

>  <SCORE.SYSTEM.norm>
0

>  <SCORE.heavy>
23

>  <SCORE.norm>
-0.685822

>  <RMSD>
13.785

$$$$
ligand
 OpenBabel11021811513D
libRbt.so/2013.1/901 2013/11/27
 23 24  0  0  0  0  0  0  0  0999 V2000
  -12.8865    2.9646    2.3250 C   0  0  0  0  0  0  0  0  0  0  0  0
  -12.5702    1.8537    3.1861 O   0  0  0  0  0  0  0  0  0  0  0  0
  -11.6302    3.7958    2.1070 C   0  0  2  0  0  0  0  0  0  0  0  0
  -11.8016    5.0267    1.2301 C   0  0  1  0  0  0  0  0  0  0  0  0
  -12.3837    6.0803    2.0005 O   0  0  0  0  0  0  0  0  0  0  0  0
  -10.3674    5.3006    0.7903 C   0  0  2  0  0  0  0  0  0  0  0  0
  -10.1494    6.0739   -0.3957 O   0  0  0  0  0  0  0  0  0  0  0  0
   -9.8371    3.8911    0.5958 C   0  0  2  0  0  0  0  0  0  0  0  0
  -10.6000    3.0338    1.4713 O   0  0  0  0  0  0  0  0  0  0  0  0
   -8.3378    3.9029    0.9444 C   0  0  0  0  0  0  0  0  0  0  0  0
   -7.5772    4.7353    0.0577 O   0  0  0  0  0  0  0  0  0  0  0  0
   -9.4854    2.2305   -1.1207 C   0  0  2  0  0  0  0  0  0  0  0  0
  -10.1028    3.4768   -0.7550 O   0  0  0  0  0  0  0  0  0  0  0  0
   -9.7943    1.9833   -2.5856 C   0  0  2  0  0  0  0  0  0  0  0  0
   -9.5036    3.1687   -3.3343 O   0  0  0  0  0  0  0  0  0  0  0  0
  -11.2607    1.6600   -2.7707 C   0  0  1  0  0  0  0  0  0  0  0  0
  -11.4596    1.1958   -4.1081 O   0  0  0  0  0  0  0  0  0  0  0  0
  -11.7043    0.6023   -1.7781 C   0  0  2  0  0  0  0  0  0  0  0  0
  -13.1155    0.4604   -1.8664 O   0  0  0  0  0  0  0  0  0  0  0  0
  -11.3344    0.9712   -0.3477 C   0  0  2  0  0  0  0  0  0  0  0  0
   -9.9247    1.1461   -0.3030 O   0  0  0  0  0  0  0  0  0  0  0  0
  -11.7714   -0.1122    0.6453 C   0  0  0  0  0  0  0  0  0  0  0  0
  -13.1826   -0.3708    0.6085 O   0  0  0  0  0  0  0  0  0  0  0  0
  1  2  1  0  0  0  0
  3  1  1  6  0  0  0
  3  9  1  0  0  0  0
  3  4  1  0  0  0  0
  4  5  1  1  0  0  0
  4  6  1  0  0  0  0
  6  7  1  6  0  0  0
  6  8  1  0  0  0  0
  8  9  1  0  0  0  0
  8 10  1  1  0  0  0
  8 13  1  0  0  0  0
 10 11  1  0  0  0  0
 12 13  1  1  0  0  0
 12 14  1  0  0  0  0
 12 21  1  0  0  0  0
 14 15  1  6  0  0  0
 14 16  1  0  0  0  0
 16 17  1  6  0  0  0
 16 18  1  0  0  0  0
 18 19  1  1  0  0  0
 18 20  1  0  0  0  0
 20 21  1  0  0  0  0
 20 22  1  1  0  0  0
 22 23  1  0  0  0  0
M  END
>  <CHROM.1>
-179.12551108,-63.71073412,-176.71774633,171.81364065,-58.23891713,-10.91320171
2.74046700,-0.15321942,1.32032188,0.83435452,0.88335706

>  <Name>
ligand

>  <RI>
0

>  <Rbt.Current_Directory>
/home/itssahil/PROJECTS/Mol_Feturizer/New_Systems/rnas/4TS2

>  <Rbt.Executable>
rbdock ($Id: //depot/dev/client3/rdock/2013.1/src/exe/rbdock.cxx#4 $)

>  <Rbt.Library>
libRbt.so (2013.1, Build901 2013/11/27)

>  <Rbt.Parameter_File>
/export/apps/rDock/src/rDock_2013.1_src/data/scripts/dock_solv.prm

>  <Rbt.Receptor>
prm/blind_docking_60.prm

>  <SCORE>
-14.9672

>  <SCORE.INTER>
-8.32268

>  <SCORE.INTER.CONST>
1

>  <SCORE.INTER.POLAR>
0

>  <SCORE.INTER.ROT>
5

>  <SCORE.INTER.SOLV>
9.80315

>  <SCORE.INTER.VDW>
-15.7495

>  <SCORE.INTER.norm>
-0.361856

>  <SCORE.INTRA>
-6.64448

>  <SCORE.INTRA.DIHEDRAL>
-11.8868

>  <SCORE.INTRA.DIHEDRAL.0>
12.4853

>  <SCORE.INTRA.POLAR>
0

>  <SCORE.INTRA.POLAR.0>
0

>  <SCORE.INTRA.REPUL>
0

>  <SCORE.INTRA.REPUL.0>
0

>  <SCORE.INTRA.SOLV>
0.837612

>  <SCORE.INTRA.SOLV.lig_0>
-31.1706

>  <SCORE.INTRA.VDW>
-1.11989

>  <SCORE.INTRA.VDW.0>
-1.16895

>  <SCORE.INTRA.norm>
-0.288891

>  <SCORE.RESTR>
0

>  <SCORE.RESTR.CAVITY>
0

>  <SCORE.RESTR.norm>
0

>  <SCORE.SYSTEM>
0

>  <SCORE.SYSTEM.CONST>
0

>  <SCORE.SYSTEM.DIHEDRAL>
0

>  <SCORE.SYSTEM.SOLV>
0

>  <SCORE.SYSTEM.norm>
0

>  <SCORE.heavy>
23

>  <SCORE.norm>
-0.650746

>  <RMSD>
13.786

$$$$
ligand
 OpenBabel11021811513D
libRbt.so/2013.1/901 2013/11/27
 23 24  0  0  0  0  0  0  0  0999 V2000
   -8.1484    3.9583    1.4924 C   0  0  0  0  0  0  0  0  0  0  0  0
   -8.1038    5.0115    2.4744 O   0  0  0  0  0  0  0  0  0  0  0  0
   -8.2946    4.5764    0.1093 C   0  0  2  0  0  0  0  0  0  0  0  0
   -9.5691    5.3737   -0.1219 C   0  0  1  0  0  0  0  0  0  0  0  0
   -9.4287    6.6713    0.4600 O   0  0  0  0  0  0  0  0  0  0  0  0
   -9.6607    5.3842   -1.6441 C   0  0  2  0  0  0  0  0  0  0  0  0
  -10.9355    5.6211   -2.2530 O   0  0  0  0  0  0  0  0  0  0  0  0
   -9.1740    3.9868   -1.9853 C   0  0  2  0  0  0  0  0  0  0  0  0
   -8.2965    3.5777   -0.9148 O   0  0  0  0  0  0  0  0  0  0  0  0
   -8.4512    4.0613   -3.3423 C   0  0  0  0  0  0  0  0  0  0  0  0
   -7.9426    2.7871   -3.7611 O   0  0  0  0  0  0  0  0  0  0  0  0
   -9.9428    1.6993   -1.9231 C   0  0  2  0  0  0  0  0  0  0  0  0
  -10.2985    3.0911   -1.9892 O   0  0  0  0  0  0  0  0  0  0  0  0
  -11.1467    0.9003   -2.3862 C   0  0  2  0  0  0  0  0  0  0  0  0
  -11.6343    1.4530   -3.6138 O   0  0  0  0  0  0  0  0  0  0  0  0
  -12.2589    0.9769   -1.3635 C   0  0  1  0  0  0  0  0  0  0  0  0
  -13.2657    0.0241   -1.7129 O   0  0  0  0  0  0  0  0  0  0  0  0
  -11.7267    0.6896    0.0276 C   0  0  2  0  0  0  0  0  0  0  0  0
  -12.7584    0.9465    0.9704 O   0  0  0  0  0  0  0  0  0  0  0  0
  -10.5213    1.5559    0.3675 C   0  0  2  0  0  0  0  0  0  0  0  0
   -9.5257    1.3068   -0.6156 O   0  0  0  0  0  0  0  0  0  0  0  0
   -9.9804    1.2455    1.7682 C   0  0  0  0  0  0  0  0  0  0  0  0
  -10.8913    1.6112    2.8152 O   0  0  0  0  0  0  0  0  0  0  0  0
  1  2  1  0  0  0  0
  3  1  1  1  0  0  0
  3  9  1  0  0  0  0
  3  4  1  0  0  0  0
  4  5  1  6  0  0  0
  4  6  1  0  0  0  0
  6  7  1  1  0  0  0
  6  8  1  0  0  0  0
  8  9  1  0  0  0  0
  8 10  1  6  0  0  0
  8 13  1  0  0  0  0
 10 11  1  0  0  0  0
 12 13  1  1  0  0  0
 12 14  1  0  0  0  0
 12 21  1  0  0  0  0
 14 15  1  6  0  0  0
 14 16  1  0  0  0  0
 16 17  1  6  0  0  0
 16 18  1  0  0  0  0
 18 19  1  1  0  0  0
 18 20  1  0  0  0  0
 20 21  1  0  0  0  0
 20 22  1  1  0  0  0
 22 23  1  0  0  0  0
M  END
>  <CHROM.1>
-62.48105304,179.76574060,-161.80514434,-163.36075331,-66.70613828,-10.09584303
2.89280293,-0.73454169,0.13637770,0.94599564,1.60100230

>  <Name>
ligand

>  <RI>
0

>  <Rbt.Current_Directory>
/home/itssahil/PROJECTS/Mol_Feturizer/New_Systems/rnas/4TS2

>  <Rbt.Executable>
rbdock ($Id: //depot/dev/client3/rdock/2013.1/src/exe/rbdock.cxx#4 $)

>  <Rbt.Library>
libRbt.so (2013.1, Build901 2013/11/27)

>  <Rbt.Parameter_File>
/export/apps/rDock/src/rDock_2013.1_src/data/scripts/dock_solv.prm

>  <Rbt.Receptor>
prm/blind_docking_40.prm

>  <SCORE>
-14.1485

>  <SCORE.INTER>
-8.16538

>  <SCORE.INTER.CONST>
1

>  <SCORE.INTER.POLAR>
0

>  <SCORE.INTER.ROT>
5

>  <SCORE.INTER.SOLV>
11.8857

>  <SCORE.INTER.VDW>
-16.3388

>  <SCORE.INTER.norm>
-0.355017

>  <SCORE.INTRA>
-5.98316

>  <SCORE.INTRA.DIHEDRAL>
-9.66787

>  <SCORE.INTRA.DIHEDRAL.0>
12.4853

>  <SCORE.INTRA.POLAR>
0

>  <SCORE.INTRA.POLAR.0>
0

>  <SCORE.INTRA.REPUL>
0

>  <SCORE.INTRA.REPUL.0>
0

>  <SCORE.INTRA.SOLV>
0.708662

>  <SCORE.INTRA.SOLV.lig_0>
-31.1706

>  <SCORE.INTRA.VDW>
-1.50356

>  <SCORE.INTRA.VDW.0>
-1.16895

>  <SCORE.INTRA.norm>
-0.260138

>  <SCORE.RESTR>
0

>  <SCORE.RESTR.CAVITY>
0

>  <SCORE.RESTR.norm>
0

>  <SCORE.SYSTEM>
0

>  <SCORE.SYSTEM.CONST>
0

>  <SCORE.SYSTEM.DIHEDRAL>
0

>  <SCORE.SYSTEM.SOLV>
0

>  <SCORE.SYSTEM.norm>
0

>  <SCORE.heavy>
23

>  <SCORE.norm>
-0.615154

>  <RMSD>
13.788

$$$$
ligand
 OpenBabel11021811513D
libRbt.so/2013.1/901 2013/11/27
 23 24  0  0  0  0  0  0  0  0999 V2000
  -12.8388    2.8481    2.3756 C   0  0  0  0  0  0  0  0  0  0  0  0
  -12.5051    1.7997    3.3056 O   0  0  0  0  0  0  0  0  0  0  0  0
  -11.6139    3.7246    2.1566 C   0  0  2  0  0  0  0  0  0  0  0  0
  -11.8338    4.9553    1.2904 C   0  0  1  0  0  0  0  0  0  0  0  0
  -12.4477    5.9819    2.0724 O   0  0  0  0  0  0  0  0  0  0  0  0
  -10.4129    5.2828    0.8441 C   0  0  2  0  0  0  0  0  0  0  0  0
  -10.2296    6.0722   -0.3372 O   0  0  0  0  0  0  0  0  0  0  0  0
   -9.8346    3.8942    0.6355 C   0  0  2  0  0  0  0  0  0  0  0  0
  -10.5615    3.0041    1.5088 O   0  0  0  0  0  0  0  0  0  0  0  0
   -8.3345    3.9561    0.9752 C   0  0  0  0  0  0  0  0  0  0  0  0
   -8.0992    4.2609    2.3570 O   0  0  0  0  0  0  0  0  0  0  0  0
   -9.4795    2.2324   -1.0791 C   0  0  2  0  0  0  0  0  0  0  0  0
  -10.0940    3.4810   -0.7168 O   0  0  0  0  0  0  0  0  0  0  0  0
   -9.7617    1.9975   -2.5513 C   0  0  2  0  0  0  0  0  0  0  0  0
   -9.4471    3.1856   -3.2860 O   0  0  0  0  0  0  0  0  0  0  0  0
  -11.2266    1.6872   -2.7672 C   0  0  1  0  0  0  0  0  0  0  0  0
  -11.4030    1.2337   -4.1113 O   0  0  0  0  0  0  0  0  0  0  0  0
  -11.6979    0.6265   -1.7907 C   0  0  2  0  0  0  0  0  0  0  0  0
  -13.1082    0.4965   -1.9074 O   0  0  0  0  0  0  0  0  0  0  0  0
  -11.3530    0.9827   -0.3509 C   0  0  2  0  0  0  0  0  0  0  0  0
   -9.9431    1.1460   -0.2775 O   0  0  0  0  0  0  0  0  0  0  0  0
  -11.8179   -0.1038    0.6260 C   0  0  0  0  0  0  0  0  0  0  0  0
  -13.2306   -0.3485    0.5622 O   0  0  0  0  0  0  0  0  0  0  0  0
  1  2  1  0  0  0  0
  3  1  1  6  0  0  0
  3  9  1  0  0  0  0
  3  4  1  0  0  0  0
  4  5  1  1  0  0  0
  4  6  1  0  0  0  0
  6  7  1  6  0  0  0
  6  8  1  0  0  0  0
  8  9  1  0  0  0  0
  8 10  1  1  0  0  0
  8 13  1  0  0  0  0
 10 11  1  0  0  0  0
 12 13  1  1  0  0  0
 12 14  1  0  0  0  0
 12 21  1  0  0  0  0
 14 15  1  6  0  0  0
 14 16  1  0  0  0  0
 16 17  1  6  0  0  0
 16 18  1  0  0  0  0
 18 19  1  1  0  0  0
 18 20  1  0  0  0  0
 20 21  1  0  0  0  0
 20 22  1  1  0  0  0
 22 23  1  0  0  0  0
M  END
>  <CHROM.1>
-174.85598642,64.43994037,-175.81759564,174.19566156,-58.38174970,-10.93687739
2.70920259,-0.01547107,1.36008283,0.86404917,0.99067482

>  <Name>
ligand

>  <RI>
0

>  <Rbt.Current_Directory>
/home/itssahil/PROJECTS/Mol_Feturizer/New_Systems/rnas/4TS2

>  <Rbt.Executable>
rbdock ($Id: //depot/dev/client3/rdock/2013.1/src/exe/rbdock.cxx#4 $)

>  <Rbt.Library>
libRbt.so (2013.1, Build901 2013/11/27)

>  <Rbt.Parameter_File>
/export/apps/rDock/src/rDock_2013.1_src/data/scripts/dock_solv.prm

>  <Rbt.Receptor>
prm/blind_docking_80.prm

>  <SCORE>
-15.0921

>  <SCORE.INTER>
-8.33065

>  <SCORE.INTER.CONST>
1

>  <SCORE.INTER.POLAR>
0

>  <SCORE.INTER.ROT>
5

>  <SCORE.INTER.SOLV>
10.5285

>  <SCORE.INTER.VDW>
-15.9966

>  <SCORE.INTER.norm>
-0.362202

>  <SCORE.INTRA>
-6.76141

>  <SCORE.INTRA.DIHEDRAL>
-11.8784

>  <SCORE.INTRA.DIHEDRAL.0>
12.4853

>  <SCORE.INTRA.POLAR>
0

>  <SCORE.INTRA.POLAR.0>
0

>  <SCORE.INTRA.REPUL>
0

>  <SCORE.INTRA.REPUL.0>
0

>  <SCORE.INTRA.SOLV>
0.63792

>  <SCORE.INTRA.SOLV.lig_0>
-31.1706

>  <SCORE.INTRA.VDW>
-1.14119

>  <SCORE.INTRA.VDW.0>
-1.16895

>  <SCORE.INTRA.norm>
-0.293974

>  <SCORE.RESTR>
0

>  <SCORE.RESTR.CAVITY>
0

>  <SCORE.RESTR.norm>
0

>  <SCORE.SYSTEM>
0

>  <SCORE.SYSTEM.CONST>
0

>  <SCORE.SYSTEM.DIHEDRAL>
0

>  <SCORE.SYSTEM.SOLV>
0

>  <SCORE.SYSTEM.norm>
0

>  <SCORE.heavy>
23

>  <SCORE.norm>
-0.656177

>  <RMSD>
13.791

$$$$
ligand
 OpenBabel11021811513D
libRbt.so/2013.1/901 2013/11/27
 23 24  0  0  0  0  0  0  0  0999 V2000
  -12.8520    2.9361    2.3416 C   0  0  0  0  0  0  0  0  0  0  0  0
  -12.5183    1.8404    3.2154 O   0  0  0  0  0  0  0  0  0  0  0  0
  -11.6096    3.7858    2.1158 C   0  0  2  0  0  0  0  0  0  0  0  0
  -11.8041    5.0123    1.2375 C   0  0  1  0  0  0  0  0  0  0  0  0
  -12.3982    6.0584    2.0088 O   0  0  0  0  0  0  0  0  0  0  0  0
  -10.3764    5.3071    0.7900 C   0  0  2  0  0  0  0  0  0  0  0  0
  -10.1761    6.0812   -0.3986 O   0  0  0  0  0  0  0  0  0  0  0  0
   -9.8257    3.9053    0.5955 C   0  0  2  0  0  0  0  0  0  0  0  0
  -10.5711    3.0383    1.4764 O   0  0  0  0  0  0  0  0  0  0  0  0
   -8.3250    3.9406    0.9365 C   0  0  0  0  0  0  0  0  0  0  0  0
   -7.5839    4.7947    0.0539 O   0  0  0  0  0  0  0  0  0  0  0  0
   -9.4723    2.2377   -1.1138 C   0  0  2  0  0  0  0  0  0  0  0  0
  -10.0918    3.4844   -0.7532 O   0  0  0  0  0  0  0  0  0  0  0  0
   -9.7561    1.9984   -2.5851 C   0  0  2  0  0  0  0  0  0  0  0  0
   -9.4480    3.1863   -3.3229 O   0  0  0  0  0  0  0  0  0  0  0  0
  -11.2200    1.6812   -2.7977 C   0  0  1  0  0  0  0  0  0  0  0  0
  -11.3967    1.2240   -4.1406 O   0  0  0  0  0  0  0  0  0  0  0  0
  -11.6849    0.6205   -1.8181 C   0  0  2  0  0  0  0  0  0  0  0  0
  -13.0948    0.4841   -1.9321 O   0  0  0  0  0  0  0  0  0  0  0  0
  -11.3391    0.9813   -0.3797 C   0  0  2  0  0  0  0  0  0  0  0  0
   -9.9298    1.1510   -0.3091 O   0  0  0  0  0  0  0  0  0  0  0  0
  -11.7975   -0.1051    0.6003 C   0  0  0  0  0  0  0  0  0  0  0  0
  -13.2110   -0.3476    0.5482 O   0  0  0  0  0  0  0  0  0  0  0  0
  1  2  1  0  0  0  0
  3  1  1  6  0  0  0
  3  9  1  0  0  0  0
  3  4  1  0  0  0  0
  4  5  1  1  0  0  0
  4  6  1  0  0  0  0
  6  7  1  6  0  0  0
  6  8  1  0  0  0  0
  8  9  1  0  0  0  0
  8 10  1  1  0  0  0
  8 13  1  0  0  0  0
 10 11  1  0  0  0  0
 12 13  1  1  0  0  0
 12 14  1  0  0  0  0
 12 21  1  0  0  0  0
 14 15  1  6  0  0  0
 14 16  1  0  0  0  0
 16 17  1  6  0  0  0
 16 18  1  0  0  0  0
 18 19  1  1  0  0  0
 18 20  1  0  0  0  0
 20 21  1  0  0  0  0
 20 22  1  1  0  0  0
 22 23  1  0  0  0  0
M  END
>  <CHROM.1>
-178.48097938,-63.04383875,-175.48673555,172.62413102,-58.91693167,-10.90021989
2.75050277,-0.16321091,1.33254626,0.83412999,0.88972344

>  <Name>
ligand

>  <RI>
0

>  <Rbt.Current_Directory>
/home/itssahil/PROJECTS/Mol_Feturizer/New_Systems/rnas/4TS2

>  <Rbt.Executable>
rbdock ($Id: //depot/dev/client3/rdock/2013.1/src/exe/rbdock.cxx#4 $)

>  <Rbt.Library>
libRbt.so (2013.1, Build901 2013/11/27)

>  <Rbt.Parameter_File>
/export/apps/rDock/src/rDock_2013.1_src/data/scripts/dock_solv.prm

>  <Rbt.Receptor>
prm/blind_docking_100.prm

>  <SCORE>
-14.944

>  <SCORE.INTER>
-8.18107

>  <SCORE.INTER.CONST>
1

>  <SCORE.INTER.POLAR>
0

>  <SCORE.INTER.ROT>
5

>  <SCORE.INTER.SOLV>
9.76737

>  <SCORE.INTER.VDW>
-15.6432

>  <SCORE.INTER.norm>
-0.355699

>  <SCORE.INTRA>
-6.76297

>  <SCORE.INTRA.DIHEDRAL>
-11.923

>  <SCORE.INTRA.DIHEDRAL.0>
12.4853

>  <SCORE.INTRA.POLAR>
0

>  <SCORE.INTRA.POLAR.0>
0

>  <SCORE.INTRA.REPUL>
0

>  <SCORE.INTRA.REPUL.0>
0

>  <SCORE.INTRA.SOLV>
0.809674

>  <SCORE.INTRA.SOLV.lig_0>
-31.1706

>  <SCORE.INTRA.VDW>
-1.20629

>  <SCORE.INTRA.VDW.0>
-1.16895

>  <SCORE.INTRA.norm>
-0.294042

>  <SCORE.RESTR>
0

>  <SCORE.RESTR.CAVITY>
0

>  <SCORE.RESTR.norm>
0

>  <SCORE.SYSTEM>
0

>  <SCORE.SYSTEM.CONST>
0

>  <SCORE.SYSTEM.DIHEDRAL>
0

>  <SCORE.SYSTEM.SOLV>
0

>  <SCORE.SYSTEM.norm>
0

>  <SCORE.heavy>
23

>  <SCORE.norm>
-0.649741

>  <RMSD>
13.794

$$$$
ligand
 OpenBabel11021811513D
libRbt.so/2013.1/901 2013/11/27
 23 24  0  0  0  0  0  0  0  0999 V2000
  -13.0349    3.2522    2.7259 C   0  0  0  0  0  0  0  0  0  0  0  0
  -13.6346    2.7574    1.5130 O   0  0  0  0  0  0  0  0  0  0  0  0
  -11.7430    3.9783    2.3794 C   0  0  2  0  0  0  0  0  0  0  0  0
  -11.8779    5.1177    1.3809 C   0  0  1  0  0  0  0  0  0  0  0  0
  -12.3694    6.2800    2.0514 O   0  0  0  0  0  0  0  0  0  0  0  0
  -10.4483    5.2565    0.8684 C   0  0  2  0  0  0  0  0  0  0  0  0
  -10.2325    5.8854   -0.4005 O   0  0  0  0  0  0  0  0  0  0  0  0
  -10.0065    3.8048    0.8101 C   0  0  2  0  0  0  0  0  0  0  0  0
  -10.7826    3.0926    1.7969 O   0  0  0  0  0  0  0  0  0  0  0  0
   -8.4966    3.7629    1.1072 C   0  0  0  0  0  0  0  0  0  0  0  0
   -8.1873    4.2200    2.4313 O   0  0  0  0  0  0  0  0  0  0  0  0
   -9.7816    1.9712   -0.7438 C   0  0  2  0  0  0  0  0  0  0  0  0
  -10.3467    3.2667   -0.4789 O   0  0  0  0  0  0  0  0  0  0  0  0
   -9.9808    1.6819   -2.2200 C   0  0  2  0  0  0  0  0  0  0  0  0
   -9.5528    2.8152   -2.9833 O   0  0  0  0  0  0  0  0  0  0  0  0
  -11.4440    1.4406   -2.5199 C   0  0  1  0  0  0  0  0  0  0  0  0
  -11.5585    0.9337   -3.8516 O   0  0  0  0  0  0  0  0  0  0  0  0
  -12.0366    0.4542   -1.5316 C   0  0  2  0  0  0  0  0  0  0  0  0
  -13.4415    0.3945   -1.7369 O   0  0  0  0  0  0  0  0  0  0  0  0
  -11.7660    0.8596   -0.0889 C   0  0  2  0  0  0  0  0  0  0  0  0
  -10.3568    0.9505    0.0717 O   0  0  0  0  0  0  0  0  0  0  0  0
  -12.3537   -0.1528    0.9014 C   0  0  0  0  0  0  0  0  0  0  0  0
  -12.1133    0.1985    2.2719 O   0  0  0  0  0  0  0  0  0  0  0  0
  1  2  1  0  0  0  0
  3  1  1  6  0  0  0
  3  9  1  0  0  0  0
  3  4  1  0  0  0  0
  4  5  1  1  0  0  0
  4  6  1  0  0  0  0
  6  7  1  6  0  0  0
  6  8  1  0  0  0  0
  8  9  1  0  0  0  0
  8 10  1  1  0  0  0
  8 13  1  0  0  0  0
 10 11  1  0  0  0  0
 12 13  1  1  0  0  0
 12 14  1  0  0  0  0
 12 21  1  0  0  0  0
 14 15  1  6  0  0  0
 14 16  1  0  0  0  0
 16 17  1  6  0  0  0
 16 18  1  0  0  0  0
 18 19  1  1  0  0  0
 18 20  1  0  0  0  0
 20 21  1  0  0  0  0
 20 22  1  1  0  0  0
 22 23  1  0  0  0  0
M  END
>  <CHROM.1>
56.33511117,63.49742297,-168.19992333,170.01461338,179.86965518,-11.11888441
2.70744027,0.16416867,1.37784296,0.79101544,0.89579581

>  <Name>
ligand

>  <RI>
0

>  <Rbt.Current_Directory>
/home/itssahil/PROJECTS/Mol_Feturizer/New_Systems/rnas/4TS2

>  <Rbt.Executable>
rbdock ($Id: //depot/dev/client3/rdock/2013.1/src/exe/rbdock.cxx#4 $)

>  <Rbt.Library>
libRbt.so (2013.1, Build901 2013/11/27)

>  <Rbt.Parameter_File>
/export/apps/rDock/src/rDock_2013.1_src/data/scripts/dock_solv.prm

>  <Rbt.Receptor>
prm/blind_docking_40.prm

>  <SCORE>
-15.7686

>  <SCORE.INTER>
-9.17949

>  <SCORE.INTER.CONST>
1

>  <SCORE.INTER.POLAR>
0

>  <SCORE.INTER.ROT>
5

>  <SCORE.INTER.SOLV>
10.3507

>  <SCORE.INTER.VDW>
-16.5032

>  <SCORE.INTER.norm>
-0.399108

>  <SCORE.INTRA>
-6.58907

>  <SCORE.INTRA.DIHEDRAL>
-11.0223

>  <SCORE.INTRA.DIHEDRAL.0>
12.4853

>  <SCORE.INTRA.POLAR>
0

>  <SCORE.INTRA.POLAR.0>
0

>  <SCORE.INTRA.REPUL>
0

>  <SCORE.INTRA.REPUL.0>
0

>  <SCORE.INTRA.SOLV>
1.3578

>  <SCORE.INTRA.SOLV.lig_0>
-31.1706

>  <SCORE.INTRA.VDW>
-1.7568

>  <SCORE.INTRA.VDW.0>
-1.16895

>  <SCORE.INTRA.norm>
-0.286481

>  <SCORE.RESTR>
0

>  <SCORE.RESTR.CAVITY>
0

>  <SCORE.RESTR.norm>
0

>  <SCORE.SYSTEM>
0

>  <SCORE.SYSTEM.CONST>
0

>  <SCORE.SYSTEM.DIHEDRAL>
0

>  <SCORE.SYSTEM.SOLV>
0

>  <SCORE.SYSTEM.norm>
0

>  <SCORE.heavy>
23

>  <SCORE.norm>
-0.68559

>  <RMSD>
13.794

$$$$
ligand
 OpenBabel11021811513D
libRbt.so/2013.1/901 2013/11/27
 23 24  0  0  0  0  0  0  0  0999 V2000
   -9.7136    4.6256    1.7213 C   0  0  0  0  0  0  0  0  0  0  0  0
   -9.9342    5.9023    2.3514 O   0  0  0  0  0  0  0  0  0  0  0  0
   -9.1310    4.8520    0.3336 C   0  0  2  0  0  0  0  0  0  0  0  0
  -10.0396    5.5735   -0.6500 C   0  0  1  0  0  0  0  0  0  0  0  0
  -10.0016    6.9778   -0.3881 O   0  0  0  0  0  0  0  0  0  0  0  0
   -9.4291    5.1766   -1.9899 C   0  0  2  0  0  0  0  0  0  0  0  0
  -10.2437    5.2570   -3.1656 O   0  0  0  0  0  0  0  0  0  0  0  0
   -9.0375    3.7332   -1.7274 C   0  0  2  0  0  0  0  0  0  0  0  0
   -8.8055    3.6155   -0.3076 O   0  0  0  0  0  0  0  0  0  0  0  0
   -7.7757    3.4324   -2.5563 C   0  0  0  0  0  0  0  0  0  0  0  0
   -8.0355    3.4335   -3.9670 O   0  0  0  0  0  0  0  0  0  0  0  0
   -9.8839    1.4786   -1.8950 C   0  0  2  0  0  0  0  0  0  0  0  0
  -10.1490    2.8828   -2.0563 O   0  0  0  0  0  0  0  0  0  0  0  0
  -11.1130    0.7268   -2.3707 C   0  0  2  0  0  0  0  0  0  0  0  0
  -11.5093    1.2343   -3.6496 O   0  0  0  0  0  0  0  0  0  0  0  0
  -12.2634    0.9296   -1.4092 C   0  0  1  0  0  0  0  0  0  0  0  0
  -13.3107    0.0195   -1.7533 O   0  0  0  0  0  0  0  0  0  0  0  0
  -11.8134    0.6936    0.0201 C   0  0  2  0  0  0  0  0  0  0  0  0
  -12.8687    1.0665    0.8957 O   0  0  0  0  0  0  0  0  0  0  0  0
  -10.5731    1.5052    0.3692 C   0  0  2  0  0  0  0  0  0  0  0  0
   -9.5515    1.1397   -0.5488 O   0  0  0  0  0  0  0  0  0  0  0  0
  -10.1164    1.2462    1.8098 C   0  0  0  0  0  0  0  0  0  0  0  0
  -11.0572    1.7111    2.7888 O   0  0  0  0  0  0  0  0  0  0  0  0
  1  2  1  0  0  0  0
  3  1  1  1  0  0  0
  3  9  1  0  0  0  0
  3  4  1  0  0  0  0
  4  5  1  1  0  0  0
  4  6  1  0  0  0  0
  6  7  1  6  0  0  0
  6  8  1  0  0  0  0
  8  9  1  0  0  0  0
  8 10  1  6  0  0  0
  8 13  1  0  0  0  0
 10 11  1  0  0  0  0
 12 13  1  1  0  0  0
 12 14  1  0  0  0  0
 12 21  1  0  0  0  0
 14 15  1  6  0  0  0
 14 16  1  0  0  0  0
 16 17  1  6  0  0  0
 16 18  1  0  0  0  0
 18 19  1  1  0  0  0
 18 20  1  0  0  0  0
 20 21  1  0  0  0  0
 20 22  1  1  0  0  0
 22 23  1  0  0  0  0
M  END
>  <CHROM.1>
-64.33390625,-67.76640260,-176.16542741,177.85491668,-65.95035043,-10.29203182
2.93124477,-0.78601501,0.31840401,1.04520047,1.21037883

>  <Name>
ligand

>  <RI>
0

>  <Rbt.Current_Directory>
/home/itssahil/PROJECTS/Mol_Feturizer/New_Systems/rnas/4TS2

>  <Rbt.Executable>
rbdock ($Id: //depot/dev/client3/rdock/2013.1/src/exe/rbdock.cxx#4 $)

>  <Rbt.Library>
libRbt.so (2013.1, Build901 2013/11/27)

>  <Rbt.Parameter_File>
/export/apps/rDock/src/rDock_2013.1_src/data/scripts/dock_solv.prm

>  <Rbt.Receptor>
prm/blind_docking_20.prm

>  <SCORE>
-14.1881

>  <SCORE.INTER>
-7.33918

>  <SCORE.INTER.CONST>
1

>  <SCORE.INTER.POLAR>
0

>  <SCORE.INTER.ROT>
5

>  <SCORE.INTER.SOLV>
10.9897

>  <SCORE.INTER.VDW>
-15.4894

>  <SCORE.INTER.norm>
-0.319095

>  <SCORE.INTRA>
-6.84891

>  <SCORE.INTRA.DIHEDRAL>
-11.9379

>  <SCORE.INTRA.DIHEDRAL.0>
12.4853

>  <SCORE.INTRA.POLAR>
0

>  <SCORE.INTRA.POLAR.0>
0

>  <SCORE.INTRA.REPUL>
0

>  <SCORE.INTRA.REPUL.0>
0

>  <SCORE.INTRA.SOLV>
0.723493

>  <SCORE.INTRA.SOLV.lig_0>
-31.1706

>  <SCORE.INTRA.VDW>
-1.24171

>  <SCORE.INTRA.VDW.0>
-1.16895

>  <SCORE.INTRA.norm>
-0.297779

>  <SCORE.RESTR>
0

>  <SCORE.RESTR.CAVITY>
0

>  <SCORE.RESTR.norm>
0

>  <SCORE.SYSTEM>
0

>  <SCORE.SYSTEM.CONST>
0

>  <SCORE.SYSTEM.DIHEDRAL>
0

>  <SCORE.SYSTEM.SOLV>
0

>  <SCORE.SYSTEM.norm>
0

>  <SCORE.heavy>
23

>  <SCORE.norm>
-0.616873

>  <RMSD>
13.795

$$$$
ligand
 OpenBabel11021811513D
libRbt.so/2013.1/901 2013/11/27
 23 24  0  0  0  0  0  0  0  0999 V2000
  -12.9798    3.2128    2.6973 C   0  0  0  0  0  0  0  0  0  0  0  0
  -13.5754    2.6996    1.4901 O   0  0  0  0  0  0  0  0  0  0  0  0
  -11.7075    3.9679    2.3398 C   0  0  2  0  0  0  0  0  0  0  0  0
  -11.8776    5.1076    1.3470 C   0  0  1  0  0  0  0  0  0  0  0  0
  -12.3869    6.2566    2.0271 O   0  0  0  0  0  0  0  0  0  0  0  0
  -10.4569    5.2790    0.8199 C   0  0  2  0  0  0  0  0  0  0  0  0
  -10.2683    5.9168   -0.4488 O   0  0  0  0  0  0  0  0  0  0  0  0
   -9.9845    3.8374    0.7516 C   0  0  2  0  0  0  0  0  0  0  0  0
  -10.7345    3.1051    1.7439 O   0  0  0  0  0  0  0  0  0  0  0  0
   -8.4710    3.8270    1.0325 C   0  0  0  0  0  0  0  0  0  0  0  0
   -8.1579    4.2818    2.3564 O   0  0  0  0  0  0  0  0  0  0  0  0
   -9.7563    2.0036   -0.8017 C   0  0  2  0  0  0  0  0  0  0  0  0
  -10.3268    3.2966   -0.5357 O   0  0  0  0  0  0  0  0  0  0  0  0
   -9.9807    1.7018   -2.2717 C   0  0  2  0  0  0  0  0  0  0  0  0
   -9.5760    2.8327   -3.0512 O   0  0  0  0  0  0  0  0  0  0  0  0
  -11.4471    1.4467   -2.5425 C   0  0  1  0  0  0  0  0  0  0  0  0
  -11.5823    0.9290   -3.8681 O   0  0  0  0  0  0  0  0  0  0  0  0
  -12.0133    0.4631   -1.5362 C   0  0  2  0  0  0  0  0  0  0  0  0
  -13.4212    0.3907   -1.7148 O   0  0  0  0  0  0  0  0  0  0  0  0
  -11.7192    0.8813   -0.1018 C   0  0  2  0  0  0  0  0  0  0  0  0
  -10.3080    0.9846    0.0319 O   0  0  0  0  0  0  0  0  0  0  0  0
  -12.2802   -0.1283    0.9066 C   0  0  0  0  0  0  0  0  0  0  0  0
  -12.0167    0.2347    2.2698 O   0  0  0  0  0  0  0  0  0  0  0  0
  1  2  1  0  0  0  0
  3  1  1  6  0  0  0
  3  9  1  0  0  0  0
  3  4  1  0  0  0  0
  4  5  1  1  0  0  0
  4  6  1  0  0  0  0
  6  7  1  6  0  0  0
  6  8  1  0  0  0  0
  8  9  1  0  0  0  0
  8 10  1  1  0  0  0
  8 13  1  0  0  0  0
 10 11  1  0  0  0  0
 12 13  1  1  0  0  0
 12 14  1  0  0  0  0
 12 21  1  0  0  0  0
 14 15  1  6  0  0  0
 14 16  1  0  0  0  0
 16 17  1  6  0  0  0
 16 18  1  0  0  0  0
 18 19  1  1  0  0  0
 18 20  1  0  0  0  0
 20 21  1  0  0  0  0
 20 22  1  1  0  0  0
 22 23  1  0  0  0  0
M  END
>  <CHROM.1>
56.82508542,63.69071055,-169.15279482,171.07967078,179.84057875,-11.09634802
2.72061596,0.12896522,1.37092791,0.80820920,0.90129144

>  <Name>
ligand

>  <RI>
0

>  <Rbt.Current_Directory>
/home/itssahil/PROJECTS/Mol_Feturizer/New_Systems/rnas/4TS2

>  <Rbt.Executable>
rbdock ($Id: //depot/dev/client3/rdock/2013.1/src/exe/rbdock.cxx#4 $)

>  <Rbt.Library>
libRbt.so (2013.1, Build901 2013/11/27)

>  <Rbt.Parameter_File>
/export/apps/rDock/src/rDock_2013.1_src/data/scripts/dock_solv.prm

>  <Rbt.Receptor>
prm/blind_docking_100.prm

>  <SCORE>
-15.6838

>  <SCORE.INTER>
-9.00907

>  <SCORE.INTER.CONST>
1

>  <SCORE.INTER.POLAR>
0

>  <SCORE.INTER.ROT>
5

>  <SCORE.INTER.SOLV>
10.2974

>  <SCORE.INTER.VDW>
-16.3718

>  <SCORE.INTER.norm>
-0.391699

>  <SCORE.INTRA>
-6.67473

>  <SCORE.INTRA.DIHEDRAL>
-11.2358

>  <SCORE.INTRA.DIHEDRAL.0>
12.4853

>  <SCORE.INTRA.POLAR>
0

>  <SCORE.INTRA.POLAR.0>
0

>  <SCORE.INTRA.REPUL>
0

>  <SCORE.INTRA.REPUL.0>
0

>  <SCORE.INTRA.SOLV>
1.45086

>  <SCORE.INTRA.SOLV.lig_0>
-31.1706

>  <SCORE.INTRA.VDW>
-1.78226

>  <SCORE.INTRA.VDW.0>
-1.16895

>  <SCORE.INTRA.norm>
-0.290206

>  <SCORE.RESTR>
0

>  <SCORE.RESTR.CAVITY>
0

>  <SCORE.RESTR.norm>
0

>  <SCORE.SYSTEM>
0

>  <SCORE.SYSTEM.CONST>
0

>  <SCORE.SYSTEM.DIHEDRAL>
0

>  <SCORE.SYSTEM.SOLV>
0

>  <SCORE.SYSTEM.norm>
0

>  <SCORE.heavy>
23

>  <SCORE.norm>
-0.681904

>  <RMSD>
13.796

$$$$
ligand
 OpenBabel11021811513D
libRbt.so/2013.1/901 2013/11/27
 23 24  0  0  0  0  0  0  0  0999 V2000
  -12.8451    2.7843    2.5178 C   0  0  0  0  0  0  0  0  0  0  0  0
  -12.4204    1.7198    3.3906 O   0  0  0  0  0  0  0  0  0  0  0  0
  -11.6668    3.7121    2.2582 C   0  0  2  0  0  0  0  0  0  0  0  0
  -11.9634    4.9212    1.3844 C   0  0  1  0  0  0  0  0  0  0  0  0
  -12.6033    5.9286    2.1705 O   0  0  0  0  0  0  0  0  0  0  0  0
  -10.5702    5.3066    0.8987 C   0  0  2  0  0  0  0  0  0  0  0  0
  -10.4521    6.0891   -0.2954 O   0  0  0  0  0  0  0  0  0  0  0  0
   -9.9353    3.9429    0.6907 C   0  0  2  0  0  0  0  0  0  0  0  0
  -10.5994    3.0317    1.5919 O   0  0  0  0  0  0  0  0  0  0  0  0
   -8.4315    4.0760    0.9916 C   0  0  0  0  0  0  0  0  0  0  0  0
   -8.1766    4.4216    2.3602 O   0  0  0  0  0  0  0  0  0  0  0  0
   -9.5431    2.2815   -1.0162 C   0  0  2  0  0  0  0  0  0  0  0  0
  -10.2093    3.5022   -0.6500 O   0  0  0  0  0  0  0  0  0  0  0  0
   -9.8307    2.0301   -2.4847 C   0  0  2  0  0  0  0  0  0  0  0  0
   -9.5782    3.2290   -3.2256 O   0  0  0  0  0  0  0  0  0  0  0  0
  -11.2824    1.6534   -2.6835 C   0  0  1  0  0  0  0  0  0  0  0  0
  -11.4530    1.1886   -4.0245 O   0  0  0  0  0  0  0  0  0  0  0  0
  -11.6945    0.5752   -1.6993 C   0  0  2  0  0  0  0  0  0  0  0  0
  -13.0987    0.3814   -1.8000 O   0  0  0  0  0  0  0  0  0  0  0  0
  -11.3502    0.9507   -0.2643 C   0  0  2  0  0  0  0  0  0  0  0  0
   -9.9484    1.1776   -0.2070 O   0  0  0  0  0  0  0  0  0  0  0  0
  -11.7547   -0.1530    0.7202 C   0  0  0  0  0  0  0  0  0  0  0  0
  -13.1603   -0.4415    0.6930 O   0  0  0  0  0  0  0  0  0  0  0  0
  1  2  1  0  0  0  0
  3  1  1  6  0  0  0
  3  9  1  0  0  0  0
  3  4  1  0  0  0  0
  4  5  1  1  0  0  0
  4  6  1  0  0  0  0
  6  7  1  6  0  0  0
  6  8  1  0  0  0  0
  8  9  1  0  0  0  0
  8 10  1  1  0  0  0
  8 13  1  0  0  0  0
 10 11  1  0  0  0  0
 12 13  1  1  0  0  0
 12 14  1  0  0  0  0
 12 21  1  0  0  0  0
 14 15  1  6  0  0  0
 14 16  1  0  0  0  0
 16 17  1  6  0  0  0
 16 18  1  0  0  0  0
 18 19  1  1  0  0  0
 18 20  1  0  0  0  0
 20 21  1  0  0  0  0
 20 22  1  1  0  0  0
 22 23  1  0  0  0  0
M  END
>  <CHROM.1>
-178.09284329,63.82702359,-174.78362634,173.90730543,-59.62325409,-10.99270306
2.70490845,0.06201037,1.36960591,0.91166076,0.97438645

>  <Name>
ligand

>  <RI>
0

>  <Rbt.Current_Directory>
/home/itssahil/PROJECTS/Mol_Feturizer/New_Systems/rnas/4TS2

>  <Rbt.Executable>
rbdock ($Id: //depot/dev/client3/rdock/2013.1/src/exe/rbdock.cxx#4 $)

>  <Rbt.Library>
libRbt.so (2013.1, Build901 2013/11/27)

>  <Rbt.Parameter_File>
/export/apps/rDock/src/rDock_2013.1_src/data/scripts/dock_solv.prm

>  <Rbt.Receptor>
prm/blind_docking_80.prm

>  <SCORE>
-15.1064

>  <SCORE.INTER>
-8.2566

>  <SCORE.INTER.CONST>
1

>  <SCORE.INTER.POLAR>
0

>  <SCORE.INTER.ROT>
5

>  <SCORE.INTER.SOLV>
10.2646

>  <SCORE.INTER.VDW>
-15.8593

>  <SCORE.INTER.norm>
-0.358983

>  <SCORE.INTRA>
-6.84977

>  <SCORE.INTRA.DIHEDRAL>
-11.9227

>  <SCORE.INTRA.DIHEDRAL.0>
12.4853

>  <SCORE.INTRA.POLAR>
0

>  <SCORE.INTRA.POLAR.0>
0

>  <SCORE.INTRA.REPUL>
0

>  <SCORE.INTRA.REPUL.0>
0

>  <SCORE.INTRA.SOLV>
0.645864

>  <SCORE.INTRA.SOLV.lig_0>
-31.1706

>  <SCORE.INTRA.VDW>
-1.21136

>  <SCORE.INTRA.VDW.0>
-1.16895

>  <SCORE.INTRA.norm>
-0.297816

>  <SCORE.RESTR>
0

>  <SCORE.RESTR.CAVITY>
0

>  <SCORE.RESTR.norm>
0

>  <SCORE.SYSTEM>
0

>  <SCORE.SYSTEM.CONST>
0

>  <SCORE.SYSTEM.DIHEDRAL>
0

>  <SCORE.SYSTEM.SOLV>
0

>  <SCORE.SYSTEM.norm>
0

>  <SCORE.heavy>
23

>  <SCORE.norm>
-0.656799

>  <RMSD>
13.797

$$$$
ligand
 OpenBabel11021811513D
libRbt.so/2013.1/901 2013/11/27
 23 24  0  0  0  0  0  0  0  0999 V2000
  -13.2577    3.1222    2.3351 C   0  0  0  0  0  0  0  0  0  0  0  0
  -14.2195    4.0272    2.9106 O   0  0  0  0  0  0  0  0  0  0  0  0
  -11.9296    3.8477    2.1733 C   0  0  2  0  0  0  0  0  0  0  0  0
  -11.9443    5.0414    1.2308 C   0  0  1  0  0  0  0  0  0  0  0  0
  -12.4974    6.1724    1.9068 O   0  0  0  0  0  0  0  0  0  0  0  0
  -10.4658    5.1876    0.8867 C   0  0  2  0  0  0  0  0  0  0  0  0
  -10.1063    5.8813   -0.3139 O   0  0  0  0  0  0  0  0  0  0  0  0
  -10.0320    3.7351    0.7968 C   0  0  2  0  0  0  0  0  0  0  0  0
  -10.9179    2.9814    1.6515 O   0  0  0  0  0  0  0  0  0  0  0  0
   -8.5645    3.6558    1.2550 C   0  0  0  0  0  0  0  0  0  0  0  0
   -7.6758    4.3436    0.3635 O   0  0  0  0  0  0  0  0  0  0  0  0
   -9.6944    1.9644   -0.8088 C   0  0  2  0  0  0  0  0  0  0  0  0
  -10.2322    3.2727   -0.5496 O   0  0  0  0  0  0  0  0  0  0  0  0
   -9.9139    1.6665   -2.2804 C   0  0  2  0  0  0  0  0  0  0  0  0
   -9.4721    2.7849   -3.0578 O   0  0  0  0  0  0  0  0  0  0  0  0
  -11.3842    1.4505   -2.5638 C   0  0  1  0  0  0  0  0  0  0  0  0
  -11.5217    0.9346   -3.8899 O   0  0  0  0  0  0  0  0  0  0  0  0
  -11.9855    0.4840   -1.5612 C   0  0  2  0  0  0  0  0  0  0  0  0
  -13.3933    0.4493   -1.7521 O   0  0  0  0  0  0  0  0  0  0  0  0
  -11.6928    0.8964   -0.1248 C   0  0  2  0  0  0  0  0  0  0  0  0
  -10.2806    0.9619    0.0212 O   0  0  0  0  0  0  0  0  0  0  0  0
  -12.2897   -0.0962    0.8799 C   0  0  0  0  0  0  0  0  0  0  0  0
  -12.0192    0.2559    2.2447 O   0  0  0  0  0  0  0  0  0  0  0  0
  1  2  1  0  0  0  0
  3  1  1  6  0  0  0
  3  9  1  0  0  0  0
  3  4  1  0  0  0  0
  4  5  1  1  0  0  0
  4  6  1  0  0  0  0
  6  7  1  6  0  0  0
  6  8  1  0  0  0  0
  8  9  1  0  0  0  0
  8 10  1  1  0  0  0
  8 13  1  0  0  0  0
 10 11  1  0  0  0  0
 12 13  1  1  0  0  0
 12 14  1  0  0  0  0
 12 21  1  0  0  0  0
 14 15  1  6  0  0  0
 14 16  1  0  0  0  0
 16 17  1  6  0  0  0
 16 18  1  0  0  0  0
 18 19  1  1  0  0  0
 18 20  1  0  0  0  0
 20 21  1  0  0  0  0
 20 22  1  1  0  0  0
 22 23  1  0  0  0  0
M  END
>  <CHROM.1>
-62.60456275,-65.83139150,-176.64008696,172.17617006,179.36950934,-11.11518977
2.74954758,0.07523811,1.68350066,0.68383885,0.74786174

>  <Name>
ligand

>  <RI>
0

>  <Rbt.Current_Directory>
/home/itssahil/PROJECTS/Mol_Feturizer/New_Systems/rnas/4TS2

>  <Rbt.Executable>
rbdock ($Id: //depot/dev/client3/rdock/2013.1/src/exe/rbdock.cxx#4 $)

>  <Rbt.Library>
libRbt.so (2013.1, Build901 2013/11/27)

>  <Rbt.Parameter_File>
/export/apps/rDock/src/rDock_2013.1_src/data/scripts/dock_solv.prm

>  <Rbt.Receptor>
prm/blind_docking_40.prm

>  <SCORE>
-16.0355

>  <SCORE.INTER>
-9.07802

>  <SCORE.INTER.CONST>
1

>  <SCORE.INTER.POLAR>
0

>  <SCORE.INTER.ROT>
5

>  <SCORE.INTER.SOLV>
9.19143

>  <SCORE.INTER.VDW>
-16.0492

>  <SCORE.INTER.norm>
-0.394697

>  <SCORE.INTRA>
-6.95748

>  <SCORE.INTRA.DIHEDRAL>
-11.8492

>  <SCORE.INTRA.DIHEDRAL.0>
12.4853

>  <SCORE.INTRA.POLAR>
0

>  <SCORE.INTRA.POLAR.0>
0

>  <SCORE.INTRA.REPUL>
0

>  <SCORE.INTRA.REPUL.0>
0

>  <SCORE.INTRA.SOLV>
0.771484

>  <SCORE.INTRA.SOLV.lig_0>
-31.1706

>  <SCORE.INTRA.VDW>
-1.41864

>  <SCORE.INTRA.VDW.0>
-1.16895

>  <SCORE.INTRA.norm>
-0.302499

>  <SCORE.RESTR>
0

>  <SCORE.RESTR.CAVITY>
0

>  <SCORE.RESTR.norm>
0

>  <SCORE.SYSTEM>
0

>  <SCORE.SYSTEM.CONST>
0

>  <SCORE.SYSTEM.DIHEDRAL>
0

>  <SCORE.SYSTEM.SOLV>
0

>  <SCORE.SYSTEM.norm>
0

>  <SCORE.heavy>
23

>  <SCORE.norm>
-0.697196

>  <RMSD>
13.798

$$$$
ligand
 OpenBabel11021811513D
libRbt.so/2013.1/901 2013/11/27
 23 24  0  0  0  0  0  0  0  0999 V2000
  -12.5179    2.3104    2.8985 C   0  0  0  0  0  0  0  0  0  0  0  0
  -13.6032    2.7957    3.7122 O   0  0  0  0  0  0  0  0  0  0  0  0
  -11.6000    3.4738    2.5516 C   0  0  2  0  0  0  0  0  0  0  0  0
  -12.2343    4.5895    1.7353 C   0  0  1  0  0  0  0  0  0  0  0  0
  -13.0010    5.4316    2.5986 O   0  0  0  0  0  0  0  0  0  0  0  0
  -11.0109    5.2710    1.1318 C   0  0  2  0  0  0  0  0  0  0  0  0
  -11.1797    6.0615   -0.0509 O   0  0  0  0  0  0  0  0  0  0  0  0
  -10.1168    4.0796    0.8367 C   0  0  2  0  0  0  0  0  0  0  0  0
  -10.4781    3.0443    1.7752 O   0  0  0  0  0  0  0  0  0  0  0  0
   -8.6565    4.5384    1.0005 C   0  0  0  0  0  0  0  0  0  0  0  0
   -7.7295    3.4461    0.9303 O   0  0  0  0  0  0  0  0  0  0  0  0
   -9.6550    2.4309   -0.8651 C   0  0  2  0  0  0  0  0  0  0  0  0
  -10.4139    3.5909   -0.4824 O   0  0  0  0  0  0  0  0  0  0  0  0
   -9.8988    2.1965   -2.3443 C   0  0  2  0  0  0  0  0  0  0  0  0
   -9.7211    3.4288   -3.0515 O   0  0  0  0  0  0  0  0  0  0  0  0
  -11.3159    1.7217   -2.5792 C   0  0  1  0  0  0  0  0  0  0  0  0
  -11.4298    1.2797   -3.9339 O   0  0  0  0  0  0  0  0  0  0  0  0
  -11.6656    0.5922   -1.6290 C   0  0  2  0  0  0  0  0  0  0  0  0
  -13.0502    0.3006   -1.7605 O   0  0  0  0  0  0  0  0  0  0  0  0
  -11.3737    0.9551   -0.1792 C   0  0  2  0  0  0  0  0  0  0  0  0
   -9.9931    1.2807   -0.0903 O   0  0  0  0  0  0  0  0  0  0  0  0
  -11.7140   -0.1992    0.7709 C   0  0  0  0  0  0  0  0  0  0  0  0
  -13.1128   -0.5198    0.7858 O   0  0  0  0  0  0  0  0  0  0  0  0
  1  2  1  0  0  0  0
  3  1  1  6  0  0  0
  3  9  1  0  0  0  0
  3  4  1  0  0  0  0
  4  5  1  1  0  0  0
  4  6  1  0  0  0  0
  6  7  1  6  0  0  0
  6  8  1  0  0  0  0
  8  9  1  0  0  0  0
  8 10  1  1  0  0  0
  8 13  1  0  0  0  0
 10 11  1  0  0  0  0
 12 13  1  1  0  0  0
 12 14  1  0  0  0  0
 12 21  1  0  0  0  0
 14 15  1  6  0  0  0
 14 16  1  0  0  0  0
 16 17  1  6  0  0  0
 16 18  1  0  0  0  0
 18 19  1  1  0  0  0
 18 20  1  0  0  0  0
 20 21  1  0  0  0  0
 20 22  1  1  0  0  0
 22 23  1  0  0  0  0
M  END
>  <CHROM.1>
-62.13782268,171.73602501,-170.09693278,-178.22357399,-64.08190084,-11.12280879
2.69538681,0.16191908,1.72338525,0.82830218,0.85418477

>  <Name>
ligand

>  <RI>
0

>  <Rbt.Current_Directory>
/home/itssahil/PROJECTS/Mol_Feturizer/New_Systems/rnas/4TS2

>  <Rbt.Executable>
rbdock ($Id: //depot/dev/client3/rdock/2013.1/src/exe/rbdock.cxx#4 $)

>  <Rbt.Library>
libRbt.so (2013.1, Build901 2013/11/27)

>  <Rbt.Parameter_File>
/export/apps/rDock/src/rDock_2013.1_src/data/scripts/dock_solv.prm

>  <Rbt.Receptor>
prm/blind_docking_60.prm

>  <SCORE>
-14.5522

>  <SCORE.INTER>
-7.76881

>  <SCORE.INTER.CONST>
1

>  <SCORE.INTER.POLAR>
0

>  <SCORE.INTER.ROT>
5

>  <SCORE.INTER.SOLV>
10.0453

>  <SCORE.INTER.VDW>
-15.461

>  <SCORE.INTER.norm>
-0.337774

>  <SCORE.INTRA>
-6.7834

>  <SCORE.INTRA.DIHEDRAL>
-11.699

>  <SCORE.INTRA.DIHEDRAL.0>
12.4853

>  <SCORE.INTRA.POLAR>
0

>  <SCORE.INTRA.POLAR.0>
0

>  <SCORE.INTRA.REPUL>
0

>  <SCORE.INTRA.REPUL.0>
0

>  <SCORE.INTRA.SOLV>
0.675224

>  <SCORE.INTRA.SOLV.lig_0>
-31.1706

>  <SCORE.INTRA.VDW>
-1.27151

>  <SCORE.INTRA.VDW.0>
-1.16895

>  <SCORE.INTRA.norm>
-0.29493

>  <SCORE.RESTR>
0

>  <SCORE.RESTR.CAVITY>
0

>  <SCORE.RESTR.norm>
0

>  <SCORE.SYSTEM>
0

>  <SCORE.SYSTEM.CONST>
0

>  <SCORE.SYSTEM.DIHEDRAL>
0

>  <SCORE.SYSTEM.SOLV>
0

>  <SCORE.SYSTEM.norm>
0

>  <SCORE.heavy>
23

>  <SCORE.norm>
-0.632704

>  <RMSD>
13.801

$$$$
ligand
 OpenBabel11021811513D
libRbt.so/2013.1/901 2013/11/27
 23 24  0  0  0  0  0  0  0  0999 V2000
   -6.4818    3.4681    0.2117 C   0  0  0  0  0  0  0  0  0  0  0  0
   -5.5178    4.0092   -0.7120 O   0  0  0  0  0  0  0  0  0  0  0  0
   -7.6758    4.4088    0.2894 C   0  0  2  0  0  0  0  0  0  0  0  0
   -8.7618    4.0107    1.2772 C   0  0  1  0  0  0  0  0  0  0  0  0
   -8.3619    4.3843    2.5973 O   0  0  0  0  0  0  0  0  0  0  0  0
   -9.9641    4.7874    0.7512 C   0  0  2  0  0  0  0  0  0  0  0  0
  -11.2781    4.3396    1.1048 O   0  0  0  0  0  0  0  0  0  0  0  0
   -9.7633    4.6740   -0.7497 C   0  0  2  0  0  0  0  0  0  0  0  0
   -8.3461    4.5119   -0.9700 O   0  0  0  0  0  0  0  0  0  0  0  0
  -10.3155    5.9584   -1.3941 C   0  0  0  0  0  0  0  0  0  0  0  0
  -10.1870    5.9518   -2.8228 O   0  0  0  0  0  0  0  0  0  0  0  0
   -9.7086    2.2656   -0.9049 C   0  0  2  0  0  0  0  0  0  0  0  0
  -10.4133    3.4797   -1.2167 O   0  0  0  0  0  0  0  0  0  0  0  0
  -10.0175    1.2661   -2.0040 C   0  0  2  0  0  0  0  0  0  0  0  0
   -9.8270    1.8930   -3.2771 O   0  0  0  0  0  0  0  0  0  0  0  0
  -11.4576    0.8107   -1.9167 C   0  0  1  0  0  0  0  0  0  0  0  0
  -11.6387   -0.2993   -2.7992 O   0  0  0  0  0  0  0  0  0  0  0  0
  -11.8070    0.4119   -0.4955 C   0  0  2  0  0  0  0  0  0  0  0  0
  -13.2045    0.1645   -0.4240 O   0  0  0  0  0  0  0  0  0  0  0  0
  -11.4469    1.4998    0.5073 C   0  0  2  0  0  0  0  0  0  0  0  0
  -10.0539    1.7522    0.3815 O   0  0  0  0  0  0  0  0  0  0  0  0
  -11.7877    1.0799    1.9420 C   0  0  0  0  0  0  0  0  0  0  0  0
  -11.3642    2.0383    2.9227 O   0  0  0  0  0  0  0  0  0  0  0  0
  1  2  1  0  0  0  0
  3  1  1  6  0  0  0
  3  9  1  0  0  0  0
  3  4  1  0  0  0  0
  4  5  1  1  0  0  0
  4  6  1  0  0  0  0
  6  7  1  6  0  0  0
  6  8  1  0  0  0  0
  8  9  1  0  0  0  0
  8 10  1  6  0  0  0
  8 13  1  0  0  0  0
 10 11  1  0  0  0  0
 12 13  1  6  0  0  0
 12 14  1  0  0  0  0
 12 21  1  0  0  0  0
 14 15  1  6  0  0  0
 14 16  1  0  0  0  0
 16 17  1  6  0  0  0
 16 18  1  0  0  0  0
 18 19  1  6  0  0  0
 18 20  1  0  0  0  0
 20 21  1  0  0  0  0
 20 22  1  1  0  0  0
 22 23  1  0  0  0  0
M  END
>  <CHROM.1>
-177.27296153,-179.45260682,-149.74792502,-75.31418961,175.36016586,-9.97402555
2.90948410,-0.34193467,0.21088899,0.79415393,1.44844459

>  <Name>
ligand

>  <RI>
0

>  <Rbt.Current_Directory>
/home/itssahil/PROJECTS/Mol_Feturizer/New_Systems/rnas/4TS2

>  <Rbt.Executable>
rbdock ($Id: //depot/dev/client3/rdock/2013.1/src/exe/rbdock.cxx#4 $)

>  <Rbt.Library>
libRbt.so (2013.1, Build901 2013/11/27)

>  <Rbt.Parameter_File>
/export/apps/rDock/src/rDock_2013.1_src/data/scripts/dock_solv.prm

>  <Rbt.Receptor>
prm/blind_docking_80.prm

>  <SCORE>
-12.3933

>  <SCORE.INTER>
-8.26593

>  <SCORE.INTER.CONST>
1

>  <SCORE.INTER.POLAR>
0

>  <SCORE.INTER.ROT>
5

>  <SCORE.INTER.SOLV>
10.0256

>  <SCORE.INTER.VDW>
-15.7858

>  <SCORE.INTER.norm>
-0.359388

>  <SCORE.INTRA>
-4.12738

>  <SCORE.INTRA.DIHEDRAL>
-7.40046

>  <SCORE.INTRA.DIHEDRAL.0>
12.4853

>  <SCORE.INTRA.POLAR>
0

>  <SCORE.INTRA.POLAR.0>
0

>  <SCORE.INTRA.REPUL>
0

>  <SCORE.INTRA.REPUL.0>
0

>  <SCORE.INTRA.SOLV>
0.926588

>  <SCORE.INTRA.SOLV.lig_0>
-31.1706

>  <SCORE.INTRA.VDW>
-0.890442

>  <SCORE.INTRA.VDW.0>
-1.16895

>  <SCORE.INTRA.norm>
-0.179451

>  <SCORE.RESTR>
0

>  <SCORE.RESTR.CAVITY>
0

>  <SCORE.RESTR.norm>
0

>  <SCORE.SYSTEM>
0

>  <SCORE.SYSTEM.CONST>
0

>  <SCORE.SYSTEM.DIHEDRAL>
0

>  <SCORE.SYSTEM.SOLV>
0

>  <SCORE.SYSTEM.norm>
0

>  <SCORE.heavy>
23

>  <SCORE.norm>
-0.538839

>  <RMSD>
13.806

$$$$
ligand
 OpenBabel11021811513D
libRbt.so/2013.1/901 2013/11/27
 23 24  0  0  0  0  0  0  0  0999 V2000
  -13.1060    3.1036    2.4599 C   0  0  0  0  0  0  0  0  0  0  0  0
  -14.0730    4.0014    3.0383 O   0  0  0  0  0  0  0  0  0  0  0  0
  -11.8062    3.8597    2.2252 C   0  0  2  0  0  0  0  0  0  0  0  0
  -11.8961    5.0385    1.2682 C   0  0  1  0  0  0  0  0  0  0  0  0
  -12.4457    6.1653    1.9542 O   0  0  0  0  0  0  0  0  0  0  0  0
  -10.4398    5.2166    0.8523 C   0  0  2  0  0  0  0  0  0  0  0  0
  -10.1552    5.9012   -0.3735 O   0  0  0  0  0  0  0  0  0  0  0  0
   -9.9734    3.7743    0.7618 C   0  0  2  0  0  0  0  0  0  0  0  0
  -10.7983    3.0114    1.6678 O   0  0  0  0  0  0  0  0  0  0  0  0
   -8.4844    3.7387    1.1507 C   0  0  0  0  0  0  0  0  0  0  0  0
   -7.6615    4.4685    0.2299 O   0  0  0  0  0  0  0  0  0  0  0  0
   -9.6902    1.9771   -0.8249 C   0  0  2  0  0  0  0  0  0  0  0  0
  -10.2249    3.2869   -0.5671 O   0  0  0  0  0  0  0  0  0  0  0  0
   -9.9090    1.6786   -2.2964 C   0  0  2  0  0  0  0  0  0  0  0  0
   -9.4637    2.7953   -3.0742 O   0  0  0  0  0  0  0  0  0  0  0  0
  -11.3797    1.4661   -2.5810 C   0  0  1  0  0  0  0  0  0  0  0  0
  -11.5172    0.9496   -3.9068 O   0  0  0  0  0  0  0  0  0  0  0  0
  -11.9843    0.5020   -1.5782 C   0  0  2  0  0  0  0  0  0  0  0  0
  -13.3920    0.4706   -1.7705 O   0  0  0  0  0  0  0  0  0  0  0  0
  -11.6919    0.9147   -0.1419 C   0  0  2  0  0  0  0  0  0  0  0  0
  -10.2797    0.9767    0.0053 O   0  0  0  0  0  0  0  0  0  0  0  0
  -12.2922   -0.0756    0.8630 C   0  0  0  0  0  0  0  0  0  0  0  0
  -11.9803    0.2494    2.2256 O   0  0  0  0  0  0  0  0  0  0  0  0
  1  2  1  0  0  0  0
  3  1  1  6  0  0  0
  3  9  1  0  0  0  0
  3  4  1  0  0  0  0
  4  5  1  1  0  0  0
  4  6  1  0  0  0  0
  6  7  1  6  0  0  0
  6  8  1  0  0  0  0
  8  9  1  0  0  0  0
  8 10  1  1  0  0  0
  8 13  1  0  0  0  0
 10 11  1  0  0  0  0
 12 13  1  1  0  0  0
 12 14  1  0  0  0  0
 12 21  1  0  0  0  0
 14 15  1  6  0  0  0
 14 16  1  0  0  0  0
 16 17  1  6  0  0  0
 16 18  1  0  0  0  0
 18 19  1  1  0  0  0
 18 20  1  0  0  0  0
 20 21  1  0  0  0  0
 20 22  1  1  0  0  0
 22 23  1  0  0  0  0
M  END
>  <CHROM.1>
-61.23660251,-64.11176800,-174.04180177,173.39651292,177.19464979,-11.07866493
2.76909876,0.06793883,1.66502351,0.71343452,0.76616386

>  <Name>
ligand

>  <RI>
0

>  <Rbt.Current_Directory>
/home/itssahil/PROJECTS/Mol_Feturizer/New_Systems/rnas/4TS2

>  <Rbt.Executable>
rbdock ($Id: //depot/dev/client3/rdock/2013.1/src/exe/rbdock.cxx#4 $)

>  <Rbt.Library>
libRbt.so (2013.1, Build901 2013/11/27)

>  <Rbt.Parameter_File>
/export/apps/rDock/src/rDock_2013.1_src/data/scripts/dock_solv.prm

>  <Rbt.Receptor>
prm/blind_docking_100.prm

>  <SCORE>
-16.0461

>  <SCORE.INTER>
-9.01106

>  <SCORE.INTER.CONST>
1

>  <SCORE.INTER.POLAR>
0

>  <SCORE.INTER.ROT>
5

>  <SCORE.INTER.SOLV>
8.86864

>  <SCORE.INTER.VDW>
-15.8969

>  <SCORE.INTER.norm>
-0.391785

>  <SCORE.INTRA>
-7.03505

>  <SCORE.INTRA.DIHEDRAL>
-11.8707

>  <SCORE.INTRA.DIHEDRAL.0>
12.4853

>  <SCORE.INTRA.POLAR>
0

>  <SCORE.INTRA.POLAR.0>
0

>  <SCORE.INTRA.REPUL>
0

>  <SCORE.INTRA.REPUL.0>
0

>  <SCORE.INTRA.SOLV>
0.770042

>  <SCORE.INTRA.SOLV.lig_0>
-31.1706

>  <SCORE.INTRA.VDW>
-1.48474

>  <SCORE.INTRA.VDW.0>
-1.16895

>  <SCORE.INTRA.norm>
-0.305872

>  <SCORE.RESTR>
0

>  <SCORE.RESTR.CAVITY>
0

>  <SCORE.RESTR.norm>
0

>  <SCORE.SYSTEM>
0

>  <SCORE.SYSTEM.CONST>
0

>  <SCORE.SYSTEM.DIHEDRAL>
0

>  <SCORE.SYSTEM.SOLV>
0

>  <SCORE.SYSTEM.norm>
0

>  <SCORE.heavy>
23

>  <SCORE.norm>
-0.697657

>  <RMSD>
13.809

$$$$
ligand
 OpenBabel11021811513D
libRbt.so/2013.1/901 2013/11/27
 23 24  0  0  0  0  0  0  0  0999 V2000
  -13.2815    3.9914    2.8068 C   0  0  0  0  0  0  0  0  0  0  0  0
  -13.7935    3.1745    1.7362 O   0  0  0  0  0  0  0  0  0  0  0  0
  -11.9867    4.6496    2.3522 C   0  0  2  0  0  0  0  0  0  0  0  0
  -12.0927    5.5147    1.1056 C   0  0  1  0  0  0  0  0  0  0  0  0
  -12.6350    6.7891    1.4577 O   0  0  0  0  0  0  0  0  0  0  0  0
  -10.6428    5.5670    0.6360 C   0  0  2  0  0  0  0  0  0  0  0  0
  -10.3770    5.8818   -0.7360 O   0  0  0  0  0  0  0  0  0  0  0  0
  -10.1745    4.1559    0.9450 C   0  0  2  0  0  0  0  0  0  0  0  0
  -10.9850    3.6776    2.0394 O   0  0  0  0  0  0  0  0  0  0  0  0
   -8.6801    4.2274    1.3074 C   0  0  0  0  0  0  0  0  0  0  0  0
   -7.8674    4.6323    0.1969 O   0  0  0  0  0  0  0  0  0  0  0  0
   -9.8543    2.0083   -0.1101 C   0  0  2  0  0  0  0  0  0  0  0  0
  -10.4437    3.3175   -0.1915 O   0  0  0  0  0  0  0  0  0  0  0  0
  -10.1887    1.2788   -1.3979 C   0  0  2  0  0  0  0  0  0  0  0  0
   -9.8875    2.1274   -2.5111 O   0  0  0  0  0  0  0  0  0  0  0  0
  -11.6631    0.9437   -1.4495 C   0  0  1  0  0  0  0  0  0  0  0  0
  -11.8896    0.0520   -2.5436 O   0  0  0  0  0  0  0  0  0  0  0  0
  -12.1114    0.3024   -0.1501 C   0  0  2  0  0  0  0  0  0  0  0  0
  -13.5261    0.1697   -0.1737 O   0  0  0  0  0  0  0  0  0  0  0  0
  -11.7143    1.1329    1.0629 C   0  0  2  0  0  0  0  0  0  0  0  0
  -10.3012    1.2816    1.0343 O   0  0  0  0  0  0  0  0  0  0  0  0
  -12.1564    0.4674    2.3716 C   0  0  0  0  0  0  0  0  0  0  0  0
  -11.4452   -0.7473    2.6515 O   0  0  0  0  0  0  0  0  0  0  0  0
  1  2  1  0  0  0  0
  3  1  1  6  0  0  0
  3  9  1  0  0  0  0
  3  4  1  0  0  0  0
  4  5  1  1  0  0  0
  4  6  1  0  0  0  0
  6  7  1  6  0  0  0
  6  8  1  0  0  0  0
  8  9  1  0  0  0  0
  8 10  1  1  0  0  0
  8 13  1  0  0  0  0
 10 11  1  0  0  0  0
 12 13  1  6  0  0  0
 12 14  1  0  0  0  0
 12 21  1  0  0  0  0
 14 15  1  6  0  0  0
 14 16  1  0  0  0  0
 16 17  1  6  0  0  0
 16 18  1  0  0  0  0
 18 19  1  6  0  0  0
 18 20  1  0  0  0  0
 20 21  1  0  0  0  0
 20 22  1  1  0  0  0
 22 23  1  0  0  0  0
M  END
>  <CHROM.1>
58.01770420,-65.81434944,-177.96360880,170.50029654,67.98170750,-11.20802605
2.80043932,0.52766523,1.35501512,0.78287087,0.39674633

>  <Name>
ligand

>  <RI>
0

>  <Rbt.Current_Directory>
/home/itssahil/PROJECTS/Mol_Feturizer/New_Systems/rnas/4TS2

>  <Rbt.Executable>
rbdock ($Id: //depot/dev/client3/rdock/2013.1/src/exe/rbdock.cxx#4 $)

>  <Rbt.Library>
libRbt.so (2013.1, Build901 2013/11/27)

>  <Rbt.Parameter_File>
/export/apps/rDock/src/rDock_2013.1_src/data/scripts/dock_solv.prm

>  <Rbt.Receptor>
prm/blind_docking_20.prm

>  <SCORE>
-13.057

>  <SCORE.INTER>
-6.51543

>  <SCORE.INTER.CONST>
1

>  <SCORE.INTER.POLAR>
0

>  <SCORE.INTER.ROT>
5

>  <SCORE.INTER.SOLV>
9.20382

>  <SCORE.INTER.VDW>
-14.3449

>  <SCORE.INTER.norm>
-0.283279

>  <SCORE.INTRA>
-6.54161

>  <SCORE.INTRA.DIHEDRAL>
-11.5119

>  <SCORE.INTRA.DIHEDRAL.0>
12.4853

>  <SCORE.INTRA.POLAR>
0

>  <SCORE.INTRA.POLAR.0>
0

>  <SCORE.INTRA.REPUL>
0

>  <SCORE.INTRA.REPUL.0>
0

>  <SCORE.INTRA.SOLV>
1.27698

>  <SCORE.INTRA.SOLV.lig_0>
-31.1706

>  <SCORE.INTRA.VDW>
-1.42413

>  <SCORE.INTRA.VDW.0>
-1.16895

>  <SCORE.INTRA.norm>
-0.284418

>  <SCORE.RESTR>
0

>  <SCORE.RESTR.CAVITY>
0

>  <SCORE.RESTR.norm>
0

>  <SCORE.SYSTEM>
0

>  <SCORE.SYSTEM.CONST>
0

>  <SCORE.SYSTEM.DIHEDRAL>
0

>  <SCORE.SYSTEM.SOLV>
0

>  <SCORE.SYSTEM.norm>
0

>  <SCORE.heavy>
23

>  <SCORE.norm>
-0.567697

>  <RMSD>
13.810

$$$$
ligand
 OpenBabel11021811513D
libRbt.so/2013.1/901 2013/11/27
 23 24  0  0  0  0  0  0  0  0999 V2000
  -13.3316    3.1489    2.3410 C   0  0  0  0  0  0  0  0  0  0  0  0
  -14.2806    4.0783    2.8987 O   0  0  0  0  0  0  0  0  0  0  0  0
  -11.9805    3.8376    2.2126 C   0  0  2  0  0  0  0  0  0  0  0  0
  -11.9449    5.0463    1.2898 C   0  0  1  0  0  0  0  0  0  0  0  0
  -12.4760    6.1820    1.9756 O   0  0  0  0  0  0  0  0  0  0  0  0
  -10.4574    5.1545    0.9719 C   0  0  2  0  0  0  0  0  0  0  0  0
  -10.0581    5.8567   -0.2112 O   0  0  0  0  0  0  0  0  0  0  0  0
  -10.0645    3.6916    0.8650 C   0  0  2  0  0  0  0  0  0  0  0  0
  -10.9860    2.9506    1.6927 O   0  0  0  0  0  0  0  0  0  0  0  0
   -8.6077    3.5619    1.3452 C   0  0  0  0  0  0  0  0  0  0  0  0
   -7.6963    4.3182    0.5360 O   0  0  0  0  0  0  0  0  0  0  0  0
   -9.7315    1.9471   -0.7702 C   0  0  2  0  0  0  0  0  0  0  0  0
  -10.2559    3.2569   -0.4920 O   0  0  0  0  0  0  0  0  0  0  0  0
   -9.9378    1.6800   -2.2495 C   0  0  2  0  0  0  0  0  0  0  0  0
   -9.4733    2.8073   -3.0004 O   0  0  0  0  0  0  0  0  0  0  0  0
  -11.4073    1.4880   -2.5534 C   0  0  1  0  0  0  0  0  0  0  0  0
  -11.5360    0.9991   -3.8906 O   0  0  0  0  0  0  0  0  0  0  0  0
  -12.0320    0.5103   -1.5763 C   0  0  2  0  0  0  0  0  0  0  0  0
  -13.4378    0.4969   -1.7836 O   0  0  0  0  0  0  0  0  0  0  0  0
  -11.7506    0.8916   -0.1291 C   0  0  2  0  0  0  0  0  0  0  0  0
  -10.3395    0.9365    0.0339 O   0  0  0  0  0  0  0  0  0  0  0  0
  -12.3712   -0.1123    0.8498 C   0  0  0  0  0  0  0  0  0  0  0  0
  -12.0909    0.1965    2.2230 O   0  0  0  0  0  0  0  0  0  0  0  0
  1  2  1  0  0  0  0
  3  1  1  6  0  0  0
  3  9  1  0  0  0  0
  3  4  1  0  0  0  0
  4  5  1  1  0  0  0
  4  6  1  0  0  0  0
  6  7  1  6  0  0  0
  6  8  1  0  0  0  0
  8  9  1  0  0  0  0
  8 10  1  1  0  0  0
  8 13  1  0  0  0  0
 10 11  1  0  0  0  0
 12 13  1  1  0  0  0
 12 14  1  0  0  0  0
 12 21  1  0  0  0  0
 14 15  1  6  0  0  0
 14 16  1  0  0  0  0
 16 17  1  6  0  0  0
 16 18  1  0  0  0  0
 18 19  1  1  0  0  0
 18 20  1  0  0  0  0
 20 21  1  0  0  0  0
 20 22  1  1  0  0  0
 22 23  1  0  0  0  0
M  END
>  <CHROM.1>
-61.81685400,-61.54994488,-176.59779440,171.14831413,178.26937122,-11.14780326
2.74581387,0.11136659,1.66510905,0.66240987,0.76275261

>  <Name>
ligand

>  <RI>
0

>  <Rbt.Current_Directory>
/home/itssahil/PROJECTS/Mol_Feturizer/New_Systems/rnas/4TS2

>  <Rbt.Executable>
rbdock ($Id: //depot/dev/client3/rdock/2013.1/src/exe/rbdock.cxx#4 $)

>  <Rbt.Library>
libRbt.so (2013.1, Build901 2013/11/27)

>  <Rbt.Parameter_File>
/export/apps/rDock/src/rDock_2013.1_src/data/scripts/dock_solv.prm

>  <Rbt.Receptor>
prm/blind_docking_60.prm

>  <SCORE>
-16.0081

>  <SCORE.INTER>
-9.09567

>  <SCORE.INTER.CONST>
1

>  <SCORE.INTER.POLAR>
0

>  <SCORE.INTER.ROT>
5

>  <SCORE.INTER.SOLV>
9.34525

>  <SCORE.INTER.VDW>
-16.1122

>  <SCORE.INTER.norm>
-0.395464

>  <SCORE.INTRA>
-6.91247

>  <SCORE.INTRA.DIHEDRAL>
-11.835

>  <SCORE.INTRA.DIHEDRAL.0>
12.4853

>  <SCORE.INTRA.POLAR>
0

>  <SCORE.INTRA.POLAR.0>
0

>  <SCORE.INTRA.REPUL>
0

>  <SCORE.INTRA.REPUL.0>
0

>  <SCORE.INTRA.SOLV>
0.72722

>  <SCORE.INTRA.SOLV.lig_0>
-31.1706

>  <SCORE.INTRA.VDW>
-1.35857

>  <SCORE.INTRA.VDW.0>
-1.16895

>  <SCORE.INTRA.norm>
-0.300542

>  <SCORE.RESTR>
0

>  <SCORE.RESTR.CAVITY>
0

>  <SCORE.RESTR.norm>
0

>  <SCORE.SYSTEM>
0

>  <SCORE.SYSTEM.CONST>
0

>  <SCORE.SYSTEM.DIHEDRAL>
0

>  <SCORE.SYSTEM.SOLV>
0

>  <SCORE.SYSTEM.norm>
0

>  <SCORE.heavy>
23

>  <SCORE.norm>
-0.696006

>  <RMSD>
13.810

$$$$
ligand
 OpenBabel11021811513D
libRbt.so/2013.1/901 2013/11/27
 23 24  0  0  0  0  0  0  0  0999 V2000
   -8.6121    4.5462    1.3569 C   0  0  0  0  0  0  0  0  0  0  0  0
   -7.3848    4.0113    1.8888 O   0  0  0  0  0  0  0  0  0  0  0  0
   -8.4308    4.8187   -0.1295 C   0  0  2  0  0  0  0  0  0  0  0  0
   -9.5652    5.5775   -0.8009 C   0  0  1  0  0  0  0  0  0  0  0  0
   -9.4380    6.9717   -0.5141 O   0  0  0  0  0  0  0  0  0  0  0  0
   -9.3523    5.2253   -2.2692 C   0  0  2  0  0  0  0  0  0  0  0  0
  -10.4577    5.3499   -3.1718 O   0  0  0  0  0  0  0  0  0  0  0  0
   -8.9229    3.7721   -2.1717 C   0  0  2  0  0  0  0  0  0  0  0  0
   -8.3109    3.6040   -0.8753 O   0  0  0  0  0  0  0  0  0  0  0  0
   -7.9419    3.4955   -3.3254 C   0  0  0  0  0  0  0  0  0  0  0  0
   -6.7624    4.3080   -3.2464 O   0  0  0  0  0  0  0  0  0  0  0  0
   -9.8269    1.5402   -2.0013 C   0  0  2  0  0  0  0  0  0  0  0  0
  -10.0932    2.9380   -2.2092 O   0  0  0  0  0  0  0  0  0  0  0  0
  -11.0551    0.7718   -2.4524 C   0  0  2  0  0  0  0  0  0  0  0  0
  -11.4511    1.2363   -3.7477 O   0  0  0  0  0  0  0  0  0  0  0  0
  -12.2062    1.0053   -1.4988 C   0  0  1  0  0  0  0  0  0  0  0  0
  -13.2525    0.0833   -1.8131 O   0  0  0  0  0  0  0  0  0  0  0  0
  -11.7569    0.8173   -0.0623 C   0  0  2  0  0  0  0  0  0  0  0  0
  -12.8131    1.2181    0.7998 O   0  0  0  0  0  0  0  0  0  0  0  0
  -10.5175    1.6412    0.2604 C   0  0  2  0  0  0  0  0  0  0  0  0
   -9.4951    1.2464   -0.6444 O   0  0  0  0  0  0  0  0  0  0  0  0
  -10.0614    1.4306    1.7090 C   0  0  0  0  0  0  0  0  0  0  0  0
  -10.9898    1.9525    2.6710 O   0  0  0  0  0  0  0  0  0  0  0  0
  1  2  1  0  0  0  0
  3  1  1  1  0  0  0
  3  9  1  0  0  0  0
  3  4  1  0  0  0  0
  4  5  1  6  0  0  0
  4  6  1  0  0  0  0
  6  7  1  6  0  0  0
  6  8  1  0  0  0  0
  8  9  1  0  0  0  0
  8 10  1  6  0  0  0
  8 13  1  0  0  0  0
 10 11  1  0  0  0  0
 12 13  1  1  0  0  0
 12 14  1  0  0  0  0
 12 21  1  0  0  0  0
 14 15  1  6  0  0  0
 14 16  1  0  0  0  0
 16 17  1  6  0  0  0
 16 18  1  0  0  0  0
 18 19  1  1  0  0  0
 18 20  1  0  0  0  0
 20 21  1  0  0  0  0
 20 22  1  1  0  0  0
 22 23  1  0  0  0  0
M  END
>  <CHROM.1>
-171.29818660,61.38486982,-164.27213038,-174.60291341,-67.20971271,-9.94631724
2.94233098,-0.95766858,-0.15337439,0.87349314,1.62512836

>  <Name>
ligand

>  <RI>
0

>  <Rbt.Current_Directory>
/home/itssahil/PROJECTS/Mol_Feturizer/New_Systems/rnas/4TS2

>  <Rbt.Executable>
rbdock ($Id: //depot/dev/client3/rdock/2013.1/src/exe/rbdock.cxx#4 $)

>  <Rbt.Library>
libRbt.so (2013.1, Build901 2013/11/27)

>  <Rbt.Parameter_File>
/export/apps/rDock/src/rDock_2013.1_src/data/scripts/dock_solv.prm

>  <Rbt.Receptor>
prm/blind_docking_40.prm

>  <SCORE>
-14.7835

>  <SCORE.INTER>
-7.96301

>  <SCORE.INTER.CONST>
1

>  <SCORE.INTER.POLAR>
0

>  <SCORE.INTER.ROT>
5

>  <SCORE.INTER.SOLV>
11.7385

>  <SCORE.INTER.VDW>
-16.1549

>  <SCORE.INTER.norm>
-0.346218

>  <SCORE.INTRA>
-6.82047

>  <SCORE.INTRA.DIHEDRAL>
-10.7314

>  <SCORE.INTRA.DIHEDRAL.0>
12.4853

>  <SCORE.INTRA.POLAR>
0

>  <SCORE.INTRA.POLAR.0>
0

>  <SCORE.INTRA.REPUL>
0

>  <SCORE.INTRA.REPUL.0>
0

>  <SCORE.INTRA.SOLV>
0.286893

>  <SCORE.INTRA.SOLV.lig_0>
-31.1706

>  <SCORE.INTRA.VDW>
-1.5982

>  <SCORE.INTRA.VDW.0>
-1.16895

>  <SCORE.INTRA.norm>
-0.296542

>  <SCORE.RESTR>
0

>  <SCORE.RESTR.CAVITY>
0

>  <SCORE.RESTR.norm>
0

>  <SCORE.SYSTEM>
0

>  <SCORE.SYSTEM.CONST>
0

>  <SCORE.SYSTEM.DIHEDRAL>
0

>  <SCORE.SYSTEM.SOLV>
0

>  <SCORE.SYSTEM.norm>
0

>  <SCORE.heavy>
23

>  <SCORE.norm>
-0.64276

>  <RMSD>
13.812

$$$$
ligand
 OpenBabel11021811513D
libRbt.so/2013.1/901 2013/11/27
 23 24  0  0  0  0  0  0  0  0999 V2000
   -8.6798    4.5276    1.4292 C   0  0  0  0  0  0  0  0  0  0  0  0
   -7.4538    3.9985    1.9701 O   0  0  0  0  0  0  0  0  0  0  0  0
   -8.4792    4.8306   -0.0488 C   0  0  2  0  0  0  0  0  0  0  0  0
   -9.6109    5.5917   -0.7223 C   0  0  1  0  0  0  0  0  0  0  0  0
   -9.5013    6.9812   -0.4067 O   0  0  0  0  0  0  0  0  0  0  0  0
   -9.3729    5.2702   -2.1938 C   0  0  2  0  0  0  0  0  0  0  0  0
  -10.4661    5.4020   -3.1103 O   0  0  0  0  0  0  0  0  0  0  0  0
   -8.9310    3.8194   -2.1180 C   0  0  2  0  0  0  0  0  0  0  0  0
   -8.3366    3.6318   -0.8161 O   0  0  0  0  0  0  0  0  0  0  0  0
   -7.9305    3.5745   -3.2621 C   0  0  0  0  0  0  0  0  0  0  0  0
   -6.7649    4.4037   -3.1555 O   0  0  0  0  0  0  0  0  0  0  0  0
   -9.8132    1.5743   -2.0250 C   0  0  2  0  0  0  0  0  0  0  0  0
  -10.0926    2.9754   -2.1891 O   0  0  0  0  0  0  0  0  0  0  0  0
  -11.0505    0.8105   -2.4589 C   0  0  2  0  0  0  0  0  0  0  0  0
  -11.4873    1.3055   -3.7295 O   0  0  0  0  0  0  0  0  0  0  0  0
  -12.1737    1.0131   -1.4658 C   0  0  1  0  0  0  0  0  0  0  0  0
  -13.2243    0.0934   -1.7723 O   0  0  0  0  0  0  0  0  0  0  0  0
  -11.6807    0.7913   -0.0486 C   0  0  2  0  0  0  0  0  0  0  0  0
  -12.7126    1.1639    0.8546 O   0  0  0  0  0  0  0  0  0  0  0  0
  -10.4364    1.6138    0.2580 C   0  0  2  0  0  0  0  0  0  0  0  0
   -9.4394    1.2481   -0.6865 O   0  0  0  0  0  0  0  0  0  0  0  0
   -9.9361    1.3691    1.6866 C   0  0  0  0  0  0  0  0  0  0  0  0
  -10.8464    1.8447    2.6890 O   0  0  0  0  0  0  0  0  0  0  0  0
  1  2  1  0  0  0  0
  3  1  1  1  0  0  0
  3  9  1  0  0  0  0
  3  4  1  0  0  0  0
  4  5  1  6  0  0  0
  4  6  1  0  0  0  0
  6  7  1  6  0  0  0
  6  8  1  0  0  0  0
  8  9  1  0  0  0  0
  8 10  1  6  0  0  0
  8 13  1  0  0  0  0
 10 11  1  0  0  0  0
 12 13  1  1  0  0  0
 12 14  1  0  0  0  0
 12 21  1  0  0  0  0
 14 15  1  6  0  0  0
 14 16  1  0  0  0  0
 16 17  1  6  0  0  0
 16 18  1  0  0  0  0
 18 19  1  1  0  0  0
 18 20  1  0  0  0  0
 20 21  1  0  0  0  0
 20 22  1  1  0  0  0
 22 23  1  0  0  0  0
M  END
>  <CHROM.1>
-171.08616640,60.93492038,-166.35365253,-175.51889066,-66.40722820,-9.93417313
2.95397752,-0.91687205,-0.17943346,0.89118135,1.66930814

>  <Name>
ligand

>  <RI>
0

>  <Rbt.Current_Directory>
/home/itssahil/PROJECTS/Mol_Feturizer/New_Systems/rnas/4TS2

>  <Rbt.Executable>
rbdock ($Id: //depot/dev/client3/rdock/2013.1/src/exe/rbdock.cxx#4 $)

>  <Rbt.Library>
libRbt.so (2013.1, Build901 2013/11/27)

>  <Rbt.Parameter_File>
/export/apps/rDock/src/rDock_2013.1_src/data/scripts/dock_solv.prm

>  <Rbt.Receptor>
prm/blind_docking_40.prm

>  <SCORE>
-14.7012

>  <SCORE.INTER>
-7.83999

>  <SCORE.INTER.CONST>
1

>  <SCORE.INTER.POLAR>
0

>  <SCORE.INTER.ROT>
5

>  <SCORE.INTER.SOLV>
11.5048

>  <SCORE.INTER.VDW>
-15.9949

>  <SCORE.INTER.norm>
-0.340869

>  <SCORE.INTRA>
-6.86126

>  <SCORE.INTRA.DIHEDRAL>
-11.0654

>  <SCORE.INTRA.DIHEDRAL.0>
12.4853

>  <SCORE.INTRA.POLAR>
0

>  <SCORE.INTRA.POLAR.0>
0

>  <SCORE.INTRA.REPUL>
0

>  <SCORE.INTRA.REPUL.0>
0

>  <SCORE.INTRA.SOLV>
0.379499

>  <SCORE.INTRA.SOLV.lig_0>
-31.1706

>  <SCORE.INTRA.VDW>
-1.51831

>  <SCORE.INTRA.VDW.0>
-1.16895

>  <SCORE.INTRA.norm>
-0.298316

>  <SCORE.RESTR>
0

>  <SCORE.RESTR.CAVITY>
0

>  <SCORE.RESTR.norm>
0

>  <SCORE.SYSTEM>
0

>  <SCORE.SYSTEM.CONST>
0

>  <SCORE.SYSTEM.DIHEDRAL>
0

>  <SCORE.SYSTEM.SOLV>
0

>  <SCORE.SYSTEM.norm>
0

>  <SCORE.heavy>
23

>  <SCORE.norm>
-0.639185

>  <RMSD>
13.812

$$$$
ligand
 OpenBabel11021811513D
libRbt.so/2013.1/901 2013/11/27
 23 24  0  0  0  0  0  0  0  0999 V2000
  -13.1921    3.0580    2.4617 C   0  0  0  0  0  0  0  0  0  0  0  0
  -14.1657    3.9456    3.0447 O   0  0  0  0  0  0  0  0  0  0  0  0
  -11.8933    3.8212    2.2445 C   0  0  2  0  0  0  0  0  0  0  0  0
  -11.9770    5.0001    1.2871 C   0  0  1  0  0  0  0  0  0  0  0  0
  -12.5414    6.1235    1.9666 O   0  0  0  0  0  0  0  0  0  0  0  0
  -10.5163    5.1862    0.8903 C   0  0  2  0  0  0  0  0  0  0  0  0
  -10.2195    5.8731   -0.3312 O   0  0  0  0  0  0  0  0  0  0  0  0
  -10.0411    3.7465    0.8050 C   0  0  2  0  0  0  0  0  0  0  0  0
  -10.8738    2.9786    1.6997 O   0  0  0  0  0  0  0  0  0  0  0  0
   -8.5571    3.7185    1.2133 C   0  0  0  0  0  0  0  0  0  0  0  0
   -8.3514    4.1764    2.5570 O   0  0  0  0  0  0  0  0  0  0  0  0
   -9.7293    1.9512   -0.7784 C   0  0  2  0  0  0  0  0  0  0  0  0
  -10.2728    3.2587   -0.5274 O   0  0  0  0  0  0  0  0  0  0  0  0
   -9.9251    1.6534   -2.2533 C   0  0  2  0  0  0  0  0  0  0  0  0
   -9.4726    2.7726   -3.0234 O   0  0  0  0  0  0  0  0  0  0  0  0
  -11.3905    1.4356   -2.5599 C   0  0  1  0  0  0  0  0  0  0  0  0
  -11.5064    0.9199   -3.8881 O   0  0  0  0  0  0  0  0  0  0  0  0
  -12.0063    0.4681   -1.5672 C   0  0  2  0  0  0  0  0  0  0  0  0
  -13.4108    0.4316   -1.7803 O   0  0  0  0  0  0  0  0  0  0  0  0
  -11.7368    0.8804   -0.1262 C   0  0  2  0  0  0  0  0  0  0  0  0
  -10.3272    0.9477    0.0420 O   0  0  0  0  0  0  0  0  0  0  0  0
  -12.3481   -0.1132    0.8687 C   0  0  0  0  0  0  0  0  0  0  0  0
  -12.0418    0.2009    2.2352 O   0  0  0  0  0  0  0  0  0  0  0  0
  1  2  1  0  0  0  0
  3  1  1  6  0  0  0
  3  9  1  0  0  0  0
  3  4  1  0  0  0  0
  4  5  1  1  0  0  0
  4  6  1  0  0  0  0
  6  7  1  6  0  0  0
  6  8  1  0  0  0  0
  8  9  1  0  0  0  0
  8 10  1  1  0  0  0
  8 13  1  0  0  0  0
 10 11  1  0  0  0  0
 12 13  1  1  0  0  0
 12 14  1  0  0  0  0
 12 21  1  0  0  0  0
 14 15  1  6  0  0  0
 14 16  1  0  0  0  0
 16 17  1  6  0  0  0
 16 18  1  0  0  0  0
 18 19  1  1  0  0  0
 18 20  1  0  0  0  0
 20 21  1  0  0  0  0
 20 22  1  1  0  0  0
 22 23  1  0  0  0  0
M  END
>  <CHROM.1>
-61.99603347,61.05922567,-173.95671285,173.47110555,176.36407875,-11.16185944
2.72274555,0.20358682,1.60407218,0.72284574,0.83148385

>  <Name>
ligand

>  <RI>
0

>  <Rbt.Current_Directory>
/home/itssahil/PROJECTS/Mol_Feturizer/New_Systems/rnas/4TS2

>  <Rbt.Executable>
rbdock ($Id: //depot/dev/client3/rdock/2013.1/src/exe/rbdock.cxx#4 $)

>  <Rbt.Library>
libRbt.so (2013.1, Build901 2013/11/27)

>  <Rbt.Parameter_File>
/export/apps/rDock/src/rDock_2013.1_src/data/scripts/dock_solv.prm

>  <Rbt.Receptor>
prm/blind_docking_40.prm

>  <SCORE>
-16.1976

>  <SCORE.INTER>
-9.17825

>  <SCORE.INTER.CONST>
1

>  <SCORE.INTER.POLAR>
0

>  <SCORE.INTER.ROT>
5

>  <SCORE.INTER.SOLV>
9.73121

>  <SCORE.INTER.VDW>
-16.2959

>  <SCORE.INTER.norm>
-0.399054

>  <SCORE.INTRA>
-7.01934

>  <SCORE.INTRA.DIHEDRAL>
-11.8614

>  <SCORE.INTRA.DIHEDRAL.0>
12.4853

>  <SCORE.INTRA.POLAR>
0

>  <SCORE.INTRA.POLAR.0>
0

>  <SCORE.INTRA.REPUL>
0

>  <SCORE.INTRA.REPUL.0>
0

>  <SCORE.INTRA.SOLV>
0.589645

>  <SCORE.INTRA.SOLV.lig_0>
-31.1706

>  <SCORE.INTRA.VDW>
-1.38348

>  <SCORE.INTRA.VDW.0>
-1.16895

>  <SCORE.INTRA.norm>
-0.305189

>  <SCORE.RESTR>
0

>  <SCORE.RESTR.CAVITY>
0

>  <SCORE.RESTR.norm>
0

>  <SCORE.SYSTEM>
0

>  <SCORE.SYSTEM.CONST>
0

>  <SCORE.SYSTEM.DIHEDRAL>
0

>  <SCORE.SYSTEM.SOLV>
0

>  <SCORE.SYSTEM.norm>
0

>  <SCORE.heavy>
23

>  <SCORE.norm>
-0.704243

>  <RMSD>
13.812

$$$$
ligand
 OpenBabel11021811513D
libRbt.so/2013.1/901 2013/11/27
 23 24  0  0  0  0  0  0  0  0999 V2000
   -9.4219    2.2606   -1.4395 C   0  0  0  0  0  0  0  0  0  0  0  0
   -8.1462    2.0133   -0.8174 O   0  0  0  0  0  0  0  0  0  0  0  0
  -10.3890    1.1539   -1.0437 C   0  0  2  0  0  0  0  0  0  0  0  0
  -11.7195    1.1503   -1.7807 C   0  0  1  0  0  0  0  0  0  0  0  0
  -11.5456    0.5585   -3.0698 O   0  0  0  0  0  0  0  0  0  0  0  0
  -12.5979    0.3346   -0.8381 C   0  0  2  0  0  0  0  0  0  0  0  0
  -14.0200    0.4848   -0.9236 O   0  0  0  0  0  0  0  0  0  0  0  0
  -12.1064    0.8085    0.5182 C   0  0  2  0  0  0  0  0  0  0  0  0
  -10.7378    1.2317    0.3414 O   0  0  0  0  0  0  0  0  0  0  0  0
  -12.2354   -0.3696    1.5006 C   0  0  0  0  0  0  0  0  0  0  0  0
  -11.5797   -0.1131    2.7504 O   0  0  0  0  0  0  0  0  0  0  0  0
  -12.6119    2.4074    2.2548 C   0  0  2  0  0  0  0  0  0  0  0  0
  -12.8687    1.9622    0.9117 O   0  0  0  0  0  0  0  0  0  0  0  0
  -13.5694    3.5477    2.5462 C   0  0  2  0  0  0  0  0  0  0  0  0
  -14.8939    3.1587    2.1660 O   0  0  0  0  0  0  0  0  0  0  0  0
  -13.1929    4.7740    1.7441 C   0  0  1  0  0  0  0  0  0  0  0  0
  -13.9539    5.8844    2.2251 O   0  0  0  0  0  0  0  0  0  0  0  0
  -11.7091    5.0617    1.8722 C   0  0  2  0  0  0  0  0  0  0  0  0
  -11.3691    6.1044    0.9686 O   0  0  0  0  0  0  0  0  0  0  0  0
  -10.8610    3.8376    1.5541 C   0  0  2  0  0  0  0  0  0  0  0  0
  -11.2536    2.8028    2.4457 O   0  0  0  0  0  0  0  0  0  0  0  0
   -9.3640    4.1340    1.7035 C   0  0  0  0  0  0  0  0  0  0  0  0
   -8.5450    2.9619    1.5807 O   0  0  0  0  0  0  0  0  0  0  0  0
  1  2  1  0  0  0  0
  3  1  1  6  0  0  0
  3  9  1  0  0  0  0
  3  4  1  0  0  0  0
  4  5  1  6  0  0  0
  4  6  1  0  0  0  0
  6  7  1  6  0  0  0
  6  8  1  0  0  0  0
  8  9  1  0  0  0  0
  8 10  1  1  0  0  0
  8 13  1  0  0  0  0
 10 11  1  0  0  0  0
 12 13  1  6  0  0  0
 12 14  1  0  0  0  0
 12 21  1  0  0  0  0
 14 15  1  6  0  0  0
 14 16  1  0  0  0  0
 16 17  1  1  0  0  0
 16 18  1  0  0  0  0
 18 19  1  6  0  0  0
 18 20  1  0  0  0  0
 20 21  1  0  0  0  0
 20 22  1  1  0  0  0
 22 23  1  0  0  0  0
M  END
>  <CHROM.1>
-171.19942397,169.52291218,-175.41458092,172.65495500,172.42282073,-11.67247882
2.44405636,0.74907592,-1.20541953,0.30595462,0.57195451

>  <Name>
ligand

>  <RI>
0

>  <Rbt.Current_Directory>
/home/itssahil/PROJECTS/Mol_Feturizer/New_Systems/rnas/4TS2

>  <Rbt.Executable>
rbdock ($Id: //depot/dev/client3/rdock/2013.1/src/exe/rbdock.cxx#4 $)

>  <Rbt.Library>
libRbt.so (2013.1, Build901 2013/11/27)

>  <Rbt.Parameter_File>
/export/apps/rDock/src/rDock_2013.1_src/data/scripts/dock_solv.prm

>  <Rbt.Receptor>
prm/blind_docking_80.prm

>  <SCORE>
-14.5306

>  <SCORE.INTER>
-8.25225

>  <SCORE.INTER.CONST>
1

>  <SCORE.INTER.POLAR>
0

>  <SCORE.INTER.ROT>
5

>  <SCORE.INTER.SOLV>
12.1227

>  <SCORE.INTER.VDW>
-16.4757

>  <SCORE.INTER.norm>
-0.358794

>  <SCORE.INTRA>
-6.27832

>  <SCORE.INTRA.DIHEDRAL>
-11.1658

>  <SCORE.INTRA.DIHEDRAL.0>
12.4853

>  <SCORE.INTRA.POLAR>
0

>  <SCORE.INTRA.POLAR.0>
0

>  <SCORE.INTRA.REPUL>
0

>  <SCORE.INTRA.REPUL.0>
0

>  <SCORE.INTRA.SOLV>
1.12763

>  <SCORE.INTRA.SOLV.lig_0>
-31.1706

>  <SCORE.INTRA.VDW>
-1.25926

>  <SCORE.INTRA.VDW.0>
-1.16895

>  <SCORE.INTRA.norm>
-0.27297

>  <SCORE.RESTR>
0

>  <SCORE.RESTR.CAVITY>
0

>  <SCORE.RESTR.norm>
0

>  <SCORE.SYSTEM>
0

>  <SCORE.SYSTEM.CONST>
0

>  <SCORE.SYSTEM.DIHEDRAL>
0

>  <SCORE.SYSTEM.SOLV>
0

>  <SCORE.SYSTEM.norm>
0

>  <SCORE.heavy>
23

>  <SCORE.norm>
-0.631764

>  <RMSD>
13.813

$$$$
ligand
 OpenBabel11021811513D
libRbt.so/2013.1/901 2013/11/27
 23 24  0  0  0  0  0  0  0  0999 V2000
  -13.3442    3.3356    2.3436 C   0  0  0  0  0  0  0  0  0  0  0  0
  -13.2480    2.3783    3.4159 O   0  0  0  0  0  0  0  0  0  0  0  0
  -11.9988    4.0267    2.1741 C   0  0  2  0  0  0  0  0  0  0  0  0
  -11.9805    5.1991    1.2053 C   0  0  1  0  0  0  0  0  0  0  0  0
  -12.5113    6.3573    1.8527 O   0  0  0  0  0  0  0  0  0  0  0  0
  -10.4972    5.3036    0.8674 C   0  0  2  0  0  0  0  0  0  0  0  0
  -10.1148    5.9620   -0.3461 O   0  0  0  0  0  0  0  0  0  0  0  0
  -10.0964    3.8399    0.8124 C   0  0  2  0  0  0  0  0  0  0  0  0
  -11.0045    3.1260    1.6779 O   0  0  0  0  0  0  0  0  0  0  0  0
   -8.6338    3.7372    1.2814 C   0  0  0  0  0  0  0  0  0  0  0  0
   -7.7310    4.4351    0.4122 O   0  0  0  0  0  0  0  0  0  0  0  0
   -9.7382    2.0509   -0.7684 C   0  0  2  0  0  0  0  0  0  0  0  0
  -10.2996    3.3523   -0.5247 O   0  0  0  0  0  0  0  0  0  0  0  0
   -9.9388    1.7379   -2.2395 C   0  0  2  0  0  0  0  0  0  0  0  0
   -9.5078    2.8572   -3.0216 O   0  0  0  0  0  0  0  0  0  0  0  0
  -11.4027    1.4958   -2.5349 C   0  0  1  0  0  0  0  0  0  0  0  0
  -11.5192    0.9673   -3.8581 O   0  0  0  0  0  0  0  0  0  0  0  0
  -11.9978    0.5276   -1.5303 C   0  0  2  0  0  0  0  0  0  0  0  0
  -13.4030    0.4685   -1.7342 O   0  0  0  0  0  0  0  0  0  0  0  0
  -11.7255    0.9560   -0.0946 C   0  0  2  0  0  0  0  0  0  0  0  0
  -10.3161    1.0456    0.0641 O   0  0  0  0  0  0  0  0  0  0  0  0
  -12.3158   -0.0382    0.9124 C   0  0  0  0  0  0  0  0  0  0  0  0
  -11.9644    0.2637    2.2707 O   0  0  0  0  0  0  0  0  0  0  0  0
  1  2  1  0  0  0  0
  3  1  1  6  0  0  0
  3  9  1  0  0  0  0
  3  4  1  0  0  0  0
  4  5  1  1  0  0  0
  4  6  1  0  0  0  0
  6  7  1  6  0  0  0
  6  8  1  0  0  0  0
  8  9  1  0  0  0  0
  8 10  1  1  0  0  0
  8 13  1  0  0  0  0
 10 11  1  0  0  0  0
 12 13  1  1  0  0  0
 12 14  1  0  0  0  0
 12 21  1  0  0  0  0
 14 15  1  6  0  0  0
 14 16  1  0  0  0  0
 16 17  1  6  0  0  0
 16 18  1  0  0  0  0
 18 19  1  1  0  0  0
 18 20  1  0  0  0  0
 20 21  1  0  0  0  0
 20 22  1  1  0  0  0
 22 23  1  0  0  0  0
M  END
>  <CHROM.1>
-172.16496448,-63.22960087,-175.46436065,169.54789167,174.18775670,-11.10133230
2.75691238,0.11585207,1.56164488,0.82352718,0.80317731

>  <Name>
ligand

>  <RI>
0

>  <Rbt.Current_Directory>
/home/itssahil/PROJECTS/Mol_Feturizer/New_Systems/rnas/4TS2

>  <Rbt.Executable>
rbdock ($Id: //depot/dev/client3/rdock/2013.1/src/exe/rbdock.cxx#4 $)

>  <Rbt.Library>
libRbt.so (2013.1, Build901 2013/11/27)

>  <Rbt.Parameter_File>
/export/apps/rDock/src/rDock_2013.1_src/data/scripts/dock_solv.prm

>  <Rbt.Receptor>
prm/blind_docking_100.prm

>  <SCORE>
-15.6045

>  <SCORE.INTER>
-8.96259

>  <SCORE.INTER.CONST>
1

>  <SCORE.INTER.POLAR>
0

>  <SCORE.INTER.ROT>
5

>  <SCORE.INTER.SOLV>
9.12266

>  <SCORE.INTER.VDW>
-15.9493

>  <SCORE.INTER.norm>
-0.389678

>  <SCORE.INTRA>
-6.64189

>  <SCORE.INTRA.DIHEDRAL>
-11.2936

>  <SCORE.INTRA.DIHEDRAL.0>
12.4853

>  <SCORE.INTRA.POLAR>
0

>  <SCORE.INTRA.POLAR.0>
0

>  <SCORE.INTRA.REPUL>
0

>  <SCORE.INTRA.REPUL.0>
0

>  <SCORE.INTRA.SOLV>
0.944774

>  <SCORE.INTRA.SOLV.lig_0>
-31.1706

>  <SCORE.INTRA.VDW>
-1.46746

>  <SCORE.INTRA.VDW.0>
-1.16895

>  <SCORE.INTRA.norm>
-0.288778

>  <SCORE.RESTR>
0

>  <SCORE.RESTR.CAVITY>
0

>  <SCORE.RESTR.norm>
0

>  <SCORE.SYSTEM>
0

>  <SCORE.SYSTEM.CONST>
0

>  <SCORE.SYSTEM.DIHEDRAL>
0

>  <SCORE.SYSTEM.SOLV>
0

>  <SCORE.SYSTEM.norm>
0

>  <SCORE.heavy>
23

>  <SCORE.norm>
-0.678456

>  <RMSD>
13.816

$$$$
ligand
 OpenBabel11021811513D
libRbt.so/2013.1/901 2013/11/27
 23 24  0  0  0  0  0  0  0  0999 V2000
  -13.1216    3.0723    2.5253 C   0  0  0  0  0  0  0  0  0  0  0  0
  -14.0916    3.9583    3.1166 O   0  0  0  0  0  0  0  0  0  0  0  0
  -11.8335    3.8436    2.2753 C   0  0  2  0  0  0  0  0  0  0  0  0
  -11.9462    5.0145    1.3111 C   0  0  1  0  0  0  0  0  0  0  0  0
  -12.5051    6.1387    1.9937 O   0  0  0  0  0  0  0  0  0  0  0  0
  -10.4957    5.2086    0.8825 C   0  0  2  0  0  0  0  0  0  0  0  0
  -10.2296    5.8883   -0.3501 O   0  0  0  0  0  0  0  0  0  0  0  0
  -10.0112    3.7719    0.7981 C   0  0  2  0  0  0  0  0  0  0  0  0
  -10.8191    3.0046    1.7157 O   0  0  0  0  0  0  0  0  0  0  0  0
   -8.5189    3.7582    1.1755 C   0  0  0  0  0  0  0  0  0  0  0  0
   -8.2935    4.1797    2.5280 O   0  0  0  0  0  0  0  0  0  0  0  0
   -9.7187    1.9668   -0.7779 C   0  0  2  0  0  0  0  0  0  0  0  0
  -10.2668    3.2722   -0.5255 O   0  0  0  0  0  0  0  0  0  0  0  0
   -9.9334    1.6607   -2.2485 C   0  0  2  0  0  0  0  0  0  0  0  0
   -9.4987    2.7789   -3.0301 O   0  0  0  0  0  0  0  0  0  0  0  0
  -11.4016    1.4324   -2.5334 C   0  0  1  0  0  0  0  0  0  0  0  0
  -11.5329    0.9095   -3.8574 O   0  0  0  0  0  0  0  0  0  0  0  0
  -11.9973    0.4659   -1.5275 C   0  0  2  0  0  0  0  0  0  0  0  0
  -13.4045    0.4197   -1.7207 O   0  0  0  0  0  0  0  0  0  0  0  0
  -11.7102    0.8869   -0.0925 C   0  0  2  0  0  0  0  0  0  0  0  0
  -10.2988    0.9636    0.0556 O   0  0  0  0  0  0  0  0  0  0  0  0
  -12.3013   -0.1056    0.9157 C   0  0  0  0  0  0  0  0  0  0  0  0
  -11.9671    0.2096    2.2753 O   0  0  0  0  0  0  0  0  0  0  0  0
  1  2  1  0  0  0  0
  3  1  1  6  0  0  0
  3  9  1  0  0  0  0
  3  4  1  0  0  0  0
  4  5  1  1  0  0  0
  4  6  1  0  0  0  0
  6  7  1  6  0  0  0
  6  8  1  0  0  0  0
  8  9  1  0  0  0  0
  8 10  1  1  0  0  0
  8 13  1  0  0  0  0
 10 11  1  0  0  0  0
 12 13  1  1  0  0  0
 12 14  1  0  0  0  0
 12 21  1  0  0  0  0
 14 15  1  6  0  0  0
 14 16  1  0  0  0  0
 16 17  1  6  0  0  0
 16 18  1  0  0  0  0
 18 19  1  1  0  0  0
 18 20  1  0  0  0  0
 20 21  1  0  0  0  0
 20 22  1  1  0  0  0
 22 23  1  0  0  0  0
M  END
>  <CHROM.1>
-61.75735222,63.27843572,-173.53167812,173.48151862,175.79951451,-11.13569170
2.73400172,0.22218671,1.59399586,0.74072882,0.83465944

>  <Name>
ligand

>  <RI>
0

>  <Rbt.Current_Directory>
/home/itssahil/PROJECTS/Mol_Feturizer/New_Systems/rnas/4TS2

>  <Rbt.Executable>
rbdock ($Id: //depot/dev/client3/rdock/2013.1/src/exe/rbdock.cxx#4 $)

>  <Rbt.Library>
libRbt.so (2013.1, Build901 2013/11/27)

>  <Rbt.Parameter_File>
/export/apps/rDock/src/rDock_2013.1_src/data/scripts/dock_solv.prm

>  <Rbt.Receptor>
prm/blind_docking_100.prm

>  <SCORE>
-16.1634

>  <SCORE.INTER>
-9.14412

>  <SCORE.INTER.CONST>
1

>  <SCORE.INTER.POLAR>
0

>  <SCORE.INTER.ROT>
5

>  <SCORE.INTER.SOLV>
9.54274

>  <SCORE.INTER.VDW>
-16.2103

>  <SCORE.INTER.norm>
-0.397571

>  <SCORE.INTRA>
-7.01929

>  <SCORE.INTRA.DIHEDRAL>
-11.7754

>  <SCORE.INTRA.DIHEDRAL.0>
12.4853

>  <SCORE.INTRA.POLAR>
0

>  <SCORE.INTRA.POLAR.0>
0

>  <SCORE.INTRA.REPUL>
0

>  <SCORE.INTRA.REPUL.0>
0

>  <SCORE.INTRA.SOLV>
0.577361

>  <SCORE.INTRA.SOLV.lig_0>
-31.1706

>  <SCORE.INTRA.VDW>
-1.42026

>  <SCORE.INTRA.VDW.0>
-1.16895

>  <SCORE.INTRA.norm>
-0.305186

>  <SCORE.RESTR>
0

>  <SCORE.RESTR.CAVITY>
0

>  <SCORE.RESTR.norm>
0

>  <SCORE.SYSTEM>
0

>  <SCORE.SYSTEM.CONST>
0

>  <SCORE.SYSTEM.DIHEDRAL>
0

>  <SCORE.SYSTEM.SOLV>
0

>  <SCORE.SYSTEM.norm>
0

>  <SCORE.heavy>
23

>  <SCORE.norm>
-0.702757

>  <RMSD>
13.816

$$$$
ligand
 OpenBabel11021811513D
libRbt.so/2013.1/901 2013/11/27
 23 24  0  0  0  0  0  0  0  0999 V2000
   -8.5675    4.5907    1.3361 C   0  0  0  0  0  0  0  0  0  0  0  0
   -7.3509    4.0118    1.8461 O   0  0  0  0  0  0  0  0  0  0  0  0
   -8.3986    4.8690   -0.1506 C   0  0  2  0  0  0  0  0  0  0  0  0
   -9.5471    5.6140   -0.8136 C   0  0  1  0  0  0  0  0  0  0  0  0
   -9.4369    7.0091   -0.5242 O   0  0  0  0  0  0  0  0  0  0  0  0
   -9.3380    5.2681   -2.2840 C   0  0  2  0  0  0  0  0  0  0  0  0
  -10.4503    5.3798   -3.1799 O   0  0  0  0  0  0  0  0  0  0  0  0
   -8.8884    3.8206   -2.1925 C   0  0  2  0  0  0  0  0  0  0  0  0
   -8.2667    3.6578   -0.9001 O   0  0  0  0  0  0  0  0  0  0  0  0
   -7.9107    3.5599   -3.3525 C   0  0  0  0  0  0  0  0  0  0  0  0
   -6.7623    4.4180   -3.3024 O   0  0  0  0  0  0  0  0  0  0  0  0
   -9.7595    1.5745   -2.0382 C   0  0  2  0  0  0  0  0  0  0  0  0
  -10.0477    2.9709   -2.2251 O   0  0  0  0  0  0  0  0  0  0  0  0
  -10.9878    0.7954   -2.4705 C   0  0  2  0  0  0  0  0  0  0  0  0
  -11.4181    1.2684   -3.7516 O   0  0  0  0  0  0  0  0  0  0  0  0
  -12.1202    1.0043   -1.4892 C   0  0  1  0  0  0  0  0  0  0  0  0
  -13.1617    0.0725   -1.7903 O   0  0  0  0  0  0  0  0  0  0  0  0
  -11.6368    0.8069   -0.0651 C   0  0  2  0  0  0  0  0  0  0  0  0
  -12.6785    1.1851    0.8244 O   0  0  0  0  0  0  0  0  0  0  0  0
  -10.4009    1.6429    0.2391 C   0  0  2  0  0  0  0  0  0  0  0  0
   -9.3940    1.2706   -0.6922 O   0  0  0  0  0  0  0  0  0  0  0  0
   -9.9102    1.4228    1.6749 C   0  0  0  0  0  0  0  0  0  0  0  0
  -10.8425    1.8845    2.6635 O   0  0  0  0  0  0  0  0  0  0  0  0
  1  2  1  0  0  0  0
  3  1  1  1  0  0  0
  3  9  1  0  0  0  0
  3  4  1  0  0  0  0
  4  5  1  6  0  0  0
  4  6  1  0  0  0  0
  6  7  1  6  0  0  0
  6  8  1  0  0  0  0
  8  9  1  0  0  0  0
  8 10  1  6  0  0  0
  8 13  1  0  0  0  0
 10 11  1  0  0  0  0
 12 13  1  1  0  0  0
 12 14  1  0  0  0  0
 12 21  1  0  0  0  0
 14 15  1  6  0  0  0
 14 16  1  0  0  0  0
 16 17  1  6  0  0  0
 16 18  1  0  0  0  0
 18 19  1  1  0  0  0
 18 20  1  0  0  0  0
 20 21  1  0  0  0  0
 20 22  1  1  0  0  0
 22 23  1  0  0  0  0
M  END
>  <CHROM.1>
-174.00773661,59.50827473,-164.80244427,-175.31762488,-65.35228312,-9.88463097
2.96526710,-0.97456209,-0.19630685,0.89137229,1.65970268

>  <Name>
ligand

>  <RI>
0

>  <Rbt.Current_Directory>
/home/itssahil/PROJECTS/Mol_Feturizer/New_Systems/rnas/4TS2

>  <Rbt.Executable>
rbdock ($Id: //depot/dev/client3/rdock/2013.1/src/exe/rbdock.cxx#4 $)

>  <Rbt.Library>
libRbt.so (2013.1, Build901 2013/11/27)

>  <Rbt.Parameter_File>
/export/apps/rDock/src/rDock_2013.1_src/data/scripts/dock_solv.prm

>  <Rbt.Receptor>
prm/blind_docking_20.prm

>  <SCORE>
-14.8598

>  <SCORE.INTER>
-7.95522

>  <SCORE.INTER.CONST>
1

>  <SCORE.INTER.POLAR>
0

>  <SCORE.INTER.ROT>
5

>  <SCORE.INTER.SOLV>
11.607

>  <SCORE.INTER.VDW>
-16.1058

>  <SCORE.INTER.norm>
-0.345879

>  <SCORE.INTRA>
-6.90456

>  <SCORE.INTRA.DIHEDRAL>
-11.0702

>  <SCORE.INTRA.DIHEDRAL.0>
12.4853

>  <SCORE.INTRA.POLAR>
0

>  <SCORE.INTRA.POLAR.0>
0

>  <SCORE.INTRA.REPUL>
0

>  <SCORE.INTRA.REPUL.0>
0

>  <SCORE.INTRA.SOLV>
0.343274

>  <SCORE.INTRA.SOLV.lig_0>
-31.1706

>  <SCORE.INTRA.VDW>
-1.54112

>  <SCORE.INTRA.VDW.0>
-1.16895

>  <SCORE.INTRA.norm>
-0.300198

>  <SCORE.RESTR>
0

>  <SCORE.RESTR.CAVITY>
0

>  <SCORE.RESTR.norm>
0

>  <SCORE.SYSTEM>
0

>  <SCORE.SYSTEM.CONST>
0

>  <SCORE.SYSTEM.DIHEDRAL>
0

>  <SCORE.SYSTEM.SOLV>
0

>  <SCORE.SYSTEM.norm>
0

>  <SCORE.heavy>
23

>  <SCORE.norm>
-0.646078

>  <RMSD>
13.816

$$$$
ligand
 OpenBabel11021811513D
libRbt.so/2013.1/901 2013/11/27
 23 24  0  0  0  0  0  0  0  0999 V2000
   -9.4745    2.5315   -1.8361 C   0  0  0  0  0  0  0  0  0  0  0  0
  -10.1962    3.7524   -1.5826 O   0  0  0  0  0  0  0  0  0  0  0  0
  -10.3222    1.3516   -1.3825 C   0  0  2  0  0  0  0  0  0  0  0  0
  -11.7196    1.2796   -1.9788 C   0  0  1  0  0  0  0  0  0  0  0  0
  -11.6443    0.7378   -3.2990 O   0  0  0  0  0  0  0  0  0  0  0  0
  -12.4406    0.3802   -0.9804 C   0  0  2  0  0  0  0  0  0  0  0  0
  -13.8705    0.4370   -0.9142 O   0  0  0  0  0  0  0  0  0  0  0  0
  -11.8410    0.8472    0.3342 C   0  0  2  0  0  0  0  0  0  0  0  0
  -10.5282    1.3663    0.0329 O   0  0  0  0  0  0  0  0  0  0  0  0
  -11.7909   -0.3644    1.2824 C   0  0  0  0  0  0  0  0  0  0  0  0
  -13.0805   -0.9632    1.4724 O   0  0  0  0  0  0  0  0  0  0  0  0
  -12.2778    2.3434    2.1776 C   0  0  2  0  0  0  0  0  0  0  0  0
  -12.6300    1.9354    0.8444 O   0  0  0  0  0  0  0  0  0  0  0  0
  -13.1923    3.4932    2.5572 C   0  0  2  0  0  0  0  0  0  0  0  0
  -14.5460    3.1369    2.2557 O   0  0  0  0  0  0  0  0  0  0  0  0
  -12.8453    4.7316    1.7604 C   0  0  1  0  0  0  0  0  0  0  0  0
  -13.5520    5.8434    2.3155 O   0  0  0  0  0  0  0  0  0  0  0  0
  -11.3511    4.9898    1.7976 C   0  0  2  0  0  0  0  0  0  0  0  0
  -11.0507    6.0479    0.8978 O   0  0  0  0  0  0  0  0  0  0  0  0
  -10.5491    3.7590    1.3966 C   0  0  2  0  0  0  0  0  0  0  0  0
  -10.9027    2.7101    2.2880 O   0  0  0  0  0  0  0  0  0  0  0  0
   -9.0402    4.0252    1.4544 C   0  0  0  0  0  0  0  0  0  0  0  0
   -8.5801    4.3625    2.7713 O   0  0  0  0  0  0  0  0  0  0  0  0
  1  2  1  0  0  0  0
  3  1  1  6  0  0  0
  3  9  1  0  0  0  0
  3  4  1  0  0  0  0
  4  5  1  6  0  0  0
  4  6  1  0  0  0  0
  6  7  1  1  0  0  0
  6  8  1  0  0  0  0
  8  9  1  0  0  0  0
  8 10  1  1  0  0  0
  8 13  1  0  0  0  0
 10 11  1  0  0  0  0
 12 13  1  6  0  0  0
 12 14  1  0  0  0  0
 12 21  1  0  0  0  0
 14 15  1  6  0  0  0
 14 16  1  0  0  0  0
 16 17  1  1  0  0  0
 16 18  1  0  0  0  0
 18 19  1  6  0  0  0
 18 20  1  0  0  0  0
 20 21  1  0  0  0  0
 20 22  1  1  0  0  0
 22 23  1  0  0  0  0
M  END
>  <CHROM.1>
54.80618419,-56.62818517,179.74709264,171.65902212,61.63574467,-11.63667315
2.56577348,0.59712932,-1.69565683,0.60278132,0.69674663

>  <Name>
ligand

>  <RI>
0

>  <Rbt.Current_Directory>
/home/itssahil/PROJECTS/Mol_Feturizer/New_Systems/rnas/4TS2

>  <Rbt.Executable>
rbdock ($Id: //depot/dev/client3/rdock/2013.1/src/exe/rbdock.cxx#4 $)

>  <Rbt.Library>
libRbt.so (2013.1, Build901 2013/11/27)

>  <Rbt.Parameter_File>
/export/apps/rDock/src/rDock_2013.1_src/data/scripts/dock_solv.prm

>  <Rbt.Receptor>
prm/blind_docking_60.prm

>  <SCORE>
-15.3292

>  <SCORE.INTER>
-8.94108

>  <SCORE.INTER.CONST>
1

>  <SCORE.INTER.POLAR>
0

>  <SCORE.INTER.ROT>
5

>  <SCORE.INTER.SOLV>
11.3883

>  <SCORE.INTER.VDW>
-16.6902

>  <SCORE.INTER.norm>
-0.388743

>  <SCORE.INTRA>
-6.38813

>  <SCORE.INTRA.DIHEDRAL>
-11.7905

>  <SCORE.INTRA.DIHEDRAL.0>
12.4853

>  <SCORE.INTRA.POLAR>
0

>  <SCORE.INTRA.POLAR.0>
0

>  <SCORE.INTRA.REPUL>
0

>  <SCORE.INTRA.REPUL.0>
0

>  <SCORE.INTRA.SOLV>
1.32693

>  <SCORE.INTRA.SOLV.lig_0>
-31.1706

>  <SCORE.INTRA.VDW>
-1.15634

>  <SCORE.INTRA.VDW.0>
-1.16895

>  <SCORE.INTRA.norm>
-0.277745

>  <SCORE.RESTR>
0

>  <SCORE.RESTR.CAVITY>
0

>  <SCORE.RESTR.norm>
0

>  <SCORE.SYSTEM>
0

>  <SCORE.SYSTEM.CONST>
0

>  <SCORE.SYSTEM.DIHEDRAL>
0

>  <SCORE.SYSTEM.SOLV>
0

>  <SCORE.SYSTEM.norm>
0

>  <SCORE.heavy>
23

>  <SCORE.norm>
-0.666488

>  <RMSD>
13.818

$$$$
ligand
 OpenBabel11021811513D
libRbt.so/2013.1/901 2013/11/27
 23 24  0  0  0  0  0  0  0  0999 V2000
  -10.0762    0.8968   -2.8717 C   0  0  0  0  0  0  0  0  0  0  0  0
  -10.8637    0.2969   -3.9183 O   0  0  0  0  0  0  0  0  0  0  0  0
  -10.6779    0.5252   -1.5240 C   0  0  2  0  0  0  0  0  0  0  0  0
  -12.1290    0.9321   -1.3183 C   0  0  1  0  0  0  0  0  0  0  0  0
  -12.9823   -0.0071   -1.9756 O   0  0  0  0  0  0  0  0  0  0  0  0
  -12.2465    0.9172    0.2020 C   0  0  2  0  0  0  0  0  0  0  0  0
  -13.2929    1.6784    0.8167 O   0  0  0  0  0  0  0  0  0  0  0  0
  -10.8928    1.4678    0.6146 C   0  0  2  0  0  0  0  0  0  0  0  0
   -9.9687    1.1401   -0.4446 O   0  0  0  0  0  0  0  0  0  0  0  0
  -10.5092    0.8122    1.9535 C   0  0  0  0  0  0  0  0  0  0  0  0
  -11.4277    1.1399    3.0054 O   0  0  0  0  0  0  0  0  0  0  0  0
   -9.7307    3.5488    0.9978 C   0  0  2  0  0  0  0  0  0  0  0  0
  -10.9767    2.9012    0.6877 O   0  0  0  0  0  0  0  0  0  0  0  0
  -10.0217    5.0257    1.1889 C   0  0  2  0  0  0  0  0  0  0  0  0
  -11.1403    5.1746    2.0702 O   0  0  0  0  0  0  0  0  0  0  0  0
  -10.3771    5.6711   -0.1325 C   0  0  1  0  0  0  0  0  0  0  0  0
  -10.4002    7.0894    0.0447 O   0  0  0  0  0  0  0  0  0  0  0  0
   -9.3683    5.2933   -1.2004 C   0  0  2  0  0  0  0  0  0  0  0  0
   -9.8353    5.7701   -2.4550 O   0  0  0  0  0  0  0  0  0  0  0  0
   -9.1685    3.7863   -1.2890 C   0  0  2  0  0  0  0  0  0  0  0  0
   -8.7425    3.3362   -0.0101 O   0  0  0  0  0  0  0  0  0  0  0  0
   -8.1343    3.4162   -2.3589 C   0  0  0  0  0  0  0  0  0  0  0  0
   -8.5341    3.8007   -3.6825 O   0  0  0  0  0  0  0  0  0  0  0  0
  1  2  1  0  0  0  0
  3  1  1  6  0  0  0
  3  9  1  0  0  0  0
  3  4  1  0  0  0  0
  4  5  1  6  0  0  0
  4  6  1  0  0  0  0
  6  7  1  6  0  0  0
  6  8  1  0  0  0  0
  8  9  1  0  0  0  0
  8 10  1  1  0  0  0
  8 13  1  0  0  0  0
 10 11  1  0  0  0  0
 12 13  1  6  0  0  0
 12 14  1  0  0  0  0
 12 21  1  0  0  0  0
 14 15  1  1  0  0  0
 14 16  1  0  0  0  0
 16 17  1  1  0  0  0
 16 18  1  0  0  0  0
 18 19  1  6  0  0  0
 18 20  1  0  0  0  0
 20 21  1  0  0  0  0
 20 22  1  6  0  0  0
 22 23  1  0  0  0  0
M  END
>  <CHROM.1>
-57.97133276,-62.65738424,-173.81280607,-176.67555380,-62.75014876,-10.51406261
2.81599107,-0.51581811,-2.45280920,1.06721283,0.85946200

>  <Name>
ligand

>  <RI>
0

>  <Rbt.Current_Directory>
/home/itssahil/PROJECTS/Mol_Feturizer/New_Systems/rnas/4TS2

>  <Rbt.Executable>
rbdock ($Id: //depot/dev/client3/rdock/2013.1/src/exe/rbdock.cxx#4 $)

>  <Rbt.Library>
libRbt.so (2013.1, Build901 2013/11/27)

>  <Rbt.Parameter_File>
/export/apps/rDock/src/rDock_2013.1_src/data/scripts/dock_solv.prm

>  <Rbt.Receptor>
prm/blind_docking_80.prm

>  <SCORE>
-11.4712

>  <SCORE.INTER>
-4.83213

>  <SCORE.INTER.CONST>
1

>  <SCORE.INTER.POLAR>
0

>  <SCORE.INTER.ROT>
5

>  <SCORE.INTER.SOLV>
10.3861

>  <SCORE.INTER.VDW>
-13.6168

>  <SCORE.INTER.norm>
-0.210093

>  <SCORE.INTRA>
-6.63905

>  <SCORE.INTRA.DIHEDRAL>
-12.1712

>  <SCORE.INTRA.DIHEDRAL.0>
12.4853

>  <SCORE.INTRA.POLAR>
0

>  <SCORE.INTRA.POLAR.0>
0

>  <SCORE.INTRA.REPUL>
0

>  <SCORE.INTRA.REPUL.0>
0

>  <SCORE.INTRA.SOLV>
0.805631

>  <SCORE.INTRA.SOLV.lig_0>
-31.1706

>  <SCORE.INTRA.VDW>
-0.956252

>  <SCORE.INTRA.VDW.0>
-1.16895

>  <SCORE.INTRA.norm>
-0.288654

>  <SCORE.RESTR>
0

>  <SCORE.RESTR.CAVITY>
0

>  <SCORE.RESTR.norm>
0

>  <SCORE.SYSTEM>
0

>  <SCORE.SYSTEM.CONST>
0

>  <SCORE.SYSTEM.DIHEDRAL>
0

>  <SCORE.SYSTEM.SOLV>
0

>  <SCORE.SYSTEM.norm>
0

>  <SCORE.heavy>
23

>  <SCORE.norm>
-0.498747

>  <RMSD>
13.818

$$$$
ligand
 OpenBabel11021811513D
libRbt.so/2013.1/901 2013/11/27
 23 24  0  0  0  0  0  0  0  0999 V2000
  -12.5464    3.6376    2.3089 C   0  0  0  0  0  0  0  0  0  0  0  0
  -12.1837    2.7452    3.3802 O   0  0  0  0  0  0  0  0  0  0  0  0
  -11.3044    4.3847    1.8444 C   0  0  2  0  0  0  0  0  0  0  0  0
  -11.5289    5.4116    0.7451 C   0  0  1  0  0  0  0  0  0  0  0  0
  -12.0553    6.6108    1.3170 O   0  0  0  0  0  0  0  0  0  0  0  0
  -10.1259    5.5648    0.1677 C   0  0  2  0  0  0  0  0  0  0  0  0
   -9.9839    6.0737   -1.1639 O   0  0  0  0  0  0  0  0  0  0  0  0
   -9.6144    4.1366    0.2349 C   0  0  2  0  0  0  0  0  0  0  0  0
  -10.3209    3.4909    1.3153 O   0  0  0  0  0  0  0  0  0  0  0  0
   -8.0953    4.1944    0.4772 C   0  0  0  0  0  0  0  0  0  0  0  0
   -7.5346    2.9008    0.7418 O   0  0  0  0  0  0  0  0  0  0  0  0
   -9.5388    2.0870   -1.0384 C   0  0  2  0  0  0  0  0  0  0  0  0
   -9.9699    3.4578   -0.9815 O   0  0  0  0  0  0  0  0  0  0  0  0
   -9.7850    1.5918   -2.4514 C   0  0  2  0  0  0  0  0  0  0  0  0
   -9.2574    2.5434   -3.3821 O   0  0  0  0  0  0  0  0  0  0  0  0
  -11.2686    1.4531   -2.7134 C   0  0  1  0  0  0  0  0  0  0  0  0
  -11.4500    0.7581   -3.9493 O   0  0  0  0  0  0  0  0  0  0  0  0
  -11.9425    0.6974   -1.5840 C   0  0  2  0  0  0  0  0  0  0  0  0
  -13.3490    0.7462   -1.7809 O   0  0  0  0  0  0  0  0  0  0  0  0
  -11.6143    1.2945   -0.2221 C   0  0  2  0  0  0  0  0  0  0  0  0
  -10.2010    1.2689   -0.0742 O   0  0  0  0  0  0  0  0  0  0  0  0
  -12.2859    0.5129    0.9133 C   0  0  0  0  0  0  0  0  0  0  0  0
  -11.8891   -0.8656    0.9568 O   0  0  0  0  0  0  0  0  0  0  0  0
  1  2  1  0  0  0  0
  3  1  1  6  0  0  0
  3  9  1  0  0  0  0
  3  4  1  0  0  0  0
  4  5  1  1  0  0  0
  4  6  1  0  0  0  0
  6  7  1  6  0  0  0
  6  8  1  0  0  0  0
  8  9  1  0  0  0  0
  8 10  1  1  0  0  0
  8 13  1  0  0  0  0
 10 11  1  0  0  0  0
 12 13  1  6  0  0  0
 12 14  1  0  0  0  0
 12 21  1  0  0  0  0
 14 15  1  6  0  0  0
 14 16  1  0  0  0  0
 16 17  1  6  0  0  0
 16 18  1  0  0  0  0
 18 19  1  6  0  0  0
 18 20  1  0  0  0  0
 20 21  1  0  0  0  0
 20 22  1  1  0  0  0
 22 23  1  0  0  0  0
M  END
>  <CHROM.1>
-177.78707378,171.94531893,-170.91163798,-179.94212396,59.54449277,-10.77816020
2.79780684,-0.21421280,1.37493617,0.89493249,0.79461321

>  <Name>
ligand

>  <RI>
0

>  <Rbt.Current_Directory>
/home/itssahil/PROJECTS/Mol_Feturizer/New_Systems/rnas/4TS2

>  <Rbt.Executable>
rbdock ($Id: //depot/dev/client3/rdock/2013.1/src/exe/rbdock.cxx#4 $)

>  <Rbt.Library>
libRbt.so (2013.1, Build901 2013/11/27)

>  <Rbt.Parameter_File>
/export/apps/rDock/src/rDock_2013.1_src/data/scripts/dock_solv.prm

>  <Rbt.Receptor>
prm/blind_docking_80.prm

>  <SCORE>
-13.5037

>  <SCORE.INTER>
-6.39808

>  <SCORE.INTER.CONST>
1

>  <SCORE.INTER.POLAR>
0

>  <SCORE.INTER.ROT>
5

>  <SCORE.INTER.SOLV>
10.5613

>  <SCORE.INTER.VDW>
-14.7192

>  <SCORE.INTER.norm>
-0.278178

>  <SCORE.INTRA>
-7.10565

>  <SCORE.INTRA.DIHEDRAL>
-11.8317

>  <SCORE.INTRA.DIHEDRAL.0>
12.4853

>  <SCORE.INTRA.POLAR>
0

>  <SCORE.INTRA.POLAR.0>
0

>  <SCORE.INTRA.REPUL>
0

>  <SCORE.INTRA.REPUL.0>
0

>  <SCORE.INTRA.SOLV>
0.477491

>  <SCORE.INTRA.SOLV.lig_0>
-31.1706

>  <SCORE.INTRA.VDW>
-1.42855

>  <SCORE.INTRA.VDW.0>
-1.16895

>  <SCORE.INTRA.norm>
-0.308941

>  <SCORE.RESTR>
0

>  <SCORE.RESTR.CAVITY>
0

>  <SCORE.RESTR.norm>
0

>  <SCORE.SYSTEM>
0

>  <SCORE.SYSTEM.CONST>
0

>  <SCORE.SYSTEM.DIHEDRAL>
0

>  <SCORE.SYSTEM.SOLV>
0

>  <SCORE.SYSTEM.norm>
0

>  <SCORE.heavy>
23

>  <SCORE.norm>
-0.587119

>  <RMSD>
13.820

$$$$
ligand
 OpenBabel11021811513D
libRbt.so/2013.1/901 2013/11/27
 23 24  0  0  0  0  0  0  0  0999 V2000
   -9.7076    4.7626    1.6848 C   0  0  0  0  0  0  0  0  0  0  0  0
   -9.9144    6.0636    2.2679 O   0  0  0  0  0  0  0  0  0  0  0  0
   -9.1164    4.9318    0.2926 C   0  0  2  0  0  0  0  0  0  0  0  0
  -10.0094    5.6340   -0.7188 C   0  0  1  0  0  0  0  0  0  0  0  0
   -9.9493    7.0456   -0.5048 O   0  0  0  0  0  0  0  0  0  0  0  0
   -9.4009    5.1816   -2.0419 C   0  0  2  0  0  0  0  0  0  0  0  0
  -10.2098    5.2351   -3.2229 O   0  0  0  0  0  0  0  0  0  0  0  0
   -9.0340    3.7418   -1.7286 C   0  0  2  0  0  0  0  0  0  0  0  0
   -8.8091    3.6689   -0.3047 O   0  0  0  0  0  0  0  0  0  0  0  0
   -7.7745    3.3922   -2.5415 C   0  0  0  0  0  0  0  0  0  0  0  0
   -8.0123    3.4184   -3.9559 O   0  0  0  0  0  0  0  0  0  0  0  0
   -9.8988    1.4929   -1.8787 C   0  0  2  0  0  0  0  0  0  0  0  0
  -10.1583    2.8989   -2.0328 O   0  0  0  0  0  0  0  0  0  0  0  0
  -11.1137    0.7471   -2.3985 C   0  0  2  0  0  0  0  0  0  0  0  0
  -11.4717    1.2686   -3.6831 O   0  0  0  0  0  0  0  0  0  0  0  0
  -12.2918    0.9406   -1.4693 C   0  0  1  0  0  0  0  0  0  0  0  0
  -13.3290    0.0351   -1.8539 O   0  0  0  0  0  0  0  0  0  0  0  0
  -11.8844    0.6891   -0.0300 C   0  0  2  0  0  0  0  0  0  0  0  0
  -12.9650    1.0535    0.8179 O   0  0  0  0  0  0  0  0  0  0  0  0
  -10.6546    1.4959    0.3642 C   0  0  2  0  0  0  0  0  0  0  0  0
   -9.6065    1.1394   -0.5270 O   0  0  0  0  0  0  0  0  0  0  0  0
  -10.2408    1.2212    1.8148 C   0  0  0  0  0  0  0  0  0  0  0  0
   -9.0474    1.9193    2.1996 O   0  0  0  0  0  0  0  0  0  0  0  0
  1  2  1  0  0  0  0
  3  1  1  1  0  0  0
  3  9  1  0  0  0  0
  3  4  1  0  0  0  0
  4  5  1  1  0  0  0
  4  6  1  0  0  0  0
  6  7  1  6  0  0  0
  6  8  1  0  0  0  0
  8  9  1  0  0  0  0
  8 10  1  6  0  0  0
  8 13  1  0  0  0  0
 10 11  1  0  0  0  0
 12 13  1  1  0  0  0
 12 14  1  0  0  0  0
 12 21  1  0  0  0  0
 14 15  1  6  0  0  0
 14 16  1  0  0  0  0
 16 17  1  6  0  0  0
 16 18  1  0  0  0  0
 18 19  1  1  0  0  0
 18 20  1  0  0  0  0
 20 21  1  0  0  0  0
 20 22  1  1  0  0  0
 22 23  1  0  0  0  0
M  END
>  <CHROM.1>
-64.10097066,-64.68807595,-173.09891635,175.27068826,177.28060301,-10.20617655
2.96572407,-0.84582944,0.32727940,1.06365264,1.35589423

>  <Name>
ligand

>  <RI>
0

>  <Rbt.Current_Directory>
/home/itssahil/PROJECTS/Mol_Feturizer/New_Systems/rnas/4TS2

>  <Rbt.Executable>
rbdock ($Id: //depot/dev/client3/rdock/2013.1/src/exe/rbdock.cxx#4 $)

>  <Rbt.Library>
libRbt.so (2013.1, Build901 2013/11/27)

>  <Rbt.Parameter_File>
/export/apps/rDock/src/rDock_2013.1_src/data/scripts/dock_solv.prm

>  <Rbt.Receptor>
prm/blind_docking_40.prm

>  <SCORE>
-13.7256

>  <SCORE.INTER>
-6.70501

>  <SCORE.INTER.CONST>
1

>  <SCORE.INTER.POLAR>
0

>  <SCORE.INTER.ROT>
5

>  <SCORE.INTER.SOLV>
12.0106

>  <SCORE.INTER.VDW>
-15.4069

>  <SCORE.INTER.norm>
-0.291522

>  <SCORE.INTRA>
-7.02055

>  <SCORE.INTRA.DIHEDRAL>
-11.8734

>  <SCORE.INTRA.DIHEDRAL.0>
12.4853

>  <SCORE.INTRA.POLAR>
0

>  <SCORE.INTRA.POLAR.0>
0

>  <SCORE.INTRA.REPUL>
0

>  <SCORE.INTRA.REPUL.0>
0

>  <SCORE.INTRA.SOLV>
0.788206

>  <SCORE.INTRA.SOLV.lig_0>
-31.1706

>  <SCORE.INTRA.VDW>
-1.47797

>  <SCORE.INTRA.VDW.0>
-1.16895

>  <SCORE.INTRA.norm>
-0.305241

>  <SCORE.RESTR>
0

>  <SCORE.RESTR.CAVITY>
0

>  <SCORE.RESTR.norm>
0

>  <SCORE.SYSTEM>
0

>  <SCORE.SYSTEM.CONST>
0

>  <SCORE.SYSTEM.DIHEDRAL>
0

>  <SCORE.SYSTEM.SOLV>
0

>  <SCORE.SYSTEM.norm>
0

>  <SCORE.heavy>
23

>  <SCORE.norm>
-0.596764

>  <RMSD>
13.822

$$$$
ligand
 OpenBabel11021811513D
libRbt.so/2013.1/901 2013/11/27
 23 24  0  0  0  0  0  0  0  0999 V2000
   -9.5023    2.5518   -1.8378 C   0  0  0  0  0  0  0  0  0  0  0  0
  -10.2276    3.7672   -1.5687 O   0  0  0  0  0  0  0  0  0  0  0  0
  -10.3367    1.3648   -1.3782 C   0  0  2  0  0  0  0  0  0  0  0  0
  -11.7355    1.2777   -1.9692 C   0  0  1  0  0  0  0  0  0  0  0  0
  -11.6597    0.7334   -3.2884 O   0  0  0  0  0  0  0  0  0  0  0  0
  -12.4440    0.3737   -0.9660 C   0  0  2  0  0  0  0  0  0  0  0  0
  -13.8742    0.4167   -0.8946 O   0  0  0  0  0  0  0  0  0  0  0  0
  -11.8442    0.8498    0.3453 C   0  0  2  0  0  0  0  0  0  0  0  0
  -10.5377    1.3809    0.0379 O   0  0  0  0  0  0  0  0  0  0  0  0
  -11.7789   -0.3590    1.2962 C   0  0  0  0  0  0  0  0  0  0  0  0
  -13.0627   -0.9666    1.4966 O   0  0  0  0  0  0  0  0  0  0  0  0
  -12.2981    2.3369    2.1919 C   0  0  2  0  0  0  0  0  0  0  0  0
  -12.6420    1.9314    0.8557 O   0  0  0  0  0  0  0  0  0  0  0  0
  -13.2182    3.4828    2.5698 C   0  0  2  0  0  0  0  0  0  0  0  0
  -14.5691    3.1231    2.2601 O   0  0  0  0  0  0  0  0  0  0  0  0
  -12.8707    4.7244    1.7783 C   0  0  1  0  0  0  0  0  0  0  0  0
  -13.5838    5.8325    2.3326 O   0  0  0  0  0  0  0  0  0  0  0  0
  -11.3775    4.9871    1.8241 C   0  0  2  0  0  0  0  0  0  0  0  0
  -11.0756    6.0486    0.9288 O   0  0  0  0  0  0  0  0  0  0  0  0
  -10.5697    3.7599    1.4240 C   0  0  2  0  0  0  0  0  0  0  0  0
  -10.9247    2.7075    2.3107 O   0  0  0  0  0  0  0  0  0  0  0  0
   -9.0619    4.0305    1.4906 C   0  0  0  0  0  0  0  0  0  0  0  0
   -8.6105    4.3696    2.8100 O   0  0  0  0  0  0  0  0  0  0  0  0
  1  2  1  0  0  0  0
  3  1  1  6  0  0  0
  3  9  1  0  0  0  0
  3  4  1  0  0  0  0
  4  5  1  6  0  0  0
  4  6  1  0  0  0  0
  6  7  1  1  0  0  0
  6  8  1  0  0  0  0
  8  9  1  0  0  0  0
  8 10  1  1  0  0  0
  8 13  1  0  0  0  0
 10 11  1  0  0  0  0
 12 13  1  6  0  0  0
 12 14  1  0  0  0  0
 12 21  1  0  0  0  0
 14 15  1  6  0  0  0
 14 16  1  0  0  0  0
 16 17  1  1  0  0  0
 16 18  1  0  0  0  0
 18 19  1  6  0  0  0
 18 20  1  0  0  0  0
 20 21  1  0  0  0  0
 20 22  1  1  0  0  0
 22 23  1  0  0  0  0
M  END
>  <CHROM.1>
55.54275971,-56.85870781,179.56858702,171.04310795,61.45510635,-11.65323928
2.56527352,0.61400638,-1.69045773,0.60719069,0.69843096

>  <Name>
ligand

>  <RI>
0

>  <Rbt.Current_Directory>
/home/itssahil/PROJECTS/Mol_Feturizer/New_Systems/rnas/4TS2

>  <Rbt.Executable>
rbdock ($Id: //depot/dev/client3/rdock/2013.1/src/exe/rbdock.cxx#4 $)

>  <Rbt.Library>
libRbt.so (2013.1, Build901 2013/11/27)

>  <Rbt.Parameter_File>
/export/apps/rDock/src/rDock_2013.1_src/data/scripts/dock_solv.prm

>  <Rbt.Receptor>
prm/blind_docking_60.prm

>  <SCORE>
-15.3593

>  <SCORE.INTER>
-8.99975

>  <SCORE.INTER.CONST>
1

>  <SCORE.INTER.POLAR>
0

>  <SCORE.INTER.ROT>
5

>  <SCORE.INTER.SOLV>
11.3627

>  <SCORE.INTER.VDW>
-16.7207

>  <SCORE.INTER.norm>
-0.391293

>  <SCORE.INTRA>
-6.35955

>  <SCORE.INTRA.DIHEDRAL>
-11.7659

>  <SCORE.INTRA.DIHEDRAL.0>
12.4853

>  <SCORE.INTRA.POLAR>
0

>  <SCORE.INTRA.POLAR.0>
0

>  <SCORE.INTRA.REPUL>
0

>  <SCORE.INTRA.REPUL.0>
0

>  <SCORE.INTRA.SOLV>
1.31761

>  <SCORE.INTRA.SOLV.lig_0>
-31.1706

>  <SCORE.INTRA.VDW>
-1.1354

>  <SCORE.INTRA.VDW.0>
-1.16895

>  <SCORE.INTRA.norm>
-0.276502

>  <SCORE.RESTR>
0

>  <SCORE.RESTR.CAVITY>
0

>  <SCORE.RESTR.norm>
0

>  <SCORE.SYSTEM>
0

>  <SCORE.SYSTEM.CONST>
0

>  <SCORE.SYSTEM.DIHEDRAL>
0

>  <SCORE.SYSTEM.SOLV>
0

>  <SCORE.SYSTEM.norm>
0

>  <SCORE.heavy>
23

>  <SCORE.norm>
-0.667796

>  <RMSD>
13.823

$$$$
ligand
 OpenBabel11021811513D
libRbt.so/2013.1/901 2013/11/27
 23 24  0  0  0  0  0  0  0  0999 V2000
   -9.5575    3.0534    3.7901 C   0  0  0  0  0  0  0  0  0  0  0  0
  -10.3303    1.9500    3.2795 O   0  0  0  0  0  0  0  0  0  0  0  0
   -9.3959    4.0951    2.6924 C   0  0  2  0  0  0  0  0  0  0  0  0
  -10.6658    4.8317    2.2944 C   0  0  1  0  0  0  0  0  0  0  0  0
  -10.9375    5.8587    3.2504 O   0  0  0  0  0  0  0  0  0  0  0  0
  -10.3034    5.3555    0.9089 C   0  0  2  0  0  0  0  0  0  0  0  0
  -11.3620    5.6961    0.0058 O   0  0  0  0  0  0  0  0  0  0  0  0
   -9.4967    4.1968    0.3498 C   0  0  2  0  0  0  0  0  0  0  0  0
   -8.9167    3.5092    1.4786 O   0  0  0  0  0  0  0  0  0  0  0  0
   -8.4303    4.7813   -0.5940 C   0  0  0  0  0  0  0  0  0  0  0  0
   -7.5045    5.6368    0.0906 O   0  0  0  0  0  0  0  0  0  0  0  0
   -9.7960    2.0138   -0.6365 C   0  0  2  0  0  0  0  0  0  0  0  0
  -10.3911    3.2797   -0.3027 O   0  0  0  0  0  0  0  0  0  0  0  0
   -9.9940    1.7973   -2.1252 C   0  0  2  0  0  0  0  0  0  0  0  0
   -9.5963    2.9789   -2.8294 O   0  0  0  0  0  0  0  0  0  0  0  0
  -11.4520    1.5364   -2.4334 C   0  0  1  0  0  0  0  0  0  0  0  0
  -11.5595    1.0971   -3.7895 O   0  0  0  0  0  0  0  0  0  0  0  0
  -12.0168    0.4858   -1.4965 C   0  0  2  0  0  0  0  0  0  0  0  0
  -13.4206    0.4027   -1.7009 O   0  0  0  0  0  0  0  0  0  0  0  0
  -11.7504    0.8218   -0.0353 C   0  0  2  0  0  0  0  0  0  0  0  0
  -10.3432    0.9384    0.1262 O   0  0  0  0  0  0  0  0  0  0  0  0
  -12.3096   -0.2549    0.9023 C   0  0  0  0  0  0  0  0  0  0  0  0
  -12.3390    0.1580    2.2764 O   0  0  0  0  0  0  0  0  0  0  0  0
  1  2  1  0  0  0  0
  3  1  1  1  0  0  0
  3  9  1  0  0  0  0
  3  4  1  0  0  0  0
  4  5  1  1  0  0  0
  4  6  1  0  0  0  0
  6  7  1  6  0  0  0
  6  8  1  0  0  0  0
  8  9  1  0  0  0  0
  8 10  1  6  0  0  0
  8 13  1  0  0  0  0
 10 11  1  0  0  0  0
 12 13  1  1  0  0  0
 12 14  1  0  0  0  0
 12 21  1  0  0  0  0
 14 15  1  6  0  0  0
 14 16  1  0  0  0  0
 16 17  1  6  0  0  0
 16 18  1  0  0  0  0
 18 19  1  1  0  0  0
 18 20  1  0  0  0  0
 20 21  1  0  0  0  0
 20 22  1  1  0  0  0
 22 23  1  0  0  0  0
M  END
>  <CHROM.1>
68.67384258,62.71947651,-124.65120074,-168.04059953,-167.26933834,-10.52449031
2.79258130,0.24242099,0.80384299,1.01096157,1.42396787

>  <Name>
ligand

>  <RI>
0

>  <Rbt.Current_Directory>
/home/itssahil/PROJECTS/Mol_Feturizer/New_Systems/rnas/4TS2

>  <Rbt.Executable>
rbdock ($Id: //depot/dev/client3/rdock/2013.1/src/exe/rbdock.cxx#4 $)

>  <Rbt.Library>
libRbt.so (2013.1, Build901 2013/11/27)

>  <Rbt.Parameter_File>
/export/apps/rDock/src/rDock_2013.1_src/data/scripts/dock_solv.prm

>  <Rbt.Receptor>
prm/blind_docking_100.prm

>  <SCORE>
-11.2218

>  <SCORE.INTER>
-7.98421

>  <SCORE.INTER.CONST>
1

>  <SCORE.INTER.POLAR>
0

>  <SCORE.INTER.ROT>
5

>  <SCORE.INTER.SOLV>
9.40563

>  <SCORE.INTER.VDW>
-15.3913

>  <SCORE.INTER.norm>
-0.347139

>  <SCORE.INTRA>
-3.2376

>  <SCORE.INTRA.DIHEDRAL>
-3.98684

>  <SCORE.INTRA.DIHEDRAL.0>
12.4853

>  <SCORE.INTRA.POLAR>
0

>  <SCORE.INTRA.POLAR.0>
0

>  <SCORE.INTRA.REPUL>
0

>  <SCORE.INTRA.REPUL.0>
0

>  <SCORE.INTRA.SOLV>
0.728769

>  <SCORE.INTRA.SOLV.lig_0>
-31.1706

>  <SCORE.INTRA.VDW>
-1.60857

>  <SCORE.INTRA.VDW.0>
-1.16895

>  <SCORE.INTRA.norm>
-0.140765

>  <SCORE.RESTR>
0

>  <SCORE.RESTR.CAVITY>
0

>  <SCORE.RESTR.norm>
0

>  <SCORE.SYSTEM>
0

>  <SCORE.SYSTEM.CONST>
0

>  <SCORE.SYSTEM.DIHEDRAL>
0

>  <SCORE.SYSTEM.SOLV>
0

>  <SCORE.SYSTEM.norm>
0

>  <SCORE.heavy>
23

>  <SCORE.norm>
-0.487905

>  <RMSD>
13.827

$$$$
ligand
 OpenBabel11021811513D
libRbt.so/2013.1/901 2013/11/27
 23 24  0  0  0  0  0  0  0  0999 V2000
  -13.2751    3.0828    2.4310 C   0  0  0  0  0  0  0  0  0  0  0  0
  -14.2431    3.9738    3.0181 O   0  0  0  0  0  0  0  0  0  0  0  0
  -11.9636    3.8315    2.2413 C   0  0  2  0  0  0  0  0  0  0  0  0
  -12.0176    5.0203    1.2940 C   0  0  1  0  0  0  0  0  0  0  0  0
  -12.5786    6.1443    1.9753 O   0  0  0  0  0  0  0  0  0  0  0  0
  -10.5487    5.1917    0.9218 C   0  0  2  0  0  0  0  0  0  0  0  0
  -10.2242    5.8862   -0.2883 O   0  0  0  0  0  0  0  0  0  0  0  0
  -10.0902    3.7469    0.8302 C   0  0  2  0  0  0  0  0  0  0  0  0
  -10.9463    2.9813    1.7045 O   0  0  0  0  0  0  0  0  0  0  0  0
   -8.6133    3.6964    1.2613 C   0  0  0  0  0  0  0  0  0  0  0  0
   -8.4258    4.1175    2.6197 O   0  0  0  0  0  0  0  0  0  0  0  0
   -9.7513    1.9746   -0.7734 C   0  0  2  0  0  0  0  0  0  0  0  0
  -10.3069    3.2746   -0.5102 O   0  0  0  0  0  0  0  0  0  0  0  0
   -9.9629    1.6800   -2.2468 C   0  0  2  0  0  0  0  0  0  0  0  0
   -9.5338    2.8073   -3.0183 O   0  0  0  0  0  0  0  0  0  0  0  0
  -11.4295    1.4458   -2.5350 C   0  0  1  0  0  0  0  0  0  0  0  0
  -11.5566    0.9336   -3.8636 O   0  0  0  0  0  0  0  0  0  0  0  0
  -12.0206    0.4673   -1.5381 C   0  0  2  0  0  0  0  0  0  0  0  0
  -13.4273    0.4148   -1.7330 O   0  0  0  0  0  0  0  0  0  0  0  0
  -11.7372    0.8775   -0.0992 C   0  0  2  0  0  0  0  0  0  0  0  0
  -10.3264    0.9610    0.0509 O   0  0  0  0  0  0  0  0  0  0  0  0
  -12.3236   -0.1270    0.8998 C   0  0  0  0  0  0  0  0  0  0  0  0
  -12.0277    0.2016    2.2651 O   0  0  0  0  0  0  0  0  0  0  0  0
  1  2  1  0  0  0  0
  3  1  1  6  0  0  0
  3  9  1  0  0  0  0
  3  4  1  0  0  0  0
  4  5  1  1  0  0  0
  4  6  1  0  0  0  0
  6  7  1  6  0  0  0
  6  8  1  0  0  0  0
  8  9  1  0  0  0  0
  8 10  1  1  0  0  0
  8 13  1  0  0  0  0
 10 11  1  0  0  0  0
 12 13  1  1  0  0  0
 12 14  1  0  0  0  0
 12 21  1  0  0  0  0
 14 15  1  6  0  0  0
 14 16  1  0  0  0  0
 16 17  1  6  0  0  0
 16 18  1  0  0  0  0
 18 19  1  1  0  0  0
 18 20  1  0  0  0  0
 20 21  1  0  0  0  0
 20 22  1  1  0  0  0
 22 23  1  0  0  0  0
M  END
>  <CHROM.1>
-62.50211548,62.05248659,-175.31167295,172.22396111,177.63648871,-11.19822142
2.72911950,0.22228233,1.61322255,0.72714749,0.82304902

>  <Name>
ligand

>  <RI>
0

>  <Rbt.Current_Directory>
/home/itssahil/PROJECTS/Mol_Feturizer/New_Systems/rnas/4TS2

>  <Rbt.Executable>
rbdock ($Id: //depot/dev/client3/rdock/2013.1/src/exe/rbdock.cxx#4 $)

>  <Rbt.Library>
libRbt.so (2013.1, Build901 2013/11/27)

>  <Rbt.Parameter_File>
/export/apps/rDock/src/rDock_2013.1_src/data/scripts/dock_solv.prm

>  <Rbt.Receptor>
prm/blind_docking_40.prm

>  <SCORE>
-16.1241

>  <SCORE.INTER>
-9.1375

>  <SCORE.INTER.CONST>
1

>  <SCORE.INTER.POLAR>
0

>  <SCORE.INTER.ROT>
5

>  <SCORE.INTER.SOLV>
9.80169

>  <SCORE.INTER.VDW>
-16.2922

>  <SCORE.INTER.norm>
-0.397283

>  <SCORE.INTRA>
-6.98656

>  <SCORE.INTRA.DIHEDRAL>
-11.8316

>  <SCORE.INTRA.DIHEDRAL.0>
12.4853

>  <SCORE.INTRA.POLAR>
0

>  <SCORE.INTRA.POLAR.0>
0

>  <SCORE.INTRA.REPUL>
0

>  <SCORE.INTRA.REPUL.0>
0

>  <SCORE.INTRA.SOLV>
0.580328

>  <SCORE.INTRA.SOLV.lig_0>
-31.1706

>  <SCORE.INTRA.VDW>
-1.36092

>  <SCORE.INTRA.VDW.0>
-1.16895

>  <SCORE.INTRA.norm>
-0.303763

>  <SCORE.RESTR>
0

>  <SCORE.RESTR.CAVITY>
0

>  <SCORE.RESTR.norm>
0

>  <SCORE.SYSTEM>
0

>  <SCORE.SYSTEM.CONST>
0

>  <SCORE.SYSTEM.DIHEDRAL>
0

>  <SCORE.SYSTEM.SOLV>
0

>  <SCORE.SYSTEM.norm>
0

>  <SCORE.heavy>
23

>  <SCORE.norm>
-0.701046

>  <RMSD>
13.827

$$$$
ligand
 OpenBabel11021811513D
libRbt.so/2013.1/901 2013/11/27
 23 24  0  0  0  0  0  0  0  0999 V2000
  -13.2873    3.1341    2.3825 C   0  0  0  0  0  0  0  0  0  0  0  0
  -14.2650    4.0523    2.9082 O   0  0  0  0  0  0  0  0  0  0  0  0
  -11.9658    3.8672    2.2017 C   0  0  2  0  0  0  0  0  0  0  0  0
  -11.9956    5.0467    1.2418 C   0  0  1  0  0  0  0  0  0  0  0  0
  -12.5532    6.1833    1.9046 O   0  0  0  0  0  0  0  0  0  0  0  0
  -10.5205    5.1990    0.8863 C   0  0  2  0  0  0  0  0  0  0  0  0
  -10.1737    5.8777   -0.3267 O   0  0  0  0  0  0  0  0  0  0  0  0
  -10.0760    3.7487    0.8150 C   0  0  2  0  0  0  0  0  0  0  0  0
  -10.9509    3.0010    1.6862 O   0  0  0  0  0  0  0  0  0  0  0  0
   -8.6052    3.6873    1.2651 C   0  0  0  0  0  0  0  0  0  0  0  0
   -8.4317    4.1100    2.6248 O   0  0  0  0  0  0  0  0  0  0  0  0
   -9.7350    1.9570   -0.7664 C   0  0  2  0  0  0  0  0  0  0  0  0
  -10.2811    3.2649   -0.5232 O   0  0  0  0  0  0  0  0  0  0  0  0
   -9.9309    1.6498   -2.2394 C   0  0  2  0  0  0  0  0  0  0  0  0
   -9.4810    2.7651   -3.0165 O   0  0  0  0  0  0  0  0  0  0  0  0
  -11.3960    1.4272   -2.5440 C   0  0  1  0  0  0  0  0  0  0  0  0
  -11.5114    0.9031   -3.8690 O   0  0  0  0  0  0  0  0  0  0  0  0
  -12.0094    0.4645   -1.5451 C   0  0  2  0  0  0  0  0  0  0  0  0
  -13.4139    0.4239   -1.7574 O   0  0  0  0  0  0  0  0  0  0  0  0
  -11.7401    0.8862   -0.1069 C   0  0  2  0  0  0  0  0  0  0  0  0
  -10.3306    0.9573    0.0603 O   0  0  0  0  0  0  0  0  0  0  0  0
  -12.3490   -0.1026    0.8944 C   0  0  0  0  0  0  0  0  0  0  0  0
  -12.0471    0.2234    2.2591 O   0  0  0  0  0  0  0  0  0  0  0  0
  1  2  1  0  0  0  0
  3  1  1  6  0  0  0
  3  9  1  0  0  0  0
  3  4  1  0  0  0  0
  4  5  1  1  0  0  0
  4  6  1  0  0  0  0
  6  7  1  6  0  0  0
  6  8  1  0  0  0  0
  8  9  1  0  0  0  0
  8 10  1  1  0  0  0
  8 13  1  0  0  0  0
 10 11  1  0  0  0  0
 12 13  1  1  0  0  0
 12 14  1  0  0  0  0
 12 21  1  0  0  0  0
 14 15  1  6  0  0  0
 14 16  1  0  0  0  0
 16 17  1  6  0  0  0
 16 18  1  0  0  0  0
 18 19  1  1  0  0  0
 18 20  1  0  0  0  0
 20 21  1  0  0  0  0
 20 22  1  1  0  0  0
 22 23  1  0  0  0  0
M  END
>  <CHROM.1>
-60.67784376,62.53013836,-175.28330595,172.18505782,176.58848057,-11.18604831
2.73548779,0.20139367,1.61510114,0.71015855,0.80939476

>  <Name>
ligand

>  <RI>
0

>  <Rbt.Current_Directory>
/home/itssahil/PROJECTS/Mol_Feturizer/New_Systems/rnas/4TS2

>  <Rbt.Executable>
rbdock ($Id: //depot/dev/client3/rdock/2013.1/src/exe/rbdock.cxx#4 $)

>  <Rbt.Library>
libRbt.so (2013.1, Build901 2013/11/27)

>  <Rbt.Parameter_File>
/export/apps/rDock/src/rDock_2013.1_src/data/scripts/dock_solv.prm

>  <Rbt.Receptor>
prm/blind_docking_60.prm

>  <SCORE>
-16.2613

>  <SCORE.INTER>
-9.28911

>  <SCORE.INTER.CONST>
1

>  <SCORE.INTER.POLAR>
0

>  <SCORE.INTER.ROT>
5

>  <SCORE.INTER.SOLV>
9.86403

>  <SCORE.INTER.VDW>
-16.4141

>  <SCORE.INTER.norm>
-0.403874

>  <SCORE.INTRA>
-6.97218

>  <SCORE.INTRA.DIHEDRAL>
-11.8153

>  <SCORE.INTRA.DIHEDRAL.0>
12.4853

>  <SCORE.INTRA.POLAR>
0

>  <SCORE.INTRA.POLAR.0>
0

>  <SCORE.INTRA.REPUL>
0

>  <SCORE.INTRA.REPUL.0>
0

>  <SCORE.INTRA.SOLV>
0.583367

>  <SCORE.INTRA.SOLV.lig_0>
-31.1706

>  <SCORE.INTRA.VDW>
-1.35621

>  <SCORE.INTRA.VDW.0>
-1.16895

>  <SCORE.INTRA.norm>
-0.303138

>  <SCORE.RESTR>
0

>  <SCORE.RESTR.CAVITY>
0

>  <SCORE.RESTR.norm>
0

>  <SCORE.SYSTEM>
0

>  <SCORE.SYSTEM.CONST>
0

>  <SCORE.SYSTEM.DIHEDRAL>
0

>  <SCORE.SYSTEM.SOLV>
0

>  <SCORE.SYSTEM.norm>
0

>  <SCORE.heavy>
23

>  <SCORE.norm>
-0.707013

>  <RMSD>
13.827

$$$$
ligand
 OpenBabel11021811513D
libRbt.so/2013.1/901 2013/11/27
 23 24  0  0  0  0  0  0  0  0999 V2000
  -11.2129    0.1260   -2.6364 C   0  0  0  0  0  0  0  0  0  0  0  0
  -11.3028    1.4700   -3.1474 O   0  0  0  0  0  0  0  0  0  0  0  0
  -11.5190    0.1412   -1.1456 C   0  0  2  0  0  0  0  0  0  0  0  0
  -12.8080    0.8436   -0.7473 C   0  0  1  0  0  0  0  0  0  0  0  0
  -13.9153   -0.0290   -0.9815 O   0  0  0  0  0  0  0  0  0  0  0  0
  -12.5583    1.1455    0.7264 C   0  0  2  0  0  0  0  0  0  0  0  0
  -13.3114    2.1929    1.3493 O   0  0  0  0  0  0  0  0  0  0  0  0
  -11.0825    1.5032    0.7152 C   0  0  2  0  0  0  0  0  0  0  0  0
  -10.4937    0.8100   -0.4056 O   0  0  0  0  0  0  0  0  0  0  0  0
  -10.4831    1.0593    2.0619 C   0  0  0  0  0  0  0  0  0  0  0  0
  -10.7235   -0.3280    2.3362 O   0  0  0  0  0  0  0  0  0  0  0  0
   -9.5866    3.3721    0.4041 C   0  0  2  0  0  0  0  0  0  0  0  0
  -10.9479    2.9135    0.4711 O   0  0  0  0  0  0  0  0  0  0  0  0
   -9.5834    4.8420    0.7806 C   0  0  2  0  0  0  0  0  0  0  0  0
  -10.3365    5.0208    1.9852 O   0  0  0  0  0  0  0  0  0  0  0  0
  -10.2347    5.6688   -0.3062 C   0  0  1  0  0  0  0  0  0  0  0  0
   -9.9929    7.0511   -0.0338 O   0  0  0  0  0  0  0  0  0  0  0  0
   -9.6765    5.2980   -1.6670 C   0  0  2  0  0  0  0  0  0  0  0  0
  -10.4364    5.9640   -2.6663 O   0  0  0  0  0  0  0  0  0  0  0  0
   -9.7376    3.7976   -1.9194 C   0  0  2  0  0  0  0  0  0  0  0  0
   -9.0046    3.1600   -0.8820 O   0  0  0  0  0  0  0  0  0  0  0  0
   -9.1551    3.4316   -3.2896 C   0  0  0  0  0  0  0  0  0  0  0  0
   -7.7585    3.7409   -3.4063 O   0  0  0  0  0  0  0  0  0  0  0  0
  1  2  1  0  0  0  0
  3  1  1  6  0  0  0
  3  9  1  0  0  0  0
  3  4  1  0  0  0  0
  4  5  1  1  0  0  0
  4  6  1  0  0  0  0
  6  7  1  6  0  0  0
  6  8  1  0  0  0  0
  8  9  1  0  0  0  0
  8 10  1  1  0  0  0
  8 13  1  0  0  0  0
 10 11  1  0  0  0  0
 12 13  1  6  0  0  0
 12 14  1  0  0  0  0
 12 21  1  0  0  0  0
 14 15  1  1  0  0  0
 14 16  1  0  0  0  0
 16 17  1  1  0  0  0
 16 18  1  0  0  0  0
 18 19  1  6  0  0  0
 18 20  1  0  0  0  0
 20 21  1  0  0  0  0
 20 22  1  6  0  0  0
 22 23  1  0  0  0  0
M  END
>  <CHROM.1>
51.47026979,54.78909696,-154.52115818,-178.53820178,63.50391437,-10.69044608
2.75597503,-0.54496748,-2.96781839,1.09251260,1.07062654

>  <Name>
ligand

>  <RI>
0

>  <Rbt.Current_Directory>
/home/itssahil/PROJECTS/Mol_Feturizer/New_Systems/rnas/4TS2

>  <Rbt.Executable>
rbdock ($Id: //depot/dev/client3/rdock/2013.1/src/exe/rbdock.cxx#4 $)

>  <Rbt.Library>
libRbt.so (2013.1, Build901 2013/11/27)

>  <Rbt.Parameter_File>
/export/apps/rDock/src/rDock_2013.1_src/data/scripts/dock_solv.prm

>  <Rbt.Receptor>
prm/blind_docking_80.prm

>  <SCORE>
-15.4133

>  <SCORE.INTER>
-9.90406

>  <SCORE.INTER.CONST>
1

>  <SCORE.INTER.POLAR>
0

>  <SCORE.INTER.ROT>
5

>  <SCORE.INTER.SOLV>
12.1638

>  <SCORE.INTER.VDW>
-17.5907

>  <SCORE.INTER.norm>
-0.430611

>  <SCORE.INTRA>
-5.50921

>  <SCORE.INTRA.DIHEDRAL>
-9.32811

>  <SCORE.INTRA.DIHEDRAL.0>
12.4853

>  <SCORE.INTRA.POLAR>
0

>  <SCORE.INTRA.POLAR.0>
0

>  <SCORE.INTRA.REPUL>
0

>  <SCORE.INTRA.REPUL.0>
0

>  <SCORE.INTRA.SOLV>
0.954928

>  <SCORE.INTRA.SOLV.lig_0>
-31.1706

>  <SCORE.INTRA.VDW>
-1.32262

>  <SCORE.INTRA.VDW.0>
-1.16895

>  <SCORE.INTRA.norm>
-0.239531

>  <SCORE.RESTR>
0

>  <SCORE.RESTR.CAVITY>
0

>  <SCORE.RESTR.norm>
0

>  <SCORE.SYSTEM>
0

>  <SCORE.SYSTEM.CONST>
0

>  <SCORE.SYSTEM.DIHEDRAL>
0

>  <SCORE.SYSTEM.SOLV>
0

>  <SCORE.SYSTEM.norm>
0

>  <SCORE.heavy>
23

>  <SCORE.norm>
-0.670142

>  <RMSD>
13.827

$$$$
ligand
 OpenBabel11021811513D
libRbt.so/2013.1/901 2013/11/27
 23 24  0  0  0  0  0  0  0  0999 V2000
  -13.2828    3.1655    2.3491 C   0  0  0  0  0  0  0  0  0  0  0  0
  -14.2511    4.0885    2.8839 O   0  0  0  0  0  0  0  0  0  0  0  0
  -11.9526    3.8855    2.1802 C   0  0  2  0  0  0  0  0  0  0  0  0
  -11.9655    5.0742    1.2313 C   0  0  1  0  0  0  0  0  0  0  0  0
  -12.5130    6.2107    1.9025 O   0  0  0  0  0  0  0  0  0  0  0  0
  -10.4874    5.2133    0.8828 C   0  0  2  0  0  0  0  0  0  0  0  0
  -10.1284    5.8994   -0.3224 O   0  0  0  0  0  0  0  0  0  0  0  0
  -10.0588    3.7589    0.7997 C   0  0  2  0  0  0  0  0  0  0  0  0
  -10.9453    3.0129    1.6606 O   0  0  0  0  0  0  0  0  0  0  0  0
   -8.5905    3.6770    1.2548 C   0  0  0  0  0  0  0  0  0  0  0  0
   -7.7061    4.3887    0.3778 O   0  0  0  0  0  0  0  0  0  0  0  0
   -9.7200    1.9838   -0.8008 C   0  0  2  0  0  0  0  0  0  0  0  0
  -10.2640    3.2899   -0.5437 O   0  0  0  0  0  0  0  0  0  0  0  0
   -9.9215    1.6901   -2.2757 C   0  0  2  0  0  0  0  0  0  0  0  0
   -9.4734    2.8120   -3.0443 O   0  0  0  0  0  0  0  0  0  0  0  0
  -11.3880    1.4714   -2.5770 C   0  0  1  0  0  0  0  0  0  0  0  0
  -11.5086    0.9595   -3.9062 O   0  0  0  0  0  0  0  0  0  0  0  0
  -11.9986    0.5003   -1.5846 C   0  0  2  0  0  0  0  0  0  0  0  0
  -13.4039    0.4629   -1.7921 O   0  0  0  0  0  0  0  0  0  0  0  0
  -11.7237    0.9088   -0.1436 C   0  0  2  0  0  0  0  0  0  0  0  0
  -10.3135    0.9772    0.0191 O   0  0  0  0  0  0  0  0  0  0  0  0
  -12.3298   -0.0884    0.8510 C   0  0  0  0  0  0  0  0  0  0  0  0
  -12.0374    0.2348    2.2183 O   0  0  0  0  0  0  0  0  0  0  0  0
  1  2  1  0  0  0  0
  3  1  1  6  0  0  0
  3  9  1  0  0  0  0
  3  4  1  0  0  0  0
  4  5  1  1  0  0  0
  4  6  1  0  0  0  0
  6  7  1  6  0  0  0
  6  8  1  0  0  0  0
  8  9  1  0  0  0  0
  8 10  1  1  0  0  0
  8 13  1  0  0  0  0
 10 11  1  0  0  0  0
 12 13  1  1  0  0  0
 12 14  1  0  0  0  0
 12 21  1  0  0  0  0
 14 15  1  6  0  0  0
 14 16  1  0  0  0  0
 16 17  1  6  0  0  0
 16 18  1  0  0  0  0
 18 19  1  1  0  0  0
 18 20  1  0  0  0  0
 20 21  1  0  0  0  0
 20 22  1  1  0  0  0
 22 23  1  0  0  0  0
M  END
>  <CHROM.1>
-60.86828290,-64.18421088,-175.54517986,171.60586192,177.36310283,-11.13569154
2.77378906,0.06927821,1.68055944,0.68368687,0.74283493

>  <Name>
ligand

>  <RI>
0

>  <Rbt.Current_Directory>
/home/itssahil/PROJECTS/Mol_Feturizer/New_Systems/rnas/4TS2

>  <Rbt.Executable>
rbdock ($Id: //depot/dev/client3/rdock/2013.1/src/exe/rbdock.cxx#4 $)

>  <Rbt.Library>
libRbt.so (2013.1, Build901 2013/11/27)

>  <Rbt.Parameter_File>
/export/apps/rDock/src/rDock_2013.1_src/data/scripts/dock_solv.prm

>  <Rbt.Receptor>
prm/blind_docking_80.prm

>  <SCORE>
-16.0507

>  <SCORE.INTER>
-9.08513

>  <SCORE.INTER.CONST>
1

>  <SCORE.INTER.POLAR>
0

>  <SCORE.INTER.ROT>
5

>  <SCORE.INTER.SOLV>
9.24591

>  <SCORE.INTER.VDW>
-16.0721

>  <SCORE.INTER.norm>
-0.395006

>  <SCORE.INTRA>
-6.9656

>  <SCORE.INTRA.DIHEDRAL>
-11.7993

>  <SCORE.INTRA.DIHEDRAL.0>
12.4853

>  <SCORE.INTRA.POLAR>
0

>  <SCORE.INTRA.POLAR.0>
0

>  <SCORE.INTRA.REPUL>
0

>  <SCORE.INTRA.REPUL.0>
0

>  <SCORE.INTRA.SOLV>
0.74698

>  <SCORE.INTRA.SOLV.lig_0>
-31.1706

>  <SCORE.INTRA.VDW>
-1.43945

>  <SCORE.INTRA.VDW.0>
-1.16895

>  <SCORE.INTRA.norm>
-0.302852

>  <SCORE.RESTR>
0

>  <SCORE.RESTR.CAVITY>
0

>  <SCORE.RESTR.norm>
0

>  <SCORE.SYSTEM>
0

>  <SCORE.SYSTEM.CONST>
0

>  <SCORE.SYSTEM.DIHEDRAL>
0

>  <SCORE.SYSTEM.SOLV>
0

>  <SCORE.SYSTEM.norm>
0

>  <SCORE.heavy>
23

>  <SCORE.norm>
-0.697858

>  <RMSD>
13.827

$$$$
ligand
 OpenBabel11021811513D
libRbt.so/2013.1/901 2013/11/27
 23 24  0  0  0  0  0  0  0  0999 V2000
  -12.9109    2.7457    2.5639 C   0  0  0  0  0  0  0  0  0  0  0  0
  -12.4641    1.6980    3.4460 O   0  0  0  0  0  0  0  0  0  0  0  0
  -11.7600    3.7108    2.3180 C   0  0  2  0  0  0  0  0  0  0  0  0
  -12.0854    4.9106    1.4416 C   0  0  1  0  0  0  0  0  0  0  0  0
  -12.7658    5.8964    2.2210 O   0  0  0  0  0  0  0  0  0  0  0  0
  -10.6998    5.3407    0.9718 C   0  0  2  0  0  0  0  0  0  0  0  0
  -10.5934    6.1276   -0.2205 O   0  0  0  0  0  0  0  0  0  0  0  0
  -10.0194    3.9982    0.7701 C   0  0  2  0  0  0  0  0  0  0  0  0
  -10.6641    3.0654    1.6633 O   0  0  0  0  0  0  0  0  0  0  0  0
   -8.5241    4.1789    1.0879 C   0  0  0  0  0  0  0  0  0  0  0  0
   -8.2957    4.5322    2.4592 O   0  0  0  0  0  0  0  0  0  0  0  0
   -9.5574    2.3502   -0.9324 C   0  0  2  0  0  0  0  0  0  0  0  0
  -10.2643    3.5502   -0.5738 O   0  0  0  0  0  0  0  0  0  0  0  0
   -9.8048    2.1013   -2.4086 C   0  0  2  0  0  0  0  0  0  0  0  0
   -9.5677    3.3117   -3.1360 O   0  0  0  0  0  0  0  0  0  0  0  0
  -11.2410    1.6875   -2.6429 C   0  0  1  0  0  0  0  0  0  0  0  0
  -11.3686    1.2276   -3.9904 O   0  0  0  0  0  0  0  0  0  0  0  0
  -11.6463    0.5919   -1.6752 C   0  0  2  0  0  0  0  0  0  0  0  0
  -13.0421    0.3615   -1.8091 O   0  0  0  0  0  0  0  0  0  0  0  0
  -11.3448    0.9665   -0.2304 C   0  0  2  0  0  0  0  0  0  0  0  0
   -9.9512    1.2304   -0.1396 O   0  0  0  0  0  0  0  0  0  0  0  0
  -11.7418   -0.1543    0.7377 C   0  0  0  0  0  0  0  0  0  0  0  0
  -13.1485   -0.4381    0.7208 O   0  0  0  0  0  0  0  0  0  0  0  0
  1  2  1  0  0  0  0
  3  1  1  6  0  0  0
  3  9  1  0  0  0  0
  3  4  1  0  0  0  0
  4  5  1  1  0  0  0
  4  6  1  0  0  0  0
  6  7  1  6  0  0  0
  6  8  1  0  0  0  0
  8  9  1  0  0  0  0
  8 10  1  1  0  0  0
  8 13  1  0  0  0  0
 10 11  1  0  0  0  0
 12 13  1  1  0  0  0
 12 14  1  0  0  0  0
 12 21  1  0  0  0  0
 14 15  1  6  0  0  0
 14 16  1  0  0  0  0
 16 17  1  6  0  0  0
 16 18  1  0  0  0  0
 18 19  1  1  0  0  0
 18 20  1  0  0  0  0
 20 21  1  0  0  0  0
 20 22  1  1  0  0  0
 22 23  1  0  0  0  0
M  END
>  <CHROM.1>
-177.81934970,63.78029191,-174.03609604,174.02209315,-62.30546964,-11.03149431
2.73446520,0.11955821,1.42260530,0.92326584,0.94319211

>  <Name>
ligand

>  <RI>
0

>  <Rbt.Current_Directory>
/home/itssahil/PROJECTS/Mol_Feturizer/New_Systems/rnas/4TS2

>  <Rbt.Executable>
rbdock ($Id: //depot/dev/client3/rdock/2013.1/src/exe/rbdock.cxx#4 $)

>  <Rbt.Library>
libRbt.so (2013.1, Build901 2013/11/27)

>  <Rbt.Parameter_File>
/export/apps/rDock/src/rDock_2013.1_src/data/scripts/dock_solv.prm

>  <Rbt.Receptor>
prm/blind_docking_80.prm

>  <SCORE>
-15.1456

>  <SCORE.INTER>
-8.22627

>  <SCORE.INTER.CONST>
1

>  <SCORE.INTER.POLAR>
0

>  <SCORE.INTER.ROT>
5

>  <SCORE.INTER.SOLV>
10.0372

>  <SCORE.INTER.VDW>
-15.7632

>  <SCORE.INTER.norm>
-0.357664

>  <SCORE.INTRA>
-6.91935

>  <SCORE.INTRA.DIHEDRAL>
-11.869

>  <SCORE.INTRA.DIHEDRAL.0>
12.4853

>  <SCORE.INTRA.POLAR>
0

>  <SCORE.INTRA.POLAR.0>
0

>  <SCORE.INTRA.REPUL>
0

>  <SCORE.INTRA.REPUL.0>
0

>  <SCORE.INTRA.SOLV>
0.624739

>  <SCORE.INTRA.SOLV.lig_0>
-31.1706

>  <SCORE.INTRA.VDW>
-1.29723

>  <SCORE.INTRA.VDW.0>
-1.16895

>  <SCORE.INTRA.norm>
-0.300841

>  <SCORE.RESTR>
0

>  <SCORE.RESTR.CAVITY>
0

>  <SCORE.RESTR.norm>
0

>  <SCORE.SYSTEM>
0

>  <SCORE.SYSTEM.CONST>
0

>  <SCORE.SYSTEM.DIHEDRAL>
0

>  <SCORE.SYSTEM.SOLV>
0

>  <SCORE.SYSTEM.norm>
0

>  <SCORE.heavy>
23

>  <SCORE.norm>
-0.658505

>  <RMSD>
13.828

$$$$
ligand
 OpenBabel11021811513D
libRbt.so/2013.1/901 2013/11/27
 23 24  0  0  0  0  0  0  0  0999 V2000
  -12.8038    2.7821    2.4437 C   0  0  0  0  0  0  0  0  0  0  0  0
  -13.8527    3.5447    3.0713 O   0  0  0  0  0  0  0  0  0  0  0  0
  -11.6118    3.6938    2.1905 C   0  0  2  0  0  0  0  0  0  0  0  0
  -11.8877    4.9075    1.3163 C   0  0  1  0  0  0  0  0  0  0  0  0
  -12.5176    5.9230    2.1001 O   0  0  0  0  0  0  0  0  0  0  0  0
  -10.4870    5.2743    0.8376 C   0  0  2  0  0  0  0  0  0  0  0  0
  -10.3525    6.0560   -0.3553 O   0  0  0  0  0  0  0  0  0  0  0  0
   -9.8698    3.9022    0.6316 C   0  0  2  0  0  0  0  0  0  0  0  0
  -10.5506    2.9995    1.5288 O   0  0  0  0  0  0  0  0  0  0  0  0
   -8.3658    4.0146    0.9398 C   0  0  0  0  0  0  0  0  0  0  0  0
   -8.1134    4.3832    2.3029 O   0  0  0  0  0  0  0  0  0  0  0  0
   -9.4862    2.2408   -1.0772 C   0  0  2  0  0  0  0  0  0  0  0  0
  -10.1433    3.4663   -0.7108 O   0  0  0  0  0  0  0  0  0  0  0  0
   -9.7885    1.9836   -2.5417 C   0  0  2  0  0  0  0  0  0  0  0  0
   -9.5374    3.1777   -3.2908 O   0  0  0  0  0  0  0  0  0  0  0  0
  -11.2438    1.6128   -2.7252 C   0  0  1  0  0  0  0  0  0  0  0  0
  -11.4290    1.1423   -4.0623 O   0  0  0  0  0  0  0  0  0  0  0  0
  -11.6517    0.5413   -1.7320 C   0  0  2  0  0  0  0  0  0  0  0  0
  -13.0577    0.3536   -1.8186 O   0  0  0  0  0  0  0  0  0  0  0  0
  -11.2923    0.9221   -0.3021 C   0  0  2  0  0  0  0  0  0  0  0  0
   -9.8890    1.1427   -0.2589 O   0  0  0  0  0  0  0  0  0  0  0  0
  -11.6928   -0.1749    0.6916 C   0  0  0  0  0  0  0  0  0  0  0  0
  -13.1067   -0.4197    0.7173 O   0  0  0  0  0  0  0  0  0  0  0  0
  1  2  1  0  0  0  0
  3  1  1  6  0  0  0
  3  9  1  0  0  0  0
  3  4  1  0  0  0  0
  4  5  1  1  0  0  0
  4  6  1  0  0  0  0
  6  7  1  6  0  0  0
  6  8  1  0  0  0  0
  8  9  1  0  0  0  0
  8 10  1  1  0  0  0
  8 13  1  0  0  0  0
 10 11  1  0  0  0  0
 12 13  1  1  0  0  0
 12 14  1  0  0  0  0
 12 21  1  0  0  0  0
 14 15  1  6  0  0  0
 14 16  1  0  0  0  0
 16 17  1  6  0  0  0
 16 18  1  0  0  0  0
 18 19  1  1  0  0  0
 18 20  1  0  0  0  0
 20 21  1  0  0  0  0
 20 22  1  1  0  0  0
 22 23  1  0  0  0  0
M  END
>  <CHROM.1>
-58.58561327,62.59724986,-175.62018281,173.58489732,-61.97068453,-11.00634204
2.76371381,-0.00056574,1.51775277,0.74889821,0.85999210

>  <Name>
ligand

>  <RI>
0

>  <Rbt.Current_Directory>
/home/itssahil/PROJECTS/Mol_Feturizer/New_Systems/rnas/4TS2

>  <Rbt.Executable>
rbdock ($Id: //depot/dev/client3/rdock/2013.1/src/exe/rbdock.cxx#4 $)

>  <Rbt.Library>
libRbt.so (2013.1, Build901 2013/11/27)

>  <Rbt.Parameter_File>
/export/apps/rDock/src/rDock_2013.1_src/data/scripts/dock_solv.prm

>  <Rbt.Receptor>
prm/blind_docking_40.prm

>  <SCORE>
-15.1426

>  <SCORE.INTER>
-8.47851

>  <SCORE.INTER.CONST>
1

>  <SCORE.INTER.POLAR>
0

>  <SCORE.INTER.ROT>
5

>  <SCORE.INTER.SOLV>
10.3227

>  <SCORE.INTER.VDW>
-16.0266

>  <SCORE.INTER.norm>
-0.368631

>  <SCORE.INTRA>
-6.66404

>  <SCORE.INTRA.DIHEDRAL>
-11.9653

>  <SCORE.INTRA.DIHEDRAL.0>
12.4853

>  <SCORE.INTRA.POLAR>
0

>  <SCORE.INTRA.POLAR.0>
0

>  <SCORE.INTRA.REPUL>
0

>  <SCORE.INTRA.REPUL.0>
0

>  <SCORE.INTRA.SOLV>
0.519588

>  <SCORE.INTRA.SOLV.lig_0>
-31.1706

>  <SCORE.INTRA.VDW>
-0.941199

>  <SCORE.INTRA.VDW.0>
-1.16895

>  <SCORE.INTRA.norm>
-0.289741

>  <SCORE.RESTR>
0

>  <SCORE.RESTR.CAVITY>
0

>  <SCORE.RESTR.norm>
0

>  <SCORE.SYSTEM>
0

>  <SCORE.SYSTEM.CONST>
0

>  <SCORE.SYSTEM.DIHEDRAL>
0

>  <SCORE.SYSTEM.SOLV>
0

>  <SCORE.SYSTEM.norm>
0

>  <SCORE.heavy>
23

>  <SCORE.norm>
-0.658372

>  <RMSD>
13.829

$$$$
ligand
 OpenBabel11021811513D
libRbt.so/2013.1/901 2013/11/27
 23 24  0  0  0  0  0  0  0  0999 V2000
   -8.5854    4.5629    1.3693 C   0  0  0  0  0  0  0  0  0  0  0  0
   -7.3517    4.0398    1.8983 O   0  0  0  0  0  0  0  0  0  0  0  0
   -8.4037    4.8572   -0.1129 C   0  0  2  0  0  0  0  0  0  0  0  0
   -9.5429    5.6163   -0.7758 C   0  0  1  0  0  0  0  0  0  0  0  0
   -9.4271    7.0074   -0.4696 O   0  0  0  0  0  0  0  0  0  0  0  0
   -9.3246    5.2861   -2.2485 C   0  0  2  0  0  0  0  0  0  0  0  0
  -10.4295    5.4144   -3.1513 O   0  0  0  0  0  0  0  0  0  0  0  0
   -8.8839    3.8350   -2.1702 C   0  0  2  0  0  0  0  0  0  0  0  0
   -8.2729    3.6539   -0.8751 O   0  0  0  0  0  0  0  0  0  0  0  0
   -7.8989    3.5821   -3.3258 C   0  0  0  0  0  0  0  0  0  0  0  0
   -6.7073    4.3724   -3.2110 O   0  0  0  0  0  0  0  0  0  0  0  0
   -9.7691    1.5926   -2.0457 C   0  0  2  0  0  0  0  0  0  0  0  0
  -10.0476    2.9924   -2.2213 O   0  0  0  0  0  0  0  0  0  0  0  0
  -10.9998    0.8251   -2.4915 C   0  0  2  0  0  0  0  0  0  0  0  0
  -11.4205    1.3125   -3.7704 O   0  0  0  0  0  0  0  0  0  0  0  0
  -12.1361    1.0321   -1.5143 C   0  0  1  0  0  0  0  0  0  0  0  0
  -13.1817    0.1095   -1.8293 O   0  0  0  0  0  0  0  0  0  0  0  0
  -11.6614    0.8187   -0.0895 C   0  0  2  0  0  0  0  0  0  0  0  0
  -12.7054    1.1953    0.7980 O   0  0  0  0  0  0  0  0  0  0  0  0
  -10.4220    1.6442    0.2287 C   0  0  2  0  0  0  0  0  0  0  0  0
   -9.4125    1.2742   -0.7007 O   0  0  0  0  0  0  0  0  0  0  0  0
   -9.9403    1.4080    1.6651 C   0  0  0  0  0  0  0  0  0  0  0  0
  -10.8566    1.9025    2.6527 O   0  0  0  0  0  0  0  0  0  0  0  0
  1  2  1  0  0  0  0
  3  1  1  1  0  0  0
  3  9  1  0  0  0  0
  3  4  1  0  0  0  0
  4  5  1  6  0  0  0
  4  6  1  0  0  0  0
  6  7  1  6  0  0  0
  6  8  1  0  0  0  0
  8  9  1  0  0  0  0
  8 10  1  6  0  0  0
  8 13  1  0  0  0  0
 10 11  1  0  0  0  0
 12 13  1  1  0  0  0
 12 14  1  0  0  0  0
 12 21  1  0  0  0  0
 14 15  1  6  0  0  0
 14 16  1  0  0  0  0
 16 17  1  6  0  0  0
 16 18  1  0  0  0  0
 18 19  1  1  0  0  0
 18 20  1  0  0  0  0
 20 21  1  0  0  0  0
 20 22  1  1  0  0  0
 22 23  1  0  0  0  0
M  END
>  <CHROM.1>
-170.86923478,63.20145036,-165.00712516,-175.20305678,-67.10550534,-9.88889532
2.97567505,-0.96349372,-0.16758951,0.88434452,1.65629491

>  <Name>
ligand

>  <RI>
0

>  <Rbt.Current_Directory>
/home/itssahil/PROJECTS/Mol_Feturizer/New_Systems/rnas/4TS2

>  <Rbt.Executable>
rbdock ($Id: //depot/dev/client3/rdock/2013.1/src/exe/rbdock.cxx#4 $)

>  <Rbt.Library>
libRbt.so (2013.1, Build901 2013/11/27)

>  <Rbt.Parameter_File>
/export/apps/rDock/src/rDock_2013.1_src/data/scripts/dock_solv.prm

>  <Rbt.Receptor>
prm/blind_docking_40.prm

>  <SCORE>
-14.846

>  <SCORE.INTER>
-8.00392

>  <SCORE.INTER.CONST>
1

>  <SCORE.INTER.POLAR>
0

>  <SCORE.INTER.ROT>
5

>  <SCORE.INTER.SOLV>
11.5608

>  <SCORE.INTER.VDW>
-16.1229

>  <SCORE.INTER.norm>
-0.347996

>  <SCORE.INTRA>
-6.84212

>  <SCORE.INTRA.DIHEDRAL>
-10.7891

>  <SCORE.INTRA.DIHEDRAL.0>
12.4853

>  <SCORE.INTRA.POLAR>
0

>  <SCORE.INTRA.POLAR.0>
0

>  <SCORE.INTRA.REPUL>
0

>  <SCORE.INTRA.REPUL.0>
0

>  <SCORE.INTRA.SOLV>
0.307216

>  <SCORE.INTRA.SOLV.lig_0>
-31.1706

>  <SCORE.INTRA.VDW>
-1.6012

>  <SCORE.INTRA.VDW.0>
-1.16895

>  <SCORE.INTRA.norm>
-0.297484

>  <SCORE.RESTR>
0

>  <SCORE.RESTR.CAVITY>
0

>  <SCORE.RESTR.norm>
0

>  <SCORE.SYSTEM>
0

>  <SCORE.SYSTEM.CONST>
0

>  <SCORE.SYSTEM.DIHEDRAL>
0

>  <SCORE.SYSTEM.SOLV>
0

>  <SCORE.SYSTEM.norm>
0

>  <SCORE.heavy>
23

>  <SCORE.norm>
-0.64548

>  <RMSD>
13.830

$$$$
ligand
 OpenBabel11021811513D
libRbt.so/2013.1/901 2013/11/27
 23 24  0  0  0  0  0  0  0  0999 V2000
  -13.0897    3.5530    2.2767 C   0  0  0  0  0  0  0  0  0  0  0  0
  -12.9599    2.5846    3.3354 O   0  0  0  0  0  0  0  0  0  0  0  0
  -11.7429    4.2254    2.0523 C   0  0  2  0  0  0  0  0  0  0  0  0
  -11.7284    5.3348    1.0118 C   0  0  1  0  0  0  0  0  0  0  0  0
  -12.2481    6.5338    1.5900 O   0  0  0  0  0  0  0  0  0  0  0  0
  -10.2477    5.4105    0.6548 C   0  0  2  0  0  0  0  0  0  0  0  0
   -9.8736    5.9898   -0.6008 O   0  0  0  0  0  0  0  0  0  0  0  0
   -9.8540    3.9443    0.6881 C   0  0  2  0  0  0  0  0  0  0  0  0
  -10.7572    3.2905    1.6047 O   0  0  0  0  0  0  0  0  0  0  0  0
   -8.3876    3.8639    1.1496 C   0  0  0  0  0  0  0  0  0  0  0  0
   -7.4935    4.5304    0.2474 O   0  0  0  0  0  0  0  0  0  0  0  0
   -9.6548    2.0038   -0.7340 C   0  0  2  0  0  0  0  0  0  0  0  0
  -10.0715    3.3750   -0.6139 O   0  0  0  0  0  0  0  0  0  0  0  0
   -9.8477    1.5957   -2.1827 C   0  0  2  0  0  0  0  0  0  0  0  0
   -9.2705    2.5925   -3.0332 O   0  0  0  0  0  0  0  0  0  0  0  0
  -11.3207    1.4939   -2.5128 C   0  0  1  0  0  0  0  0  0  0  0  0
  -11.4587    0.8751   -3.7940 O   0  0  0  0  0  0  0  0  0  0  0  0
  -12.0500    0.6831   -1.4586 C   0  0  2  0  0  0  0  0  0  0  0  0
  -13.4464    0.7636   -1.7096 O   0  0  0  0  0  0  0  0  0  0  0  0
  -11.7717    1.1947   -0.0516 C   0  0  2  0  0  0  0  0  0  0  0  0
  -10.3663    1.1402    0.1523 O   0  0  0  0  0  0  0  0  0  0  0  0
  -12.4993    0.3578    1.0073 C   0  0  0  0  0  0  0  0  0  0  0  0
  -12.1099   -1.0234    0.9956 O   0  0  0  0  0  0  0  0  0  0  0  0
  1  2  1  0  0  0  0
  3  1  1  6  0  0  0
  3  9  1  0  0  0  0
  3  4  1  0  0  0  0
  4  5  1  1  0  0  0
  4  6  1  0  0  0  0
  6  7  1  6  0  0  0
  6  8  1  0  0  0  0
  8  9  1  0  0  0  0
  8 10  1  1  0  0  0
  8 13  1  0  0  0  0
 10 11  1  0  0  0  0
 12 13  1  6  0  0  0
 12 14  1  0  0  0  0
 12 21  1  0  0  0  0
 14 15  1  6  0  0  0
 14 16  1  0  0  0  0
 16 17  1  6  0  0  0
 16 18  1  0  0  0  0
 18 19  1  6  0  0  0
 18 20  1  0  0  0  0
 20 21  1  0  0  0  0
 20 22  1  1  0  0  0
 22 23  1  0  0  0  0
M  END
>  <CHROM.1>
-176.79125451,-61.77575103,-175.54064328,176.28411056,60.21285894,-10.96877317
2.78995209,-0.00207286,1.31996560,0.77637007,0.75276691

>  <Name>
ligand

>  <RI>
0

>  <Rbt.Current_Directory>
/home/itssahil/PROJECTS/Mol_Feturizer/New_Systems/rnas/4TS2

>  <Rbt.Executable>
rbdock ($Id: //depot/dev/client3/rdock/2013.1/src/exe/rbdock.cxx#4 $)

>  <Rbt.Library>
libRbt.so (2013.1, Build901 2013/11/27)

>  <Rbt.Parameter_File>
/export/apps/rDock/src/rDock_2013.1_src/data/scripts/dock_solv.prm

>  <Rbt.Receptor>
prm/blind_docking_100.prm

>  <SCORE>
-13.7726

>  <SCORE.INTER>
-6.55691

>  <SCORE.INTER.CONST>
1

>  <SCORE.INTER.POLAR>
0

>  <SCORE.INTER.ROT>
5

>  <SCORE.INTER.SOLV>
9.90112

>  <SCORE.INTER.VDW>
-14.605

>  <SCORE.INTER.norm>
-0.285083

>  <SCORE.INTRA>
-7.21569

>  <SCORE.INTRA.DIHEDRAL>
-12.1586

>  <SCORE.INTRA.DIHEDRAL.0>
12.4853

>  <SCORE.INTRA.POLAR>
0

>  <SCORE.INTRA.POLAR.0>
0

>  <SCORE.INTRA.REPUL>
0

>  <SCORE.INTRA.REPUL.0>
0

>  <SCORE.INTRA.SOLV>
0.475841

>  <SCORE.INTRA.SOLV.lig_0>
-31.1706

>  <SCORE.INTRA.VDW>
-1.3743

>  <SCORE.INTRA.VDW.0>
-1.16895

>  <SCORE.INTRA.norm>
-0.313726

>  <SCORE.RESTR>
0

>  <SCORE.RESTR.CAVITY>
0

>  <SCORE.RESTR.norm>
0

>  <SCORE.SYSTEM>
0

>  <SCORE.SYSTEM.CONST>
0

>  <SCORE.SYSTEM.DIHEDRAL>
0

>  <SCORE.SYSTEM.SOLV>
0

>  <SCORE.SYSTEM.norm>
0

>  <SCORE.heavy>
23

>  <SCORE.norm>
-0.598809

>  <RMSD>
13.831

$$$$
ligand
 OpenBabel11021811513D
libRbt.so/2013.1/901 2013/11/27
 23 24  0  0  0  0  0  0  0  0999 V2000
  -12.8046    2.6158    2.6079 C   0  0  0  0  0  0  0  0  0  0  0  0
  -13.9082    3.2424    3.2898 O   0  0  0  0  0  0  0  0  0  0  0  0
  -11.7420    3.6656    2.3160 C   0  0  2  0  0  0  0  0  0  0  0  0
  -12.1900    4.8281    1.4435 C   0  0  1  0  0  0  0  0  0  0  0  0
  -12.9189    5.7648    2.2394 O   0  0  0  0  0  0  0  0  0  0  0  0
  -10.8592    5.3608    0.9232 C   0  0  2  0  0  0  0  0  0  0  0  0
  -10.8554    6.1425   -0.2772 O   0  0  0  0  0  0  0  0  0  0  0  0
  -10.0828    4.0738    0.7071 C   0  0  2  0  0  0  0  0  0  0  0  0
  -10.6216    3.1018    1.6282 O   0  0  0  0  0  0  0  0  0  0  0  0
   -8.5963    4.3738    0.9718 C   0  0  0  0  0  0  0  0  0  0  0  0
   -7.7896    3.1878    0.9634 O   0  0  0  0  0  0  0  0  0  0  0  0
   -9.6048    2.4081   -0.9736 C   0  0  2  0  0  0  0  0  0  0  0  0
  -10.3371    3.5955   -0.6246 O   0  0  0  0  0  0  0  0  0  0  0  0
   -9.8713    2.1247   -2.4402 C   0  0  2  0  0  0  0  0  0  0  0  0
   -9.6796    3.3269   -3.1940 O   0  0  0  0  0  0  0  0  0  0  0  0
  -11.2998    1.6687   -2.6408 C   0  0  1  0  0  0  0  0  0  0  0  0
  -11.4387    1.1800   -3.9770 O   0  0  0  0  0  0  0  0  0  0  0  0
  -11.6585    0.5813   -1.6459 C   0  0  2  0  0  0  0  0  0  0  0  0
  -13.0498    0.3115   -1.7502 O   0  0  0  0  0  0  0  0  0  0  0  0
  -11.3418    0.9912   -0.2139 C   0  0  2  0  0  0  0  0  0  0  0  0
   -9.9544    1.2935   -0.1533 O   0  0  0  0  0  0  0  0  0  0  0  0
  -11.6915   -0.1212    0.7818 C   0  0  0  0  0  0  0  0  0  0  0  0
  -13.0854   -0.4628    0.7746 O   0  0  0  0  0  0  0  0  0  0  0  0
  1  2  1  0  0  0  0
  3  1  1  6  0  0  0
  3  9  1  0  0  0  0
  3  4  1  0  0  0  0
  4  5  1  1  0  0  0
  4  6  1  0  0  0  0
  6  7  1  6  0  0  0
  6  8  1  0  0  0  0
  8  9  1  0  0  0  0
  8 10  1  1  0  0  0
  8 13  1  0  0  0  0
 10 11  1  0  0  0  0
 12 13  1  1  0  0  0
 12 14  1  0  0  0  0
 12 21  1  0  0  0  0
 14 15  1  6  0  0  0
 14 16  1  0  0  0  0
 16 17  1  6  0  0  0
 16 18  1  0  0  0  0
 18 19  1  1  0  0  0
 18 20  1  0  0  0  0
 20 21  1  0  0  0  0
 20 22  1  1  0  0  0
 22 23  1  0  0  0  0
M  END
>  <CHROM.1>
-59.95589774,172.52737389,-174.15233364,177.24173997,-61.02070857,-11.11932359
2.74589833,0.03082346,1.72743190,0.77588415,0.77342351

>  <Name>
ligand

>  <RI>
0

>  <Rbt.Current_Directory>
/home/itssahil/PROJECTS/Mol_Feturizer/New_Systems/rnas/4TS2

>  <Rbt.Executable>
rbdock ($Id: //depot/dev/client3/rdock/2013.1/src/exe/rbdock.cxx#4 $)

>  <Rbt.Library>
libRbt.so (2013.1, Build901 2013/11/27)

>  <Rbt.Parameter_File>
/export/apps/rDock/src/rDock_2013.1_src/data/scripts/dock_solv.prm

>  <Rbt.Receptor>
prm/blind_docking_20.prm

>  <SCORE>
-14.691

>  <SCORE.INTER>
-8.09813

>  <SCORE.INTER.CONST>
1

>  <SCORE.INTER.POLAR>
0

>  <SCORE.INTER.ROT>
5

>  <SCORE.INTER.SOLV>
10.3426

>  <SCORE.INTER.VDW>
-15.7796

>  <SCORE.INTER.norm>
-0.352093

>  <SCORE.INTRA>
-6.59284

>  <SCORE.INTRA.DIHEDRAL>
-12.0256

>  <SCORE.INTRA.DIHEDRAL.0>
12.4853

>  <SCORE.INTRA.POLAR>
0

>  <SCORE.INTRA.POLAR.0>
0

>  <SCORE.INTRA.REPUL>
0

>  <SCORE.INTRA.REPUL.0>
0

>  <SCORE.INTRA.SOLV>
0.760149

>  <SCORE.INTRA.SOLV.lig_0>
-31.1706

>  <SCORE.INTRA.VDW>
-0.960108

>  <SCORE.INTRA.VDW.0>
-1.16895

>  <SCORE.INTRA.norm>
-0.286645

>  <SCORE.RESTR>
0

>  <SCORE.RESTR.CAVITY>
0

>  <SCORE.RESTR.norm>
0

>  <SCORE.SYSTEM>
0

>  <SCORE.SYSTEM.CONST>
0

>  <SCORE.SYSTEM.DIHEDRAL>
0

>  <SCORE.SYSTEM.SOLV>
0

>  <SCORE.SYSTEM.norm>
0

>  <SCORE.heavy>
23

>  <SCORE.norm>
-0.638738

>  <RMSD>
13.834

$$$$
ligand
 OpenBabel11021811513D
libRbt.so/2013.1/901 2013/11/27
 23 24  0  0  0  0  0  0  0  0999 V2000
   -6.4611    3.5163    0.3125 C   0  0  0  0  0  0  0  0  0  0  0  0
   -5.6069    4.2278   -0.6038 O   0  0  0  0  0  0  0  0  0  0  0  0
   -7.6617    4.3889    0.6498 C   0  0  2  0  0  0  0  0  0  0  0  0
   -8.6306    3.8071    1.6677 C   0  0  1  0  0  0  0  0  0  0  0  0
   -8.1052    3.9945    2.9834 O   0  0  0  0  0  0  0  0  0  0  0  0
   -9.8981    4.6072    1.3872 C   0  0  2  0  0  0  0  0  0  0  0  0
  -11.1581    4.0622    1.7964 O   0  0  0  0  0  0  0  0  0  0  0  0
   -9.8508    4.7266   -0.1259 C   0  0  2  0  0  0  0  0  0  0  0  0
   -8.4606    4.6531   -0.5069 O   0  0  0  0  0  0  0  0  0  0  0  0
  -10.4954    6.0708   -0.5097 C   0  0  0  0  0  0  0  0  0  0  0  0
  -11.8602    6.1652   -0.0783 O   0  0  0  0  0  0  0  0  0  0  0  0
   -9.7583    2.3719   -0.6496 C   0  0  2  0  0  0  0  0  0  0  0  0
  -10.5183    3.5915   -0.7028 O   0  0  0  0  0  0  0  0  0  0  0  0
  -10.1640    1.5313   -1.8459 C   0  0  2  0  0  0  0  0  0  0  0  0
  -10.1270    2.3425   -3.0252 O   0  0  0  0  0  0  0  0  0  0  0  0
  -11.5760    1.0151   -1.6764 C   0  0  1  0  0  0  0  0  0  0  0  0
  -11.8289    0.0387   -2.6894 O   0  0  0  0  0  0  0  0  0  0  0  0
  -11.7597    0.4022   -0.3011 C   0  0  2  0  0  0  0  0  0  0  0  0
  -13.1355    0.0956   -0.1207 O   0  0  0  0  0  0  0  0  0  0  0  0
  -11.3154    1.3461    0.8083 C   0  0  2  0  0  0  0  0  0  0  0  0
   -9.9501    1.6653    0.5758 O   0  0  0  0  0  0  0  0  0  0  0  0
  -11.4885    0.7105    2.1929 C   0  0  0  0  0  0  0  0  0  0  0  0
  -11.0605    1.5679    3.2612 O   0  0  0  0  0  0  0  0  0  0  0  0
  1  2  1  0  0  0  0
  3  1  1  6  0  0  0
  3  9  1  0  0  0  0
  3  4  1  0  0  0  0
  4  5  1  1  0  0  0
  4  6  1  0  0  0  0
  6  7  1  6  0  0  0
  6  8  1  0  0  0  0
  8  9  1  0  0  0  0
  8 10  1  6  0  0  0
  8 13  1  0  0  0  0
 10 11  1  0  0  0  0
 12 13  1  1  0  0  0
 12 14  1  0  0  0  0
 12 21  1  0  0  0  0
 14 15  1  6  0  0  0
 14 16  1  0  0  0  0
 16 17  1  6  0  0  0
 16 18  1  0  0  0  0
 18 19  1  1  0  0  0
 18 20  1  0  0  0  0
 20 21  1  0  0  0  0
 20 22  1  1  0  0  0
 22 23  1  0  0  0  0
M  END
>  <CHROM.1>
-177.00334318,-60.03647019,-150.19797212,-75.27564465,179.16182558,-10.04583045
2.91151752,0.12338104,-0.38268983,-0.75035627,-1.79294946

>  <Name>
ligand

>  <RI>
0

>  <Rbt.Current_Directory>
/home/itssahil/PROJECTS/Mol_Feturizer/New_Systems/rnas/4TS2

>  <Rbt.Executable>
rbdock ($Id: //depot/dev/client3/rdock/2013.1/src/exe/rbdock.cxx#4 $)

>  <Rbt.Library>
libRbt.so (2013.1, Build901 2013/11/27)

>  <Rbt.Parameter_File>
/export/apps/rDock/src/rDock_2013.1_src/data/scripts/dock_solv.prm

>  <Rbt.Receptor>
prm/blind_docking_60.prm

>  <SCORE>
-11.1335

>  <SCORE.INTER>
-7.24239

>  <SCORE.INTER.CONST>
1

>  <SCORE.INTER.POLAR>
0

>  <SCORE.INTER.ROT>
5

>  <SCORE.INTER.SOLV>
9.54354

>  <SCORE.INTER.VDW>
-14.9428

>  <SCORE.INTER.norm>
-0.314886

>  <SCORE.INTRA>
-3.89109

>  <SCORE.INTRA.DIHEDRAL>
-7.56532

>  <SCORE.INTRA.DIHEDRAL.0>
12.4853

>  <SCORE.INTRA.POLAR>
0

>  <SCORE.INTRA.POLAR.0>
0

>  <SCORE.INTRA.REPUL>
0

>  <SCORE.INTRA.REPUL.0>
0

>  <SCORE.INTRA.SOLV>
1.14921

>  <SCORE.INTRA.SOLV.lig_0>
-31.1706

>  <SCORE.INTRA.VDW>
-0.683032

>  <SCORE.INTRA.VDW.0>
-1.16895

>  <SCORE.INTRA.norm>
-0.169178

>  <SCORE.RESTR>
0

>  <SCORE.RESTR.CAVITY>
0

>  <SCORE.RESTR.norm>
0

>  <SCORE.SYSTEM>
0

>  <SCORE.SYSTEM.CONST>
0

>  <SCORE.SYSTEM.DIHEDRAL>
0

>  <SCORE.SYSTEM.SOLV>
0

>  <SCORE.SYSTEM.norm>
0

>  <SCORE.heavy>
23

>  <SCORE.norm>
-0.484064

>  <RMSD>
13.834

$$$$
ligand
 OpenBabel11021811513D
libRbt.so/2013.1/901 2013/11/27
 23 24  0  0  0  0  0  0  0  0999 V2000
  -12.8626    2.7693    2.5730 C   0  0  0  0  0  0  0  0  0  0  0  0
  -12.4098    1.7402    3.4738 O   0  0  0  0  0  0  0  0  0  0  0  0
  -11.7169    3.7358    2.3087 C   0  0  2  0  0  0  0  0  0  0  0  0
  -12.0547    4.9291    1.4282 C   0  0  1  0  0  0  0  0  0  0  0  0
  -12.7295    5.9181    2.2084 O   0  0  0  0  0  0  0  0  0  0  0  0
  -10.6753    5.3597    0.9409 C   0  0  2  0  0  0  0  0  0  0  0  0
  -10.5836    6.1393   -0.2574 O   0  0  0  0  0  0  0  0  0  0  0  0
   -9.9935    4.0177    0.7407 C   0  0  2  0  0  0  0  0  0  0  0  0
  -10.6263    3.0891    1.6467 O   0  0  0  0  0  0  0  0  0  0  0  0
   -8.4954    4.2044    1.0415 C   0  0  0  0  0  0  0  0  0  0  0  0
   -8.2548    4.5848    2.4035 O   0  0  0  0  0  0  0  0  0  0  0  0
   -9.5464    2.3592   -0.9554 C   0  0  2  0  0  0  0  0  0  0  0  0
  -10.2513    3.5605   -0.5977 O   0  0  0  0  0  0  0  0  0  0  0  0
   -9.8041    2.1029   -2.4286 C   0  0  2  0  0  0  0  0  0  0  0  0
   -9.5731    3.3098   -3.1635 O   0  0  0  0  0  0  0  0  0  0  0  0
  -11.2418    1.6871   -2.6505 C   0  0  1  0  0  0  0  0  0  0  0  0
  -11.3788    1.2205   -3.9948 O   0  0  0  0  0  0  0  0  0  0  0  0
  -11.6394    0.5961   -1.6746 C   0  0  2  0  0  0  0  0  0  0  0  0
  -13.0361    0.3642   -1.7974 O   0  0  0  0  0  0  0  0  0  0  0  0
  -11.3278    0.9779   -0.2338 C   0  0  2  0  0  0  0  0  0  0  0  0
   -9.9338    1.2430   -0.1544 O   0  0  0  0  0  0  0  0  0  0  0  0
  -11.7172   -0.1383    0.7426 C   0  0  0  0  0  0  0  0  0  0  0  0
  -13.1150   -0.4603    0.6981 O   0  0  0  0  0  0  0  0  0  0  0  0
  1  2  1  0  0  0  0
  3  1  1  6  0  0  0
  3  9  1  0  0  0  0
  3  4  1  0  0  0  0
  4  5  1  1  0  0  0
  4  6  1  0  0  0  0
  6  7  1  6  0  0  0
  6  8  1  0  0  0  0
  8  9  1  0  0  0  0
  8 10  1  1  0  0  0
  8 13  1  0  0  0  0
 10 11  1  0  0  0  0
 12 13  1  1  0  0  0
 12 14  1  0  0  0  0
 12 21  1  0  0  0  0
 14 15  1  6  0  0  0
 14 16  1  0  0  0  0
 16 17  1  6  0  0  0
 16 18  1  0  0  0  0
 18 19  1  1  0  0  0
 18 20  1  0  0  0  0
 20 21  1  0  0  0  0
 20 22  1  1  0  0  0
 22 23  1  0  0  0  0
M  END
>  <CHROM.1>
-176.91694987,62.99157615,-173.83209914,174.09506423,-59.93344286,-11.00994403
2.74835107,0.10455878,1.40854298,0.92963444,0.94691818

>  <Name>
ligand

>  <RI>
0

>  <Rbt.Current_Directory>
/home/itssahil/PROJECTS/Mol_Feturizer/New_Systems/rnas/4TS2

>  <Rbt.Executable>
rbdock ($Id: //depot/dev/client3/rdock/2013.1/src/exe/rbdock.cxx#4 $)

>  <Rbt.Library>
libRbt.so (2013.1, Build901 2013/11/27)

>  <Rbt.Parameter_File>
/export/apps/rDock/src/rDock_2013.1_src/data/scripts/dock_solv.prm

>  <Rbt.Receptor>
prm/blind_docking_40.prm

>  <SCORE>
-15.1505

>  <SCORE.INTER>
-8.27739

>  <SCORE.INTER.CONST>
1

>  <SCORE.INTER.POLAR>
0

>  <SCORE.INTER.ROT>
5

>  <SCORE.INTER.SOLV>
9.96272

>  <SCORE.INTER.VDW>
-15.7725

>  <SCORE.INTER.norm>
-0.359886

>  <SCORE.INTRA>
-6.87316

>  <SCORE.INTRA.DIHEDRAL>
-11.8885

>  <SCORE.INTRA.DIHEDRAL.0>
12.4853

>  <SCORE.INTRA.POLAR>
0

>  <SCORE.INTRA.POLAR.0>
0

>  <SCORE.INTRA.REPUL>
0

>  <SCORE.INTRA.REPUL.0>
0

>  <SCORE.INTRA.SOLV>
0.598685

>  <SCORE.INTRA.SOLV.lig_0>
-31.1706

>  <SCORE.INTRA.VDW>
-1.22824

>  <SCORE.INTRA.VDW.0>
-1.16895

>  <SCORE.INTRA.norm>
-0.298833

>  <SCORE.RESTR>
0

>  <SCORE.RESTR.CAVITY>
0

>  <SCORE.RESTR.norm>
0

>  <SCORE.SYSTEM>
0

>  <SCORE.SYSTEM.CONST>
0

>  <SCORE.SYSTEM.DIHEDRAL>
0

>  <SCORE.SYSTEM.SOLV>
0

>  <SCORE.SYSTEM.norm>
0

>  <SCORE.heavy>
23

>  <SCORE.norm>
-0.65872

>  <RMSD>
13.835

$$$$
ligand
 OpenBabel11021811513D
libRbt.so/2013.1/901 2013/11/27
 23 24  0  0  0  0  0  0  0  0999 V2000
  -12.8341    2.8382    2.3585 C   0  0  0  0  0  0  0  0  0  0  0  0
  -13.8565    3.6324    2.9904 O   0  0  0  0  0  0  0  0  0  0  0  0
  -11.6032    3.7042    2.1320 C   0  0  2  0  0  0  0  0  0  0  0  0
  -11.8174    4.9356    1.2652 C   0  0  1  0  0  0  0  0  0  0  0  0
  -12.4188    5.9682    2.0489 O   0  0  0  0  0  0  0  0  0  0  0  0
  -10.3961    5.2507    0.8113 C   0  0  2  0  0  0  0  0  0  0  0  0
  -10.2123    6.0370   -0.3720 O   0  0  0  0  0  0  0  0  0  0  0  0
   -9.8304    3.8572    0.6017 C   0  0  2  0  0  0  0  0  0  0  0  0
  -10.5601    2.9743    1.4800 O   0  0  0  0  0  0  0  0  0  0  0  0
   -8.3280    3.9071    0.9337 C   0  0  0  0  0  0  0  0  0  0  0  0
   -8.0818    4.2779    2.2974 O   0  0  0  0  0  0  0  0  0  0  0  0
   -9.4842    2.1982   -1.1174 C   0  0  2  0  0  0  0  0  0  0  0  0
  -10.1000    3.4443   -0.7487 O   0  0  0  0  0  0  0  0  0  0  0  0
   -9.7905    1.9565   -2.5838 C   0  0  2  0  0  0  0  0  0  0  0  0
   -9.4961    3.1439   -3.3278 O   0  0  0  0  0  0  0  0  0  0  0  0
  -11.2570    1.6365   -2.7730 C   0  0  1  0  0  0  0  0  0  0  0  0
  -11.4540    1.1773   -4.1124 O   0  0  0  0  0  0  0  0  0  0  0  0
  -11.7047    0.5763   -1.7849 C   0  0  2  0  0  0  0  0  0  0  0  0
  -13.1159    0.4373   -1.8766 O   0  0  0  0  0  0  0  0  0  0  0  0
  -11.3370    0.9396   -0.3525 C   0  0  2  0  0  0  0  0  0  0  0  0
   -9.9271    1.1118   -0.3043 O   0  0  0  0  0  0  0  0  0  0  0  0
  -11.7781   -0.1464    0.6359 C   0  0  0  0  0  0  0  0  0  0  0  0
  -13.1936   -0.3818    0.6160 O   0  0  0  0  0  0  0  0  0  0  0  0
  1  2  1  0  0  0  0
  3  1  1  6  0  0  0
  3  9  1  0  0  0  0
  3  4  1  0  0  0  0
  4  5  1  1  0  0  0
  4  6  1  0  0  0  0
  6  7  1  6  0  0  0
  6  8  1  0  0  0  0
  8  9  1  0  0  0  0
  8 10  1  1  0  0  0
  8 13  1  0  0  0  0
 10 11  1  0  0  0  0
 12 13  1  1  0  0  0
 12 14  1  0  0  0  0
 12 21  1  0  0  0  0
 14 15  1  6  0  0  0
 14 16  1  0  0  0  0
 16 17  1  6  0  0  0
 16 18  1  0  0  0  0
 18 19  1  1  0  0  0
 18 20  1  0  0  0  0
 20 21  1  0  0  0  0
 20 22  1  1  0  0  0
 22 23  1  0  0  0  0
M  END
>  <CHROM.1>
-59.19827192,61.50232720,-176.39477755,173.47639459,-59.51142722,-10.99949594
2.76452779,-0.04769512,1.49374858,0.71682002,0.87612207

>  <Name>
ligand

>  <RI>
0

>  <Rbt.Current_Directory>
/home/itssahil/PROJECTS/Mol_Feturizer/New_Systems/rnas/4TS2

>  <Rbt.Executable>
rbdock ($Id: //depot/dev/client3/rdock/2013.1/src/exe/rbdock.cxx#4 $)

>  <Rbt.Library>
libRbt.so (2013.1, Build901 2013/11/27)

>  <Rbt.Parameter_File>
/export/apps/rDock/src/rDock_2013.1_src/data/scripts/dock_solv.prm

>  <Rbt.Receptor>
prm/blind_docking_60.prm

>  <SCORE>
-15.1666

>  <SCORE.INTER>
-8.57096

>  <SCORE.INTER.CONST>
1

>  <SCORE.INTER.POLAR>
0

>  <SCORE.INTER.ROT>
5

>  <SCORE.INTER.SOLV>
10.6237

>  <SCORE.INTER.VDW>
-16.1885

>  <SCORE.INTER.norm>
-0.37265

>  <SCORE.INTRA>
-6.59562

>  <SCORE.INTRA.DIHEDRAL>
-12.0286

>  <SCORE.INTRA.DIHEDRAL.0>
12.4853

>  <SCORE.INTRA.POLAR>
0

>  <SCORE.INTRA.POLAR.0>
0

>  <SCORE.INTRA.REPUL>
0

>  <SCORE.INTRA.REPUL.0>
0

>  <SCORE.INTRA.SOLV>
0.533316

>  <SCORE.INTRA.SOLV.lig_0>
-31.1706

>  <SCORE.INTRA.VDW>
-0.847996

>  <SCORE.INTRA.VDW.0>
-1.16895

>  <SCORE.INTRA.norm>
-0.286766

>  <SCORE.RESTR>
0

>  <SCORE.RESTR.CAVITY>
0

>  <SCORE.RESTR.norm>
0

>  <SCORE.SYSTEM>
0

>  <SCORE.SYSTEM.CONST>
0

>  <SCORE.SYSTEM.DIHEDRAL>
0

>  <SCORE.SYSTEM.SOLV>
0

>  <SCORE.SYSTEM.norm>
0

>  <SCORE.heavy>
23

>  <SCORE.norm>
-0.659416

>  <RMSD>
13.835

$$$$
ligand
 OpenBabel11021811513D
libRbt.so/2013.1/901 2013/11/27
 23 24  0  0  0  0  0  0  0  0999 V2000
   -9.9553    2.6274   -1.5077 C   0  0  0  0  0  0  0  0  0  0  0  0
   -8.8446    2.4123   -2.3996 O   0  0  0  0  0  0  0  0  0  0  0  0
   -9.6028    3.7465   -0.5383 C   0  0  2  0  0  0  0  0  0  0  0  0
   -8.4869    3.4342    0.4470 C   0  0  1  0  0  0  0  0  0  0  0  0
   -7.2238    3.5804   -0.2053 O   0  0  0  0  0  0  0  0  0  0  0  0
   -8.7402    4.4627    1.5440 C   0  0  2  0  0  0  0  0  0  0  0  0
   -8.2142    4.2132    2.8529 O   0  0  0  0  0  0  0  0  0  0  0  0
  -10.2578    4.4869    1.5903 C   0  0  2  0  0  0  0  0  0  0  0  0
  -10.7213    4.1067    0.2773 O   0  0  0  0  0  0  0  0  0  0  0  0
  -10.6915    5.9124    1.9771 C   0  0  0  0  0  0  0  0  0  0  0  0
  -12.1153    6.0813    1.9329 O   0  0  0  0  0  0  0  0  0  0  0  0
  -12.1277    3.2432    2.4758 C   0  0  2  0  0  0  0  0  0  0  0  0
  -10.7106    3.4847    2.5162 O   0  0  0  0  0  0  0  0  0  0  0  0
  -12.5108    2.5686    3.7799 C   0  0  2  0  0  0  0  0  0  0  0  0
  -11.9440    3.3003    4.8723 O   0  0  0  0  0  0  0  0  0  0  0  0
  -11.9651    1.1583    3.8272 C   0  0  1  0  0  0  0  0  0  0  0  0
  -12.5483    0.4813    4.9431 O   0  0  0  0  0  0  0  0  0  0  0  0
  -12.2831    0.4186    2.5417 C   0  0  2  0  0  0  0  0  0  0  0  0
  -11.6036   -0.8293    2.5560 O   0  0  0  0  0  0  0  0  0  0  0  0
  -11.8492    1.2022    1.3102 C   0  0  2  0  0  0  0  0  0  0  0  0
  -12.5131    2.4583    1.3476 O   0  0  0  0  0  0  0  0  0  0  0  0
  -12.1909    0.4541    0.0161 C   0  0  0  0  0  0  0  0  0  0  0  0
  -13.6025    0.2797   -0.1751 O   0  0  0  0  0  0  0  0  0  0  0  0
  1  2  1  0  0  0  0
  3  1  1  1  0  0  0
  3  9  1  0  0  0  0
  3  4  1  0  0  0  0
  4  5  1  6  0  0  0
  4  6  1  0  0  0  0
  6  7  1  1  0  0  0
  6  8  1  0  0  0  0
  8  9  1  0  0  0  0
  8 10  1  1  0  0  0
  8 13  1  0  0  0  0
 10 11  1  0  0  0  0
 12 13  1  1  0  0  0
 12 14  1  0  0  0  0
 12 21  1  0  0  0  0
 14 15  1  1  0  0  0
 14 16  1  0  0  0  0
 16 17  1  1  0  0  0
 16 18  1  0  0  0  0
 18 19  1  1  0  0  0
 18 20  1  0  0  0  0
 20 21  1  0  0  0  0
 20 22  1  6  0  0  0
 22 23  1  0  0  0  0
M  END
>  <CHROM.1>
-66.82043880,174.72343285,-160.46571513,-169.50712281,63.71897069,-10.90372418
2.74226896,1.56332919,0.11462139,-0.88454939,-2.25301853

>  <Name>
ligand

>  <RI>
0

>  <Rbt.Current_Directory>
/home/itssahil/PROJECTS/Mol_Feturizer/New_Systems/rnas/4TS2

>  <Rbt.Executable>
rbdock ($Id: //depot/dev/client3/rdock/2013.1/src/exe/rbdock.cxx#4 $)

>  <Rbt.Library>
libRbt.so (2013.1, Build901 2013/11/27)

>  <Rbt.Parameter_File>
/export/apps/rDock/src/rDock_2013.1_src/data/scripts/dock_solv.prm

>  <Rbt.Receptor>
prm/blind_docking_80.prm

>  <SCORE>
-9.28078

>  <SCORE.INTER>
-2.75912

>  <SCORE.INTER.CONST>
1

>  <SCORE.INTER.POLAR>
0

>  <SCORE.INTER.ROT>
5

>  <SCORE.INTER.SOLV>
6.79093

>  <SCORE.INTER.VDW>
-11.0364

>  <SCORE.INTER.norm>
-0.119962

>  <SCORE.INTRA>
-6.52166

>  <SCORE.INTRA.DIHEDRAL>
-10.0445

>  <SCORE.INTRA.DIHEDRAL.0>
12.4853

>  <SCORE.INTRA.POLAR>
0

>  <SCORE.INTRA.POLAR.0>
0

>  <SCORE.INTRA.REPUL>
0

>  <SCORE.INTRA.REPUL.0>
0

>  <SCORE.INTRA.SOLV>
0.460509

>  <SCORE.INTRA.SOLV.lig_0>
-31.1706

>  <SCORE.INTRA.VDW>
-1.72965

>  <SCORE.INTRA.VDW.0>
-1.16895

>  <SCORE.INTRA.norm>
-0.28355

>  <SCORE.RESTR>
0

>  <SCORE.RESTR.CAVITY>
0

>  <SCORE.RESTR.norm>
0

>  <SCORE.SYSTEM>
0

>  <SCORE.SYSTEM.CONST>
0

>  <SCORE.SYSTEM.DIHEDRAL>
0

>  <SCORE.SYSTEM.SOLV>
0

>  <SCORE.SYSTEM.norm>
0

>  <SCORE.heavy>
23

>  <SCORE.norm>
-0.403512

>  <RMSD>
13.837

$$$$
ligand
 OpenBabel11021811513D
libRbt.so/2013.1/901 2013/11/27
 23 24  0  0  0  0  0  0  0  0999 V2000
   -8.6565    4.5583    1.3776 C   0  0  0  0  0  0  0  0  0  0  0  0
   -7.4259    4.0331    1.9118 O   0  0  0  0  0  0  0  0  0  0  0  0
   -8.4651    4.8613   -0.1016 C   0  0  2  0  0  0  0  0  0  0  0  0
   -9.6028    5.6189   -0.7689 C   0  0  1  0  0  0  0  0  0  0  0  0
   -9.4954    7.0088   -0.4544 O   0  0  0  0  0  0  0  0  0  0  0  0
   -9.3722    5.2975   -2.2416 C   0  0  2  0  0  0  0  0  0  0  0  0
  -10.4709    5.4258   -3.1519 O   0  0  0  0  0  0  0  0  0  0  0  0
   -8.9257    3.8481   -2.1678 C   0  0  2  0  0  0  0  0  0  0  0  0
   -8.3234    3.6627   -0.8692 O   0  0  0  0  0  0  0  0  0  0  0  0
   -7.9310    3.6056   -3.3174 C   0  0  0  0  0  0  0  0  0  0  0  0
   -6.7781    4.4547   -3.2306 O   0  0  0  0  0  0  0  0  0  0  0  0
   -9.8014    1.6008   -2.0645 C   0  0  2  0  0  0  0  0  0  0  0  0
  -10.0852    3.0006   -2.2320 O   0  0  0  0  0  0  0  0  0  0  0  0
  -11.0352    0.8320   -2.4992 C   0  0  2  0  0  0  0  0  0  0  0  0
  -11.4714    1.3229   -3.7716 O   0  0  0  0  0  0  0  0  0  0  0  0
  -12.1609    1.0327   -1.5086 C   0  0  1  0  0  0  0  0  0  0  0  0
  -13.2078    0.1088   -1.8152 O   0  0  0  0  0  0  0  0  0  0  0  0
  -11.6698    0.8154   -0.0900 C   0  0  2  0  0  0  0  0  0  0  0  0
  -12.7047    1.1863    0.8105 O   0  0  0  0  0  0  0  0  0  0  0  0
  -10.4289    1.6428    0.2173 C   0  0  2  0  0  0  0  0  0  0  0  0
   -9.4290    1.2785   -0.7247 O   0  0  0  0  0  0  0  0  0  0  0  0
   -9.9305    1.4026    1.6473 C   0  0  0  0  0  0  0  0  0  0  0  0
  -10.8551    1.8551    2.6472 O   0  0  0  0  0  0  0  0  0  0  0  0
  1  2  1  0  0  0  0
  3  1  1  1  0  0  0
  3  9  1  0  0  0  0
  3  4  1  0  0  0  0
  4  5  1  6  0  0  0
  4  6  1  0  0  0  0
  6  7  1  6  0  0  0
  6  8  1  0  0  0  0
  8  9  1  0  0  0  0
  8 10  1  6  0  0  0
  8 13  1  0  0  0  0
 10 11  1  0  0  0  0
 12 13  1  1  0  0  0
 12 14  1  0  0  0  0
 12 21  1  0  0  0  0
 14 15  1  6  0  0  0
 14 16  1  0  0  0  0
 16 17  1  6  0  0  0
 16 18  1  0  0  0  0
 18 19  1  1  0  0  0
 18 20  1  0  0  0  0
 20 21  1  0  0  0  0
 20 22  1  1  0  0  0
 22 23  1  0  0  0  0
M  END
>  <CHROM.1>
-171.08511431,59.91334773,-166.02791783,-175.32547747,-65.34374492,-9.92587140
2.98086550,-0.96378055,-0.18490487,0.89267997,1.66983807

>  <Name>
ligand

>  <RI>
0

>  <Rbt.Current_Directory>
/home/itssahil/PROJECTS/Mol_Feturizer/New_Systems/rnas/4TS2

>  <Rbt.Executable>
rbdock ($Id: //depot/dev/client3/rdock/2013.1/src/exe/rbdock.cxx#4 $)

>  <Rbt.Library>
libRbt.so (2013.1, Build901 2013/11/27)

>  <Rbt.Parameter_File>
/export/apps/rDock/src/rDock_2013.1_src/data/scripts/dock_solv.prm

>  <Rbt.Receptor>
prm/blind_docking_20.prm

>  <SCORE>
-14.8272

>  <SCORE.INTER>
-7.98142

>  <SCORE.INTER.CONST>
1

>  <SCORE.INTER.POLAR>
0

>  <SCORE.INTER.ROT>
5

>  <SCORE.INTER.SOLV>
11.6079

>  <SCORE.INTER.VDW>
-16.1236

>  <SCORE.INTER.norm>
-0.347018

>  <SCORE.INTRA>
-6.84575

>  <SCORE.INTRA.DIHEDRAL>
-11.074

>  <SCORE.INTRA.DIHEDRAL.0>
12.4853

>  <SCORE.INTRA.POLAR>
0

>  <SCORE.INTRA.POLAR.0>
0

>  <SCORE.INTRA.REPUL>
0

>  <SCORE.INTRA.REPUL.0>
0

>  <SCORE.INTRA.SOLV>
0.365124

>  <SCORE.INTRA.SOLV.lig_0>
-31.1706

>  <SCORE.INTRA.VDW>
-1.49133

>  <SCORE.INTRA.VDW.0>
-1.16895

>  <SCORE.INTRA.norm>
-0.297641

>  <SCORE.RESTR>
0

>  <SCORE.RESTR.CAVITY>
0

>  <SCORE.RESTR.norm>
0

>  <SCORE.SYSTEM>
0

>  <SCORE.SYSTEM.CONST>
0

>  <SCORE.SYSTEM.DIHEDRAL>
0

>  <SCORE.SYSTEM.SOLV>
0

>  <SCORE.SYSTEM.norm>
0

>  <SCORE.heavy>
23

>  <SCORE.norm>
-0.64466

>  <RMSD>
13.838

$$$$
ligand
 OpenBabel11021811513D
libRbt.so/2013.1/901 2013/11/27
 23 24  0  0  0  0  0  0  0  0999 V2000
  -12.5962    3.7457    2.2863 C   0  0  0  0  0  0  0  0  0  0  0  0
  -12.2146    2.8942    3.3840 O   0  0  0  0  0  0  0  0  0  0  0  0
  -11.3667    4.4905    1.7863 C   0  0  2  0  0  0  0  0  0  0  0  0
  -11.6091    5.4648    0.6437 C   0  0  1  0  0  0  0  0  0  0  0  0
  -12.1527    6.6797    1.1638 O   0  0  0  0  0  0  0  0  0  0  0  0
  -10.2096    5.6138    0.0564 C   0  0  2  0  0  0  0  0  0  0  0  0
  -10.0780    6.0660   -1.2965 O   0  0  0  0  0  0  0  0  0  0  0  0
   -9.6762    4.1979    0.1848 C   0  0  2  0  0  0  0  0  0  0  0  0
  -10.3707    3.5895    1.2943 O   0  0  0  0  0  0  0  0  0  0  0  0
   -8.1577    4.2894    0.4205 C   0  0  0  0  0  0  0  0  0  0  0  0
   -7.5772    3.0179    0.7428 O   0  0  0  0  0  0  0  0  0  0  0  0
   -9.5711    2.0961   -0.9979 C   0  0  2  0  0  0  0  0  0  0  0  0
  -10.0236    3.4611   -0.9998 O   0  0  0  0  0  0  0  0  0  0  0  0
   -9.8073    1.5374   -2.3888 C   0  0  2  0  0  0  0  0  0  0  0  0
   -9.2931    2.4568   -3.3586 O   0  0  0  0  0  0  0  0  0  0  0  0
  -11.2881    1.3646   -2.6460 C   0  0  1  0  0  0  0  0  0  0  0  0
  -11.4567    0.6149   -3.8515 O   0  0  0  0  0  0  0  0  0  0  0  0
  -11.9520    0.6470   -1.4862 C   0  0  2  0  0  0  0  0  0  0  0  0
  -13.3587    0.6654   -1.6863 O   0  0  0  0  0  0  0  0  0  0  0  0
  -11.6352    1.3065   -0.1506 C   0  0  2  0  0  0  0  0  0  0  0  0
  -10.2220    1.3093   -0.0004 O   0  0  0  0  0  0  0  0  0  0  0  0
  -12.2964    0.5635    1.0164 C   0  0  0  0  0  0  0  0  0  0  0  0
  -11.8774   -0.8052    1.1195 O   0  0  0  0  0  0  0  0  0  0  0  0
  1  2  1  0  0  0  0
  3  1  1  6  0  0  0
  3  9  1  0  0  0  0
  3  4  1  0  0  0  0
  4  5  1  1  0  0  0
  4  6  1  0  0  0  0
  6  7  1  6  0  0  0
  6  8  1  0  0  0  0
  8  9  1  0  0  0  0
  8 10  1  1  0  0  0
  8 13  1  0  0  0  0
 10 11  1  0  0  0  0
 12 13  1  6  0  0  0
 12 14  1  0  0  0  0
 12 21  1  0  0  0  0
 14 15  1  6  0  0  0
 14 16  1  0  0  0  0
 16 17  1  6  0  0  0
 16 18  1  0  0  0  0
 18 19  1  6  0  0  0
 18 20  1  0  0  0  0
 20 21  1  0  0  0  0
 20 22  1  1  0  0  0
 22 23  1  0  0  0  0
M  END
>  <CHROM.1>
-178.49537465,171.82116285,-170.68582256,-179.97005392,59.59158948,-10.81897973
2.82256544,-0.20599923,1.39044196,0.90636495,0.73919667

>  <Name>
ligand

>  <RI>
0

>  <Rbt.Current_Directory>
/home/itssahil/PROJECTS/Mol_Feturizer/New_Systems/rnas/4TS2

>  <Rbt.Executable>
rbdock ($Id: //depot/dev/client3/rdock/2013.1/src/exe/rbdock.cxx#4 $)

>  <Rbt.Library>
libRbt.so (2013.1, Build901 2013/11/27)

>  <Rbt.Parameter_File>
/export/apps/rDock/src/rDock_2013.1_src/data/scripts/dock_solv.prm

>  <Rbt.Receptor>
prm/blind_docking_80.prm

>  <SCORE>
-13.5755

>  <SCORE.INTER>
-6.46594

>  <SCORE.INTER.CONST>
1

>  <SCORE.INTER.POLAR>
0

>  <SCORE.INTER.ROT>
5

>  <SCORE.INTER.SOLV>
10.5202

>  <SCORE.INTER.VDW>
-14.7507

>  <SCORE.INTER.norm>
-0.281128

>  <SCORE.INTRA>
-7.10953

>  <SCORE.INTRA.DIHEDRAL>
-11.8154

>  <SCORE.INTRA.DIHEDRAL.0>
12.4853

>  <SCORE.INTRA.POLAR>
0

>  <SCORE.INTRA.POLAR.0>
0

>  <SCORE.INTRA.REPUL>
0

>  <SCORE.INTRA.REPUL.0>
0

>  <SCORE.INTRA.SOLV>
0.479076

>  <SCORE.INTRA.SOLV.lig_0>
-31.1706

>  <SCORE.INTRA.VDW>
-1.44138

>  <SCORE.INTRA.VDW.0>
-1.16895

>  <SCORE.INTRA.norm>
-0.30911

>  <SCORE.RESTR>
0

>  <SCORE.RESTR.CAVITY>
0

>  <SCORE.RESTR.norm>
0

>  <SCORE.SYSTEM>
0

>  <SCORE.SYSTEM.CONST>
0

>  <SCORE.SYSTEM.DIHEDRAL>
0

>  <SCORE.SYSTEM.SOLV>
0

>  <SCORE.SYSTEM.norm>
0

>  <SCORE.heavy>
23

>  <SCORE.norm>
-0.590238

>  <RMSD>
13.839

$$$$
ligand
 OpenBabel11021811513D
libRbt.so/2013.1/901 2013/11/27
 23 24  0  0  0  0  0  0  0  0999 V2000
  -12.9070    2.6397    2.6366 C   0  0  0  0  0  0  0  0  0  0  0  0
  -12.3957    1.5871    3.4767 O   0  0  0  0  0  0  0  0  0  0  0  0
  -11.8003    3.6534    2.3834 C   0  0  2  0  0  0  0  0  0  0  0  0
  -12.1884    4.8487    1.5266 C   0  0  1  0  0  0  0  0  0  0  0  0
  -12.8950    5.7973    2.3285 O   0  0  0  0  0  0  0  0  0  0  0  0
  -10.8293    5.3398    1.0394 C   0  0  2  0  0  0  0  0  0  0  0  0
  -10.7747    6.1436   -0.1451 O   0  0  0  0  0  0  0  0  0  0  0  0
  -10.0987    4.0283    0.8110 C   0  0  2  0  0  0  0  0  0  0  0  0
  -10.6903    3.0604    1.7035 O   0  0  0  0  0  0  0  0  0  0  0  0
   -8.6068    4.2661    1.1066 C   0  0  0  0  0  0  0  0  0  0  0  0
   -8.3708    4.6202    2.4765 O   0  0  0  0  0  0  0  0  0  0  0  0
   -9.6191    2.4040   -0.9092 C   0  0  2  0  0  0  0  0  0  0  0  0
  -10.3476    3.5857   -0.5339 O   0  0  0  0  0  0  0  0  0  0  0  0
   -9.8842    2.1556   -2.3824 C   0  0  2  0  0  0  0  0  0  0  0  0
   -9.6868    3.3742   -3.1079 O   0  0  0  0  0  0  0  0  0  0  0  0
  -11.3141    1.7097   -2.5957 C   0  0  1  0  0  0  0  0  0  0  0  0
  -11.4526    1.2526   -3.9431 O   0  0  0  0  0  0  0  0  0  0  0  0
  -11.6785    0.6010   -1.6268 C   0  0  2  0  0  0  0  0  0  0  0  0
  -13.0706    0.3389   -1.7396 O   0  0  0  0  0  0  0  0  0  0  0  0
  -11.3627    0.9764   -0.1852 C   0  0  2  0  0  0  0  0  0  0  0  0
   -9.9743    1.2720   -0.1154 O   0  0  0  0  0  0  0  0  0  0  0  0
  -11.7182   -0.1574    0.7839 C   0  0  0  0  0  0  0  0  0  0  0  0
  -13.1149   -0.4871    0.7734 O   0  0  0  0  0  0  0  0  0  0  0  0
  1  2  1  0  0  0  0
  3  1  1  6  0  0  0
  3  9  1  0  0  0  0
  3  4  1  0  0  0  0
  4  5  1  1  0  0  0
  4  6  1  0  0  0  0
  6  7  1  6  0  0  0
  6  8  1  0  0  0  0
  8  9  1  0  0  0  0
  8 10  1  1  0  0  0
  8 13  1  0  0  0  0
 10 11  1  0  0  0  0
 12 13  1  1  0  0  0
 12 14  1  0  0  0  0
 12 21  1  0  0  0  0
 14 15  1  6  0  0  0
 14 16  1  0  0  0  0
 16 17  1  6  0  0  0
 16 18  1  0  0  0  0
 18 19  1  1  0  0  0
 18 20  1  0  0  0  0
 20 21  1  0  0  0  0
 20 22  1  1  0  0  0
 22 23  1  0  0  0  0
M  END
>  <CHROM.1>
-178.97335522,63.46380032,-174.44168881,175.19970112,-61.42894337,-11.08858835
2.73489870,0.16821064,1.42071641,0.95500037,0.95214766

>  <Name>
ligand

>  <RI>
0

>  <Rbt.Current_Directory>
/home/itssahil/PROJECTS/Mol_Feturizer/New_Systems/rnas/4TS2

>  <Rbt.Executable>
rbdock ($Id: //depot/dev/client3/rdock/2013.1/src/exe/rbdock.cxx#4 $)

>  <Rbt.Library>
libRbt.so (2013.1, Build901 2013/11/27)

>  <Rbt.Parameter_File>
/export/apps/rDock/src/rDock_2013.1_src/data/scripts/dock_solv.prm

>  <Rbt.Receptor>
prm/blind_docking_80.prm

>  <SCORE>
-15.2125

>  <SCORE.INTER>
-8.25464

>  <SCORE.INTER.CONST>
1

>  <SCORE.INTER.POLAR>
0

>  <SCORE.INTER.ROT>
5

>  <SCORE.INTER.SOLV>
10.036

>  <SCORE.INTER.VDW>
-15.7818

>  <SCORE.INTER.norm>
-0.358897

>  <SCORE.INTRA>
-6.9579

>  <SCORE.INTRA.DIHEDRAL>
-12.0042

>  <SCORE.INTRA.DIHEDRAL.0>
12.4853

>  <SCORE.INTRA.POLAR>
0

>  <SCORE.INTRA.POLAR.0>
0

>  <SCORE.INTRA.REPUL>
0

>  <SCORE.INTRA.REPUL.0>
0

>  <SCORE.INTRA.SOLV>
0.682473

>  <SCORE.INTRA.SOLV.lig_0>
-31.1706

>  <SCORE.INTRA.VDW>
-1.29703

>  <SCORE.INTRA.VDW.0>
-1.16895

>  <SCORE.INTRA.norm>
-0.302517

>  <SCORE.RESTR>
0

>  <SCORE.RESTR.CAVITY>
0

>  <SCORE.RESTR.norm>
0

>  <SCORE.SYSTEM>
0

>  <SCORE.SYSTEM.CONST>
0

>  <SCORE.SYSTEM.DIHEDRAL>
0

>  <SCORE.SYSTEM.SOLV>
0

>  <SCORE.SYSTEM.norm>
0

>  <SCORE.heavy>
23

>  <SCORE.norm>
-0.661415

>  <RMSD>
13.844

$$$$
ligand
 OpenBabel11021811513D
libRbt.so/2013.1/901 2013/11/27
 23 24  0  0  0  0  0  0  0  0999 V2000
  -13.2756    3.1377    2.3981 C   0  0  0  0  0  0  0  0  0  0  0  0
  -14.2535    4.0291    2.9678 O   0  0  0  0  0  0  0  0  0  0  0  0
  -11.9619    3.8870    2.2278 C   0  0  2  0  0  0  0  0  0  0  0  0
  -12.0021    5.0752    1.2791 C   0  0  1  0  0  0  0  0  0  0  0  0
  -12.5739    6.1993    1.9511 O   0  0  0  0  0  0  0  0  0  0  0  0
  -10.5279    5.2471    0.9290 C   0  0  2  0  0  0  0  0  0  0  0  0
  -10.1855    5.9411   -0.2766 O   0  0  0  0  0  0  0  0  0  0  0  0
  -10.0673    3.8025    0.8452 C   0  0  2  0  0  0  0  0  0  0  0  0
  -10.9361    3.0370    1.7069 O   0  0  0  0  0  0  0  0  0  0  0  0
   -8.5970    3.7530    1.2985 C   0  0  0  0  0  0  0  0  0  0  0  0
   -8.4287    4.1867    2.6554 O   0  0  0  0  0  0  0  0  0  0  0  0
   -9.7029    2.0296   -0.7522 C   0  0  2  0  0  0  0  0  0  0  0  0
  -10.2636    3.3293   -0.4981 O   0  0  0  0  0  0  0  0  0  0  0  0
   -9.9005    1.7301   -2.2265 C   0  0  2  0  0  0  0  0  0  0  0  0
   -9.4666    2.8559   -2.9976 O   0  0  0  0  0  0  0  0  0  0  0  0
  -11.3639    1.4921   -2.5275 C   0  0  1  0  0  0  0  0  0  0  0  0
  -11.4779    0.9756   -3.8556 O   0  0  0  0  0  0  0  0  0  0  0  0
  -11.9622    0.5155   -1.5330 C   0  0  2  0  0  0  0  0  0  0  0  0
  -13.3669    0.4596   -1.7405 O   0  0  0  0  0  0  0  0  0  0  0  0
  -11.6928    0.9306   -0.0928 C   0  0  2  0  0  0  0  0  0  0  0  0
  -10.2836    1.0174    0.0699 O   0  0  0  0  0  0  0  0  0  0  0  0
  -12.2863   -0.0720    0.9039 C   0  0  0  0  0  0  0  0  0  0  0  0
  -12.0008    0.2597    2.2706 O   0  0  0  0  0  0  0  0  0  0  0  0
  1  2  1  0  0  0  0
  3  1  1  6  0  0  0
  3  9  1  0  0  0  0
  3  4  1  0  0  0  0
  4  5  1  1  0  0  0
  4  6  1  0  0  0  0
  6  7  1  6  0  0  0
  6  8  1  0  0  0  0
  8  9  1  0  0  0  0
  8 10  1  1  0  0  0
  8 13  1  0  0  0  0
 10 11  1  0  0  0  0
 12 13  1  1  0  0  0
 12 14  1  0  0  0  0
 12 21  1  0  0  0  0
 14 15  1  6  0  0  0
 14 16  1  0  0  0  0
 16 17  1  6  0  0  0
 16 18  1  0  0  0  0
 18 19  1  1  0  0  0
 18 20  1  0  0  0  0
 20 21  1  0  0  0  0
 20 22  1  1  0  0  0
 22 23  1  0  0  0  0
M  END
>  <CHROM.1>
-62.39990947,61.51654792,-175.68294155,172.20607311,177.49783205,-11.16561379
2.78286846,0.22628003,1.62627955,0.71955187,0.81083129

>  <Name>
ligand

>  <RI>
0

>  <Rbt.Current_Directory>
/home/itssahil/PROJECTS/Mol_Feturizer/New_Systems/rnas/4TS2

>  <Rbt.Executable>
rbdock ($Id: //depot/dev/client3/rdock/2013.1/src/exe/rbdock.cxx#4 $)

>  <Rbt.Library>
libRbt.so (2013.1, Build901 2013/11/27)

>  <Rbt.Parameter_File>
/export/apps/rDock/src/rDock_2013.1_src/data/scripts/dock_solv.prm

>  <Rbt.Receptor>
prm/blind_docking_60.prm

>  <SCORE>
-16.1372

>  <SCORE.INTER>
-9.16092

>  <SCORE.INTER.CONST>
1

>  <SCORE.INTER.POLAR>
0

>  <SCORE.INTER.ROT>
5

>  <SCORE.INTER.SOLV>
9.58581

>  <SCORE.INTER.VDW>
-16.2359

>  <SCORE.INTER.norm>
-0.398301

>  <SCORE.INTRA>
-6.97627

>  <SCORE.INTRA.DIHEDRAL>
-11.8559

>  <SCORE.INTRA.DIHEDRAL.0>
12.4853

>  <SCORE.INTRA.POLAR>
0

>  <SCORE.INTRA.POLAR.0>
0

>  <SCORE.INTRA.REPUL>
0

>  <SCORE.INTRA.REPUL.0>
0

>  <SCORE.INTRA.SOLV>
0.58615

>  <SCORE.INTRA.SOLV.lig_0>
-31.1706

>  <SCORE.INTRA.VDW>
-1.34138

>  <SCORE.INTRA.VDW.0>
-1.16895

>  <SCORE.INTRA.norm>
-0.303316

>  <SCORE.RESTR>
0

>  <SCORE.RESTR.CAVITY>
0

>  <SCORE.RESTR.norm>
0

>  <SCORE.SYSTEM>
0

>  <SCORE.SYSTEM.CONST>
0

>  <SCORE.SYSTEM.DIHEDRAL>
0

>  <SCORE.SYSTEM.SOLV>
0

>  <SCORE.SYSTEM.norm>
0

>  <SCORE.heavy>
23

>  <SCORE.norm>
-0.701617

>  <RMSD>
13.861

$$$$
ligand
 OpenBabel11021811513D
libRbt.so/2013.1/901 2013/11/27
 23 24  0  0  0  0  0  0  0  0999 V2000
  -13.1260    3.4865    2.2797 C   0  0  0  0  0  0  0  0  0  0  0  0
  -12.9813    2.5319    3.3490 O   0  0  0  0  0  0  0  0  0  0  0  0
  -11.7948    4.1911    2.0609 C   0  0  2  0  0  0  0  0  0  0  0  0
  -11.8053    5.3081    1.0287 C   0  0  1  0  0  0  0  0  0  0  0  0
  -12.3523    6.4907    1.6154 O   0  0  0  0  0  0  0  0  0  0  0  0
  -10.3266    5.4202    0.6730 C   0  0  2  0  0  0  0  0  0  0  0  0
   -9.9654    6.0171   -0.5783 O   0  0  0  0  0  0  0  0  0  0  0  0
   -9.8995    3.9632    0.6956 C   0  0  2  0  0  0  0  0  0  0  0  0
  -10.7879    3.2822    1.6069 O   0  0  0  0  0  0  0  0  0  0  0  0
   -8.4318    3.9128    1.1572 C   0  0  0  0  0  0  0  0  0  0  0  0
   -8.2580    4.4316    2.4832 O   0  0  0  0  0  0  0  0  0  0  0  0
   -9.6691    2.0336   -0.7365 C   0  0  2  0  0  0  0  0  0  0  0  0
  -10.1036    3.3986   -0.6107 O   0  0  0  0  0  0  0  0  0  0  0  0
   -9.8627    1.6270   -2.1855 C   0  0  2  0  0  0  0  0  0  0  0  0
   -9.3024    2.6339   -3.0355 O   0  0  0  0  0  0  0  0  0  0  0  0
  -11.3355    1.5065   -2.5099 C   0  0  1  0  0  0  0  0  0  0  0  0
  -11.4706    0.8895   -3.7923 O   0  0  0  0  0  0  0  0  0  0  0  0
  -12.0495    0.6830   -1.4549 C   0  0  2  0  0  0  0  0  0  0  0  0
  -13.4479    0.7455   -1.6999 O   0  0  0  0  0  0  0  0  0  0  0  0
  -11.7722    1.1942   -0.0476 C   0  0  2  0  0  0  0  0  0  0  0  0
  -10.3653    1.1580    0.1502 O   0  0  0  0  0  0  0  0  0  0  0  0
  -12.4841    0.3446    1.0118 C   0  0  0  0  0  0  0  0  0  0  0  0
  -12.1298   -1.0446    0.9477 O   0  0  0  0  0  0  0  0  0  0  0  0
  1  2  1  0  0  0  0
  3  1  1  6  0  0  0
  3  9  1  0  0  0  0
  3  4  1  0  0  0  0
  4  5  1  1  0  0  0
  4  6  1  0  0  0  0
  6  7  1  6  0  0  0
  6  8  1  0  0  0  0
  8  9  1  0  0  0  0
  8 10  1  1  0  0  0
  8 13  1  0  0  0  0
 10 11  1  0  0  0  0
 12 13  1  6  0  0  0
 12 14  1  0  0  0  0
 12 21  1  0  0  0  0
 14 15  1  6  0  0  0
 14 16  1  0  0  0  0
 16 17  1  6  0  0  0
 16 18  1  0  0  0  0
 18 19  1  6  0  0  0
 18 20  1  0  0  0  0
 20 21  1  0  0  0  0
 20 22  1  1  0  0  0
 22 23  1  0  0  0  0
M  END
>  <CHROM.1>
-175.68531747,61.89516577,-176.08458035,176.93112100,57.07663946,-11.03603286
2.78455455,0.10900924,1.34886932,0.84441578,0.84048311

>  <Name>
ligand

>  <RI>
0

>  <Rbt.Current_Directory>
/home/itssahil/PROJECTS/Mol_Feturizer/New_Systems/rnas/4TS2

>  <Rbt.Executable>
rbdock ($Id: //depot/dev/client3/rdock/2013.1/src/exe/rbdock.cxx#4 $)

>  <Rbt.Library>
libRbt.so (2013.1, Build901 2013/11/27)

>  <Rbt.Parameter_File>
/export/apps/rDock/src/rDock_2013.1_src/data/scripts/dock_solv.prm

>  <Rbt.Receptor>
prm/blind_docking_60.prm

>  <SCORE>
-13.9552

>  <SCORE.INTER>
-6.8267

>  <SCORE.INTER.CONST>
1

>  <SCORE.INTER.POLAR>
0

>  <SCORE.INTER.ROT>
5

>  <SCORE.INTER.SOLV>
10.6006

>  <SCORE.INTER.VDW>
-15.018

>  <SCORE.INTER.norm>
-0.296813

>  <SCORE.INTRA>
-7.12854

>  <SCORE.INTRA.DIHEDRAL>
-12.1232

>  <SCORE.INTRA.DIHEDRAL.0>
12.4853

>  <SCORE.INTRA.POLAR>
0

>  <SCORE.INTRA.POLAR.0>
0

>  <SCORE.INTRA.REPUL>
0

>  <SCORE.INTRA.REPUL.0>
0

>  <SCORE.INTRA.SOLV>
0.355985

>  <SCORE.INTRA.SOLV.lig_0>
-31.1706

>  <SCORE.INTRA.VDW>
-1.24494

>  <SCORE.INTRA.VDW.0>
-1.16895

>  <SCORE.INTRA.norm>
-0.309937

>  <SCORE.RESTR>
0

>  <SCORE.RESTR.CAVITY>
0

>  <SCORE.RESTR.norm>
0

>  <SCORE.SYSTEM>
0

>  <SCORE.SYSTEM.CONST>
0

>  <SCORE.SYSTEM.DIHEDRAL>
0

>  <SCORE.SYSTEM.SOLV>
0

>  <SCORE.SYSTEM.norm>
0

>  <SCORE.heavy>
23

>  <SCORE.norm>
-0.60675

>  <RMSD>
13.863

$$$$
ligand
 OpenBabel11021811513D
libRbt.so/2013.1/901 2013/11/27
 23 24  0  0  0  0  0  0  0  0999 V2000
  -13.2964    3.1811    2.3401 C   0  0  0  0  0  0  0  0  0  0  0  0
  -14.2624    4.0834    2.9132 O   0  0  0  0  0  0  0  0  0  0  0  0
  -11.9719    3.9125    2.1756 C   0  0  2  0  0  0  0  0  0  0  0  0
  -11.9897    5.0958    1.2201 C   0  0  1  0  0  0  0  0  0  0  0  0
  -12.5520    6.2309    1.8816 O   0  0  0  0  0  0  0  0  0  0  0  0
  -10.5108    5.2468    0.8802 C   0  0  2  0  0  0  0  0  0  0  0  0
  -10.1505    5.9295   -0.3265 O   0  0  0  0  0  0  0  0  0  0  0  0
  -10.0682    3.7960    0.8078 C   0  0  2  0  0  0  0  0  0  0  0  0
  -10.9533    3.0465    1.6671 O   0  0  0  0  0  0  0  0  0  0  0  0
   -8.6022    3.7301    1.2726 C   0  0  0  0  0  0  0  0  0  0  0  0
   -8.4393    4.1639    2.6301 O   0  0  0  0  0  0  0  0  0  0  0  0
   -9.7087    2.0125   -0.7789 C   0  0  2  0  0  0  0  0  0  0  0  0
  -10.2605    3.3177   -0.5343 O   0  0  0  0  0  0  0  0  0  0  0  0
   -9.8948    1.7099   -2.2541 C   0  0  2  0  0  0  0  0  0  0  0  0
   -9.4439    2.8294   -3.0245 O   0  0  0  0  0  0  0  0  0  0  0  0
  -11.3573    1.4834   -2.5682 C   0  0  1  0  0  0  0  0  0  0  0  0
  -11.4630    0.9636   -3.8956 O   0  0  0  0  0  0  0  0  0  0  0  0
  -11.9734    0.5152   -1.5763 C   0  0  2  0  0  0  0  0  0  0  0  0
  -13.3765    0.4707   -1.7971 O   0  0  0  0  0  0  0  0  0  0  0  0
  -11.7141    0.9327   -0.1350 C   0  0  2  0  0  0  0  0  0  0  0  0
  -10.3058    1.0079    0.0408 O   0  0  0  0  0  0  0  0  0  0  0  0
  -12.3256   -0.0616    0.8592 C   0  0  0  0  0  0  0  0  0  0  0  0
  -12.0504    0.2722    2.2275 O   0  0  0  0  0  0  0  0  0  0  0  0
  1  2  1  0  0  0  0
  3  1  1  6  0  0  0
  3  9  1  0  0  0  0
  3  4  1  0  0  0  0
  4  5  1  1  0  0  0
  4  6  1  0  0  0  0
  6  7  1  6  0  0  0
  6  8  1  0  0  0  0
  8  9  1  0  0  0  0
  8 10  1  1  0  0  0
  8 13  1  0  0  0  0
 10 11  1  0  0  0  0
 12 13  1  1  0  0  0
 12 14  1  0  0  0  0
 12 21  1  0  0  0  0
 14 15  1  6  0  0  0
 14 16  1  0  0  0  0
 16 17  1  6  0  0  0
 16 18  1  0  0  0  0
 18 19  1  6  0  0  0
 18 20  1  0  0  0  0
 20 21  1  0  0  0  0
 20 22  1  1  0  0  0
 22 23  1  0  0  0  0
M  END
>  <CHROM.1>
-63.11938429,61.76229601,-175.44427694,171.89807393,177.50011477,-11.16959761
2.78519662,0.18373543,1.62588190,0.70863532,0.80632633

>  <Name>
ligand

>  <RI>
0

>  <Rbt.Current_Directory>
/home/itssahil/PROJECTS/Mol_Feturizer/New_Systems/rnas/4TS2

>  <Rbt.Executable>
rbdock ($Id: //depot/dev/client3/rdock/2013.1/src/exe/rbdock.cxx#4 $)

>  <Rbt.Library>
libRbt.so (2013.1, Build901 2013/11/27)

>  <Rbt.Parameter_File>
/export/apps/rDock/src/rDock_2013.1_src/data/scripts/dock_solv.prm

>  <Rbt.Receptor>
prm/blind_docking_60.prm

>  <SCORE>
-16.1715

>  <SCORE.INTER>
-9.20285

>  <SCORE.INTER.CONST>
1

>  <SCORE.INTER.POLAR>
0

>  <SCORE.INTER.ROT>
5

>  <SCORE.INTER.SOLV>
9.77808

>  <SCORE.INTER.VDW>
-16.3279

>  <SCORE.INTER.norm>
-0.400124

>  <SCORE.INTRA>
-6.96867

>  <SCORE.INTRA.DIHEDRAL>
-11.7995

>  <SCORE.INTRA.DIHEDRAL.0>
12.4853

>  <SCORE.INTRA.POLAR>
0

>  <SCORE.INTRA.POLAR.0>
0

>  <SCORE.INTRA.REPUL>
0

>  <SCORE.INTRA.REPUL.0>
0

>  <SCORE.INTRA.SOLV>
0.572396

>  <SCORE.INTRA.SOLV.lig_0>
-31.1706

>  <SCORE.INTRA.VDW>
-1.35511

>  <SCORE.INTRA.VDW.0>
-1.16895

>  <SCORE.INTRA.norm>
-0.302986

>  <SCORE.RESTR>
0

>  <SCORE.RESTR.CAVITY>
0

>  <SCORE.RESTR.norm>
0

>  <SCORE.SYSTEM>
0

>  <SCORE.SYSTEM.CONST>
0

>  <SCORE.SYSTEM.DIHEDRAL>
0

>  <SCORE.SYSTEM.SOLV>
0

>  <SCORE.SYSTEM.norm>
0

>  <SCORE.heavy>
23

>  <SCORE.norm>
-0.70311

>  <RMSD>
13.866

$$$$
ligand
 OpenBabel11021811513D
libRbt.so/2013.1/901 2013/11/27
 23 24  0  0  0  0  0  0  0  0999 V2000
   -9.3484    3.3699    3.6380 C   0  0  0  0  0  0  0  0  0  0  0  0
  -10.1127    2.2119    3.2499 O   0  0  0  0  0  0  0  0  0  0  0  0
   -9.2830    4.3365    2.4642 C   0  0  2  0  0  0  0  0  0  0  0  0
  -10.5952    5.0120    2.0963 C   0  0  1  0  0  0  0  0  0  0  0  0
  -10.8389    6.0958    2.9952 O   0  0  0  0  0  0  0  0  0  0  0  0
  -10.3317    5.4470    0.6586 C   0  0  2  0  0  0  0  0  0  0  0  0
  -11.4518    5.6977   -0.1985 O   0  0  0  0  0  0  0  0  0  0  0  0
   -9.5266    4.2727    0.1308 C   0  0  2  0  0  0  0  0  0  0  0  0
   -8.8605    3.6798    1.2658 O   0  0  0  0  0  0  0  0  0  0  0  0
   -8.5359    4.8164   -0.9144 C   0  0  0  0  0  0  0  0  0  0  0  0
   -7.6292    5.7793   -0.3589 O   0  0  0  0  0  0  0  0  0  0  0  0
   -9.8211    2.0193   -0.6836 C   0  0  2  0  0  0  0  0  0  0  0  0
  -10.4315    3.2905   -0.4015 O   0  0  0  0  0  0  0  0  0  0  0  0
  -10.0109    1.7427   -2.1634 C   0  0  2  0  0  0  0  0  0  0  0  0
   -9.6235    2.9003   -2.9118 O   0  0  0  0  0  0  0  0  0  0  0  0
  -11.4648    1.4539   -2.4664 C   0  0  1  0  0  0  0  0  0  0  0  0
  -11.5621    0.9609   -3.8046 O   0  0  0  0  0  0  0  0  0  0  0  0
  -12.0217    0.4343   -1.4911 C   0  0  2  0  0  0  0  0  0  0  0  0
  -13.4237    0.3277   -1.6971 O   0  0  0  0  0  0  0  0  0  0  0  0
  -11.7647    0.8299   -0.0433 C   0  0  2  0  0  0  0  0  0  0  0  0
  -10.3595    0.9684    0.1185 O   0  0  0  0  0  0  0  0  0  0  0  0
  -12.3158   -0.2156    0.9336 C   0  0  0  0  0  0  0  0  0  0  0  0
  -12.2910    0.2247    2.2994 O   0  0  0  0  0  0  0  0  0  0  0  0
  1  2  1  0  0  0  0
  3  1  1  1  0  0  0
  3  9  1  0  0  0  0
  3  4  1  0  0  0  0
  4  5  1  1  0  0  0
  4  6  1  0  0  0  0
  6  7  1  6  0  0  0
  6  8  1  0  0  0  0
  8  9  1  0  0  0  0
  8 10  1  6  0  0  0
  8 13  1  0  0  0  0
 10 11  1  0  0  0  0
 12 13  1  1  0  0  0
 12 14  1  0  0  0  0
 12 21  1  0  0  0  0
 14 15  1  6  0  0  0
 14 16  1  0  0  0  0
 16 17  1  6  0  0  0
 16 18  1  0  0  0  0
 18 19  1  1  0  0  0
 18 20  1  0  0  0  0
 20 21  1  0  0  0  0
 20 22  1  1  0  0  0
 22 23  1  0  0  0  0
M  END
>  <CHROM.1>
68.94794625,60.44859523,-120.50116765,-167.98897977,-170.28494622,-10.51273247
2.85511387,0.12137154,0.74306140,1.03312373,1.42313975

>  <Name>
ligand

>  <RI>
0

>  <Rbt.Current_Directory>
/home/itssahil/PROJECTS/Mol_Feturizer/New_Systems/rnas/4TS2

>  <Rbt.Executable>
rbdock ($Id: //depot/dev/client3/rdock/2013.1/src/exe/rbdock.cxx#4 $)

>  <Rbt.Library>
libRbt.so (2013.1, Build901 2013/11/27)

>  <Rbt.Parameter_File>
/export/apps/rDock/src/rDock_2013.1_src/data/scripts/dock_solv.prm

>  <Rbt.Receptor>
prm/blind_docking_100.prm

>  <SCORE>
-11.1834

>  <SCORE.INTER>
-8.1148

>  <SCORE.INTER.CONST>
1

>  <SCORE.INTER.POLAR>
0

>  <SCORE.INTER.ROT>
5

>  <SCORE.INTER.SOLV>
9.45247

>  <SCORE.INTER.VDW>
-15.494

>  <SCORE.INTER.norm>
-0.352817

>  <SCORE.INTRA>
-3.06856

>  <SCORE.INTRA.DIHEDRAL>
-4.13171

>  <SCORE.INTRA.DIHEDRAL.0>
12.4853

>  <SCORE.INTRA.POLAR>
0

>  <SCORE.INTRA.POLAR.0>
0

>  <SCORE.INTRA.REPUL>
0.00192207

>  <SCORE.INTRA.REPUL.0>
0

>  <SCORE.INTRA.SOLV>
0.594541

>  <SCORE.INTRA.SOLV.lig_0>
-31.1706

>  <SCORE.INTRA.VDW>
-1.30958

>  <SCORE.INTRA.VDW.0>
-1.16895

>  <SCORE.INTRA.norm>
-0.133415

>  <SCORE.RESTR>
0

>  <SCORE.RESTR.CAVITY>
0

>  <SCORE.RESTR.norm>
0

>  <SCORE.SYSTEM>
0

>  <SCORE.SYSTEM.CONST>
0

>  <SCORE.SYSTEM.DIHEDRAL>
0

>  <SCORE.SYSTEM.SOLV>
0

>  <SCORE.SYSTEM.norm>
0

>  <SCORE.heavy>
23

>  <SCORE.norm>
-0.486233

>  <RMSD>
13.877

$$$$
ligand
 OpenBabel11021811513D
libRbt.so/2013.1/901 2013/11/27
 23 24  0  0  0  0  0  0  0  0999 V2000
  -12.2138    4.7213    2.0381 C   0  0  0  0  0  0  0  0  0  0  0  0
  -11.6760    4.3205    3.3131 O   0  0  0  0  0  0  0  0  0  0  0  0
  -11.0811    5.2387    1.1631 C   0  0  2  0  0  0  0  0  0  0  0  0
  -11.4951    5.7688   -0.2011 C   0  0  1  0  0  0  0  0  0  0  0  0
  -12.0108    7.0939   -0.0583 O   0  0  0  0  0  0  0  0  0  0  0  0
  -10.1846    5.6946   -0.9774 C   0  0  2  0  0  0  0  0  0  0  0  0
  -10.2362    5.6583   -2.4085 O   0  0  0  0  0  0  0  0  0  0  0  0
   -9.5922    4.4012   -0.4463 C   0  0  2  0  0  0  0  0  0  0  0  0
  -10.1237    4.2136    0.8825 O   0  0  0  0  0  0  0  0  0  0  0  0
   -8.0602    4.5514   -0.4511 C   0  0  0  0  0  0  0  0  0  0  0  0
   -7.4024    3.4633    0.2130 O   0  0  0  0  0  0  0  0  0  0  0  0
   -9.5597    2.0220   -0.8536 C   0  0  2  0  0  0  0  0  0  0  0  0
  -10.0583    3.3091   -1.2569 O   0  0  0  0  0  0  0  0  0  0  0  0
   -9.9312    1.0302   -1.9403 C   0  0  2  0  0  0  0  0  0  0  0  0
   -9.5632    1.5690   -3.2148 O   0  0  0  0  0  0  0  0  0  0  0  0
  -11.4244    0.7871   -1.9478 C   0  0  1  0  0  0  0  0  0  0  0  0
  -11.7010   -0.3227   -2.8053 O   0  0  0  0  0  0  0  0  0  0  0  0
  -11.9269    0.5027   -0.5451 C   0  0  2  0  0  0  0  0  0  0  0  0
  -13.3470    0.4587   -0.5718 O   0  0  0  0  0  0  0  0  0  0  0  0
  -11.4853    1.5706    0.4466 C   0  0  2  0  0  0  0  0  0  0  0  0
  -10.0651    1.6179    0.4187 O   0  0  0  0  0  0  0  0  0  0  0  0
  -11.9833    1.2647    1.8641 C   0  0  0  0  0  0  0  0  0  0  0  0
  -11.5058    0.0084    2.3676 O   0  0  0  0  0  0  0  0  0  0  0  0
  1  2  1  0  0  0  0
  3  1  1  6  0  0  0
  3  9  1  0  0  0  0
  3  4  1  0  0  0  0
  4  5  1  1  0  0  0
  4  6  1  0  0  0  0
  6  7  1  6  0  0  0
  6  8  1  0  0  0  0
  8  9  1  0  0  0  0
  8 10  1  1  0  0  0
  8 13  1  0  0  0  0
 10 11  1  0  0  0  0
 12 13  1  6  0  0  0
 12 14  1  0  0  0  0
 12 21  1  0  0  0  0
 14 15  1  6  0  0  0
 14 16  1  0  0  0  0
 16 17  1  6  0  0  0
 16 18  1  0  0  0  0
 18 19  1  6  0  0  0
 18 20  1  0  0  0  0
 20 21  1  0  0  0  0
 20 22  1  1  0  0  0
 22 23  1  0  0  0  0
M  END
>  <CHROM.1>
-177.09727794,171.46819606,-169.92425809,179.82044205,59.62350328,-10.72426012
2.98384104,-0.20972766,1.29008031,1.01537625,0.48242091

>  <Name>
ligand

>  <RI>
0

>  <Rbt.Current_Directory>
/home/itssahil/PROJECTS/Mol_Feturizer/New_Systems/rnas/4TS2

>  <Rbt.Executable>
rbdock ($Id: //depot/dev/client3/rdock/2013.1/src/exe/rbdock.cxx#4 $)

>  <Rbt.Library>
libRbt.so (2013.1, Build901 2013/11/27)

>  <Rbt.Parameter_File>
/export/apps/rDock/src/rDock_2013.1_src/data/scripts/dock_solv.prm

>  <Rbt.Receptor>
prm/blind_docking_80.prm

>  <SCORE>
-13.4876

>  <SCORE.INTER>
-6.39705

>  <SCORE.INTER.CONST>
1

>  <SCORE.INTER.POLAR>
0

>  <SCORE.INTER.ROT>
5

>  <SCORE.INTER.SOLV>
9.79834

>  <SCORE.INTER.VDW>
-14.4641

>  <SCORE.INTER.norm>
-0.278133

>  <SCORE.INTRA>
-7.09056

>  <SCORE.INTRA.DIHEDRAL>
-11.7036

>  <SCORE.INTRA.DIHEDRAL.0>
12.4853

>  <SCORE.INTRA.POLAR>
0

>  <SCORE.INTRA.POLAR.0>
0

>  <SCORE.INTRA.REPUL>
0

>  <SCORE.INTRA.REPUL.0>
0

>  <SCORE.INTRA.SOLV>
0.443574

>  <SCORE.INTRA.SOLV.lig_0>
-31.1706

>  <SCORE.INTRA.VDW>
-1.46056

>  <SCORE.INTRA.VDW.0>
-1.16895

>  <SCORE.INTRA.norm>
-0.308285

>  <SCORE.RESTR>
0

>  <SCORE.RESTR.CAVITY>
0

>  <SCORE.RESTR.norm>
0

>  <SCORE.SYSTEM>
0

>  <SCORE.SYSTEM.CONST>
0

>  <SCORE.SYSTEM.DIHEDRAL>
0

>  <SCORE.SYSTEM.SOLV>
0

>  <SCORE.SYSTEM.norm>
0

>  <SCORE.heavy>
23

>  <SCORE.norm>
-0.586418

>  <RMSD>
13.880

$$$$
ligand
 OpenBabel11021811513D
libRbt.so/2013.1/901 2013/11/27
 23 24  0  0  0  0  0  0  0  0999 V2000
  -12.5491    3.8740    2.4077 C   0  0  0  0  0  0  0  0  0  0  0  0
  -12.1247    3.1600    3.5849 O   0  0  0  0  0  0  0  0  0  0  0  0
  -11.3479    4.5826    1.7982 C   0  0  2  0  0  0  0  0  0  0  0  0
  -11.6553    5.5115    0.6336 C   0  0  1  0  0  0  0  0  0  0  0  0
  -12.1524    6.7535    1.1363 O   0  0  0  0  0  0  0  0  0  0  0  0
  -10.2958    5.6193   -0.0488 C   0  0  2  0  0  0  0  0  0  0  0  0
  -10.2485    6.0134   -1.4253 O   0  0  0  0  0  0  0  0  0  0  0  0
   -9.7684    4.2035    0.1042 C   0  0  2  0  0  0  0  0  0  0  0  0
  -10.3946    3.6500    1.2810 O   0  0  0  0  0  0  0  0  0  0  0  0
   -8.2369    4.2864    0.2369 C   0  0  0  0  0  0  0  0  0  0  0  0
   -7.6540    3.0358    0.6290 O   0  0  0  0  0  0  0  0  0  0  0  0
   -9.6220    2.1068   -1.0831 C   0  0  2  0  0  0  0  0  0  0  0  0
  -10.1992    3.4225   -1.0233 O   0  0  0  0  0  0  0  0  0  0  0  0
   -9.8165    1.5893   -2.4961 C   0  0  2  0  0  0  0  0  0  0  0  0
   -9.3976    2.5936   -3.4268 O   0  0  0  0  0  0  0  0  0  0  0  0
  -11.2769    1.2907   -2.7548 C   0  0  1  0  0  0  0  0  0  0  0  0
  -11.3849    0.5815   -3.9913 O   0  0  0  0  0  0  0  0  0  0  0  0
  -11.8621    0.4650   -1.6250 C   0  0  2  0  0  0  0  0  0  0  0  0
  -13.2660    0.3611   -1.8185 O   0  0  0  0  0  0  0  0  0  0  0  0
  -11.5972    1.0927   -0.2631 C   0  0  2  0  0  0  0  0  0  0  0  0
  -10.1892    1.2204   -0.1185 O   0  0  0  0  0  0  0  0  0  0  0  0
  -12.1772    0.2416    0.8728 C   0  0  0  0  0  0  0  0  0  0  0  0
  -11.9215    0.7921    2.1733 O   0  0  0  0  0  0  0  0  0  0  0  0
  1  2  1  0  0  0  0
  3  1  1  6  0  0  0
  3  9  1  0  0  0  0
  3  4  1  0  0  0  0
  4  5  1  1  0  0  0
  4  6  1  0  0  0  0
  6  7  1  6  0  0  0
  6  8  1  0  0  0  0
  8  9  1  0  0  0  0
  8 10  1  1  0  0  0
  8 13  1  0  0  0  0
 10 11  1  0  0  0  0
 12 13  1  6  0  0  0
 12 14  1  0  0  0  0
 12 21  1  0  0  0  0
 14 15  1  6  0  0  0
 14 16  1  0  0  0  0
 16 17  1  6  0  0  0
 16 18  1  0  0  0  0
 18 19  1  6  0  0  0
 18 20  1  0  0  0  0
 20 21  1  0  0  0  0
 20 22  1  1  0  0  0
 22 23  1  0  0  0  0
M  END
>  <CHROM.1>
-173.38982598,169.37138614,-162.77755590,172.45826931,178.83193396,-10.83473709
2.88251066,-0.21964210,1.54599017,0.95935585,0.77432241

>  <Name>
ligand

>  <RI>
0

>  <Rbt.Current_Directory>
/home/itssahil/PROJECTS/Mol_Feturizer/New_Systems/rnas/4TS2

>  <Rbt.Executable>
rbdock ($Id: //depot/dev/client3/rdock/2013.1/src/exe/rbdock.cxx#4 $)

>  <Rbt.Library>
libRbt.so (2013.1, Build901 2013/11/27)

>  <Rbt.Parameter_File>
/export/apps/rDock/src/rDock_2013.1_src/data/scripts/dock_solv.prm

>  <Rbt.Receptor>
prm/blind_docking_60.prm

>  <SCORE>
-13.5379

>  <SCORE.INTER>
-7.47858

>  <SCORE.INTER.CONST>
1

>  <SCORE.INTER.POLAR>
0

>  <SCORE.INTER.ROT>
5

>  <SCORE.INTER.SOLV>
9.33637

>  <SCORE.INTER.VDW>
-15.0312

>  <SCORE.INTER.norm>
-0.325155

>  <SCORE.INTRA>
-6.05931

>  <SCORE.INTRA.DIHEDRAL>
-10.2057

>  <SCORE.INTRA.DIHEDRAL.0>
12.4853

>  <SCORE.INTRA.POLAR>
0

>  <SCORE.INTRA.POLAR.0>
0

>  <SCORE.INTRA.REPUL>
0

>  <SCORE.INTRA.REPUL.0>
0

>  <SCORE.INTRA.SOLV>
0.740509

>  <SCORE.INTRA.SOLV.lig_0>
-31.1706

>  <SCORE.INTRA.VDW>
-1.32671

>  <SCORE.INTRA.VDW.0>
-1.16895

>  <SCORE.INTRA.norm>
-0.263448

>  <SCORE.RESTR>
0

>  <SCORE.RESTR.CAVITY>
0

>  <SCORE.RESTR.norm>
0

>  <SCORE.SYSTEM>
0

>  <SCORE.SYSTEM.CONST>
0

>  <SCORE.SYSTEM.DIHEDRAL>
0

>  <SCORE.SYSTEM.SOLV>
0

>  <SCORE.SYSTEM.norm>
0

>  <SCORE.heavy>
23

>  <SCORE.norm>
-0.588604

>  <RMSD>
13.886

$$$$
ligand
 OpenBabel11021811513D
libRbt.so/2013.1/901 2013/11/27
 23 24  0  0  0  0  0  0  0  0999 V2000
  -10.5035    5.6273    0.9762 C   0  0  0  0  0  0  0  0  0  0  0  0
  -11.8601    6.1006    0.8714 O   0  0  0  0  0  0  0  0  0  0  0  0
  -10.5101    4.2378    1.5973 C   0  0  2  0  0  0  0  0  0  0  0  0
   -9.1462    3.5835    1.7564 C   0  0  1  0  0  0  0  0  0  0  0  0
   -8.4977    4.1146    2.9138 O   0  0  0  0  0  0  0  0  0  0  0  0
   -9.5177    2.1093    1.8763 C   0  0  2  0  0  0  0  0  0  0  0  0
   -8.5220    1.1243    1.5752 O   0  0  0  0  0  0  0  0  0  0  0  0
  -10.6657    2.0061    0.8877 C   0  0  2  0  0  0  0  0  0  0  0  0
  -11.2697    3.3149    0.8116 O   0  0  0  0  0  0  0  0  0  0  0  0
  -11.6414    0.9378    1.4134 C   0  0  0  0  0  0  0  0  0  0  0  0
  -12.1761    1.2727    2.7016 O   0  0  0  0  0  0  0  0  0  0  0  0
  -11.0519    1.9311   -1.4941 C   0  0  2  0  0  0  0  0  0  0  0  0
  -10.1336    1.6988   -0.4121 O   0  0  0  0  0  0  0  0  0  0  0  0
  -10.8579    0.8139   -2.5024 C   0  0  2  0  0  0  0  0  0  0  0  0
  -10.8671   -0.4439   -1.8183 O   0  0  0  0  0  0  0  0  0  0  0  0
   -9.5240    0.9571   -3.2019 C   0  0  1  0  0  0  0  0  0  0  0  0
   -9.4866    0.0457   -4.3025 O   0  0  0  0  0  0  0  0  0  0  0  0
   -9.3277    2.3789   -3.6926 C   0  0  2  0  0  0  0  0  0  0  0  0
   -7.9993    2.5117   -4.1795 O   0  0  0  0  0  0  0  0  0  0  0  0
   -9.5517    3.4006   -2.5859 C   0  0  2  0  0  0  0  0  0  0  0  0
  -10.8717    3.2141   -2.0935 O   0  0  0  0  0  0  0  0  0  0  0  0
   -9.3682    4.8347   -3.0965 C   0  0  0  0  0  0  0  0  0  0  0  0
   -9.7596    5.8266   -2.1360 O   0  0  0  0  0  0  0  0  0  0  0  0
  1  2  1  0  0  0  0
  3  1  1  6  0  0  0
  3  9  1  0  0  0  0
  3  4  1  0  0  0  0
  4  5  1  1  0  0  0
  4  6  1  0  0  0  0
  6  7  1  6  0  0  0
  6  8  1  0  0  0  0
  8  9  1  0  0  0  0
  8 10  1  1  0  0  0
  8 13  1  0  0  0  0
 10 11  1  0  0  0  0
 12 13  1  1  0  0  0
 12 14  1  0  0  0  0
 12 21  1  0  0  0  0
 14 15  1  1  0  0  0
 14 16  1  0  0  0  0
 16 17  1  6  0  0  0
 16 18  1  0  0  0  0
 18 19  1  1  0  0  0
 18 20  1  0  0  0  0
 20 21  1  0  0  0  0
 20 22  1  6  0  0  0
 22 23  1  0  0  0  0
M  END
>  <CHROM.1>
179.01057266,60.43798823,-141.67199850,-163.84183326,171.47741228,-10.13655398
2.68429215,-0.60948173,-2.38451773,-1.35747096,-2.69985011

>  <Name>
ligand

>  <RI>
0

>  <Rbt.Current_Directory>
/home/itssahil/PROJECTS/Mol_Feturizer/New_Systems/rnas/4TS2

>  <Rbt.Executable>
rbdock ($Id: //depot/dev/client3/rdock/2013.1/src/exe/rbdock.cxx#4 $)

>  <Rbt.Library>
libRbt.so (2013.1, Build901 2013/11/27)

>  <Rbt.Parameter_File>
/export/apps/rDock/src/rDock_2013.1_src/data/scripts/dock_solv.prm

>  <Rbt.Receptor>
prm/blind_docking_100.prm

>  <SCORE>
-8.40665

>  <SCORE.INTER>
-3.80413

>  <SCORE.INTER.CONST>
1

>  <SCORE.INTER.POLAR>
0

>  <SCORE.INTER.ROT>
5

>  <SCORE.INTER.SOLV>
12.4155

>  <SCORE.INTER.VDW>
-13.6079

>  <SCORE.INTER.norm>
-0.165397

>  <SCORE.INTRA>
-4.60252

>  <SCORE.INTRA.DIHEDRAL>
-6.07016

>  <SCORE.INTRA.DIHEDRAL.0>
12.4853

>  <SCORE.INTRA.POLAR>
0

>  <SCORE.INTRA.POLAR.0>
0

>  <SCORE.INTRA.REPUL>
0

>  <SCORE.INTRA.REPUL.0>
0

>  <SCORE.INTRA.SOLV>
0.0370204

>  <SCORE.INTRA.SOLV.lig_0>
-31.1706

>  <SCORE.INTRA.VDW>
-1.58595

>  <SCORE.INTRA.VDW.0>
-1.16895

>  <SCORE.INTRA.norm>
-0.200109

>  <SCORE.RESTR>
0

>  <SCORE.RESTR.CAVITY>
0

>  <SCORE.RESTR.norm>
0

>  <SCORE.SYSTEM>
0

>  <SCORE.SYSTEM.CONST>
0

>  <SCORE.SYSTEM.DIHEDRAL>
0

>  <SCORE.SYSTEM.SOLV>
0

>  <SCORE.SYSTEM.norm>
0

>  <SCORE.heavy>
23

>  <SCORE.norm>
-0.365506

>  <RMSD>
13.887

$$$$
ligand
 OpenBabel11021811513D
libRbt.so/2013.1/901 2013/11/27
 23 24  0  0  0  0  0  0  0  0999 V2000
  -13.4039    3.1464    2.4094 C   0  0  0  0  0  0  0  0  0  0  0  0
  -14.4080    4.0256    2.9518 O   0  0  0  0  0  0  0  0  0  0  0  0
  -12.1004    3.9171    2.2572 C   0  0  2  0  0  0  0  0  0  0  0  0
  -12.1469    5.1046    1.3079 C   0  0  1  0  0  0  0  0  0  0  0  0
  -12.7463    6.2191    1.9717 O   0  0  0  0  0  0  0  0  0  0  0  0
  -10.6710    5.3006    0.9783 C   0  0  2  0  0  0  0  0  0  0  0  0
  -10.3233    6.0002   -0.2225 O   0  0  0  0  0  0  0  0  0  0  0  0
  -10.1857    3.8638    0.9011 C   0  0  2  0  0  0  0  0  0  0  0  0
  -11.0537    3.0841    1.7508 O   0  0  0  0  0  0  0  0  0  0  0  0
   -8.7212    3.8383    1.3748 C   0  0  0  0  0  0  0  0  0  0  0  0
   -7.8513    4.5710    0.5007 O   0  0  0  0  0  0  0  0  0  0  0  0
   -9.7537    2.1057   -0.6959 C   0  0  2  0  0  0  0  0  0  0  0  0
  -10.3555    3.3875   -0.4447 O   0  0  0  0  0  0  0  0  0  0  0  0
   -9.9285    1.8035   -2.1725 C   0  0  2  0  0  0  0  0  0  0  0  0
   -9.5215    2.9434   -2.9375 O   0  0  0  0  0  0  0  0  0  0  0  0
  -11.3813    1.5222   -2.4875 C   0  0  1  0  0  0  0  0  0  0  0  0
  -11.4674    1.0054   -3.8175 O   0  0  0  0  0  0  0  0  0  0  0  0
  -11.9592    0.5260   -1.5003 C   0  0  2  0  0  0  0  0  0  0  0  0
  -13.3596    0.4284   -1.7211 O   0  0  0  0  0  0  0  0  0  0  0  0
  -11.7157    0.9461   -0.0570 C   0  0  2  0  0  0  0  0  0  0  0  0
  -10.3113    1.0748    0.1189 O   0  0  0  0  0  0  0  0  0  0  0  0
  -12.2880   -0.0759    0.9323 C   0  0  0  0  0  0  0  0  0  0  0  0
  -12.0231    0.2600    2.3022 O   0  0  0  0  0  0  0  0  0  0  0  0
  1  2  1  0  0  0  0
  3  1  1  6  0  0  0
  3  9  1  0  0  0  0
  3  4  1  0  0  0  0
  4  5  1  1  0  0  0
  4  6  1  0  0  0  0
  6  7  1  6  0  0  0
  6  8  1  0  0  0  0
  8  9  1  0  0  0  0
  8 10  1  1  0  0  0
  8 13  1  0  0  0  0
 10 11  1  0  0  0  0
 12 13  1  1  0  0  0
 12 14  1  0  0  0  0
 12 21  1  0  0  0  0
 14 15  1  6  0  0  0
 14 16  1  0  0  0  0
 16 17  1  6  0  0  0
 16 18  1  0  0  0  0
 18 19  1  6  0  0  0
 18 20  1  0  0  0  0
 20 21  1  0  0  0  0
 20 22  1  1  0  0  0
 22 23  1  0  0  0  0
M  END
>  <CHROM.1>
-61.78683490,-64.85191620,-175.66806249,171.36588789,177.38668037,-11.21045694
2.83519739,0.15967620,1.73266282,0.70330051,0.70907344

>  <Name>
ligand

>  <RI>
0

>  <Rbt.Current_Directory>
/home/itssahil/PROJECTS/Mol_Feturizer/New_Systems/rnas/4TS2

>  <Rbt.Executable>
rbdock ($Id: //depot/dev/client3/rdock/2013.1/src/exe/rbdock.cxx#4 $)

>  <Rbt.Library>
libRbt.so (2013.1, Build901 2013/11/27)

>  <Rbt.Parameter_File>
/export/apps/rDock/src/rDock_2013.1_src/data/scripts/dock_solv.prm

>  <Rbt.Receptor>
prm/blind_docking_40.prm

>  <SCORE>
-16.0262

>  <SCORE.INTER>
-9.0732

>  <SCORE.INTER.CONST>
1

>  <SCORE.INTER.POLAR>
0

>  <SCORE.INTER.ROT>
5

>  <SCORE.INTER.SOLV>
8.93266

>  <SCORE.INTER.VDW>
-15.9597

>  <SCORE.INTER.norm>
-0.394487

>  <SCORE.INTRA>
-6.95304

>  <SCORE.INTRA.DIHEDRAL>
-11.7576

>  <SCORE.INTRA.DIHEDRAL.0>
12.4853

>  <SCORE.INTRA.POLAR>
0

>  <SCORE.INTRA.POLAR.0>
0

>  <SCORE.INTRA.REPUL>
0

>  <SCORE.INTRA.REPUL.0>
0

>  <SCORE.INTRA.SOLV>
0.742302

>  <SCORE.INTRA.SOLV.lig_0>
-31.1706

>  <SCORE.INTRA.VDW>
-1.44541

>  <SCORE.INTRA.VDW.0>
-1.16895

>  <SCORE.INTRA.norm>
-0.302306

>  <SCORE.RESTR>
0

>  <SCORE.RESTR.CAVITY>
0

>  <SCORE.RESTR.norm>
0

>  <SCORE.SYSTEM>
0

>  <SCORE.SYSTEM.CONST>
0

>  <SCORE.SYSTEM.DIHEDRAL>
0

>  <SCORE.SYSTEM.SOLV>
0

>  <SCORE.SYSTEM.norm>
0

>  <SCORE.heavy>
23

>  <SCORE.norm>
-0.696793

>  <RMSD>
13.892

$$$$
ligand
 OpenBabel11021811513D
libRbt.so/2013.1/901 2013/11/27
 23 24  0  0  0  0  0  0  0  0999 V2000
  -13.3692    3.0623    2.4515 C   0  0  0  0  0  0  0  0  0  0  0  0
  -14.3999    3.9281    2.9648 O   0  0  0  0  0  0  0  0  0  0  0  0
  -12.0872    3.8649    2.2814 C   0  0  2  0  0  0  0  0  0  0  0  0
  -12.1763    5.0510    1.3333 C   0  0  1  0  0  0  0  0  0  0  0  0
  -12.7936    6.1503    2.0061 O   0  0  0  0  0  0  0  0  0  0  0  0
  -10.7104    5.2833    0.9831 C   0  0  2  0  0  0  0  0  0  0  0  0
  -10.3970    5.9913   -0.2221 O   0  0  0  0  0  0  0  0  0  0  0  0
  -10.1910    3.8589    0.8985 C   0  0  2  0  0  0  0  0  0  0  0  0
  -11.0276    3.0579    1.7599 O   0  0  0  0  0  0  0  0  0  0  0  0
   -8.7199    3.8695    1.3516 C   0  0  0  0  0  0  0  0  0  0  0  0
   -8.5720    4.2797    2.7181 O   0  0  0  0  0  0  0  0  0  0  0  0
   -9.7641    2.0981   -0.6968 C   0  0  2  0  0  0  0  0  0  0  0  0
  -10.3680    3.3787   -0.4450 O   0  0  0  0  0  0  0  0  0  0  0  0
   -9.9363    1.7972   -2.1740 C   0  0  2  0  0  0  0  0  0  0  0  0
   -9.5298    2.9385   -2.9371 O   0  0  0  0  0  0  0  0  0  0  0  0
  -11.3883    1.5144   -2.4914 C   0  0  1  0  0  0  0  0  0  0  0  0
  -11.4717    0.9988   -3.8221 O   0  0  0  0  0  0  0  0  0  0  0  0
  -11.9663    0.5163   -1.5062 C   0  0  2  0  0  0  0  0  0  0  0  0
  -13.3662    0.4170   -1.7291 O   0  0  0  0  0  0  0  0  0  0  0  0
  -11.7254    0.9351   -0.0621 C   0  0  2  0  0  0  0  0  0  0  0  0
  -10.3215    1.0655    0.1161 O   0  0  0  0  0  0  0  0  0  0  0  0
  -12.2978   -0.0889    0.9253 C   0  0  0  0  0  0  0  0  0  0  0  0
  -12.0534    0.2566    2.2966 O   0  0  0  0  0  0  0  0  0  0  0  0
  1  2  1  0  0  0  0
  3  1  1  6  0  0  0
  3  9  1  0  0  0  0
  3  4  1  0  0  0  0
  4  5  1  1  0  0  0
  4  6  1  0  0  0  0
  6  7  1  6  0  0  0
  6  8  1  0  0  0  0
  8  9  1  0  0  0  0
  8 10  1  1  0  0  0
  8 13  1  0  0  0  0
 10 11  1  0  0  0  0
 12 13  1  1  0  0  0
 12 14  1  0  0  0  0
 12 21  1  0  0  0  0
 14 15  1  6  0  0  0
 14 16  1  0  0  0  0
 16 17  1  6  0  0  0
 16 18  1  0  0  0  0
 18 19  1  6  0  0  0
 18 20  1  0  0  0  0
 20 21  1  0  0  0  0
 20 22  1  1  0  0  0
 22 23  1  0  0  0  0
M  END
>  <CHROM.1>
-59.81014879,62.85211759,-175.16763316,172.69778203,178.29965289,-11.25546857
2.80010321,0.26941557,1.66202963,0.73560130,0.79224734

>  <Name>
ligand

>  <RI>
0

>  <Rbt.Current_Directory>
/home/itssahil/PROJECTS/Mol_Feturizer/New_Systems/rnas/4TS2

>  <Rbt.Executable>
rbdock ($Id: //depot/dev/client3/rdock/2013.1/src/exe/rbdock.cxx#4 $)

>  <Rbt.Library>
libRbt.so (2013.1, Build901 2013/11/27)

>  <Rbt.Parameter_File>
/export/apps/rDock/src/rDock_2013.1_src/data/scripts/dock_solv.prm

>  <Rbt.Receptor>
prm/blind_docking_40.prm

>  <SCORE>
-16.1922

>  <SCORE.INTER>
-9.20548

>  <SCORE.INTER.CONST>
1

>  <SCORE.INTER.POLAR>
0

>  <SCORE.INTER.ROT>
5

>  <SCORE.INTER.SOLV>
9.54589

>  <SCORE.INTER.VDW>
-16.2523

>  <SCORE.INTER.norm>
-0.400238

>  <SCORE.INTRA>
-6.98668

>  <SCORE.INTRA.DIHEDRAL>
-11.879

>  <SCORE.INTRA.DIHEDRAL.0>
12.4853

>  <SCORE.INTRA.POLAR>
0

>  <SCORE.INTRA.POLAR.0>
0

>  <SCORE.INTRA.REPUL>
0

>  <SCORE.INTRA.REPUL.0>
0

>  <SCORE.INTRA.SOLV>
0.602044

>  <SCORE.INTRA.SOLV.lig_0>
-31.1706

>  <SCORE.INTRA.VDW>
-1.34822

>  <SCORE.INTRA.VDW.0>
-1.16895

>  <SCORE.INTRA.norm>
-0.303768

>  <SCORE.RESTR>
0

>  <SCORE.RESTR.CAVITY>
0

>  <SCORE.RESTR.norm>
0

>  <SCORE.SYSTEM>
0

>  <SCORE.SYSTEM.CONST>
0

>  <SCORE.SYSTEM.DIHEDRAL>
0

>  <SCORE.SYSTEM.SOLV>
0

>  <SCORE.SYSTEM.norm>
0

>  <SCORE.heavy>
23

>  <SCORE.norm>
-0.704007

>  <RMSD>
13.896

$$$$
ligand
 OpenBabel11021811513D
libRbt.so/2013.1/901 2013/11/27
 23 24  0  0  0  0  0  0  0  0999 V2000
  -12.8853    2.8031    2.4750 C   0  0  0  0  0  0  0  0  0  0  0  0
  -13.9496    3.5263    3.1230 O   0  0  0  0  0  0  0  0  0  0  0  0
  -11.7135    3.7467    2.2449 C   0  0  2  0  0  0  0  0  0  0  0  0
  -12.0064    4.9557    1.3698 C   0  0  1  0  0  0  0  0  0  0  0  0
  -12.6759    5.9516    2.1458 O   0  0  0  0  0  0  0  0  0  0  0  0
  -10.6079    5.3607    0.9161 C   0  0  2  0  0  0  0  0  0  0  0  0
  -10.4738    6.1497   -0.2720 O   0  0  0  0  0  0  0  0  0  0  0  0
   -9.9515    4.0060    0.7165 C   0  0  2  0  0  0  0  0  0  0  0  0
  -10.6234    3.0827    1.5993 O   0  0  0  0  0  0  0  0  0  0  0  0
   -8.4564    4.1567    1.0506 C   0  0  0  0  0  0  0  0  0  0  0  0
   -8.2365    4.5199    2.4207 O   0  0  0  0  0  0  0  0  0  0  0  0
   -9.4981    2.3593   -0.9895 C   0  0  2  0  0  0  0  0  0  0  0  0
  -10.1907    3.5677   -0.6317 O   0  0  0  0  0  0  0  0  0  0  0  0
   -9.7726    2.0964   -2.4585 C   0  0  2  0  0  0  0  0  0  0  0  0
   -9.5403    3.2973   -3.2027 O   0  0  0  0  0  0  0  0  0  0  0  0
  -11.2154    1.6898   -2.6635 C   0  0  1  0  0  0  0  0  0  0  0  0
  -11.3694    1.2165   -4.0035 O   0  0  0  0  0  0  0  0  0  0  0  0
  -11.6111    0.6074   -1.6773 C   0  0  2  0  0  0  0  0  0  0  0  0
  -13.0105    0.3850   -1.7846 O   0  0  0  0  0  0  0  0  0  0  0  0
  -11.2821    0.9952   -0.2419 C   0  0  2  0  0  0  0  0  0  0  0  0
   -9.8855    1.2505   -0.1781 O   0  0  0  0  0  0  0  0  0  0  0  0
  -11.6697   -0.1125    0.7448 C   0  0  0  0  0  0  0  0  0  0  0  0
  -13.0725   -0.4149    0.7262 O   0  0  0  0  0  0  0  0  0  0  0  0
  1  2  1  0  0  0  0
  3  1  1  6  0  0  0
  3  9  1  0  0  0  0
  3  4  1  0  0  0  0
  4  5  1  1  0  0  0
  4  6  1  0  0  0  0
  6  7  1  6  0  0  0
  6  8  1  0  0  0  0
  8  9  1  0  0  0  0
  8 10  1  1  0  0  0
  8 13  1  0  0  0  0
 10 11  1  0  0  0  0
 12 13  1  1  0  0  0
 12 14  1  0  0  0  0
 12 21  1  0  0  0  0
 14 15  1  6  0  0  0
 14 16  1  0  0  0  0
 16 17  1  6  0  0  0
 16 18  1  0  0  0  0
 18 19  1  1  0  0  0
 18 20  1  0  0  0  0
 20 21  1  0  0  0  0
 20 22  1  1  0  0  0
 22 23  1  0  0  0  0
M  END
>  <CHROM.1>
-60.27295737,62.91768194,-175.83229467,173.72982286,-60.54181947,-11.04847550
2.83817070,0.06588819,1.55661440,0.75978478,0.83622011

>  <Name>
ligand

>  <RI>
0

>  <Rbt.Current_Directory>
/home/itssahil/PROJECTS/Mol_Feturizer/New_Systems/rnas/4TS2

>  <Rbt.Executable>
rbdock ($Id: //depot/dev/client3/rdock/2013.1/src/exe/rbdock.cxx#4 $)

>  <Rbt.Library>
libRbt.so (2013.1, Build901 2013/11/27)

>  <Rbt.Parameter_File>
/export/apps/rDock/src/rDock_2013.1_src/data/scripts/dock_solv.prm

>  <Rbt.Receptor>
prm/blind_docking_100.prm

>  <SCORE>
-15.0969

>  <SCORE.INTER>
-8.44344

>  <SCORE.INTER.CONST>
1

>  <SCORE.INTER.POLAR>
0

>  <SCORE.INTER.ROT>
5

>  <SCORE.INTER.SOLV>
10.0126

>  <SCORE.INTER.VDW>
-15.8998

>  <SCORE.INTER.norm>
-0.367106

>  <SCORE.INTRA>
-6.65341

>  <SCORE.INTRA.DIHEDRAL>
-11.9965

>  <SCORE.INTRA.DIHEDRAL.0>
12.4853

>  <SCORE.INTRA.POLAR>
0

>  <SCORE.INTRA.POLAR.0>
0

>  <SCORE.INTRA.REPUL>
0

>  <SCORE.INTRA.REPUL.0>
0

>  <SCORE.INTRA.SOLV>
0.518052

>  <SCORE.INTRA.SOLV.lig_0>
-31.1706

>  <SCORE.INTRA.VDW>
-0.914166

>  <SCORE.INTRA.VDW.0>
-1.16895

>  <SCORE.INTRA.norm>
-0.289279

>  <SCORE.RESTR>
0

>  <SCORE.RESTR.CAVITY>
0

>  <SCORE.RESTR.norm>
0

>  <SCORE.SYSTEM>
0

>  <SCORE.SYSTEM.CONST>
0

>  <SCORE.SYSTEM.DIHEDRAL>
0

>  <SCORE.SYSTEM.SOLV>
0

>  <SCORE.SYSTEM.norm>
0

>  <SCORE.heavy>
23

>  <SCORE.norm>
-0.656385

>  <RMSD>
13.900

$$$$
ligand
 OpenBabel11021811513D
libRbt.so/2013.1/901 2013/11/27
 23 24  0  0  0  0  0  0  0  0999 V2000
  -12.2806    3.5280    2.1523 C   0  0  0  0  0  0  0  0  0  0  0  0
  -13.1881    4.4482    2.7889 O   0  0  0  0  0  0  0  0  0  0  0  0
  -11.0822    4.3016    1.6212 C   0  0  2  0  0  0  0  0  0  0  0  0
  -11.3911    5.3358    0.5496 C   0  0  1  0  0  0  0  0  0  0  0  0
  -11.9015    6.5196    1.1662 O   0  0  0  0  0  0  0  0  0  0  0  0
  -10.0289    5.5195   -0.1109 C   0  0  2  0  0  0  0  0  0  0  0  0
   -9.9775    6.0446   -1.4427 O   0  0  0  0  0  0  0  0  0  0  0  0
   -9.4903    4.0998   -0.0914 C   0  0  2  0  0  0  0  0  0  0  0  0
  -10.1182    3.4307    1.0227 O   0  0  0  0  0  0  0  0  0  0  0  0
   -7.9604    4.1817    0.0581 C   0  0  0  0  0  0  0  0  0  0  0  0
   -7.5637    4.7415    1.3178 O   0  0  0  0  0  0  0  0  0  0  0  0
   -9.3120    2.1325   -1.4791 C   0  0  2  0  0  0  0  0  0  0  0  0
   -9.9084    3.4276   -1.2915 O   0  0  0  0  0  0  0  0  0  0  0  0
   -9.6465    1.6782   -2.8877 C   0  0  2  0  0  0  0  0  0  0  0  0
   -9.3530    2.7370   -3.8057 O   0  0  0  0  0  0  0  0  0  0  0  0
  -11.1193    1.3523   -3.0036 C   0  0  1  0  0  0  0  0  0  0  0  0
  -11.3445    0.7004   -4.2557 O   0  0  0  0  0  0  0  0  0  0  0  0
  -11.5605    0.4577   -1.8609 C   0  0  2  0  0  0  0  0  0  0  0  0
  -12.9745    0.3246   -1.9083 O   0  0  0  0  0  0  0  0  0  0  0  0
  -11.1640    1.0264   -0.5051 C   0  0  2  0  0  0  0  0  0  0  0  0
   -9.7518    1.1858   -0.5055 O   0  0  0  0  0  0  0  0  0  0  0  0
  -11.5988    0.1063    0.6418 C   0  0  0  0  0  0  0  0  0  0  0  0
  -13.0115   -0.1465    0.6535 O   0  0  0  0  0  0  0  0  0  0  0  0
  1  2  1  0  0  0  0
  3  1  1  6  0  0  0
  3  9  1  0  0  0  0
  3  4  1  0  0  0  0
  4  5  1  1  0  0  0
  4  6  1  0  0  0  0
  6  7  1  6  0  0  0
  6  8  1  0  0  0  0
  8  9  1  0  0  0  0
  8 10  1  1  0  0  0
  8 13  1  0  0  0  0
 10 11  1  0  0  0  0
 12 13  1  1  0  0  0
 12 14  1  0  0  0  0
 12 21  1  0  0  0  0
 14 15  1  6  0  0  0
 14 16  1  0  0  0  0
 16 17  1  6  0  0  0
 16 18  1  0  0  0  0
 18 19  1  1  0  0  0
 18 20  1  0  0  0  0
 20 21  1  0  0  0  0
 20 22  1  1  0  0  0
 22 23  1  0  0  0  0
M  END
>  <CHROM.1>
-62.68864255,65.06953110,-169.68886370,172.01441282,-57.59163171,-10.70076498
2.92409657,-0.48227502,1.40997858,0.75717331,0.77132100

>  <Name>
ligand

>  <RI>
0

>  <Rbt.Current_Directory>
/home/itssahil/PROJECTS/Mol_Feturizer/New_Systems/rnas/4TS2

>  <Rbt.Executable>
rbdock ($Id: //depot/dev/client3/rdock/2013.1/src/exe/rbdock.cxx#4 $)

>  <Rbt.Library>
libRbt.so (2013.1, Build901 2013/11/27)

>  <Rbt.Parameter_File>
/export/apps/rDock/src/rDock_2013.1_src/data/scripts/dock_solv.prm

>  <Rbt.Receptor>
prm/blind_docking_100.prm

>  <SCORE>
-13.5061

>  <SCORE.INTER>
-7.21204

>  <SCORE.INTER.CONST>
1

>  <SCORE.INTER.POLAR>
0

>  <SCORE.INTER.ROT>
5

>  <SCORE.INTER.SOLV>
10.0935

>  <SCORE.INTER.VDW>
-15.1059

>  <SCORE.INTER.norm>
-0.313567

>  <SCORE.INTRA>
-6.29404

>  <SCORE.INTRA.DIHEDRAL>
-11.3147

>  <SCORE.INTRA.DIHEDRAL.0>
12.4853

>  <SCORE.INTRA.POLAR>
0

>  <SCORE.INTRA.POLAR.0>
0

>  <SCORE.INTRA.REPUL>
0

>  <SCORE.INTRA.REPUL.0>
0

>  <SCORE.INTRA.SOLV>
0.411914

>  <SCORE.INTRA.SOLV.lig_0>
-31.1706

>  <SCORE.INTRA.VDW>
-0.842644

>  <SCORE.INTRA.VDW.0>
-1.16895

>  <SCORE.INTRA.norm>
-0.273654

>  <SCORE.RESTR>
0

>  <SCORE.RESTR.CAVITY>
0

>  <SCORE.RESTR.norm>
0

>  <SCORE.SYSTEM>
0

>  <SCORE.SYSTEM.CONST>
0

>  <SCORE.SYSTEM.DIHEDRAL>
0

>  <SCORE.SYSTEM.SOLV>
0

>  <SCORE.SYSTEM.norm>
0

>  <SCORE.heavy>
23

>  <SCORE.norm>
-0.587221

>  <RMSD>
13.901

$$$$
ligand
 OpenBabel11021811513D
libRbt.so/2013.1/901 2013/11/27
 23 24  0  0  0  0  0  0  0  0999 V2000
   -6.7613    3.9836   -3.9834 C   0  0  0  0  0  0  0  0  0  0  0  0
   -5.4995    3.7958   -4.6527 O   0  0  0  0  0  0  0  0  0  0  0  0
   -6.5019    4.4646   -2.5628 C   0  0  2  0  0  0  0  0  0  0  0  0
   -5.7795    3.4785   -1.6577 C   0  0  1  0  0  0  0  0  0  0  0  0
   -4.3793    3.5126   -1.9414 O   0  0  0  0  0  0  0  0  0  0  0  0
   -6.1435    4.0003   -0.2718 C   0  0  2  0  0  0  0  0  0  0  0  0
   -6.0572    3.1046    0.8429 O   0  0  0  0  0  0  0  0  0  0  0  0
   -7.5844    4.4318   -0.4807 C   0  0  2  0  0  0  0  0  0  0  0  0
   -7.7219    4.7639   -1.8786 O   0  0  0  0  0  0  0  0  0  0  0  0
   -7.8499    5.6373    0.4390 C   0  0  0  0  0  0  0  0  0  0  0  0
   -7.7676    5.2928    1.8290 O   0  0  0  0  0  0  0  0  0  0  0  0
   -9.8284    3.5440   -0.5442 C   0  0  2  0  0  0  0  0  0  0  0  0
   -8.4477    3.3135   -0.2145 O   0  0  0  0  0  0  0  0  0  0  0  0
  -10.6695    2.8088    0.4826 C   0  0  2  0  0  0  0  0  0  0  0  0
  -10.1890    3.1209    1.7948 O   0  0  0  0  0  0  0  0  0  0  0  0
  -10.5576    1.3128    0.2861 C   0  0  1  0  0  0  0  0  0  0  0  0
  -11.5431    0.6716    1.0991 O   0  0  0  0  0  0  0  0  0  0  0  0
  -10.7636    0.9482   -1.1718 C   0  0  2  0  0  0  0  0  0  0  0  0
  -10.4746   -0.4330   -1.3395 O   0  0  0  0  0  0  0  0  0  0  0  0
   -9.8617    1.7563   -2.0951 C   0  0  2  0  0  0  0  0  0  0  0  0
  -10.1457    3.1311   -1.8733 O   0  0  0  0  0  0  0  0  0  0  0  0
  -10.0903    1.3929   -3.5670 C   0  0  0  0  0  0  0  0  0  0  0  0
   -9.0715    1.9078   -4.4368 O   0  0  0  0  0  0  0  0  0  0  0  0
  1  2  1  0  0  0  0
  3  1  1  6  0  0  0
  3  9  1  0  0  0  0
  3  4  1  0  0  0  0
  4  5  1  6  0  0  0
  4  6  1  0  0  0  0
  6  7  1  1  0  0  0
  6  8  1  0  0  0  0
  8  9  1  0  0  0  0
  8 10  1  1  0  0  0
  8 13  1  0  0  0  0
 10 11  1  0  0  0  0
 12 13  1  1  0  0  0
 12 14  1  0  0  0  0
 12 21  1  0  0  0  0
 14 15  1  1  0  0  0
 14 16  1  0  0  0  0
 16 17  1  1  0  0  0
 16 18  1  0  0  0  0
 18 19  1  1  0  0  0
 18 20  1  0  0  0  0
 20 21  1  0  0  0  0
 20 22  1  6  0  0  0
 22 23  1  0  0  0  0
M  END
>  <CHROM.1>
-64.69948481,-65.02939029,-144.93891938,-172.36459457,-167.16753542,-8.41016667
3.03108609,-1.12478914,0.17303496,-0.59076803,-1.92222591

>  <Name>
ligand

>  <RI>
0

>  <Rbt.Current_Directory>
/home/itssahil/PROJECTS/Mol_Feturizer/New_Systems/rnas/4TS2

>  <Rbt.Executable>
rbdock ($Id: //depot/dev/client3/rdock/2013.1/src/exe/rbdock.cxx#4 $)

>  <Rbt.Library>
libRbt.so (2013.1, Build901 2013/11/27)

>  <Rbt.Parameter_File>
/export/apps/rDock/src/rDock_2013.1_src/data/scripts/dock_solv.prm

>  <Rbt.Receptor>
prm/blind_docking_80.prm

>  <SCORE>
-9.73011

>  <SCORE.INTER>
-4.80493

>  <SCORE.INTER.CONST>
1

>  <SCORE.INTER.POLAR>
0

>  <SCORE.INTER.ROT>
5

>  <SCORE.INTER.SOLV>
11.6242

>  <SCORE.INTER.VDW>
-14.0113

>  <SCORE.INTER.norm>
-0.20891

>  <SCORE.INTRA>
-4.92518

>  <SCORE.INTRA.DIHEDRAL>
-7.028

>  <SCORE.INTRA.DIHEDRAL.0>
12.4853

>  <SCORE.INTRA.POLAR>
0

>  <SCORE.INTRA.POLAR.0>
0

>  <SCORE.INTRA.REPUL>
0

>  <SCORE.INTRA.REPUL.0>
0

>  <SCORE.INTRA.SOLV>
0.616163

>  <SCORE.INTRA.SOLV.lig_0>
-31.1706

>  <SCORE.INTRA.VDW>
-1.71926

>  <SCORE.INTRA.VDW.0>
-1.16895

>  <SCORE.INTRA.norm>
-0.214138

>  <SCORE.RESTR>
0

>  <SCORE.RESTR.CAVITY>
0

>  <SCORE.RESTR.norm>
0

>  <SCORE.SYSTEM>
0

>  <SCORE.SYSTEM.CONST>
0

>  <SCORE.SYSTEM.DIHEDRAL>
0

>  <SCORE.SYSTEM.SOLV>
0

>  <SCORE.SYSTEM.norm>
0

>  <SCORE.heavy>
23

>  <SCORE.norm>
-0.423048

>  <RMSD>
13.901

$$$$
ligand
 OpenBabel11021811513D
libRbt.so/2013.1/901 2013/11/27
 23 24  0  0  0  0  0  0  0  0999 V2000
  -12.7395    2.9512    2.6429 C   0  0  0  0  0  0  0  0  0  0  0  0
  -13.3319    2.4458    1.4308 O   0  0  0  0  0  0  0  0  0  0  0  0
  -11.6170    3.9136    2.2820 C   0  0  2  0  0  0  0  0  0  0  0  0
  -12.0077    5.0639    1.3667 C   0  0  1  0  0  0  0  0  0  0  0  0
  -12.6544    6.0815    2.1339 O   0  0  0  0  0  0  0  0  0  0  0  0
  -10.6571    5.4829    0.7957 C   0  0  2  0  0  0  0  0  0  0  0  0
  -10.6298    6.2090   -0.4389 O   0  0  0  0  0  0  0  0  0  0  0  0
   -9.9726    4.1385    0.6227 C   0  0  2  0  0  0  0  0  0  0  0  0
  -10.5527    3.2464    1.5978 O   0  0  0  0  0  0  0  0  0  0  0  0
   -8.4638    4.3498    0.8431 C   0  0  0  0  0  0  0  0  0  0  0  0
   -7.8823    5.2104   -0.1462 O   0  0  0  0  0  0  0  0  0  0  0  0
   -9.5685    2.4256   -1.0297 C   0  0  2  0  0  0  0  0  0  0  0  0
  -10.2890    3.6202   -0.6804 O   0  0  0  0  0  0  0  0  0  0  0  0
   -9.8596    2.1300   -2.4892 C   0  0  2  0  0  0  0  0  0  0  0  0
   -9.6736    3.3240   -3.2573 O   0  0  0  0  0  0  0  0  0  0  0  0
  -11.2935    1.6798   -2.6630 C   0  0  1  0  0  0  0  0  0  0  0  0
  -11.4561    1.1794   -3.9921 O   0  0  0  0  0  0  0  0  0  0  0  0
  -11.6422    0.6038   -1.6523 C   0  0  2  0  0  0  0  0  0  0  0  0
  -13.0363    0.3405   -1.7321 O   0  0  0  0  0  0  0  0  0  0  0  0
  -11.3007    1.0253   -0.2294 C   0  0  2  0  0  0  0  0  0  0  0  0
   -9.9110    1.3206   -0.1935 O   0  0  0  0  0  0  0  0  0  0  0  0
  -11.6406   -0.0758    0.7822 C   0  0  0  0  0  0  0  0  0  0  0  0
  -13.0293   -0.4376    0.7722 O   0  0  0  0  0  0  0  0  0  0  0  0
  1  2  1  0  0  0  0
  3  1  1  6  0  0  0
  3  9  1  0  0  0  0
  3  4  1  0  0  0  0
  4  5  1  1  0  0  0
  4  6  1  0  0  0  0
  6  7  1  6  0  0  0
  6  8  1  0  0  0  0
  8  9  1  0  0  0  0
  8 10  1  1  0  0  0
  8 13  1  0  0  0  0
 10 11  1  0  0  0  0
 12 13  1  1  0  0  0
 12 14  1  0  0  0  0
 12 21  1  0  0  0  0
 14 15  1  6  0  0  0
 14 16  1  0  0  0  0
 16 17  1  6  0  0  0
 16 18  1  0  0  0  0
 18 19  1  1  0  0  0
 18 20  1  0  0  0  0
 20 21  1  0  0  0  0
 20 22  1  1  0  0  0
 22 23  1  0  0  0  0
M  END
>  <CHROM.1>
55.17960488,-64.03467951,-171.87353051,172.81396481,-59.28929594,-11.02367830
2.87917515,-0.15516219,1.31588921,0.82466283,0.77184064

>  <Name>
ligand

>  <RI>
0

>  <Rbt.Current_Directory>
/home/itssahil/PROJECTS/Mol_Feturizer/New_Systems/rnas/4TS2

>  <Rbt.Executable>
rbdock ($Id: //depot/dev/client3/rdock/2013.1/src/exe/rbdock.cxx#4 $)

>  <Rbt.Library>
libRbt.so (2013.1, Build901 2013/11/27)

>  <Rbt.Parameter_File>
/export/apps/rDock/src/rDock_2013.1_src/data/scripts/dock_solv.prm

>  <Rbt.Receptor>
prm/blind_docking_20.prm

>  <SCORE>
-14.2725

>  <SCORE.INTER>
-7.84299

>  <SCORE.INTER.CONST>
1

>  <SCORE.INTER.POLAR>
0

>  <SCORE.INTER.ROT>
5

>  <SCORE.INTER.SOLV>
10.0382

>  <SCORE.INTER.VDW>
-15.5081

>  <SCORE.INTER.norm>
-0.341

>  <SCORE.INTRA>
-6.42952

>  <SCORE.INTRA.DIHEDRAL>
-11.6286

>  <SCORE.INTRA.DIHEDRAL.0>
12.4853

>  <SCORE.INTRA.POLAR>
0

>  <SCORE.INTRA.POLAR.0>
0

>  <SCORE.INTRA.REPUL>
0

>  <SCORE.INTRA.REPUL.0>
0

>  <SCORE.INTRA.SOLV>
1.71023

>  <SCORE.INTRA.SOLV.lig_0>
-31.1706

>  <SCORE.INTRA.VDW>
-1.47032

>  <SCORE.INTRA.VDW.0>
-1.16895

>  <SCORE.INTRA.norm>
-0.279544

>  <SCORE.RESTR>
0

>  <SCORE.RESTR.CAVITY>
0

>  <SCORE.RESTR.norm>
0

>  <SCORE.SYSTEM>
0

>  <SCORE.SYSTEM.CONST>
0

>  <SCORE.SYSTEM.DIHEDRAL>
0

>  <SCORE.SYSTEM.SOLV>
0

>  <SCORE.SYSTEM.norm>
0

>  <SCORE.heavy>
23

>  <SCORE.norm>
-0.620544

>  <RMSD>
13.903

$$$$
ligand
 OpenBabel11021811513D
libRbt.so/2013.1/901 2013/11/27
 23 24  0  0  0  0  0  0  0  0999 V2000
  -12.7690    3.9867    2.1572 C   0  0  0  0  0  0  0  0  0  0  0  0
  -12.4739    3.2320    3.3484 O   0  0  0  0  0  0  0  0  0  0  0  0
  -11.4910    4.6467    1.6596 C   0  0  2  0  0  0  0  0  0  0  0  0
  -11.6568    5.5912    0.4790 C   0  0  1  0  0  0  0  0  0  0  0  0
  -12.1446    6.8511    0.9447 O   0  0  0  0  0  0  0  0  0  0  0  0
  -10.2396    5.6445   -0.0814 C   0  0  2  0  0  0  0  0  0  0  0  0
  -10.0559    6.0406   -1.4458 O   0  0  0  0  0  0  0  0  0  0  0  0
   -9.7862    4.2077    0.1076 C   0  0  2  0  0  0  0  0  0  0  0  0
  -10.5352    3.6769    1.2215 O   0  0  0  0  0  0  0  0  0  0  0  0
   -8.2701    4.2265    0.3740 C   0  0  0  0  0  0  0  0  0  0  0  0
   -7.7715    2.9457    0.7846 O   0  0  0  0  0  0  0  0  0  0  0  0
   -9.5829    2.1272   -1.0999 C   0  0  2  0  0  0  0  0  0  0  0  0
  -10.1484    3.4487   -1.0585 O   0  0  0  0  0  0  0  0  0  0  0  0
   -9.7765    1.5942   -2.5073 C   0  0  2  0  0  0  0  0  0  0  0  0
   -9.3448    2.5832   -3.4484 O   0  0  0  0  0  0  0  0  0  0  0  0
  -11.2385    1.3056   -2.7682 C   0  0  1  0  0  0  0  0  0  0  0  0
  -11.3480    0.5823   -3.9964 O   0  0  0  0  0  0  0  0  0  0  0  0
  -11.8355    0.4991   -1.6307 C   0  0  2  0  0  0  0  0  0  0  0  0
  -13.2396    0.4055   -1.8286 O   0  0  0  0  0  0  0  0  0  0  0  0
  -11.5704    1.1410   -0.2755 C   0  0  2  0  0  0  0  0  0  0  0  0
  -10.1618    1.2579   -0.1268 O   0  0  0  0  0  0  0  0  0  0  0  0
  -12.1625    0.3091    0.8683 C   0  0  0  0  0  0  0  0  0  0  0  0
  -11.8965    0.8668    2.1637 O   0  0  0  0  0  0  0  0  0  0  0  0
  1  2  1  0  0  0  0
  3  1  1  6  0  0  0
  3  9  1  0  0  0  0
  3  4  1  0  0  0  0
  4  5  1  1  0  0  0
  4  6  1  0  0  0  0
  6  7  1  6  0  0  0
  6  8  1  0  0  0  0
  8  9  1  0  0  0  0
  8 10  1  1  0  0  0
  8 13  1  0  0  0  0
 10 11  1  0  0  0  0
 12 13  1  6  0  0  0
 12 14  1  0  0  0  0
 12 21  1  0  0  0  0
 14 15  1  6  0  0  0
 14 16  1  0  0  0  0
 16 17  1  6  0  0  0
 16 18  1  0  0  0  0
 18 19  1  6  0  0  0
 18 20  1  0  0  0  0
 20 21  1  0  0  0  0
 20 22  1  1  0  0  0
 22 23  1  0  0  0  0
M  END
>  <CHROM.1>
-174.43376285,170.38945736,-166.74451288,170.31004470,178.29978864,-10.85113662
2.91374716,-0.26065908,1.58501048,0.93141061,0.71290006

>  <Name>
ligand

>  <RI>
0

>  <Rbt.Current_Directory>
/home/itssahil/PROJECTS/Mol_Feturizer/New_Systems/rnas/4TS2

>  <Rbt.Executable>
rbdock ($Id: //depot/dev/client3/rdock/2013.1/src/exe/rbdock.cxx#4 $)

>  <Rbt.Library>
libRbt.so (2013.1, Build901 2013/11/27)

>  <Rbt.Parameter_File>
/export/apps/rDock/src/rDock_2013.1_src/data/scripts/dock_solv.prm

>  <Rbt.Receptor>
prm/blind_docking_100.prm

>  <SCORE>
-13.465

>  <SCORE.INTER>
-7.39322

>  <SCORE.INTER.CONST>
1

>  <SCORE.INTER.POLAR>
0

>  <SCORE.INTER.ROT>
5

>  <SCORE.INTER.SOLV>
9.51087

>  <SCORE.INTER.VDW>
-15.0324

>  <SCORE.INTER.norm>
-0.321444

>  <SCORE.INTRA>
-6.07177

>  <SCORE.INTRA.DIHEDRAL>
-10.6341

>  <SCORE.INTRA.DIHEDRAL.0>
12.4853

>  <SCORE.INTRA.POLAR>
0

>  <SCORE.INTRA.POLAR.0>
0

>  <SCORE.INTRA.REPUL>
0

>  <SCORE.INTRA.REPUL.0>
0

>  <SCORE.INTRA.SOLV>
0.85748

>  <SCORE.INTRA.SOLV.lig_0>
-31.1706

>  <SCORE.INTRA.VDW>
-1.18344

>  <SCORE.INTRA.VDW.0>
-1.16895

>  <SCORE.INTRA.norm>
-0.26399

>  <SCORE.RESTR>
0

>  <SCORE.RESTR.CAVITY>
0

>  <SCORE.RESTR.norm>
0

>  <SCORE.SYSTEM>
0

>  <SCORE.SYSTEM.CONST>
0

>  <SCORE.SYSTEM.DIHEDRAL>
0

>  <SCORE.SYSTEM.SOLV>
0

>  <SCORE.SYSTEM.norm>
0

>  <SCORE.heavy>
23

>  <SCORE.norm>
-0.585434

>  <RMSD>
13.908

$$$$
ligand
 OpenBabel11021811513D
libRbt.so/2013.1/901 2013/11/27
 23 24  0  0  0  0  0  0  0  0999 V2000
   -6.5081    3.7991    0.3622 C   0  0  0  0  0  0  0  0  0  0  0  0
   -6.7858    2.7659   -0.6026 O   0  0  0  0  0  0  0  0  0  0  0  0
   -7.8008    4.5334    0.6878 C   0  0  2  0  0  0  0  0  0  0  0  0
   -8.8371    3.7283    1.4569 C   0  0  1  0  0  0  0  0  0  0  0  0
   -8.4850    3.7023    2.8416 O   0  0  0  0  0  0  0  0  0  0  0  0
  -10.1183    4.4995    1.1581 C   0  0  2  0  0  0  0  0  0  0  0  0
  -11.3741    3.8253    1.3016 O   0  0  0  0  0  0  0  0  0  0  0  0
   -9.9027    4.8921   -0.2929 C   0  0  2  0  0  0  0  0  0  0  0  0
   -8.4757    4.9603   -0.4989 O   0  0  0  0  0  0  0  0  0  0  0  0
  -10.5949    6.2484   -0.5186 C   0  0  0  0  0  0  0  0  0  0  0  0
  -12.0191    6.1667   -0.3684 O   0  0  0  0  0  0  0  0  0  0  0  0
   -9.6119    2.6522   -1.1448 C   0  0  2  0  0  0  0  0  0  0  0  0
  -10.4125    3.8468   -1.1380 O   0  0  0  0  0  0  0  0  0  0  0  0
   -9.6785    2.0688   -2.5440 C   0  0  2  0  0  0  0  0  0  0  0  0
   -9.4202    3.1045   -3.4983 O   0  0  0  0  0  0  0  0  0  0  0  0
  -11.0571    1.5103   -2.8202 C   0  0  1  0  0  0  0  0  0  0  0  0
  -11.0091    0.7585   -4.0351 O   0  0  0  0  0  0  0  0  0  0  0  0
  -11.5151    0.6266   -1.6756 C   0  0  2  0  0  0  0  0  0  0  0  0
  -12.8740    0.2715   -1.8919 O   0  0  0  0  0  0  0  0  0  0  0  0
  -11.3974    1.3294   -0.3298 C   0  0  2  0  0  0  0  0  0  0  0  0
  -10.0376    1.7074   -0.1631 O   0  0  0  0  0  0  0  0  0  0  0  0
  -11.8460    0.4218    0.8218 C   0  0  0  0  0  0  0  0  0  0  0  0
  -11.7850    1.0679    2.1018 O   0  0  0  0  0  0  0  0  0  0  0  0
  1  2  1  0  0  0  0
  3  1  1  6  0  0  0
  3  9  1  0  0  0  0
  3  4  1  0  0  0  0
  4  5  1  1  0  0  0
  4  6  1  0  0  0  0
  6  7  1  6  0  0  0
  6  8  1  0  0  0  0
  8  9  1  0  0  0  0
  8 10  1  6  0  0  0
  8 13  1  0  0  0  0
 10 11  1  0  0  0  0
 12 13  1  6  0  0  0
 12 14  1  0  0  0  0
 12 21  1  0  0  0  0
 14 15  1  6  0  0  0
 14 16  1  0  0  0  0
 16 17  1  6  0  0  0
 16 18  1  0  0  0  0
 18 19  1  6  0  0  0
 18 20  1  0  0  0  0
 20 21  1  0  0  0  0
 20 22  1  1  0  0  0
 22 23  1  0  0  0  0
M  END
>  <CHROM.1>
68.48802910,-65.04408309,-145.17286572,-72.22811737,-178.26528526,-10.08123082
2.97140422,-0.47047944,-0.79019131,-0.73991613,-1.89708864

>  <Name>
ligand

>  <RI>
0

>  <Rbt.Current_Directory>
/home/itssahil/PROJECTS/Mol_Feturizer/New_Systems/rnas/4TS2

>  <Rbt.Executable>
rbdock ($Id: //depot/dev/client3/rdock/2013.1/src/exe/rbdock.cxx#4 $)

>  <Rbt.Library>
libRbt.so (2013.1, Build901 2013/11/27)

>  <Rbt.Parameter_File>
/export/apps/rDock/src/rDock_2013.1_src/data/scripts/dock_solv.prm

>  <Rbt.Receptor>
prm/blind_docking_20.prm

>  <SCORE>
-11.8346

>  <SCORE.INTER>
-8.31001

>  <SCORE.INTER.CONST>
1

>  <SCORE.INTER.POLAR>
0

>  <SCORE.INTER.ROT>
5

>  <SCORE.INTER.SOLV>
10.885

>  <SCORE.INTER.VDW>
-16.1017

>  <SCORE.INTER.norm>
-0.361305

>  <SCORE.INTRA>
-3.52456

>  <SCORE.INTRA.DIHEDRAL>
-6.75931

>  <SCORE.INTRA.DIHEDRAL.0>
12.4853

>  <SCORE.INTRA.POLAR>
0

>  <SCORE.INTRA.POLAR.0>
0

>  <SCORE.INTRA.REPUL>
0

>  <SCORE.INTRA.REPUL.0>
0

>  <SCORE.INTRA.SOLV>
1.9019

>  <SCORE.INTRA.SOLV.lig_0>
-31.1706

>  <SCORE.INTRA.VDW>
-1.09586

>  <SCORE.INTRA.VDW.0>
-1.16895

>  <SCORE.INTRA.norm>
-0.153242

>  <SCORE.RESTR>
0

>  <SCORE.RESTR.CAVITY>
0

>  <SCORE.RESTR.norm>
0

>  <SCORE.SYSTEM>
0

>  <SCORE.SYSTEM.CONST>
0

>  <SCORE.SYSTEM.DIHEDRAL>
0

>  <SCORE.SYSTEM.SOLV>
0

>  <SCORE.SYSTEM.norm>
0

>  <SCORE.heavy>
23

>  <SCORE.norm>
-0.514547

>  <RMSD>
13.915

$$$$
ligand
 OpenBabel11021811513D
libRbt.so/2013.1/901 2013/11/27
 23 24  0  0  0  0  0  0  0  0999 V2000
  -13.1059    3.4453    2.2886 C   0  0  0  0  0  0  0  0  0  0  0  0
  -14.0901    4.3972    2.7366 O   0  0  0  0  0  0  0  0  0  0  0  0
  -11.7850    4.1671    2.0634 C   0  0  2  0  0  0  0  0  0  0  0  0
  -11.8149    5.2837    1.0310 C   0  0  1  0  0  0  0  0  0  0  0  0
  -12.3746    6.4592    1.6202 O   0  0  0  0  0  0  0  0  0  0  0  0
  -10.3395    5.4151    0.6684 C   0  0  2  0  0  0  0  0  0  0  0  0
   -9.9920    6.0163   -0.5846 O   0  0  0  0  0  0  0  0  0  0  0  0
   -9.8933    3.9637    0.6892 C   0  0  2  0  0  0  0  0  0  0  0  0
  -10.7684    3.2714    1.6048 O   0  0  0  0  0  0  0  0  0  0  0  0
   -8.4230    3.9326    1.1439 C   0  0  0  0  0  0  0  0  0  0  0  0
   -8.2556    4.4120    2.4855 O   0  0  0  0  0  0  0  0  0  0  0  0
   -9.6577    2.0322   -0.7396 C   0  0  2  0  0  0  0  0  0  0  0  0
  -10.0962    3.3963   -0.6160 O   0  0  0  0  0  0  0  0  0  0  0  0
   -9.8530    1.6218   -2.1873 C   0  0  2  0  0  0  0  0  0  0  0  0
   -9.2976    2.6284   -3.0407 O   0  0  0  0  0  0  0  0  0  0  0  0
  -11.3262    1.4960   -2.5083 C   0  0  1  0  0  0  0  0  0  0  0  0
  -11.4620    0.8757   -3.7890 O   0  0  0  0  0  0  0  0  0  0  0  0
  -12.0355    0.6728   -1.4500 C   0  0  2  0  0  0  0  0  0  0  0  0
  -13.4346    0.7305   -1.6923 O   0  0  0  0  0  0  0  0  0  0  0  0
  -11.7569    1.1881   -0.0444 C   0  0  2  0  0  0  0  0  0  0  0  0
  -10.3495    1.1566    0.1506 O   0  0  0  0  0  0  0  0  0  0  0  0
  -12.4640    0.3388    1.0184 C   0  0  0  0  0  0  0  0  0  0  0  0
  -12.0878   -1.0454    0.9720 O   0  0  0  0  0  0  0  0  0  0  0  0
  1  2  1  0  0  0  0
  3  1  1  6  0  0  0
  3  9  1  0  0  0  0
  3  4  1  0  0  0  0
  4  5  1  1  0  0  0
  4  6  1  0  0  0  0
  6  7  1  6  0  0  0
  6  8  1  0  0  0  0
  8  9  1  0  0  0  0
  8 10  1  1  0  0  0
  8 13  1  0  0  0  0
 10 11  1  0  0  0  0
 12 13  1  6  0  0  0
 12 14  1  0  0  0  0
 12 21  1  0  0  0  0
 14 15  1  6  0  0  0
 14 16  1  0  0  0  0
 16 17  1  6  0  0  0
 16 18  1  0  0  0  0
 18 19  1  6  0  0  0
 18 20  1  0  0  0  0
 20 21  1  0  0  0  0
 20 22  1  1  0  0  0
 22 23  1  0  0  0  0
M  END
>  <CHROM.1>
-59.89151144,63.85483896,-176.18932929,177.57176941,58.11056541,-11.08188251
2.86447813,0.08088629,1.49093929,0.66666483,0.72187924

>  <Name>
ligand

>  <RI>
0

>  <Rbt.Current_Directory>
/home/itssahil/PROJECTS/Mol_Feturizer/New_Systems/rnas/4TS2

>  <Rbt.Executable>
rbdock ($Id: //depot/dev/client3/rdock/2013.1/src/exe/rbdock.cxx#4 $)

>  <Rbt.Library>
libRbt.so (2013.1, Build901 2013/11/27)

>  <Rbt.Parameter_File>
/export/apps/rDock/src/rDock_2013.1_src/data/scripts/dock_solv.prm

>  <Rbt.Receptor>
prm/blind_docking_60.prm

>  <SCORE>
-13.7933

>  <SCORE.INTER>
-6.80958

>  <SCORE.INTER.CONST>
1

>  <SCORE.INTER.POLAR>
0

>  <SCORE.INTER.ROT>
5

>  <SCORE.INTER.SOLV>
10.7146

>  <SCORE.INTER.VDW>
-15.0446

>  <SCORE.INTER.norm>
-0.296069

>  <SCORE.INTRA>
-6.98375

>  <SCORE.INTRA.DIHEDRAL>
-12.1859

>  <SCORE.INTRA.DIHEDRAL.0>
12.4853

>  <SCORE.INTRA.POLAR>
0

>  <SCORE.INTRA.POLAR.0>
0

>  <SCORE.INTRA.REPUL>
0

>  <SCORE.INTRA.REPUL.0>
0

>  <SCORE.INTRA.SOLV>
0.379711

>  <SCORE.INTRA.SOLV.lig_0>
-31.1706

>  <SCORE.INTRA.VDW>
-1.08067

>  <SCORE.INTRA.VDW.0>
-1.16895

>  <SCORE.INTRA.norm>
-0.303641

>  <SCORE.RESTR>
0

>  <SCORE.RESTR.CAVITY>
0

>  <SCORE.RESTR.norm>
0

>  <SCORE.SYSTEM>
0

>  <SCORE.SYSTEM.CONST>
0

>  <SCORE.SYSTEM.DIHEDRAL>
0

>  <SCORE.SYSTEM.SOLV>
0

>  <SCORE.SYSTEM.norm>
0

>  <SCORE.heavy>
23

>  <SCORE.norm>
-0.59971

>  <RMSD>
13.928

$$$$
ligand
 OpenBabel11021811513D
libRbt.so/2013.1/901 2013/11/27
 23 24  0  0  0  0  0  0  0  0999 V2000
  -12.8372    3.0320    2.6921 C   0  0  0  0  0  0  0  0  0  0  0  0
  -13.4490    2.5380    1.4849 O   0  0  0  0  0  0  0  0  0  0  0  0
  -11.6925    3.9642    2.3217 C   0  0  2  0  0  0  0  0  0  0  0  0
  -12.0545    5.1097    1.3888 C   0  0  1  0  0  0  0  0  0  0  0  0
  -12.6812    6.1521    2.1389 O   0  0  0  0  0  0  0  0  0  0  0  0
  -10.6931    5.4906    0.8170 C   0  0  2  0  0  0  0  0  0  0  0  0
  -10.6454    6.1982   -0.4277 O   0  0  0  0  0  0  0  0  0  0  0  0
  -10.0378    4.1291    0.6656 C   0  0  2  0  0  0  0  0  0  0  0  0
  -10.6409    3.2640    1.6511 O   0  0  0  0  0  0  0  0  0  0  0  0
   -8.5255    4.3102    0.8887 C   0  0  0  0  0  0  0  0  0  0  0  0
   -8.2199    4.7739    2.2113 O   0  0  0  0  0  0  0  0  0  0  0  0
   -9.6267    2.4138   -0.9826 C   0  0  2  0  0  0  0  0  0  0  0  0
  -10.3610    3.5993   -0.6312 O   0  0  0  0  0  0  0  0  0  0  0  0
   -9.9120    2.1191   -2.4434 C   0  0  2  0  0  0  0  0  0  0  0  0
   -9.7379    3.3173   -3.2078 O   0  0  0  0  0  0  0  0  0  0  0  0
  -11.3405    1.6535   -2.6210 C   0  0  1  0  0  0  0  0  0  0  0  0
  -11.4952    1.1552   -3.9518 O   0  0  0  0  0  0  0  0  0  0  0  0
  -11.6789    0.5709   -1.6139 C   0  0  2  0  0  0  0  0  0  0  0  0
  -13.0700    0.2924   -1.6970 O   0  0  0  0  0  0  0  0  0  0  0  0
  -11.3447    0.9921   -0.1892 C   0  0  2  0  0  0  0  0  0  0  0  0
   -9.9584    1.3027   -0.1501 O   0  0  0  0  0  0  0  0  0  0  0  0
  -11.6740   -0.1156    0.8186 C   0  0  0  0  0  0  0  0  0  0  0  0
  -13.0654   -0.4673    0.8310 O   0  0  0  0  0  0  0  0  0  0  0  0
  1  2  1  0  0  0  0
  3  1  1  6  0  0  0
  3  9  1  0  0  0  0
  3  4  1  0  0  0  0
  4  5  1  1  0  0  0
  4  6  1  0  0  0  0
  6  7  1  6  0  0  0
  6  8  1  0  0  0  0
  8  9  1  0  0  0  0
  8 10  1  1  0  0  0
  8 13  1  0  0  0  0
 10 11  1  0  0  0  0
 12 13  1  1  0  0  0
 12 14  1  0  0  0  0
 12 21  1  0  0  0  0
 14 15  1  6  0  0  0
 14 16  1  0  0  0  0
 16 17  1  6  0  0  0
 16 18  1  0  0  0  0
 18 19  1  1  0  0  0
 18 20  1  0  0  0  0
 20 21  1  0  0  0  0
 20 22  1  1  0  0  0
 22 23  1  0  0  0  0
M  END
>  <CHROM.1>
54.33948169,62.58156461,-170.96967146,170.46895413,-60.88915952,-11.09158954
2.85863298,-0.00457015,1.34979000,0.83370348,0.84381900

>  <Name>
ligand

>  <RI>
0

>  <Rbt.Current_Directory>
/home/itssahil/PROJECTS/Mol_Feturizer/New_Systems/rnas/4TS2

>  <Rbt.Executable>
rbdock ($Id: //depot/dev/client3/rdock/2013.1/src/exe/rbdock.cxx#4 $)

>  <Rbt.Library>
libRbt.so (2013.1, Build901 2013/11/27)

>  <Rbt.Parameter_File>
/export/apps/rDock/src/rDock_2013.1_src/data/scripts/dock_solv.prm

>  <Rbt.Receptor>
prm/blind_docking_20.prm

>  <SCORE>
-14.6411

>  <SCORE.INTER>
-8.32348

>  <SCORE.INTER.CONST>
1

>  <SCORE.INTER.POLAR>
0

>  <SCORE.INTER.ROT>
5

>  <SCORE.INTER.SOLV>
10.6987

>  <SCORE.INTER.VDW>
-16.0486

>  <SCORE.INTER.norm>
-0.361891

>  <SCORE.INTRA>
-6.31759

>  <SCORE.INTRA.DIHEDRAL>
-11.2935

>  <SCORE.INTRA.DIHEDRAL.0>
12.4853

>  <SCORE.INTRA.POLAR>
0

>  <SCORE.INTRA.POLAR.0>
0

>  <SCORE.INTRA.REPUL>
0

>  <SCORE.INTRA.REPUL.0>
0

>  <SCORE.INTRA.SOLV>
1.35927

>  <SCORE.INTRA.SOLV.lig_0>
-31.1706

>  <SCORE.INTRA.VDW>
-1.3505

>  <SCORE.INTRA.VDW.0>
-1.16895

>  <SCORE.INTRA.norm>
-0.274678

>  <SCORE.RESTR>
0

>  <SCORE.RESTR.CAVITY>
0

>  <SCORE.RESTR.norm>
0

>  <SCORE.SYSTEM>
0

>  <SCORE.SYSTEM.CONST>
0

>  <SCORE.SYSTEM.DIHEDRAL>
0

>  <SCORE.SYSTEM.SOLV>
0

>  <SCORE.SYSTEM.norm>
0

>  <SCORE.heavy>
23

>  <SCORE.norm>
-0.636569

>  <RMSD>
13.929

$$$$
ligand
 OpenBabel11021811513D
libRbt.so/2013.1/901 2013/11/27
 23 24  0  0  0  0  0  0  0  0999 V2000
   -8.8586    4.5448    2.6505 C   0  0  0  0  0  0  0  0  0  0  0  0
   -9.1559    5.6337    3.5457 O   0  0  0  0  0  0  0  0  0  0  0  0
   -8.7500    5.0852    1.2318 C   0  0  2  0  0  0  0  0  0  0  0  0
  -10.0183    5.7064    0.6671 C   0  0  1  0  0  0  0  0  0  0  0  0
  -10.1645    7.0331    1.1778 O   0  0  0  0  0  0  0  0  0  0  0  0
   -9.7558    5.6460   -0.8338 C   0  0  2  0  0  0  0  0  0  0  0  0
  -10.8736    5.6970   -1.7283 O   0  0  0  0  0  0  0  0  0  0  0  0
   -9.0482    4.3086   -0.9627 C   0  0  2  0  0  0  0  0  0  0  0  0
   -8.4016    4.0551    0.3025 O   0  0  0  0  0  0  0  0  0  0  0  0
   -8.0443    4.4203   -2.1243 C   0  0  0  0  0  0  0  0  0  0  0  0
   -8.6920    4.6100   -3.3901 O   0  0  0  0  0  0  0  0  0  0  0  0
   -9.5020    1.9430   -1.1231 C   0  0  2  0  0  0  0  0  0  0  0  0
  -10.0323    3.2792   -1.1598 O   0  0  0  0  0  0  0  0  0  0  0  0
  -10.2698    1.1214   -2.1418 C   0  0  2  0  0  0  0  0  0  0  0  0
  -10.3171    1.8350   -3.3823 O   0  0  0  0  0  0  0  0  0  0  0  0
  -11.6916    0.8952   -1.6770 C   0  0  1  0  0  0  0  0  0  0  0  0
  -12.3006   -0.0770   -2.5299 O   0  0  0  0  0  0  0  0  0  0  0  0
  -11.7137    0.4162   -0.2379 C   0  0  2  0  0  0  0  0  0  0  0  0
  -13.0618    0.3890    0.2108 O   0  0  0  0  0  0  0  0  0  0  0  0
  -10.9072    1.3261    0.6788 C   0  0  2  0  0  0  0  0  0  0  0  0
   -9.5771    1.3644    0.1797 O   0  0  0  0  0  0  0  0  0  0  0  0
  -10.9214    0.8236    2.1274 C   0  0  0  0  0  0  0  0  0  0  0  0
  -10.1678    1.6588    3.0184 O   0  0  0  0  0  0  0  0  0  0  0  0
  1  2  1  0  0  0  0
  3  1  1  1  0  0  0
  3  9  1  0  0  0  0
  3  4  1  0  0  0  0
  4  5  1  1  0  0  0
  4  6  1  0  0  0  0
  6  7  1  6  0  0  0
  6  8  1  0  0  0  0
  8  9  1  0  0  0  0
  8 10  1  6  0  0  0
  8 13  1  0  0  0  0
 10 11  1  0  0  0  0
 12 13  1  1  0  0  0
 12 14  1  0  0  0  0
 12 21  1  0  0  0  0
 14 15  1  6  0  0  0
 14 16  1  0  0  0  0
 16 17  1  6  0  0  0
 16 18  1  0  0  0  0
 18 19  1  1  0  0  0
 18 20  1  0  0  0  0
 20 21  1  0  0  0  0
 20 22  1  1  0  0  0
 22 23  1  0  0  0  0
M  END
>  <CHROM.1>
-62.74783926,-65.32263637,-143.91767753,-172.33655337,179.91617044,-10.10744869
3.12629102,-0.23683428,0.46221977,1.14201251,1.51142943

>  <Name>
ligand

>  <RI>
0

>  <Rbt.Current_Directory>
/home/itssahil/PROJECTS/Mol_Feturizer/New_Systems/rnas/4TS2

>  <Rbt.Executable>
rbdock ($Id: //depot/dev/client3/rdock/2013.1/src/exe/rbdock.cxx#4 $)

>  <Rbt.Library>
libRbt.so (2013.1, Build901 2013/11/27)

>  <Rbt.Parameter_File>
/export/apps/rDock/src/rDock_2013.1_src/data/scripts/dock_solv.prm

>  <Rbt.Receptor>
prm/blind_docking_100.prm

>  <SCORE>
-11.5297

>  <SCORE.INTER>
-6.40057

>  <SCORE.INTER.CONST>
1

>  <SCORE.INTER.POLAR>
0

>  <SCORE.INTER.ROT>
5

>  <SCORE.INTER.SOLV>
9.63501

>  <SCORE.INTER.VDW>
-14.412

>  <SCORE.INTER.norm>
-0.278286

>  <SCORE.INTRA>
-5.12912

>  <SCORE.INTRA.DIHEDRAL>
-7.45929

>  <SCORE.INTRA.DIHEDRAL.0>
12.4853

>  <SCORE.INTRA.POLAR>
0

>  <SCORE.INTRA.POLAR.0>
0

>  <SCORE.INTRA.REPUL>
0

>  <SCORE.INTRA.REPUL.0>
0

>  <SCORE.INTRA.SOLV>
0.608324

>  <SCORE.INTRA.SOLV.lig_0>
-31.1706

>  <SCORE.INTRA.VDW>
-1.70363

>  <SCORE.INTRA.VDW.0>
-1.16895

>  <SCORE.INTRA.norm>
-0.223005

>  <SCORE.RESTR>
0

>  <SCORE.RESTR.CAVITY>
0

>  <SCORE.RESTR.norm>
0

>  <SCORE.SYSTEM>
0

>  <SCORE.SYSTEM.CONST>
0

>  <SCORE.SYSTEM.DIHEDRAL>
0

>  <SCORE.SYSTEM.SOLV>
0

>  <SCORE.SYSTEM.norm>
0

>  <SCORE.heavy>
23

>  <SCORE.norm>
-0.501291

>  <RMSD>
13.942

$$$$
ligand
 OpenBabel11021811513D
libRbt.so/2013.1/901 2013/11/27
 23 24  0  0  0  0  0  0  0  0999 V2000
  -12.9266    3.5899    2.2704 C   0  0  0  0  0  0  0  0  0  0  0  0
  -13.8709    4.5623    2.7584 O   0  0  0  0  0  0  0  0  0  0  0  0
  -11.6103    4.2889    1.9618 C   0  0  2  0  0  0  0  0  0  0  0  0
  -11.6739    5.3632    0.8869 C   0  0  1  0  0  0  0  0  0  0  0  0
  -12.1989    6.5670    1.4502 O   0  0  0  0  0  0  0  0  0  0  0  0
  -10.2138    5.4651    0.4587 C   0  0  2  0  0  0  0  0  0  0  0  0
   -9.9137    6.0118   -0.8310 O   0  0  0  0  0  0  0  0  0  0  0  0
   -9.7791    4.0115    0.5203 C   0  0  2  0  0  0  0  0  0  0  0  0
  -10.6211    3.3654    1.4986 O   0  0  0  0  0  0  0  0  0  0  0  0
   -8.2915    3.9841    0.9150 C   0  0  0  0  0  0  0  0  0  0  0  0
   -8.0672    4.4954    2.2363 O   0  0  0  0  0  0  0  0  0  0  0  0
   -9.6232    2.0203   -0.8356 C   0  0  2  0  0  0  0  0  0  0  0  0
  -10.0407    3.3938   -0.7513 O   0  0  0  0  0  0  0  0  0  0  0  0
   -9.8346    1.5685   -2.2686 C   0  0  2  0  0  0  0  0  0  0  0  0
   -9.2703    2.5400   -3.1563 O   0  0  0  0  0  0  0  0  0  0  0  0
  -11.3115    1.4548   -2.5761 C   0  0  1  0  0  0  0  0  0  0  0  0
  -11.4654    0.7976   -3.8362 O   0  0  0  0  0  0  0  0  0  0  0  0
  -12.0256    0.6752   -1.4884 C   0  0  2  0  0  0  0  0  0  0  0  0
  -13.4253    0.7462   -1.7233 O   0  0  0  0  0  0  0  0  0  0  0  0
  -11.7297    1.2292   -0.1012 C   0  0  2  0  0  0  0  0  0  0  0  0
  -10.3216    1.1827    0.0856 O   0  0  0  0  0  0  0  0  0  0  0  0
  -12.4418    0.4236    0.9919 C   0  0  0  0  0  0  0  0  0  0  0  0
  -12.1036   -0.9710    0.9713 O   0  0  0  0  0  0  0  0  0  0  0  0
  1  2  1  0  0  0  0
  3  1  1  6  0  0  0
  3  9  1  0  0  0  0
  3  4  1  0  0  0  0
  4  5  1  1  0  0  0
  4  6  1  0  0  0  0
  6  7  1  6  0  0  0
  6  8  1  0  0  0  0
  8  9  1  0  0  0  0
  8 10  1  1  0  0  0
  8 13  1  0  0  0  0
 10 11  1  0  0  0  0
 12 13  1  6  0  0  0
 12 14  1  0  0  0  0
 12 21  1  0  0  0  0
 14 15  1  6  0  0  0
 14 16  1  0  0  0  0
 16 17  1  6  0  0  0
 16 18  1  0  0  0  0
 18 19  1  6  0  0  0
 18 20  1  0  0  0  0
 20 21  1  0  0  0  0
 20 22  1  1  0  0  0
 22 23  1  0  0  0  0
M  END
>  <CHROM.1>
-61.63681958,64.81117117,-174.18936293,177.77459937,57.11611492,-10.99899644
2.90413679,-0.02244454,1.45544639,0.67884934,0.71943300

>  <Name>
ligand

>  <RI>
0

>  <Rbt.Current_Directory>
/home/itssahil/PROJECTS/Mol_Feturizer/New_Systems/rnas/4TS2

>  <Rbt.Executable>
rbdock ($Id: //depot/dev/client3/rdock/2013.1/src/exe/rbdock.cxx#4 $)

>  <Rbt.Library>
libRbt.so (2013.1, Build901 2013/11/27)

>  <Rbt.Parameter_File>
/export/apps/rDock/src/rDock_2013.1_src/data/scripts/dock_solv.prm

>  <Rbt.Receptor>
prm/blind_docking_20.prm

>  <SCORE>
-13.9926

>  <SCORE.INTER>
-6.9407

>  <SCORE.INTER.CONST>
1

>  <SCORE.INTER.POLAR>
0

>  <SCORE.INTER.ROT>
5

>  <SCORE.INTER.SOLV>
10.6584

>  <SCORE.INTER.VDW>
-15.1133

>  <SCORE.INTER.norm>
-0.30177

>  <SCORE.INTRA>
-7.05193

>  <SCORE.INTRA.DIHEDRAL>
-12.0383

>  <SCORE.INTRA.DIHEDRAL.0>
12.4853

>  <SCORE.INTRA.POLAR>
0

>  <SCORE.INTRA.POLAR.0>
0

>  <SCORE.INTRA.REPUL>
0

>  <SCORE.INTRA.REPUL.0>
0

>  <SCORE.INTRA.SOLV>
0.358165

>  <SCORE.INTRA.SOLV.lig_0>
-31.1706

>  <SCORE.INTRA.VDW>
-1.21187

>  <SCORE.INTRA.VDW.0>
-1.16895

>  <SCORE.INTRA.norm>
-0.306606

>  <SCORE.RESTR>
0

>  <SCORE.RESTR.CAVITY>
0

>  <SCORE.RESTR.norm>
0

>  <SCORE.SYSTEM>
0

>  <SCORE.SYSTEM.CONST>
0

>  <SCORE.SYSTEM.DIHEDRAL>
0

>  <SCORE.SYSTEM.SOLV>
0

>  <SCORE.SYSTEM.norm>
0

>  <SCORE.heavy>
23

>  <SCORE.norm>
-0.608375

>  <RMSD>
13.944

$$$$
ligand
 OpenBabel11021811513D
libRbt.so/2013.1/901 2013/11/27
 23 24  0  0  0  0  0  0  0  0999 V2000
   -8.5057    4.5176    2.4520 C   0  0  0  0  0  0  0  0  0  0  0  0
   -8.7551    5.6159    3.3504 O   0  0  0  0  0  0  0  0  0  0  0  0
   -8.4872    5.0408    1.0229 C   0  0  2  0  0  0  0  0  0  0  0  0
   -9.7806    5.6797    0.5411 C   0  0  1  0  0  0  0  0  0  0  0  0
   -9.8667    7.0143    1.0449 O   0  0  0  0  0  0  0  0  0  0  0  0
   -9.6252    5.5985   -0.9738 C   0  0  2  0  0  0  0  0  0  0  0  0
  -10.8019    5.6610   -1.7884 O   0  0  0  0  0  0  0  0  0  0  0  0
   -8.9526    4.2468   -1.1360 C   0  0  2  0  0  0  0  0  0  0  0  0
   -8.2234    3.9946    0.0839 O   0  0  0  0  0  0  0  0  0  0  0  0
   -8.0308    4.3273   -2.3662 C   0  0  0  0  0  0  0  0  0  0  0  0
   -7.0311    5.3475   -2.2340 O   0  0  0  0  0  0  0  0  0  0  0  0
   -9.4674    1.8884   -1.1603 C   0  0  2  0  0  0  0  0  0  0  0  0
   -9.9664    3.2340   -1.2515 O   0  0  0  0  0  0  0  0  0  0  0  0
  -10.2592    1.0430   -2.1404 C   0  0  2  0  0  0  0  0  0  0  0  0
  -10.2956    1.7044   -3.4098 O   0  0  0  0  0  0  0  0  0  0  0  0
  -11.6837    0.8702   -1.6611 C   0  0  1  0  0  0  0  0  0  0  0  0
  -12.3194   -0.1225   -2.4698 O   0  0  0  0  0  0  0  0  0  0  0  0
  -11.7102    0.4530   -0.2029 C   0  0  2  0  0  0  0  0  0  0  0  0
  -13.0564    0.4767    0.2516 O   0  0  0  0  0  0  0  0  0  0  0  0
  -10.8781    1.3815    0.6714 C   0  0  2  0  0  0  0  0  0  0  0  0
   -9.5499    1.3672    0.1661 O   0  0  0  0  0  0  0  0  0  0  0  0
  -10.8972    0.9410    2.1399 C   0  0  0  0  0  0  0  0  0  0  0  0
  -10.1274    1.8003    2.9935 O   0  0  0  0  0  0  0  0  0  0  0  0
  1  2  1  0  0  0  0
  3  1  1  1  0  0  0
  3  9  1  0  0  0  0
  3  4  1  0  0  0  0
  4  5  1  6  0  0  0
  4  6  1  0  0  0  0
  6  7  1  6  0  0  0
  6  8  1  0  0  0  0
  8  9  1  0  0  0  0
  8 10  1  6  0  0  0
  8 13  1  0  0  0  0
 10 11  1  0  0  0  0
 12 13  1  1  0  0  0
 12 14  1  0  0  0  0
 12 21  1  0  0  0  0
 14 15  1  6  0  0  0
 14 16  1  0  0  0  0
 16 17  1  6  0  0  0
 16 18  1  0  0  0  0
 18 19  1  1  0  0  0
 18 20  1  0  0  0  0
 20 21  1  0  0  0  0
 20 22  1  1  0  0  0
 22 23  1  0  0  0  0
M  END
>  <CHROM.1>
-61.24342389,59.27391893,-142.41149229,-169.00495840,-179.68576482,-9.92802506
3.14620761,-0.25564225,0.37290712,1.04931754,1.46023347

>  <Name>
ligand

>  <RI>
0

>  <Rbt.Current_Directory>
/home/itssahil/PROJECTS/Mol_Feturizer/New_Systems/rnas/4TS2

>  <Rbt.Executable>
rbdock ($Id: //depot/dev/client3/rdock/2013.1/src/exe/rbdock.cxx#4 $)

>  <Rbt.Library>
libRbt.so (2013.1, Build901 2013/11/27)

>  <Rbt.Parameter_File>
/export/apps/rDock/src/rDock_2013.1_src/data/scripts/dock_solv.prm

>  <Rbt.Receptor>
prm/blind_docking_60.prm

>  <SCORE>
-10.785

>  <SCORE.INTER>
-5.86391

>  <SCORE.INTER.CONST>
1

>  <SCORE.INTER.POLAR>
0

>  <SCORE.INTER.ROT>
5

>  <SCORE.INTER.SOLV>
8.80657

>  <SCORE.INTER.VDW>
-13.7781

>  <SCORE.INTER.norm>
-0.254953

>  <SCORE.INTRA>
-4.92114

>  <SCORE.INTRA.DIHEDRAL>
-7.03164

>  <SCORE.INTRA.DIHEDRAL.0>
12.4853

>  <SCORE.INTRA.POLAR>
0

>  <SCORE.INTRA.POLAR.0>
0

>  <SCORE.INTRA.REPUL>
0

>  <SCORE.INTRA.REPUL.0>
0

>  <SCORE.INTRA.SOLV>
0.222626

>  <SCORE.INTRA.SOLV.lig_0>
-31.1706

>  <SCORE.INTRA.VDW>
-1.51663

>  <SCORE.INTRA.VDW.0>
-1.16895

>  <SCORE.INTRA.norm>
-0.213963

>  <SCORE.RESTR>
0

>  <SCORE.RESTR.CAVITY>
0

>  <SCORE.RESTR.norm>
0

>  <SCORE.SYSTEM>
0

>  <SCORE.SYSTEM.CONST>
0

>  <SCORE.SYSTEM.DIHEDRAL>
0

>  <SCORE.SYSTEM.SOLV>
0

>  <SCORE.SYSTEM.norm>
0

>  <SCORE.heavy>
23

>  <SCORE.norm>
-0.468915

>  <RMSD>
13.946

$$$$
ligand
 OpenBabel11021811513D
libRbt.so/2013.1/901 2013/11/27
 23 24  0  0  0  0  0  0  0  0999 V2000
  -12.3742    4.6252    2.2033 C   0  0  0  0  0  0  0  0  0  0  0  0
  -13.2764    5.7036    2.5173 O   0  0  0  0  0  0  0  0  0  0  0  0
  -11.2143    5.1722    1.3837 C   0  0  2  0  0  0  0  0  0  0  0  0
  -11.5869    5.7656    0.0337 C   0  0  1  0  0  0  0  0  0  0  0  0
  -12.0977    7.0870    0.2213 O   0  0  0  0  0  0  0  0  0  0  0  0
  -10.2559    5.7158   -0.7089 C   0  0  2  0  0  0  0  0  0  0  0  0
  -10.2680    5.7436   -2.1411 O   0  0  0  0  0  0  0  0  0  0  0  0
   -9.6869    4.3955   -0.2200 C   0  0  2  0  0  0  0  0  0  0  0  0
  -10.2562    4.1532    1.0840 O   0  0  0  0  0  0  0  0  0  0  0  0
   -8.1544    4.5339   -0.1761 C   0  0  0  0  0  0  0  0  0  0  0  0
   -7.5240    3.4234    0.4772 O   0  0  0  0  0  0  0  0  0  0  0  0
   -9.6263    2.0425   -0.7559 C   0  0  2  0  0  0  0  0  0  0  0  0
  -10.1374    3.3442   -1.0910 O   0  0  0  0  0  0  0  0  0  0  0  0
  -10.0005    1.1027   -1.8869 C   0  0  2  0  0  0  0  0  0  0  0  0
   -9.6475    1.7063   -3.1364 O   0  0  0  0  0  0  0  0  0  0  0  0
  -11.4920    0.8492   -1.8938 C   0  0  1  0  0  0  0  0  0  0  0  0
  -11.7684   -0.2191   -2.8026 O   0  0  0  0  0  0  0  0  0  0  0  0
  -11.9800    0.4925   -0.5026 C   0  0  2  0  0  0  0  0  0  0  0  0
  -13.4000    0.4393   -0.5195 O   0  0  0  0  0  0  0  0  0  0  0  0
  -11.5372    1.5135    0.5367 C   0  0  2  0  0  0  0  0  0  0  0  0
  -10.1177    1.5726    0.4992 O   0  0  0  0  0  0  0  0  0  0  0  0
  -12.0205    1.1345    1.9416 C   0  0  0  0  0  0  0  0  0  0  0  0
  -11.5032   -0.1262    2.3918 O   0  0  0  0  0  0  0  0  0  0  0  0
  1  2  1  0  0  0  0
  3  1  1  6  0  0  0
  3  9  1  0  0  0  0
  3  4  1  0  0  0  0
  4  5  1  1  0  0  0
  4  6  1  0  0  0  0
  6  7  1  6  0  0  0
  6  8  1  0  0  0  0
  8  9  1  0  0  0  0
  8 10  1  1  0  0  0
  8 13  1  0  0  0  0
 10 11  1  0  0  0  0
 12 13  1  6  0  0  0
 12 14  1  0  0  0  0
 12 21  1  0  0  0  0
 14 15  1  6  0  0  0
 14 16  1  0  0  0  0
 16 17  1  6  0  0  0
 16 18  1  0  0  0  0
 18 19  1  6  0  0  0
 18 20  1  0  0  0  0
 20 21  1  0  0  0  0
 20 22  1  1  0  0  0
 22 23  1  0  0  0  0
M  END
>  <CHROM.1>
-62.60568037,170.45362004,-170.76348244,178.04986810,61.07890807,-10.87388607
3.04376681,-0.10879636,1.51456905,0.84657827,0.33249573

>  <Name>
ligand

>  <RI>
0

>  <Rbt.Current_Directory>
/home/itssahil/PROJECTS/Mol_Feturizer/New_Systems/rnas/4TS2

>  <Rbt.Executable>
rbdock ($Id: //depot/dev/client3/rdock/2013.1/src/exe/rbdock.cxx#4 $)

>  <Rbt.Library>
libRbt.so (2013.1, Build901 2013/11/27)

>  <Rbt.Parameter_File>
/export/apps/rDock/src/rDock_2013.1_src/data/scripts/dock_solv.prm

>  <Rbt.Receptor>
prm/blind_docking_100.prm

>  <SCORE>
-13.3542

>  <SCORE.INTER>
-6.51551

>  <SCORE.INTER.CONST>
1

>  <SCORE.INTER.POLAR>
0

>  <SCORE.INTER.ROT>
5

>  <SCORE.INTER.SOLV>
9.69725

>  <SCORE.INTER.VDW>
-14.5094

>  <SCORE.INTER.norm>
-0.283283

>  <SCORE.INTRA>
-6.83874

>  <SCORE.INTRA.DIHEDRAL>
-11.6829

>  <SCORE.INTRA.DIHEDRAL.0>
12.4853

>  <SCORE.INTRA.POLAR>
0

>  <SCORE.INTRA.POLAR.0>
0

>  <SCORE.INTRA.REPUL>
0

>  <SCORE.INTRA.REPUL.0>
0

>  <SCORE.INTRA.SOLV>
0.504668

>  <SCORE.INTRA.SOLV.lig_0>
-31.1706

>  <SCORE.INTRA.VDW>
-1.24962

>  <SCORE.INTRA.VDW.0>
-1.16895

>  <SCORE.INTRA.norm>
-0.297336

>  <SCORE.RESTR>
0

>  <SCORE.RESTR.CAVITY>
0

>  <SCORE.RESTR.norm>
0

>  <SCORE.SYSTEM>
0

>  <SCORE.SYSTEM.CONST>
0

>  <SCORE.SYSTEM.DIHEDRAL>
0

>  <SCORE.SYSTEM.SOLV>
0

>  <SCORE.SYSTEM.norm>
0

>  <SCORE.heavy>
23

>  <SCORE.norm>
-0.580619

>  <RMSD>
13.958

$$$$
ligand
 OpenBabel11021811513D
libRbt.so/2013.1/901 2013/11/27
 23 24  0  0  0  0  0  0  0  0999 V2000
  -10.6397    0.2530   -2.0560 C   0  0  0  0  0  0  0  0  0  0  0  0
  -11.6012   -0.4933   -2.8267 O   0  0  0  0  0  0  0  0  0  0  0  0
  -11.1313    0.3596   -0.6196 C   0  0  2  0  0  0  0  0  0  0  0  0
  -12.5077    0.9818   -0.4414 C   0  0  1  0  0  0  0  0  0  0  0  0
  -13.5104    0.0049   -0.7284 O   0  0  0  0  0  0  0  0  0  0  0  0
  -12.4680    1.4179    1.0194 C   0  0  2  0  0  0  0  0  0  0  0  0
  -13.3676    2.4449    1.4534 O   0  0  0  0  0  0  0  0  0  0  0  0
  -11.0325    1.8946    1.1530 C   0  0  2  0  0  0  0  0  0  0  0  0
  -10.2586    1.1670    0.1758 O   0  0  0  0  0  0  0  0  0  0  0  0
  -10.5768    1.6088    2.5953 C   0  0  0  0  0  0  0  0  0  0  0  0
  -10.7855    0.2409    2.9734 O   0  0  0  0  0  0  0  0  0  0  0  0
   -9.6353    3.7962    0.6435 C   0  0  2  0  0  0  0  0  0  0  0  0
  -10.9709    3.2878    0.8036 O   0  0  0  0  0  0  0  0  0  0  0  0
   -9.7078    5.3075    0.7571 C   0  0  2  0  0  0  0  0  0  0  0  0
  -10.4677    5.6559    1.9196 O   0  0  0  0  0  0  0  0  0  0  0  0
  -10.4025    5.8970   -0.4507 C   0  0  1  0  0  0  0  0  0  0  0  0
  -10.2323    7.3162   -0.4266 O   0  0  0  0  0  0  0  0  0  0  0  0
   -9.8274    5.3226   -1.7314 C   0  0  2  0  0  0  0  0  0  0  0  0
  -10.6221    5.7638   -2.8238 O   0  0  0  0  0  0  0  0  0  0  0  0
   -9.8111    3.7999   -1.7169 C   0  0  2  0  0  0  0  0  0  0  0  0
   -9.0447    3.3920   -0.5917 O   0  0  0  0  0  0  0  0  0  0  0  0
   -9.2120    3.2298   -3.0080 C   0  0  0  0  0  0  0  0  0  0  0  0
   -7.8517    3.6342   -3.2217 O   0  0  0  0  0  0  0  0  0  0  0  0
  1  2  1  0  0  0  0
  3  1  1  6  0  0  0
  3  9  1  0  0  0  0
  3  4  1  0  0  0  0
  4  5  1  1  0  0  0
  4  6  1  0  0  0  0
  6  7  1  6  0  0  0
  6  8  1  0  0  0  0
  8  9  1  0  0  0  0
  8 10  1  1  0  0  0
  8 13  1  0  0  0  0
 10 11  1  0  0  0  0
 12 13  1  6  0  0  0
 12 14  1  0  0  0  0
 12 21  1  0  0  0  0
 14 15  1  1  0  0  0
 14 16  1  0  0  0  0
 16 17  1  6  0  0  0
 16 18  1  0  0  0  0
 18 19  1  6  0  0  0
 18 20  1  0  0  0  0
 20 21  1  0  0  0  0
 20 22  1  6  0  0  0
 22 23  1  0  0  0  0
M  END
>  <CHROM.1>
-56.57267367,53.04520629,-160.86746182,-168.77501041,60.85497701,-10.68603399
2.88048913,-0.31873383,-2.71677001,1.14132402,0.84272059

>  <Name>
ligand

>  <RI>
0

>  <Rbt.Current_Directory>
/home/itssahil/PROJECTS/Mol_Feturizer/New_Systems/rnas/4TS2

>  <Rbt.Executable>
rbdock ($Id: //depot/dev/client3/rdock/2013.1/src/exe/rbdock.cxx#4 $)

>  <Rbt.Library>
libRbt.so (2013.1, Build901 2013/11/27)

>  <Rbt.Parameter_File>
/export/apps/rDock/src/rDock_2013.1_src/data/scripts/dock_solv.prm

>  <Rbt.Receptor>
prm/blind_docking_40.prm

>  <SCORE>
-13.3355

>  <SCORE.INTER>
-7.06082

>  <SCORE.INTER.CONST>
1

>  <SCORE.INTER.POLAR>
0

>  <SCORE.INTER.ROT>
5

>  <SCORE.INTER.SOLV>
11.4736

>  <SCORE.INTER.VDW>
-15.4651

>  <SCORE.INTER.norm>
-0.306992

>  <SCORE.INTRA>
-6.27465

>  <SCORE.INTRA.DIHEDRAL>
-10.1574

>  <SCORE.INTRA.DIHEDRAL.0>
12.4853

>  <SCORE.INTRA.POLAR>
0

>  <SCORE.INTRA.POLAR.0>
0

>  <SCORE.INTRA.REPUL>
0

>  <SCORE.INTRA.REPUL.0>
0

>  <SCORE.INTRA.SOLV>
0.430549

>  <SCORE.INTRA.SOLV.lig_0>
-31.1706

>  <SCORE.INTRA.VDW>
-1.41122

>  <SCORE.INTRA.VDW.0>
-1.16895

>  <SCORE.INTRA.norm>
-0.272811

>  <SCORE.RESTR>
0

>  <SCORE.RESTR.CAVITY>
0

>  <SCORE.RESTR.norm>
0

>  <SCORE.SYSTEM>
0

>  <SCORE.SYSTEM.CONST>
0

>  <SCORE.SYSTEM.DIHEDRAL>
0

>  <SCORE.SYSTEM.SOLV>
0

>  <SCORE.SYSTEM.norm>
0

>  <SCORE.heavy>
23

>  <SCORE.norm>
-0.579803

>  <RMSD>
13.963

$$$$
ligand
 OpenBabel11021811513D
libRbt.so/2013.1/901 2013/11/27
 23 24  0  0  0  0  0  0  0  0999 V2000
   -8.5928    4.6832    1.4743 C   0  0  0  0  0  0  0  0  0  0  0  0
   -7.3212    4.1322    1.8682 O   0  0  0  0  0  0  0  0  0  0  0  0
   -8.5079    5.1383    0.0245 C   0  0  2  0  0  0  0  0  0  0  0  0
   -9.7505    5.8247   -0.5218 C   0  0  1  0  0  0  0  0  0  0  0  0
   -9.7741    7.1837   -0.0804 O   0  0  0  0  0  0  0  0  0  0  0  0
   -9.5609    5.6654   -2.0265 C   0  0  2  0  0  0  0  0  0  0  0  0
  -10.7108    5.7552   -2.8761 O   0  0  0  0  0  0  0  0  0  0  0  0
   -8.9616    4.2726   -2.1093 C   0  0  2  0  0  0  0  0  0  0  0  0
   -8.2795    4.0370   -0.8593 O   0  0  0  0  0  0  0  0  0  0  0  0
   -8.0053    4.2455   -3.3153 C   0  0  0  0  0  0  0  0  0  0  0  0
   -7.3022    3.0002   -3.4272 O   0  0  0  0  0  0  0  0  0  0  0  0
   -9.6045    1.9462   -2.0645 C   0  0  2  0  0  0  0  0  0  0  0  0
  -10.0276    3.3131   -2.2082 O   0  0  0  0  0  0  0  0  0  0  0  0
  -10.7284    1.0663   -2.5794 C   0  0  2  0  0  0  0  0  0  0  0  0
  -11.1555    1.5488   -3.8580 O   0  0  0  0  0  0  0  0  0  0  0  0
  -11.9134    1.1164   -1.6400 C   0  0  1  0  0  0  0  0  0  0  0  0
  -12.8409    0.0979   -2.0220 O   0  0  0  0  0  0  0  0  0  0  0  0
  -11.4675    0.9070   -0.2054 C   0  0  2  0  0  0  0  0  0  0  0  0
  -12.5761    1.1385    0.6529 O   0  0  0  0  0  0  0  0  0  0  0  0
  -10.3369    1.8498    0.1842 C   0  0  2  0  0  0  0  0  0  0  0  0
   -9.2618    1.6225   -0.7171 O   0  0  0  0  0  0  0  0  0  0  0  0
   -9.8819    1.6180    1.6299 C   0  0  0  0  0  0  0  0  0  0  0  0
  -10.8909    1.9486    2.5955 O   0  0  0  0  0  0  0  0  0  0  0  0
  1  2  1  0  0  0  0
  3  1  1  1  0  0  0
  3  9  1  0  0  0  0
  3  4  1  0  0  0  0
  4  5  1  6  0  0  0
  4  6  1  0  0  0  0
  6  7  1  6  0  0  0
  6  8  1  0  0  0  0
  8  9  1  0  0  0  0
  8 10  1  6  0  0  0
  8 13  1  0  0  0  0
 10 11  1  0  0  0  0
 12 13  1  1  0  0  0
 12 14  1  0  0  0  0
 12 21  1  0  0  0  0
 14 15  1  6  0  0  0
 14 16  1  0  0  0  0
 16 17  1  6  0  0  0
 16 18  1  0  0  0  0
 18 19  1  1  0  0  0
 18 20  1  0  0  0  0
 20 21  1  0  0  0  0
 20 22  1  1  0  0  0
 22 23  1  0  0  0  0
M  END
>  <CHROM.1>
-176.43317824,175.52259596,-164.05538459,-169.94766637,-65.78103998,-9.89453178
3.12893599,-0.95183991,0.02071861,0.99263288,1.60437280

>  <Name>
ligand

>  <RI>
0

>  <Rbt.Current_Directory>
/home/itssahil/PROJECTS/Mol_Feturizer/New_Systems/rnas/4TS2

>  <Rbt.Executable>
rbdock ($Id: //depot/dev/client3/rdock/2013.1/src/exe/rbdock.cxx#4 $)

>  <Rbt.Library>
libRbt.so (2013.1, Build901 2013/11/27)

>  <Rbt.Parameter_File>
/export/apps/rDock/src/rDock_2013.1_src/data/scripts/dock_solv.prm

>  <Rbt.Receptor>
prm/blind_docking_40.prm

>  <SCORE>
-13.7674

>  <SCORE.INTER>
-7.08202

>  <SCORE.INTER.CONST>
1

>  <SCORE.INTER.POLAR>
0

>  <SCORE.INTER.ROT>
5

>  <SCORE.INTER.SOLV>
11.0296

>  <SCORE.INTER.VDW>
-15.3312

>  <SCORE.INTER.norm>
-0.307914

>  <SCORE.INTRA>
-6.68534

>  <SCORE.INTRA.DIHEDRAL>
-10.6893

>  <SCORE.INTRA.DIHEDRAL.0>
12.4853

>  <SCORE.INTRA.POLAR>
0

>  <SCORE.INTRA.POLAR.0>
0

>  <SCORE.INTRA.REPUL>
0

>  <SCORE.INTRA.REPUL.0>
0

>  <SCORE.INTRA.SOLV>
0.539537

>  <SCORE.INTRA.SOLV.lig_0>
-31.1706

>  <SCORE.INTRA.VDW>
-1.61045

>  <SCORE.INTRA.VDW.0>
-1.16895

>  <SCORE.INTRA.norm>
-0.290667

>  <SCORE.RESTR>
0

>  <SCORE.RESTR.CAVITY>
0

>  <SCORE.RESTR.norm>
0

>  <SCORE.SYSTEM>
0

>  <SCORE.SYSTEM.CONST>
0

>  <SCORE.SYSTEM.DIHEDRAL>
0

>  <SCORE.SYSTEM.SOLV>
0

>  <SCORE.SYSTEM.norm>
0

>  <SCORE.heavy>
23

>  <SCORE.norm>
-0.598581

>  <RMSD>
13.970

$$$$
ligand
 OpenBabel11021811513D
libRbt.so/2013.1/901 2013/11/27
 23 24  0  0  0  0  0  0  0  0999 V2000
   -9.0713    3.9045    3.1124 C   0  0  0  0  0  0  0  0  0  0  0  0
   -9.8650    2.7258    2.8757 O   0  0  0  0  0  0  0  0  0  0  0  0
   -9.1289    4.7963    1.8804 C   0  0  2  0  0  0  0  0  0  0  0  0
  -10.4988    5.3666    1.5464 C   0  0  1  0  0  0  0  0  0  0  0  0
  -10.7636    6.4891    2.3903 O   0  0  0  0  0  0  0  0  0  0  0  0
  -10.3389    5.7239    0.0726 C   0  0  2  0  0  0  0  0  0  0  0  0
  -11.5160    5.8513   -0.7340 O   0  0  0  0  0  0  0  0  0  0  0  0
   -9.4895    4.5688   -0.4275 C   0  0  2  0  0  0  0  0  0  0  0  0
   -8.7286    4.0909    0.7022 O   0  0  0  0  0  0  0  0  0  0  0  0
   -8.5913    5.1032   -1.5577 C   0  0  0  0  0  0  0  0  0  0  0  0
   -7.5882    4.1568   -1.9523 O   0  0  0  0  0  0  0  0  0  0  0  0
   -9.6845    2.2506   -1.0723 C   0  0  2  0  0  0  0  0  0  0  0  0
  -10.3567    3.5019   -0.8477 O   0  0  0  0  0  0  0  0  0  0  0  0
   -9.9263    1.8582   -2.5179 C   0  0  2  0  0  0  0  0  0  0  0  0
   -9.6451    2.9792   -3.3631 O   0  0  0  0  0  0  0  0  0  0  0  0
  -11.3726    1.4658   -2.7257 C   0  0  1  0  0  0  0  0  0  0  0  0
  -11.5025    0.8733   -4.0201 O   0  0  0  0  0  0  0  0  0  0  0  0
  -11.8205    0.4888   -1.6554 C   0  0  2  0  0  0  0  0  0  0  0  0
  -13.2216    0.2880   -1.7817 O   0  0  0  0  0  0  0  0  0  0  0  0
  -11.5204    1.0014   -0.2532 C   0  0  2  0  0  0  0  0  0  0  0  0
  -10.1201    1.2310   -0.1733 O   0  0  0  0  0  0  0  0  0  0  0  0
  -11.9609   -0.0010    0.8202 C   0  0  0  0  0  0  0  0  0  0  0  0
  -11.9399    0.5504    2.1451 O   0  0  0  0  0  0  0  0  0  0  0  0
  1  2  1  0  0  0  0
  3  1  1  1  0  0  0
  3  9  1  0  0  0  0
  3  4  1  0  0  0  0
  4  5  1  1  0  0  0
  4  6  1  0  0  0  0
  6  7  1  6  0  0  0
  6  8  1  0  0  0  0
  8  9  1  0  0  0  0
  8 10  1  6  0  0  0
  8 13  1  0  0  0  0
 10 11  1  0  0  0  0
 12 13  1  1  0  0  0
 12 14  1  0  0  0  0
 12 21  1  0  0  0  0
 14 15  1  6  0  0  0
 14 16  1  0  0  0  0
 16 17  1  6  0  0  0
 16 18  1  0  0  0  0
 18 19  1  1  0  0  0
 18 20  1  0  0  0  0
 20 21  1  0  0  0  0
 20 22  1  1  0  0  0
 22 23  1  0  0  0  0
M  END
>  <CHROM.1>
64.58839686,170.14620958,-120.67000899,-167.35906569,-168.39942237,-10.38417610
3.00326543,-0.32754245,0.86340196,1.06112707,1.32193047

>  <Name>
ligand

>  <RI>
0

>  <Rbt.Current_Directory>
/home/itssahil/PROJECTS/Mol_Feturizer/New_Systems/rnas/4TS2

>  <Rbt.Executable>
rbdock ($Id: //depot/dev/client3/rdock/2013.1/src/exe/rbdock.cxx#4 $)

>  <Rbt.Library>
libRbt.so (2013.1, Build901 2013/11/27)

>  <Rbt.Parameter_File>
/export/apps/rDock/src/rDock_2013.1_src/data/scripts/dock_solv.prm

>  <Rbt.Receptor>
prm/blind_docking_40.prm

>  <SCORE>
-11.2247

>  <SCORE.INTER>
-8.26332

>  <SCORE.INTER.CONST>
1

>  <SCORE.INTER.POLAR>
0

>  <SCORE.INTER.ROT>
5

>  <SCORE.INTER.SOLV>
9.32323

>  <SCORE.INTER.VDW>
-15.55

>  <SCORE.INTER.norm>
-0.359275

>  <SCORE.INTRA>
-2.96136

>  <SCORE.INTRA.DIHEDRAL>
-3.88225

>  <SCORE.INTRA.DIHEDRAL.0>
12.4853

>  <SCORE.INTRA.POLAR>
0

>  <SCORE.INTRA.POLAR.0>
0

>  <SCORE.INTRA.REPUL>
0

>  <SCORE.INTRA.REPUL.0>
0

>  <SCORE.INTRA.SOLV>
1.02892

>  <SCORE.INTRA.SOLV.lig_0>
-31.1706

>  <SCORE.INTRA.VDW>
-1.5347

>  <SCORE.INTRA.VDW.0>
-1.16895

>  <SCORE.INTRA.norm>
-0.128755

>  <SCORE.RESTR>
0

>  <SCORE.RESTR.CAVITY>
0

>  <SCORE.RESTR.norm>
0

>  <SCORE.SYSTEM>
0

>  <SCORE.SYSTEM.CONST>
0

>  <SCORE.SYSTEM.DIHEDRAL>
0

>  <SCORE.SYSTEM.SOLV>
0

>  <SCORE.SYSTEM.norm>
0

>  <SCORE.heavy>
23

>  <SCORE.norm>
-0.48803

>  <RMSD>
13.977

$$$$
ligand
 OpenBabel11021811513D
libRbt.so/2013.1/901 2013/11/27
 23 24  0  0  0  0  0  0  0  0999 V2000
   -8.7493    4.8229    1.5649 C   0  0  0  0  0  0  0  0  0  0  0  0
   -7.5044    4.2686    2.0322 O   0  0  0  0  0  0  0  0  0  0  0  0
   -8.5785    5.2782    0.1227 C   0  0  2  0  0  0  0  0  0  0  0  0
   -9.8026    5.9199   -0.5123 C   0  0  1  0  0  0  0  0  0  0  0  0
   -9.9043    7.2780   -0.0794 O   0  0  0  0  0  0  0  0  0  0  0  0
   -9.5023    5.7647   -1.9993 C   0  0  2  0  0  0  0  0  0  0  0  0
  -10.5920    5.8128   -2.9280 O   0  0  0  0  0  0  0  0  0  0  0  0
   -8.8508    4.3935   -2.0340 C   0  0  2  0  0  0  0  0  0  0  0  0
   -8.2505    4.1840   -0.7382 O   0  0  0  0  0  0  0  0  0  0  0  0
   -7.8116    4.3977   -3.1698 C   0  0  0  0  0  0  0  0  0  0  0  0
   -7.0202    3.2015   -3.1907 O   0  0  0  0  0  0  0  0  0  0  0  0
   -9.4042    2.0441   -2.0731 C   0  0  2  0  0  0  0  0  0  0  0  0
   -9.8733    3.3972   -2.2036 O   0  0  0  0  0  0  0  0  0  0  0  0
  -10.4787    1.1343   -2.6389 C   0  0  2  0  0  0  0  0  0  0  0  0
  -10.8849    1.6267   -3.9206 O   0  0  0  0  0  0  0  0  0  0  0  0
  -11.6922    1.1219   -1.7356 C   0  0  1  0  0  0  0  0  0  0  0  0
  -12.5694    0.0782   -2.1652 O   0  0  0  0  0  0  0  0  0  0  0  0
  -11.2820    0.8999   -0.2922 C   0  0  2  0  0  0  0  0  0  0  0  0
  -12.4236    1.0734    0.5360 O   0  0  0  0  0  0  0  0  0  0  0  0
  -10.1994    1.8754    0.1498 C   0  0  2  0  0  0  0  0  0  0  0  0
   -9.0901    1.7059   -0.7223 O   0  0  0  0  0  0  0  0  0  0  0  0
   -9.7795    1.6312    1.6041 C   0  0  0  0  0  0  0  0  0  0  0  0
  -10.8395    1.8699    2.5417 O   0  0  0  0  0  0  0  0  0  0  0  0
  1  2  1  0  0  0  0
  3  1  1  1  0  0  0
  3  9  1  0  0  0  0
  3  4  1  0  0  0  0
  4  5  1  1  0  0  0
  4  6  1  0  0  0  0
  6  7  1  6  0  0  0
  6  8  1  0  0  0  0
  8  9  1  0  0  0  0
  8 10  1  6  0  0  0
  8 13  1  0  0  0  0
 10 11  1  0  0  0  0
 12 13  1  1  0  0  0
 12 14  1  0  0  0  0
 12 21  1  0  0  0  0
 14 15  1  6  0  0  0
 14 16  1  0  0  0  0
 16 17  1  6  0  0  0
 16 18  1  0  0  0  0
 18 19  1  1  0  0  0
 18 20  1  0  0  0  0
 20 21  1  0  0  0  0
 20 22  1  1  0  0  0
 22 23  1  0  0  0  0
M  END
>  <CHROM.1>
-178.68603179,172.98422614,-164.92708620,-172.10655971,-64.18304089,-9.79158043
3.20090479,-0.94166846,0.07815858,1.04594259,1.55968794

>  <Name>
ligand

>  <RI>
0

>  <Rbt.Current_Directory>
/home/itssahil/PROJECTS/Mol_Feturizer/New_Systems/rnas/4TS2

>  <Rbt.Executable>
rbdock ($Id: //depot/dev/client3/rdock/2013.1/src/exe/rbdock.cxx#4 $)

>  <Rbt.Library>
libRbt.so (2013.1, Build901 2013/11/27)

>  <Rbt.Parameter_File>
/export/apps/rDock/src/rDock_2013.1_src/data/scripts/dock_solv.prm

>  <Rbt.Receptor>
prm/blind_docking_40.prm

>  <SCORE>
-13.7661

>  <SCORE.INTER>
-6.98634

>  <SCORE.INTER.CONST>
1

>  <SCORE.INTER.POLAR>
0

>  <SCORE.INTER.ROT>
5

>  <SCORE.INTER.SOLV>
10.268

>  <SCORE.INTER.VDW>
-15.0136

>  <SCORE.INTER.norm>
-0.303754

>  <SCORE.INTRA>
-6.77979

>  <SCORE.INTRA.DIHEDRAL>
-10.9768

>  <SCORE.INTRA.DIHEDRAL.0>
12.4853

>  <SCORE.INTRA.POLAR>
0

>  <SCORE.INTRA.POLAR.0>
0

>  <SCORE.INTRA.REPUL>
0

>  <SCORE.INTRA.REPUL.0>
0

>  <SCORE.INTRA.SOLV>
0.581661

>  <SCORE.INTRA.SOLV.lig_0>
-31.1706

>  <SCORE.INTRA.VDW>
-1.58224

>  <SCORE.INTRA.VDW.0>
-1.16895

>  <SCORE.INTRA.norm>
-0.294773

>  <SCORE.RESTR>
0

>  <SCORE.RESTR.CAVITY>
0

>  <SCORE.RESTR.norm>
0

>  <SCORE.SYSTEM>
0

>  <SCORE.SYSTEM.CONST>
0

>  <SCORE.SYSTEM.DIHEDRAL>
0

>  <SCORE.SYSTEM.SOLV>
0

>  <SCORE.SYSTEM.norm>
0

>  <SCORE.heavy>
23

>  <SCORE.norm>
-0.598527

>  <RMSD>
14.002

$$$$
ligand
 OpenBabel11021811513D
libRbt.so/2013.1/901 2013/11/27
 23 24  0  0  0  0  0  0  0  0999 V2000
   -6.6820    3.9467    0.7301 C   0  0  0  0  0  0  0  0  0  0  0  0
   -6.8803    2.9406   -0.2818 O   0  0  0  0  0  0  0  0  0  0  0  0
   -8.0279    4.5594    1.0901 C   0  0  2  0  0  0  0  0  0  0  0  0
   -9.0455    3.6017    1.6906 C   0  0  1  0  0  0  0  0  0  0  0  0
   -8.7492    3.4015    3.0742 O   0  0  0  0  0  0  0  0  0  0  0  0
  -10.3566    4.3386    1.4384 C   0  0  2  0  0  0  0  0  0  0  0  0
  -11.5754    3.5858    1.4273 O   0  0  0  0  0  0  0  0  0  0  0  0
  -10.1055    4.9403    0.0670 C   0  0  2  0  0  0  0  0  0  0  0  0
   -8.6777    5.1115   -0.0584 O   0  0  0  0  0  0  0  0  0  0  0  0
  -10.8665    6.2765   -0.0043 C   0  0  0  0  0  0  0  0  0  0  0  0
  -10.3744    7.2367    0.9410 O   0  0  0  0  0  0  0  0  0  0  0  0
   -9.6309    2.8764   -1.0919 C   0  0  2  0  0  0  0  0  0  0  0  0
  -10.5181    3.9975   -0.9369 O   0  0  0  0  0  0  0  0  0  0  0  0
   -9.7090    2.4323   -2.5407 C   0  0  2  0  0  0  0  0  0  0  0  0
   -9.5675    3.5753   -3.3914 O   0  0  0  0  0  0  0  0  0  0  0  0
  -11.0517    1.7973   -2.8287 C   0  0  1  0  0  0  0  0  0  0  0  0
  -10.9956    1.1767   -4.1153 O   0  0  0  0  0  0  0  0  0  0  0  0
  -11.3961    0.7704   -1.7668 C   0  0  2  0  0  0  0  0  0  0  0  0
  -12.7320    0.3326   -1.9749 O   0  0  0  0  0  0  0  0  0  0  0  0
  -11.2782    1.3422   -0.3604 C   0  0  2  0  0  0  0  0  0  0  0  0
   -9.9450    1.8077   -0.1992 O   0  0  0  0  0  0  0  0  0  0  0  0
  -11.6112    0.2917    0.7056 C   0  0  0  0  0  0  0  0  0  0  0  0
  -12.9583   -0.1945    0.6127 O   0  0  0  0  0  0  0  0  0  0  0  0
  1  2  1  0  0  0  0
  3  1  1  6  0  0  0
  3  9  1  0  0  0  0
  3  4  1  0  0  0  0
  4  5  1  1  0  0  0
  4  6  1  0  0  0  0
  6  7  1  6  0  0  0
  6  8  1  0  0  0  0
  8  9  1  0  0  0  0
  8 10  1  6  0  0  0
  8 13  1  0  0  0  0
 10 11  1  0  0  0  0
 12 13  1  6  0  0  0
 12 14  1  0  0  0  0
 12 21  1  0  0  0  0
 14 15  1  6  0  0  0
 14 16  1  0  0  0  0
 16 17  1  6  0  0  0
 16 18  1  0  0  0  0
 18 19  1  6  0  0  0
 18 20  1  0  0  0  0
 20 21  1  0  0  0  0
 20 22  1  1  0  0  0
 22 23  1  0  0  0  0
M  END
>  <CHROM.1>
62.41269695,63.79237775,-149.60684311,-73.72663841,-61.86278438,-10.13017798
3.04305400,-0.34240577,-0.69987949,-0.89851700,-1.79164475

>  <Name>
ligand

>  <RI>
0

>  <Rbt.Current_Directory>
/home/itssahil/PROJECTS/Mol_Feturizer/New_Systems/rnas/4TS2

>  <Rbt.Executable>
rbdock ($Id: //depot/dev/client3/rdock/2013.1/src/exe/rbdock.cxx#4 $)

>  <Rbt.Library>
libRbt.so (2013.1, Build901 2013/11/27)

>  <Rbt.Parameter_File>
/export/apps/rDock/src/rDock_2013.1_src/data/scripts/dock_solv.prm

>  <Rbt.Receptor>
prm/blind_docking_80.prm

>  <SCORE>
-11.3504

>  <SCORE.INTER>
-8.09729

>  <SCORE.INTER.CONST>
1

>  <SCORE.INTER.POLAR>
0

>  <SCORE.INTER.ROT>
5

>  <SCORE.INTER.SOLV>
10.9195

>  <SCORE.INTER.VDW>
-15.9714

>  <SCORE.INTER.norm>
-0.352056

>  <SCORE.INTRA>
-3.25309

>  <SCORE.INTRA.DIHEDRAL>
-7.5952

>  <SCORE.INTRA.DIHEDRAL.0>
12.4853

>  <SCORE.INTRA.POLAR>
0

>  <SCORE.INTRA.POLAR.0>
0

>  <SCORE.INTRA.REPUL>
0

>  <SCORE.INTRA.REPUL.0>
0

>  <SCORE.INTRA.SOLV>
1.86181

>  <SCORE.INTRA.SOLV.lig_0>
-31.1706

>  <SCORE.INTRA.VDW>
-0.386401

>  <SCORE.INTRA.VDW.0>
-1.16895

>  <SCORE.INTRA.norm>
-0.141439

>  <SCORE.RESTR>
0

>  <SCORE.RESTR.CAVITY>
0

>  <SCORE.RESTR.norm>
0

>  <SCORE.SYSTEM>
0

>  <SCORE.SYSTEM.CONST>
0

>  <SCORE.SYSTEM.DIHEDRAL>
0

>  <SCORE.SYSTEM.SOLV>
0

>  <SCORE.SYSTEM.norm>
0

>  <SCORE.heavy>
23

>  <SCORE.norm>
-0.493495

>  <RMSD>
14.027

$$$$
ligand
 OpenBabel11021811513D
libRbt.so/2013.1/901 2013/11/27
 23 24  0  0  0  0  0  0  0  0999 V2000
  -10.0062    3.6781    4.5182 C   0  0  0  0  0  0  0  0  0  0  0  0
  -10.7110    4.5501    5.4229 O   0  0  0  0  0  0  0  0  0  0  0  0
   -9.1495    4.5209    3.5843 C   0  0  2  0  0  0  0  0  0  0  0  0
   -9.9067    5.5147    2.7168 C   0  0  1  0  0  0  0  0  0  0  0  0
  -10.2279    6.6718    3.4915 O   0  0  0  0  0  0  0  0  0  0  0  0
   -8.9070    5.7779    1.5958 C   0  0  2  0  0  0  0  0  0  0  0  0
   -9.3940    6.2835    0.3471 O   0  0  0  0  0  0  0  0  0  0  0  0
   -8.3054    4.3977    1.3979 C   0  0  2  0  0  0  0  0  0  0  0  0
   -8.4232    3.7065    2.6595 O   0  0  0  0  0  0  0  0  0  0  0  0
   -6.8402    4.5837    0.9638 C   0  0  0  0  0  0  0  0  0  0  0  0
   -6.7267    5.1944   -0.3291 O   0  0  0  0  0  0  0  0  0  0  0  0
   -8.7072    2.3062    0.2615 C   0  0  2  0  0  0  0  0  0  0  0  0
   -9.0960    3.6797    0.4355 O   0  0  0  0  0  0  0  0  0  0  0  0
   -9.2762    1.8376   -1.0648 C   0  0  2  0  0  0  0  0  0  0  0  0
   -8.9629    2.8001   -2.0775 O   0  0  0  0  0  0  0  0  0  0  0  0
  -10.7821    1.7174   -0.9826 C   0  0  1  0  0  0  0  0  0  0  0  0
  -11.2503    1.0455   -2.1543 O   0  0  0  0  0  0  0  0  0  0  0  0
  -11.1900    0.9487    0.2598 C   0  0  2  0  0  0  0  0  0  0  0  0
  -12.6035    1.0142    0.3905 O   0  0  0  0  0  0  0  0  0  0  0  0
  -10.5515    1.5192    1.5191 C   0  0  2  0  0  0  0  0  0  0  0  0
   -9.1423    1.4777    1.3395 O   0  0  0  0  0  0  0  0  0  0  0  0
  -10.9560    0.7246    2.7664 C   0  0  0  0  0  0  0  0  0  0  0  0
  -12.3434    0.8744    3.1016 O   0  0  0  0  0  0  0  0  0  0  0  0
  1  2  1  0  0  0  0
  3  1  1  6  0  0  0
  3  9  1  0  0  0  0
  3  4  1  0  0  0  0
  4  5  1  1  0  0  0
  4  6  1  0  0  0  0
  6  7  1  6  0  0  0
  6  8  1  0  0  0  0
  8  9  1  0  0  0  0
  8 10  1  6  0  0  0
  8 13  1  0  0  0  0
 10 11  1  0  0  0  0
 12 13  1  1  0  0  0
 12 14  1  0  0  0  0
 12 21  1  0  0  0  0
 14 15  1  6  0  0  0
 14 16  1  0  0  0  0
 16 17  1  6  0  0  0
 16 18  1  0  0  0  0
 18 19  1  1  0  0  0
 18 20  1  0  0  0  0
 20 21  1  0  0  0  0
 20 22  1  1  0  0  0
 22 23  1  0  0  0  0
M  END
>  <CHROM.1>
-60.39847681,-66.30648904,-160.98848924,-173.98528262,-68.26069987,-9.73373708
3.26094748,1.30815123,1.10915925,0.85881142,1.04887439

>  <Name>
ligand

>  <RI>
0

>  <Rbt.Current_Directory>
/home/itssahil/PROJECTS/Mol_Feturizer/New_Systems/rnas/4TS2

>  <Rbt.Executable>
rbdock ($Id: //depot/dev/client3/rdock/2013.1/src/exe/rbdock.cxx#4 $)

>  <Rbt.Library>
libRbt.so (2013.1, Build901 2013/11/27)

>  <Rbt.Parameter_File>
/export/apps/rDock/src/rDock_2013.1_src/data/scripts/dock_solv.prm

>  <Rbt.Receptor>
prm/blind_docking_80.prm

>  <SCORE>
-10.9659

>  <SCORE.INTER>
-4.48164

>  <SCORE.INTER.CONST>
1

>  <SCORE.INTER.POLAR>
0

>  <SCORE.INTER.ROT>
5

>  <SCORE.INTER.SOLV>
7.38186

>  <SCORE.INTER.VDW>
-12.3817

>  <SCORE.INTER.norm>
-0.194854

>  <SCORE.INTRA>
-6.48426

>  <SCORE.INTRA.DIHEDRAL>
-10.3561

>  <SCORE.INTRA.DIHEDRAL.0>
12.4853

>  <SCORE.INTRA.POLAR>
0

>  <SCORE.INTRA.POLAR.0>
0

>  <SCORE.INTRA.REPUL>
0

>  <SCORE.INTRA.REPUL.0>
0

>  <SCORE.INTRA.SOLV>
0.666133

>  <SCORE.INTRA.SOLV.lig_0>
-31.1706

>  <SCORE.INTRA.VDW>
-1.63929

>  <SCORE.INTRA.VDW.0>
-1.16895

>  <SCORE.INTRA.norm>
-0.281924

>  <SCORE.RESTR>
0

>  <SCORE.RESTR.CAVITY>
0

>  <SCORE.RESTR.norm>
0

>  <SCORE.SYSTEM>
0

>  <SCORE.SYSTEM.CONST>
0

>  <SCORE.SYSTEM.DIHEDRAL>
0

>  <SCORE.SYSTEM.SOLV>
0

>  <SCORE.SYSTEM.norm>
0

>  <SCORE.heavy>
23

>  <SCORE.norm>
-0.476778

>  <RMSD>
14.027

$$$$
ligand
 OpenBabel11021811513D
libRbt.so/2013.1/901 2013/11/27
 23 24  0  0  0  0  0  0  0  0999 V2000
  -12.0257    2.6012    7.1065 C   0  0  0  0  0  0  0  0  0  0  0  0
  -12.9908    3.0215    8.0901 O   0  0  0  0  0  0  0  0  0  0  0  0
  -11.7841    3.7432    6.1298 C   0  0  2  0  0  0  0  0  0  0  0  0
  -12.9886    4.1649    5.3022 C   0  0  1  0  0  0  0  0  0  0  0  0
  -13.8379    4.9997    6.0922 O   0  0  0  0  0  0  0  0  0  0  0  0
  -12.3281    4.8848    4.1313 C   0  0  2  0  0  0  0  0  0  0  0  0
  -13.0623    5.0239    2.9091 O   0  0  0  0  0  0  0  0  0  0  0  0
  -11.0981    4.0240    3.9030 C   0  0  2  0  0  0  0  0  0  0  0  0
  -10.7785    3.4089    5.1691 O   0  0  0  0  0  0  0  0  0  0  0  0
   -9.9721    4.9422    3.3944 C   0  0  0  0  0  0  0  0  0  0  0  0
   -9.6546    5.9853    4.3264 O   0  0  0  0  0  0  0  0  0  0  0  0
  -10.4323    1.9429    2.8767 C   0  0  2  0  0  0  0  0  0  0  0  0
  -11.4319    2.9714    2.9824 O   0  0  0  0  0  0  0  0  0  0  0  0
  -10.6614    1.2203    1.5622 C   0  0  2  0  0  0  0  0  0  0  0  0
  -10.8043    2.1849    0.5138 O   0  0  0  0  0  0  0  0  0  0  0  0
  -11.9323    0.4016    1.6221 C   0  0  1  0  0  0  0  0  0  0  0  0
  -11.9820   -0.4472    0.4730 O   0  0  0  0  0  0  0  0  0  0  0  0
  -11.9729   -0.4305    2.8897 C   0  0  2  0  0  0  0  0  0  0  0  0
  -13.2523   -1.0406    2.9914 O   0  0  0  0  0  0  0  0  0  0  0  0
  -11.7284    0.4127    4.1339 C   0  0  2  0  0  0  0  0  0  0  0  0
  -10.4624    1.0404    3.9822 O   0  0  0  0  0  0  0  0  0  0  0  0
  -11.7540   -0.4405    5.4077 C   0  0  0  0  0  0  0  0  0  0  0  0
  -10.7627   -1.4782    5.4079 O   0  0  0  0  0  0  0  0  0  0  0  0
  1  2  1  0  0  0  0
  3  1  1  6  0  0  0
  3  9  1  0  0  0  0
  3  4  1  0  0  0  0
  4  5  1  1  0  0  0
  4  6  1  0  0  0  0
  6  7  1  6  0  0  0
  6  8  1  0  0  0  0
  8  9  1  0  0  0  0
  8 10  1  6  0  0  0
  8 13  1  0  0  0  0
 10 11  1  0  0  0  0
 12 13  1  1  0  0  0
 12 14  1  0  0  0  0
 12 21  1  0  0  0  0
 14 15  1  6  0  0  0
 14 16  1  0  0  0  0
 16 17  1  6  0  0  0
 16 18  1  0  0  0  0
 18 19  1  1  0  0  0
 18 20  1  0  0  0  0
 20 21  1  0  0  0  0
 20 22  1  1  0  0  0
 22 23  1  0  0  0  0
M  END
>  <CHROM.1>
-63.51764427,59.54423937,-159.58993243,-168.86143644,59.59009796,-11.64597646
2.30793863,3.97911874,1.84495406,1.31692178,0.31006601

>  <Name>
ligand

>  <RI>
0

>  <Rbt.Current_Directory>
/home/itssahil/PROJECTS/Mol_Feturizer/New_Systems/rnas/4TS2

>  <Rbt.Executable>
rbdock ($Id: //depot/dev/client3/rdock/2013.1/src/exe/rbdock.cxx#4 $)

>  <Rbt.Library>
libRbt.so (2013.1, Build901 2013/11/27)

>  <Rbt.Parameter_File>
/export/apps/rDock/src/rDock_2013.1_src/data/scripts/dock_solv.prm

>  <Rbt.Receptor>
prm/blind_docking_60.prm

>  <SCORE>
-9.5528

>  <SCORE.INTER>
-3.10076

>  <SCORE.INTER.CONST>
1

>  <SCORE.INTER.POLAR>
0

>  <SCORE.INTER.ROT>
5

>  <SCORE.INTER.SOLV>
8.75789

>  <SCORE.INTER.VDW>
-11.9198

>  <SCORE.INTER.norm>
-0.134816

>  <SCORE.INTRA>
-6.45204

>  <SCORE.INTRA.DIHEDRAL>
-10.0783

>  <SCORE.INTRA.DIHEDRAL.0>
12.4853

>  <SCORE.INTRA.POLAR>
0

>  <SCORE.INTRA.POLAR.0>
0

>  <SCORE.INTRA.REPUL>
0

>  <SCORE.INTRA.REPUL.0>
0

>  <SCORE.INTRA.SOLV>
0.346805

>  <SCORE.INTRA.SOLV.lig_0>
-31.1706

>  <SCORE.INTRA.VDW>
-1.58629

>  <SCORE.INTRA.VDW.0>
-1.16895

>  <SCORE.INTRA.norm>
-0.280524

>  <SCORE.RESTR>
0

>  <SCORE.RESTR.CAVITY>
0

>  <SCORE.RESTR.norm>
0

>  <SCORE.SYSTEM>
0

>  <SCORE.SYSTEM.CONST>
0

>  <SCORE.SYSTEM.DIHEDRAL>
0

>  <SCORE.SYSTEM.SOLV>
0

>  <SCORE.SYSTEM.norm>
0

>  <SCORE.heavy>
23

>  <SCORE.norm>
-0.415339

>  <RMSD>
14.033

$$$$
ligand
 OpenBabel11021811513D
libRbt.so/2013.1/901 2013/11/27
 23 24  0  0  0  0  0  0  0  0999 V2000
  -10.6163    0.2720   -2.0673 C   0  0  0  0  0  0  0  0  0  0  0  0
  -11.5734   -0.4911   -2.8270 O   0  0  0  0  0  0  0  0  0  0  0  0
  -11.0997    0.3810   -0.6282 C   0  0  2  0  0  0  0  0  0  0  0  0
  -12.4848    0.9821   -0.4448 C   0  0  1  0  0  0  0  0  0  0  0  0
  -13.4734   -0.0131   -0.7178 O   0  0  0  0  0  0  0  0  0  0  0  0
  -12.4422    1.4293    1.0125 C   0  0  2  0  0  0  0  0  0  0  0  0
  -13.3553    2.4446    1.4455 O   0  0  0  0  0  0  0  0  0  0  0  0
  -11.0137    1.9302    1.1326 C   0  0  2  0  0  0  0  0  0  0  0  0
  -10.2348    1.2082    0.1552 O   0  0  0  0  0  0  0  0  0  0  0  0
  -10.5435    1.6623    2.5737 C   0  0  0  0  0  0  0  0  0  0  0  0
   -9.1991    2.1078    2.8016 O   0  0  0  0  0  0  0  0  0  0  0  0
   -9.6516    3.8478    0.5894 C   0  0  2  0  0  0  0  0  0  0  0  0
  -10.9773    3.3217    0.7729 O   0  0  0  0  0  0  0  0  0  0  0  0
   -9.7411    5.3575    0.7118 C   0  0  2  0  0  0  0  0  0  0  0  0
  -10.4825    5.6908    1.8905 O   0  0  0  0  0  0  0  0  0  0  0  0
  -10.4665    5.9437   -0.4794 C   0  0  1  0  0  0  0  0  0  0  0  0
  -10.3139    7.3648   -0.4517 O   0  0  0  0  0  0  0  0  0  0  0  0
   -9.9092    5.3826   -1.7738 C   0  0  2  0  0  0  0  0  0  0  0  0
  -10.7305    5.8187   -2.8484 O   0  0  0  0  0  0  0  0  0  0  0  0
   -9.8733    3.8603   -1.7671 C   0  0  2  0  0  0  0  0  0  0  0  0
   -9.0801    3.4569   -0.6590 O   0  0  0  0  0  0  0  0  0  0  0  0
   -9.2923    3.3039   -3.0724 C   0  0  0  0  0  0  0  0  0  0  0  0
   -7.9461    3.7371   -3.3169 O   0  0  0  0  0  0  0  0  0  0  0  0
  1  2  1  0  0  0  0
  3  1  1  6  0  0  0
  3  9  1  0  0  0  0
  3  4  1  0  0  0  0
  4  5  1  1  0  0  0
  4  6  1  0  0  0  0
  6  7  1  6  0  0  0
  6  8  1  0  0  0  0
  8  9  1  0  0  0  0
  8 10  1  1  0  0  0
  8 13  1  0  0  0  0
 10 11  1  0  0  0  0
 12 13  1  6  0  0  0
 12 14  1  0  0  0  0
 12 21  1  0  0  0  0
 14 15  1  1  0  0  0
 14 16  1  0  0  0  0
 16 17  1  6  0  0  0
 16 18  1  0  0  0  0
 18 19  1  6  0  0  0
 18 20  1  0  0  0  0
 20 21  1  0  0  0  0
 20 22  1  6  0  0  0
 22 23  1  0  0  0  0
M  END
>  <CHROM.1>
-56.36144873,-179.63081703,-160.14462957,-168.30546028,60.28519060,-10.62881300
3.00651912,-0.35500438,-2.73382814,1.15624485,0.98761271

>  <Name>
ligand

>  <RI>
0

>  <Rbt.Current_Directory>
/home/itssahil/PROJECTS/Mol_Feturizer/New_Systems/rnas/4TS2

>  <Rbt.Executable>
rbdock ($Id: //depot/dev/client3/rdock/2013.1/src/exe/rbdock.cxx#4 $)

>  <Rbt.Library>
libRbt.so (2013.1, Build901 2013/11/27)

>  <Rbt.Parameter_File>
/export/apps/rDock/src/rDock_2013.1_src/data/scripts/dock_solv.prm

>  <Rbt.Receptor>
prm/blind_docking_20.prm

>  <SCORE>
-13.3936

>  <SCORE.INTER>
-7.0413

>  <SCORE.INTER.CONST>
1

>  <SCORE.INTER.POLAR>
0

>  <SCORE.INTER.ROT>
5

>  <SCORE.INTER.SOLV>
11.6106

>  <SCORE.INTER.VDW>
-15.4977

>  <SCORE.INTER.norm>
-0.306144

>  <SCORE.INTRA>
-6.35229

>  <SCORE.INTRA.DIHEDRAL>
-10.1094

>  <SCORE.INTRA.DIHEDRAL.0>
12.4853

>  <SCORE.INTRA.POLAR>
0

>  <SCORE.INTRA.POLAR.0>
0

>  <SCORE.INTRA.REPUL>
0

>  <SCORE.INTRA.REPUL.0>
0

>  <SCORE.INTRA.SOLV>
0.58873

>  <SCORE.INTRA.SOLV.lig_0>
-31.1706

>  <SCORE.INTRA.VDW>
-1.59194

>  <SCORE.INTRA.VDW.0>
-1.16895

>  <SCORE.INTRA.norm>
-0.276186

>  <SCORE.RESTR>
0

>  <SCORE.RESTR.CAVITY>
0

>  <SCORE.RESTR.norm>
0

>  <SCORE.SYSTEM>
0

>  <SCORE.SYSTEM.CONST>
0

>  <SCORE.SYSTEM.DIHEDRAL>
0

>  <SCORE.SYSTEM.SOLV>
0

>  <SCORE.SYSTEM.norm>
0

>  <SCORE.heavy>
23

>  <SCORE.norm>
-0.58233

>  <RMSD>
14.047

$$$$
ligand
 OpenBabel11021811513D
libRbt.so/2013.1/901 2013/11/27
 23 24  0  0  0  0  0  0  0  0999 V2000
  -11.6779    4.7300    1.9352 C   0  0  0  0  0  0  0  0  0  0  0  0
  -12.5878    5.7571    2.3741 O   0  0  0  0  0  0  0  0  0  0  0  0
  -10.7504    5.3092    0.8765 C   0  0  2  0  0  0  0  0  0  0  0  0
  -11.4297    5.8049   -0.3909 C   0  0  1  0  0  0  0  0  0  0  0  0
  -11.9910    7.0974   -0.1535 O   0  0  0  0  0  0  0  0  0  0  0  0
  -10.2746    5.8047   -1.3865 C   0  0  2  0  0  0  0  0  0  0  0  0
  -10.5754    5.7564   -2.7863 O   0  0  0  0  0  0  0  0  0  0  0  0
   -9.5210    4.5525   -0.9740 C   0  0  2  0  0  0  0  0  0  0  0  0
   -9.7975    4.3417    0.4269 O   0  0  0  0  0  0  0  0  0  0  0  0
   -8.0257    4.7945   -1.2483 C   0  0  0  0  0  0  0  0  0  0  0  0
   -7.1921    3.7863   -0.6597 O   0  0  0  0  0  0  0  0  0  0  0  0
   -9.4123    2.1783   -1.3971 C   0  0  2  0  0  0  0  0  0  0  0  0
  -10.0560    3.4294   -1.6945 O   0  0  0  0  0  0  0  0  0  0  0  0
   -9.9762    1.1398   -2.3489 C   0  0  2  0  0  0  0  0  0  0  0  0
   -9.9436    1.6578   -3.6834 O   0  0  0  0  0  0  0  0  0  0  0  0
  -11.4156    0.8291   -2.0019 C   0  0  1  0  0  0  0  0  0  0  0  0
  -11.8279   -0.3163   -2.7513 O   0  0  0  0  0  0  0  0  0  0  0  0
  -11.5618    0.5628   -0.5158 C   0  0  2  0  0  0  0  0  0  0  0  0
  -12.9448    0.4537   -0.2081 O   0  0  0  0  0  0  0  0  0  0  0  0
  -10.9559    1.6778    0.3260 C   0  0  2  0  0  0  0  0  0  0  0  0
   -9.5857    1.7886   -0.0348 O   0  0  0  0  0  0  0  0  0  0  0  0
  -11.0932    1.3905    1.8259 C   0  0  0  0  0  0  0  0  0  0  0  0
  -12.4517    1.4442    2.2854 O   0  0  0  0  0  0  0  0  0  0  0  0
  1  2  1  0  0  0  0
  3  1  1  1  0  0  0
  3  9  1  0  0  0  0
  3  4  1  0  0  0  0
  4  5  1  1  0  0  0
  4  6  1  0  0  0  0
  6  7  1  6  0  0  0
  6  8  1  0  0  0  0
  8  9  1  0  0  0  0
  8 10  1  6  0  0  0
  8 13  1  0  0  0  0
 10 11  1  0  0  0  0
 12 13  1  1  0  0  0
 12 14  1  0  0  0  0
 12 21  1  0  0  0  0
 14 15  1  6  0  0  0
 14 16  1  0  0  0  0
 16 17  1  6  0  0  0
 16 18  1  0  0  0  0
 18 19  1  6  0  0  0
 18 20  1  0  0  0  0
 20 21  1  0  0  0  0
 20 22  1  1  0  0  0
 22 23  1  0  0  0  0
M  END
>  <CHROM.1>
-61.95343351,168.63568514,-173.43823484,179.47641461,-68.32202396,-10.66982076
3.21429564,-0.52550113,1.48397434,0.92227178,0.36721760

>  <Name>
ligand

>  <RI>
0

>  <Rbt.Current_Directory>
/home/itssahil/PROJECTS/Mol_Feturizer/New_Systems/rnas/4TS2

>  <Rbt.Executable>
rbdock ($Id: //depot/dev/client3/rdock/2013.1/src/exe/rbdock.cxx#4 $)

>  <Rbt.Library>
libRbt.so (2013.1, Build901 2013/11/27)

>  <Rbt.Parameter_File>
/export/apps/rDock/src/rDock_2013.1_src/data/scripts/dock_solv.prm

>  <Rbt.Receptor>
prm/blind_docking_80.prm

>  <SCORE>
-12.7991

>  <SCORE.INTER>
-6.10192

>  <SCORE.INTER.CONST>
1

>  <SCORE.INTER.POLAR>
0

>  <SCORE.INTER.ROT>
5

>  <SCORE.INTER.SOLV>
9.05904

>  <SCORE.INTER.VDW>
-14.021

>  <SCORE.INTER.norm>
-0.265301

>  <SCORE.INTRA>
-6.69719

>  <SCORE.INTRA.DIHEDRAL>
-11.5747

>  <SCORE.INTRA.DIHEDRAL.0>
12.4853

>  <SCORE.INTRA.POLAR>
0

>  <SCORE.INTRA.POLAR.0>
0

>  <SCORE.INTRA.REPUL>
0

>  <SCORE.INTRA.REPUL.0>
0

>  <SCORE.INTRA.SOLV>
0.721813

>  <SCORE.INTRA.SOLV.lig_0>
-31.1706

>  <SCORE.INTRA.VDW>
-1.27073

>  <SCORE.INTRA.VDW.0>
-1.16895

>  <SCORE.INTRA.norm>
-0.291182

>  <SCORE.RESTR>
0

>  <SCORE.RESTR.CAVITY>
0

>  <SCORE.RESTR.norm>
0

>  <SCORE.SYSTEM>
0

>  <SCORE.SYSTEM.CONST>
0

>  <SCORE.SYSTEM.DIHEDRAL>
0

>  <SCORE.SYSTEM.SOLV>
0

>  <SCORE.SYSTEM.norm>
0

>  <SCORE.heavy>
23

>  <SCORE.norm>
-0.556483

>  <RMSD>
14.052

$$$$
ligand
 OpenBabel11021811513D
libRbt.so/2013.1/901 2013/11/27
 23 24  0  0  0  0  0  0  0  0999 V2000
  -10.4096    4.7038    2.8789 C   0  0  0  0  0  0  0  0  0  0  0  0
   -9.2395    4.3188    3.6260 O   0  0  0  0  0  0  0  0  0  0  0  0
   -9.9734    5.3096    1.5525 C   0  0  2  0  0  0  0  0  0  0  0  0
  -11.0965    5.8227    0.6643 C   0  0  1  0  0  0  0  0  0  0  0  0
  -11.5196    7.1062    1.1290 O   0  0  0  0  0  0  0  0  0  0  0  0
  -10.4259    5.8499   -0.7050 C   0  0  2  0  0  0  0  0  0  0  0  0
  -11.2529    5.8247   -1.8745 O   0  0  0  0  0  0  0  0  0  0  0  0
   -9.5704    4.5967   -0.6469 C   0  0  2  0  0  0  0  0  0  0  0  0
   -9.2737    4.3582    0.7454 O   0  0  0  0  0  0  0  0  0  0  0  0
   -8.3035    4.8557   -1.4822 C   0  0  0  0  0  0  0  0  0  0  0  0
   -8.5985    5.0748   -2.8687 O   0  0  0  0  0  0  0  0  0  0  0  0
   -9.6458    2.2263   -1.0978 C   0  0  2  0  0  0  0  0  0  0  0  0
  -10.3453    3.4825   -1.1213 O   0  0  0  0  0  0  0  0  0  0  0  0
  -10.2805    1.3333   -2.1476 C   0  0  2  0  0  0  0  0  0  0  0  0
  -10.3973    2.0604   -3.3756 O   0  0  0  0  0  0  0  0  0  0  0  0
  -11.6690    0.9141   -1.7174 C   0  0  1  0  0  0  0  0  0  0  0  0
  -12.1297   -0.1110   -2.6009 O   0  0  0  0  0  0  0  0  0  0  0  0
  -11.6554    0.4062   -0.2882 C   0  0  2  0  0  0  0  0  0  0  0  0
  -12.9965    0.1943    0.1311 O   0  0  0  0  0  0  0  0  0  0  0  0
  -10.9919    1.3940    0.6621 C   0  0  2  0  0  0  0  0  0  0  0  0
   -9.6691    1.6156    0.1922 O   0  0  0  0  0  0  0  0  0  0  0  0
  -10.9675    0.8636    2.1005 C   0  0  0  0  0  0  0  0  0  0  0  0
  -10.2847    1.7391    3.0098 O   0  0  0  0  0  0  0  0  0  0  0  0
  1  2  1  0  0  0  0
  3  1  1  1  0  0  0
  3  9  1  0  0  0  0
  3  4  1  0  0  0  0
  4  5  1  1  0  0  0
  4  6  1  0  0  0  0
  6  7  1  6  0  0  0
  6  8  1  0  0  0  0
  8  9  1  0  0  0  0
  8 10  1  6  0  0  0
  8 13  1  0  0  0  0
 10 11  1  0  0  0  0
 12 13  1  1  0  0  0
 12 14  1  0  0  0  0
 12 21  1  0  0  0  0
 14 15  1  6  0  0  0
 14 16  1  0  0  0  0
 16 17  1  6  0  0  0
 16 18  1  0  0  0  0
 18 19  1  1  0  0  0
 18 20  1  0  0  0  0
 20 21  1  0  0  0  0
 20 22  1  1  0  0  0
 22 23  1  0  0  0  0
M  END
>  <CHROM.1>
-177.59011469,-63.37907921,-154.74354449,-179.21098002,176.85793654,-10.46785708
3.21563044,-0.14030920,0.51895369,1.29199767,1.44538445

>  <Name>
ligand

>  <RI>
0

>  <Rbt.Current_Directory>
/home/itssahil/PROJECTS/Mol_Feturizer/New_Systems/rnas/4TS2

>  <Rbt.Executable>
rbdock ($Id: //depot/dev/client3/rdock/2013.1/src/exe/rbdock.cxx#4 $)

>  <Rbt.Library>
libRbt.so (2013.1, Build901 2013/11/27)

>  <Rbt.Parameter_File>
/export/apps/rDock/src/rDock_2013.1_src/data/scripts/dock_solv.prm

>  <Rbt.Receptor>
prm/blind_docking_40.prm

>  <SCORE>
-11.8594

>  <SCORE.INTER>
-5.72754

>  <SCORE.INTER.CONST>
1

>  <SCORE.INTER.POLAR>
0

>  <SCORE.INTER.ROT>
5

>  <SCORE.INTER.SOLV>
9.29344

>  <SCORE.INTER.VDW>
-13.8495

>  <SCORE.INTER.norm>
-0.249023

>  <SCORE.INTRA>
-6.13185

>  <SCORE.INTRA.DIHEDRAL>
-9.65429

>  <SCORE.INTRA.DIHEDRAL.0>
12.4853

>  <SCORE.INTRA.POLAR>
0

>  <SCORE.INTRA.POLAR.0>
0

>  <SCORE.INTRA.REPUL>
0

>  <SCORE.INTRA.REPUL.0>
0

>  <SCORE.INTRA.SOLV>
0.802269

>  <SCORE.INTRA.SOLV.lig_0>
-31.1706

>  <SCORE.INTRA.VDW>
-1.70584

>  <SCORE.INTRA.VDW.0>
-1.16895

>  <SCORE.INTRA.norm>
-0.266602

>  <SCORE.RESTR>
0

>  <SCORE.RESTR.CAVITY>
0

>  <SCORE.RESTR.norm>
0

>  <SCORE.SYSTEM>
0

>  <SCORE.SYSTEM.CONST>
0

>  <SCORE.SYSTEM.DIHEDRAL>
0

>  <SCORE.SYSTEM.SOLV>
0

>  <SCORE.SYSTEM.norm>
0

>  <SCORE.heavy>
23

>  <SCORE.norm>
-0.515626

>  <RMSD>
14.059

$$$$
ligand
 OpenBabel11021811513D
libRbt.so/2013.1/901 2013/11/27
 23 24  0  0  0  0  0  0  0  0999 V2000
   -8.2766    4.3417    2.5744 C   0  0  0  0  0  0  0  0  0  0  0  0
   -9.2920    3.3198    2.5919 O   0  0  0  0  0  0  0  0  0  0  0  0
   -8.2724    5.0127    1.2083 C   0  0  2  0  0  0  0  0  0  0  0  0
   -9.5711    5.6964    0.8090 C   0  0  1  0  0  0  0  0  0  0  0  0
   -9.6533    6.9702    1.4515 O   0  0  0  0  0  0  0  0  0  0  0  0
   -9.4303    5.7756   -0.7074 C   0  0  2  0  0  0  0  0  0  0  0  0
  -10.6149    5.9214   -1.4996 O   0  0  0  0  0  0  0  0  0  0  0  0
   -8.7582    4.4498   -1.0177 C   0  0  2  0  0  0  0  0  0  0  0  0
   -8.0169    4.0718    0.1617 O   0  0  0  0  0  0  0  0  0  0  0  0
   -7.8484    4.6613   -2.2413 C   0  0  0  0  0  0  0  0  0  0  0  0
   -6.7913    5.5955   -1.9814 O   0  0  0  0  0  0  0  0  0  0  0  0
   -9.2577    2.1467   -1.5412 C   0  0  2  0  0  0  0  0  0  0  0  0
   -9.7722    3.4529   -1.2296 O   0  0  0  0  0  0  0  0  0  0  0  0
   -9.7018    1.8083   -2.9521 C   0  0  2  0  0  0  0  0  0  0  0  0
   -9.4100    2.9131   -3.8149 O   0  0  0  0  0  0  0  0  0  0  0  0
  -11.1942    1.5631   -2.9933 C   0  0  1  0  0  0  0  0  0  0  0  0
  -11.5302    1.0116   -4.2687 O   0  0  0  0  0  0  0  0  0  0  0  0
  -11.6106    0.6134   -1.8863 C   0  0  2  0  0  0  0  0  0  0  0  0
  -13.0300    0.5527   -1.8503 O   0  0  0  0  0  0  0  0  0  0  0  0
  -11.1019    1.0665   -0.5244 C   0  0  2  0  0  0  0  0  0  0  0  0
   -9.6859    1.1569   -0.6061 O   0  0  0  0  0  0  0  0  0  0  0  0
  -11.5132    0.0909    0.5847 C   0  0  0  0  0  0  0  0  0  0  0  0
  -12.9350   -0.0750    0.6872 O   0  0  0  0  0  0  0  0  0  0  0  0
  1  2  1  0  0  0  0
  3  1  1  1  0  0  0
  3  9  1  0  0  0  0
  3  4  1  0  0  0  0
  4  5  1  1  0  0  0
  4  6  1  0  0  0  0
  6  7  1  6  0  0  0
  6  8  1  0  0  0  0
  8  9  1  0  0  0  0
  8 10  1  6  0  0  0
  8 13  1  0  0  0  0
 10 11  1  0  0  0  0
 12 13  1  1  0  0  0
 12 14  1  0  0  0  0
 12 21  1  0  0  0  0
 14 15  1  6  0  0  0
 14 16  1  0  0  0  0
 16 17  1  6  0  0  0
 16 18  1  0  0  0  0
 18 19  1  1  0  0  0
 18 20  1  0  0  0  0
 20 21  1  0  0  0  0
 20 22  1  1  0  0  0
 22 23  1  0  0  0  0
M  END
>  <CHROM.1>
60.48142395,63.33830450,-115.56163300,179.65787263,-58.64401620,-9.89673967
3.13419205,-0.82838237,0.48540377,0.95760702,1.42106814

>  <Name>
ligand

>  <RI>
0

>  <Rbt.Current_Directory>
/home/itssahil/PROJECTS/Mol_Feturizer/New_Systems/rnas/4TS2

>  <Rbt.Executable>
rbdock ($Id: //depot/dev/client3/rdock/2013.1/src/exe/rbdock.cxx#4 $)

>  <Rbt.Library>
libRbt.so (2013.1, Build901 2013/11/27)

>  <Rbt.Parameter_File>
/export/apps/rDock/src/rDock_2013.1_src/data/scripts/dock_solv.prm

>  <Rbt.Receptor>
prm/blind_docking_60.prm

>  <SCORE>
-10.5844

>  <SCORE.INTER>
-7.95124

>  <SCORE.INTER.CONST>
1

>  <SCORE.INTER.POLAR>
0

>  <SCORE.INTER.ROT>
5

>  <SCORE.INTER.SOLV>
10.331

>  <SCORE.INTER.VDW>
-15.6778

>  <SCORE.INTER.norm>
-0.345706

>  <SCORE.INTRA>
-2.63311

>  <SCORE.INTRA.DIHEDRAL>
-5.29215

>  <SCORE.INTRA.DIHEDRAL.0>
12.4853

>  <SCORE.INTRA.POLAR>
0

>  <SCORE.INTRA.POLAR.0>
0

>  <SCORE.INTRA.REPUL>
0

>  <SCORE.INTRA.REPUL.0>
0

>  <SCORE.INTRA.SOLV>
0.548772

>  <SCORE.INTRA.SOLV.lig_0>
-31.1706

>  <SCORE.INTRA.VDW>
-0.261419

>  <SCORE.INTRA.VDW.0>
-1.16895

>  <SCORE.INTRA.norm>
-0.114483

>  <SCORE.RESTR>
0

>  <SCORE.RESTR.CAVITY>
0

>  <SCORE.RESTR.norm>
0

>  <SCORE.SYSTEM>
0

>  <SCORE.SYSTEM.CONST>
0

>  <SCORE.SYSTEM.DIHEDRAL>
0

>  <SCORE.SYSTEM.SOLV>
0

>  <SCORE.SYSTEM.norm>
0

>  <SCORE.heavy>
23

>  <SCORE.norm>
-0.460189

>  <RMSD>
14.059

$$$$
ligand
 OpenBabel11021811513D
libRbt.so/2013.1/901 2013/11/27
 23 24  0  0  0  0  0  0  0  0999 V2000
  -11.8341    4.2599    2.6591 C   0  0  0  0  0  0  0  0  0  0  0  0
  -12.7282    5.2086    3.2724 O   0  0  0  0  0  0  0  0  0  0  0  0
  -10.9480    4.9889    1.6592 C   0  0  2  0  0  0  0  0  0  0  0  0
  -11.6742    5.6443    0.4945 C   0  0  1  0  0  0  0  0  0  0  0  0
  -12.2366    6.8857    0.9247 O   0  0  0  0  0  0  0  0  0  0  0  0
  -10.5541    5.7936   -0.5294 C   0  0  2  0  0  0  0  0  0  0  0  0
  -10.9025    5.9328   -1.9119 O   0  0  0  0  0  0  0  0  0  0  0  0
   -9.7775    4.5061   -0.3168 C   0  0  2  0  0  0  0  0  0  0  0  0
  -10.0040    4.1032    1.0505 O   0  0  0  0  0  0  0  0  0  0  0  0
   -8.2943    4.8011   -0.6049 C   0  0  0  0  0  0  0  0  0  0  0  0
   -7.7384    5.7533    0.3127 O   0  0  0  0  0  0  0  0  0  0  0  0
   -9.6331    2.2281   -1.1027 C   0  0  2  0  0  0  0  0  0  0  0  0
  -10.3286    3.4852   -1.1659 O   0  0  0  0  0  0  0  0  0  0  0  0
  -10.2427    1.3185   -2.1531 C   0  0  2  0  0  0  0  0  0  0  0  0
  -10.3258    2.0247   -3.3960 O   0  0  0  0  0  0  0  0  0  0  0  0
  -11.6430    0.9097   -1.7520 C   0  0  1  0  0  0  0  0  0  0  0  0
  -12.0832   -0.1295   -2.6294 O   0  0  0  0  0  0  0  0  0  0  0  0
  -11.6676    0.4264   -0.3144 C   0  0  2  0  0  0  0  0  0  0  0  0
  -13.0197    0.2246    0.0736 O   0  0  0  0  0  0  0  0  0  0  0  0
  -11.0265    1.4290    0.6357 C   0  0  2  0  0  0  0  0  0  0  0  0
   -9.6914    1.6398    0.1966 O   0  0  0  0  0  0  0  0  0  0  0  0
  -11.0408    0.9234    2.0832 C   0  0  0  0  0  0  0  0  0  0  0  0
  -12.3619    0.8497    2.6387 O   0  0  0  0  0  0  0  0  0  0  0  0
  1  2  1  0  0  0  0
  3  1  1  1  0  0  0
  3  9  1  0  0  0  0
  3  4  1  0  0  0  0
  4  5  1  1  0  0  0
  4  6  1  0  0  0  0
  6  7  1  6  0  0  0
  6  8  1  0  0  0  0
  8  9  1  0  0  0  0
  8 10  1  6  0  0  0
  8 13  1  0  0  0  0
 10 11  1  0  0  0  0
 12 13  1  1  0  0  0
 12 14  1  0  0  0  0
 12 21  1  0  0  0  0
 14 15  1  6  0  0  0
 14 16  1  0  0  0  0
 16 17  1  6  0  0  0
 16 18  1  0  0  0  0
 18 19  1  1  0  0  0
 18 20  1  0  0  0  0
 20 21  1  0  0  0  0
 20 22  1  1  0  0  0
 22 23  1  0  0  0  0
M  END
>  <CHROM.1>
-62.44336091,63.65827885,-174.15069097,177.15029772,-67.77316383,-10.87557123
3.18884675,0.01262910,1.30211568,1.01649568,0.57953440

>  <Name>
ligand

>  <RI>
0

>  <Rbt.Current_Directory>
/home/itssahil/PROJECTS/Mol_Feturizer/New_Systems/rnas/4TS2

>  <Rbt.Executable>
rbdock ($Id: //depot/dev/client3/rdock/2013.1/src/exe/rbdock.cxx#4 $)

>  <Rbt.Library>
libRbt.so (2013.1, Build901 2013/11/27)

>  <Rbt.Parameter_File>
/export/apps/rDock/src/rDock_2013.1_src/data/scripts/dock_solv.prm

>  <Rbt.Receptor>
prm/blind_docking_60.prm

>  <SCORE>
-12.0088

>  <SCORE.INTER>
-5.06092

>  <SCORE.INTER.CONST>
1

>  <SCORE.INTER.POLAR>
0

>  <SCORE.INTER.ROT>
5

>  <SCORE.INTER.SOLV>
7.98867

>  <SCORE.INTER.VDW>
-12.9702

>  <SCORE.INTER.norm>
-0.22004

>  <SCORE.INTRA>
-6.94792

>  <SCORE.INTRA.DIHEDRAL>
-11.8546

>  <SCORE.INTRA.DIHEDRAL.0>
12.4853

>  <SCORE.INTRA.POLAR>
0

>  <SCORE.INTRA.POLAR.0>
0

>  <SCORE.INTRA.REPUL>
0

>  <SCORE.INTRA.REPUL.0>
0

>  <SCORE.INTRA.SOLV>
0.516301

>  <SCORE.INTRA.SOLV.lig_0>
-31.1706

>  <SCORE.INTRA.VDW>
-1.27878

>  <SCORE.INTRA.VDW.0>
-1.16895

>  <SCORE.INTRA.norm>
-0.302083

>  <SCORE.RESTR>
0

>  <SCORE.RESTR.CAVITY>
0

>  <SCORE.RESTR.norm>
0

>  <SCORE.SYSTEM>
0

>  <SCORE.SYSTEM.CONST>
0

>  <SCORE.SYSTEM.DIHEDRAL>
0

>  <SCORE.SYSTEM.SOLV>
0

>  <SCORE.SYSTEM.norm>
0

>  <SCORE.heavy>
23

>  <SCORE.norm>
-0.522124

>  <RMSD>
14.076

$$$$
ligand
 OpenBabel11021811513D
libRbt.so/2013.1/901 2013/11/27
 23 24  0  0  0  0  0  0  0  0999 V2000
   -9.3444    4.8542    2.5549 C   0  0  0  0  0  0  0  0  0  0  0  0
   -8.0891    4.3896    3.0876 O   0  0  0  0  0  0  0  0  0  0  0  0
   -9.1223    5.3681    1.1396 C   0  0  2  0  0  0  0  0  0  0  0  0
  -10.3492    5.9458    0.4509 C   0  0  1  0  0  0  0  0  0  0  0  0
  -10.5708    7.2785    0.9166 O   0  0  0  0  0  0  0  0  0  0  0  0
   -9.9527    5.8613   -1.0191 C   0  0  2  0  0  0  0  0  0  0  0  0
  -10.9872    5.8660   -2.0101 O   0  0  0  0  0  0  0  0  0  0  0  0
   -9.2058    4.5396   -1.0547 C   0  0  2  0  0  0  0  0  0  0  0  0
   -8.6688    4.3282    0.2683 O   0  0  0  0  0  0  0  0  0  0  0  0
   -8.1051    4.6526   -2.1249 C   0  0  0  0  0  0  0  0  0  0  0  0
   -8.6417    4.7839   -3.4488 O   0  0  0  0  0  0  0  0  0  0  0  0
   -9.5662    2.1655   -1.3024 C   0  0  2  0  0  0  0  0  0  0  0  0
  -10.1444    3.4822   -1.3148 O   0  0  0  0  0  0  0  0  0  0  0  0
  -10.4036    1.2930   -2.2188 C   0  0  2  0  0  0  0  0  0  0  0  0
  -10.6013    1.9721   -3.4637 O   0  0  0  0  0  0  0  0  0  0  0  0
  -11.7622    1.0323   -1.6064 C   0  0  1  0  0  0  0  0  0  0  0  0
  -12.4196    0.0188   -2.3707 O   0  0  0  0  0  0  0  0  0  0  0  0
  -11.6218    0.5903   -0.1621 C   0  0  2  0  0  0  0  0  0  0  0  0
  -12.9157    0.5305    0.4222 O   0  0  0  0  0  0  0  0  0  0  0  0
  -10.7593    1.5498    0.6469 C   0  0  2  0  0  0  0  0  0  0  0  0
   -9.4887    1.6187    0.0140 O   0  0  0  0  0  0  0  0  0  0  0  0
  -10.6092    1.0848    2.1002 C   0  0  0  0  0  0  0  0  0  0  0  0
   -9.7634    1.9434    2.8795 O   0  0  0  0  0  0  0  0  0  0  0  0
  1  2  1  0  0  0  0
  3  1  1  1  0  0  0
  3  9  1  0  0  0  0
  3  4  1  0  0  0  0
  4  5  1  1  0  0  0
  4  6  1  0  0  0  0
  6  7  1  6  0  0  0
  6  8  1  0  0  0  0
  8  9  1  0  0  0  0
  8 10  1  6  0  0  0
  8 13  1  0  0  0  0
 10 11  1  0  0  0  0
 12 13  1  1  0  0  0
 12 14  1  0  0  0  0
 12 21  1  0  0  0  0
 14 15  1  6  0  0  0
 14 16  1  0  0  0  0
 16 17  1  6  0  0  0
 16 18  1  0  0  0  0
 18 19  1  1  0  0  0
 18 20  1  0  0  0  0
 20 21  1  0  0  0  0
 20 22  1  1  0  0  0
 22 23  1  0  0  0  0
M  END
>  <CHROM.1>
-177.81763983,-66.02975639,-152.19671693,-176.87063113,177.98830963,-10.13741346
3.26831364,-0.33059810,0.09526132,1.17189561,1.81182199

>  <Name>
ligand

>  <RI>
0

>  <Rbt.Current_Directory>
/home/itssahil/PROJECTS/Mol_Feturizer/New_Systems/rnas/4TS2

>  <Rbt.Executable>
rbdock ($Id: //depot/dev/client3/rdock/2013.1/src/exe/rbdock.cxx#4 $)

>  <Rbt.Library>
libRbt.so (2013.1, Build901 2013/11/27)

>  <Rbt.Parameter_File>
/export/apps/rDock/src/rDock_2013.1_src/data/scripts/dock_solv.prm

>  <Rbt.Receptor>
prm/blind_docking_80.prm

>  <SCORE>
-12.1269

>  <SCORE.INTER>
-6.16562

>  <SCORE.INTER.CONST>
1

>  <SCORE.INTER.POLAR>
0

>  <SCORE.INTER.ROT>
5

>  <SCORE.INTER.SOLV>
10.2839

>  <SCORE.INTER.VDW>
-14.4717

>  <SCORE.INTER.norm>
-0.26807

>  <SCORE.INTRA>
-5.96128

>  <SCORE.INTRA.DIHEDRAL>
-9.13309

>  <SCORE.INTRA.DIHEDRAL.0>
12.4853

>  <SCORE.INTRA.POLAR>
0

>  <SCORE.INTRA.POLAR.0>
0

>  <SCORE.INTRA.REPUL>
0

>  <SCORE.INTRA.REPUL.0>
0

>  <SCORE.INTRA.SOLV>
0.756279

>  <SCORE.INTRA.SOLV.lig_0>
-31.1706

>  <SCORE.INTRA.VDW>
-1.77288

>  <SCORE.INTRA.VDW.0>
-1.16895

>  <SCORE.INTRA.norm>
-0.259186

>  <SCORE.RESTR>
0

>  <SCORE.RESTR.CAVITY>
0

>  <SCORE.RESTR.norm>
0

>  <SCORE.SYSTEM>
0

>  <SCORE.SYSTEM.CONST>
0

>  <SCORE.SYSTEM.DIHEDRAL>
0

>  <SCORE.SYSTEM.SOLV>
0

>  <SCORE.SYSTEM.norm>
0

>  <SCORE.heavy>
23

>  <SCORE.norm>
-0.527256

>  <RMSD>
14.077

$$$$
ligand
 OpenBabel11021811513D
libRbt.so/2013.1/901 2013/11/27
 23 24  0  0  0  0  0  0  0  0999 V2000
   -9.9005    5.8665    0.7493 C   0  0  0  0  0  0  0  0  0  0  0  0
   -9.0704    6.6711    1.6090 O   0  0  0  0  0  0  0  0  0  0  0  0
  -10.1473    4.5210    1.4165 C   0  0  2  0  0  0  0  0  0  0  0  0
   -8.9111    3.6642    1.6431 C   0  0  1  0  0  0  0  0  0  0  0  0
   -8.2178    4.1295    2.8028 O   0  0  0  0  0  0  0  0  0  0  0  0
   -9.5177    2.2739    1.8004 C   0  0  2  0  0  0  0  0  0  0  0  0
   -8.6852    1.1318    1.5662 O   0  0  0  0  0  0  0  0  0  0  0  0
  -10.6397    2.3169    0.7781 C   0  0  2  0  0  0  0  0  0  0  0  0
  -11.0233    3.7013    0.6376 O   0  0  0  0  0  0  0  0  0  0  0  0
  -11.7884    1.4391    1.3068 C   0  0  0  0  0  0  0  0  0  0  0  0
  -12.3658    1.9619    2.5114 O   0  0  0  0  0  0  0  0  0  0  0  0
  -11.0021    2.1457   -1.6025 C   0  0  2  0  0  0  0  0  0  0  0  0
  -10.1284    1.8785   -0.4920 O   0  0  0  0  0  0  0  0  0  0  0  0
  -10.7986    1.0366   -2.6178 C   0  0  2  0  0  0  0  0  0  0  0  0
  -10.8613   -0.2289   -1.9509 O   0  0  0  0  0  0  0  0  0  0  0  0
   -9.4379    1.1567   -3.2682 C   0  0  1  0  0  0  0  0  0  0  0  0
   -9.3828    0.2582   -4.3786 O   0  0  0  0  0  0  0  0  0  0  0  0
   -9.1914    2.5793   -3.7332 C   0  0  2  0  0  0  0  0  0  0  0  0
   -7.8439    2.6865   -4.1714 O   0  0  0  0  0  0  0  0  0  0  0  0
   -9.4305    3.5925   -2.6218 C   0  0  2  0  0  0  0  0  0  0  0  0
  -10.7711    3.4313   -2.1784 O   0  0  0  0  0  0  0  0  0  0  0  0
   -9.1957    5.0280   -3.1068 C   0  0  0  0  0  0  0  0  0  0  0  0
   -9.5029    6.0141   -2.1104 O   0  0  0  0  0  0  0  0  0  0  0  0
  1  2  1  0  0  0  0
  3  1  1  6  0  0  0
  3  9  1  0  0  0  0
  3  4  1  0  0  0  0
  4  5  1  1  0  0  0
  4  6  1  0  0  0  0
  6  7  1  6  0  0  0
  6  8  1  0  0  0  0
  8  9  1  0  0  0  0
  8 10  1  1  0  0  0
  8 13  1  0  0  0  0
 10 11  1  0  0  0  0
 12 13  1  1  0  0  0
 12 14  1  0  0  0  0
 12 21  1  0  0  0  0
 14 15  1  1  0  0  0
 14 16  1  0  0  0  0
 16 17  1  6  0  0  0
 16 18  1  0  0  0  0
 18 19  1  1  0  0  0
 18 20  1  0  0  0  0
 20 21  1  0  0  0  0
 20 22  1  6  0  0  0
 22 23  1  0  0  0  0
M  END
>  <CHROM.1>
-63.31094613,64.91299690,-148.11908494,-167.14279882,175.90116790,-9.89643337
2.93199709,-0.66066785,-1.72003899,-1.20978113,-2.11308938

>  <Name>
ligand

>  <RI>
0

>  <Rbt.Current_Directory>
/home/itssahil/PROJECTS/Mol_Feturizer/New_Systems/rnas/4TS2

>  <Rbt.Executable>
rbdock ($Id: //depot/dev/client3/rdock/2013.1/src/exe/rbdock.cxx#4 $)

>  <Rbt.Library>
libRbt.so (2013.1, Build901 2013/11/27)

>  <Rbt.Parameter_File>
/export/apps/rDock/src/rDock_2013.1_src/data/scripts/dock_solv.prm

>  <Rbt.Receptor>
prm/blind_docking_80.prm

>  <SCORE>
-8.63422

>  <SCORE.INTER>
-3.60061

>  <SCORE.INTER.CONST>
1

>  <SCORE.INTER.POLAR>
0

>  <SCORE.INTER.ROT>
5

>  <SCORE.INTER.SOLV>
11.5454

>  <SCORE.INTER.VDW>
-13.1822

>  <SCORE.INTER.norm>
-0.156548

>  <SCORE.INTRA>
-5.03361

>  <SCORE.INTRA.DIHEDRAL>
-7.66587

>  <SCORE.INTRA.DIHEDRAL.0>
12.4853

>  <SCORE.INTRA.POLAR>
0

>  <SCORE.INTRA.POLAR.0>
0

>  <SCORE.INTRA.REPUL>
0

>  <SCORE.INTRA.REPUL.0>
0

>  <SCORE.INTRA.SOLV>
0.462108

>  <SCORE.INTRA.SOLV.lig_0>
-31.1706

>  <SCORE.INTRA.VDW>
-1.43173

>  <SCORE.INTRA.VDW.0>
-1.16895

>  <SCORE.INTRA.norm>
-0.218853

>  <SCORE.RESTR>
0

>  <SCORE.RESTR.CAVITY>
0

>  <SCORE.RESTR.norm>
0

>  <SCORE.SYSTEM>
0

>  <SCORE.SYSTEM.CONST>
0

>  <SCORE.SYSTEM.DIHEDRAL>
0

>  <SCORE.SYSTEM.SOLV>
0

>  <SCORE.SYSTEM.norm>
0

>  <SCORE.heavy>
23

>  <SCORE.norm>
-0.375401

>  <RMSD>
14.096

$$$$
ligand
 OpenBabel11021811513D
libRbt.so/2013.1/901 2013/11/27
 23 24  0  0  0  0  0  0  0  0999 V2000
   -8.2563    4.7533    2.6892 C   0  0  0  0  0  0  0  0  0  0  0  0
   -8.9698    3.5110    2.8410 O   0  0  0  0  0  0  0  0  0  0  0  0
   -8.7168    5.4359    1.4091 C   0  0  2  0  0  0  0  0  0  0  0  0
  -10.1832    5.8379    1.3706 C   0  0  1  0  0  0  0  0  0  0  0  0
  -10.3610    7.0533    2.1010 O   0  0  0  0  0  0  0  0  0  0  0  0
  -10.4319    5.9738   -0.1278 C   0  0  2  0  0  0  0  0  0  0  0  0
  -11.7773    5.8816   -0.6110 O   0  0  0  0  0  0  0  0  0  0  0  0
   -9.6033    4.8257   -0.6765 C   0  0  2  0  0  0  0  0  0  0  0  0
   -8.5388    4.5901    0.2695 O   0  0  0  0  0  0  0  0  0  0  0  0
   -9.0775    5.2474   -2.0604 C   0  0  0  0  0  0  0  0  0  0  0  0
   -8.1663    4.2881   -2.6144 O   0  0  0  0  0  0  0  0  0  0  0  0
   -9.6706    2.4153   -0.7910 C   0  0  2  0  0  0  0  0  0  0  0  0
  -10.4178    3.6416   -0.7152 O   0  0  0  0  0  0  0  0  0  0  0  0
  -10.1837    1.6443   -1.9929 C   0  0  2  0  0  0  0  0  0  0  0  0
  -10.2345    2.5184   -3.1258 O   0  0  0  0  0  0  0  0  0  0  0  0
  -11.5830    1.1302   -1.7347 C   0  0  1  0  0  0  0  0  0  0  0  0
  -11.9303    0.2124   -2.7742 O   0  0  0  0  0  0  0  0  0  0  0  0
  -11.6598    0.4445   -0.3839 C   0  0  2  0  0  0  0  0  0  0  0  0
  -13.0196    0.1387   -0.1066 O   0  0  0  0  0  0  0  0  0  0  0  0
  -11.1142    1.3230    0.7339 C   0  0  2  0  0  0  0  0  0  0  0  0
   -9.7691    1.6443    0.4063 O   0  0  0  0  0  0  0  0  0  0  0  0
  -11.1800    0.6142    2.0919 C   0  0  0  0  0  0  0  0  0  0  0  0
  -10.8432    1.4739    3.1905 O   0  0  0  0  0  0  0  0  0  0  0  0
  1  2  1  0  0  0  0
  3  1  1  1  0  0  0
  3  9  1  0  0  0  0
  3  4  1  0  0  0  0
  4  5  1  1  0  0  0
  4  6  1  0  0  0  0
  6  7  1  1  0  0  0
  6  8  1  0  0  0  0
  8  9  1  0  0  0  0
  8 10  1  6  0  0  0
  8 13  1  0  0  0  0
 10 11  1  0  0  0  0
 12 13  1  1  0  0  0
 12 14  1  0  0  0  0
 12 21  1  0  0  0  0
 14 15  1  6  0  0  0
 14 16  1  0  0  0  0
 16 17  1  6  0  0  0
 16 18  1  0  0  0  0
 18 19  1  1  0  0  0
 18 20  1  0  0  0  0
 20 21  1  0  0  0  0
 20 22  1  1  0  0  0
 22 23  1  0  0  0  0
M  END
>  <CHROM.1>
62.98691978,174.02576317,-125.77078944,-160.73373574,-172.12722529,-10.25418398
3.23484871,-0.02373161,0.35393229,1.17404099,1.58659007

>  <Name>
ligand

>  <RI>
0

>  <Rbt.Current_Directory>
/home/itssahil/PROJECTS/Mol_Feturizer/New_Systems/rnas/4TS2

>  <Rbt.Executable>
rbdock ($Id: //depot/dev/client3/rdock/2013.1/src/exe/rbdock.cxx#4 $)

>  <Rbt.Library>
libRbt.so (2013.1, Build901 2013/11/27)

>  <Rbt.Parameter_File>
/export/apps/rDock/src/rDock_2013.1_src/data/scripts/dock_solv.prm

>  <Rbt.Receptor>
prm/blind_docking_80.prm

>  <SCORE>
-10.0766

>  <SCORE.INTER>
-7.0524

>  <SCORE.INTER.CONST>
1

>  <SCORE.INTER.POLAR>
0

>  <SCORE.INTER.ROT>
5

>  <SCORE.INTER.SOLV>
8.29759

>  <SCORE.INTER.VDW>
-14.4008

>  <SCORE.INTER.norm>
-0.306626

>  <SCORE.INTRA>
-3.02416

>  <SCORE.INTRA.DIHEDRAL>
-3.66743

>  <SCORE.INTRA.DIHEDRAL.0>
12.4853

>  <SCORE.INTRA.POLAR>
0

>  <SCORE.INTRA.POLAR.0>
0

>  <SCORE.INTRA.REPUL>
0

>  <SCORE.INTRA.REPUL.0>
0

>  <SCORE.INTRA.SOLV>
1.28086

>  <SCORE.INTRA.SOLV.lig_0>
-31.1706

>  <SCORE.INTRA.VDW>
-1.83087

>  <SCORE.INTRA.VDW.0>
-1.16895

>  <SCORE.INTRA.norm>
-0.131485

>  <SCORE.RESTR>
0

>  <SCORE.RESTR.CAVITY>
0

>  <SCORE.RESTR.norm>
0

>  <SCORE.SYSTEM>
0

>  <SCORE.SYSTEM.CONST>
0

>  <SCORE.SYSTEM.DIHEDRAL>
0

>  <SCORE.SYSTEM.SOLV>
0

>  <SCORE.SYSTEM.norm>
0

>  <SCORE.heavy>
23

>  <SCORE.norm>
-0.438111

>  <RMSD>
14.101

$$$$
ligand
 OpenBabel11021811513D
libRbt.so/2013.1/901 2013/11/27
 23 24  0  0  0  0  0  0  0  0999 V2000
   -9.7569    5.8755    0.7198 C   0  0  0  0  0  0  0  0  0  0  0  0
   -8.8913    6.6586    1.5642 O   0  0  0  0  0  0  0  0  0  0  0  0
  -10.0375    4.5424    1.3984 C   0  0  2  0  0  0  0  0  0  0  0  0
   -8.8252    3.6512    1.6213 C   0  0  1  0  0  0  0  0  0  0  0  0
   -8.1092    4.1040    2.7722 O   0  0  0  0  0  0  0  0  0  0  0  0
   -9.4710    2.2805    1.7932 C   0  0  2  0  0  0  0  0  0  0  0  0
   -8.6743    1.1128    1.5606 O   0  0  0  0  0  0  0  0  0  0  0  0
  -10.5995    2.3494    0.7796 C   0  0  2  0  0  0  0  0  0  0  0  0
  -10.9435    3.7434    0.6324 O   0  0  0  0  0  0  0  0  0  0  0  0
  -11.7692    1.5093    1.3236 C   0  0  0  0  0  0  0  0  0  0  0  0
  -12.3185    2.0550    2.5312 O   0  0  0  0  0  0  0  0  0  0  0  0
  -10.9936    2.1584   -1.5944 C   0  0  2  0  0  0  0  0  0  0  0  0
  -10.1116    1.8874   -0.4914 O   0  0  0  0  0  0  0  0  0  0  0  0
  -10.8074    1.0456   -2.6089 C   0  0  2  0  0  0  0  0  0  0  0  0
  -10.8730   -0.2180   -1.9386 O   0  0  0  0  0  0  0  0  0  0  0  0
   -9.4519    1.1544   -3.2720 C   0  0  1  0  0  0  0  0  0  0  0  0
   -9.4134    0.2529   -4.3808 O   0  0  0  0  0  0  0  0  0  0  0  0
   -9.1994    2.5741   -3.7426 C   0  0  2  0  0  0  0  0  0  0  0  0
   -7.8552    2.6706   -4.1934 O   0  0  0  0  0  0  0  0  0  0  0  0
   -9.4210    3.5915   -2.6314 C   0  0  2  0  0  0  0  0  0  0  0  0
  -10.7586    3.4410   -2.1754 O   0  0  0  0  0  0  0  0  0  0  0  0
   -9.1804    5.0241   -3.1219 C   0  0  0  0  0  0  0  0  0  0  0  0
   -9.4484    6.0135   -2.1175 O   0  0  0  0  0  0  0  0  0  0  0  0
  1  2  1  0  0  0  0
  3  1  1  6  0  0  0
  3  9  1  0  0  0  0
  3  4  1  0  0  0  0
  4  5  1  1  0  0  0
  4  6  1  0  0  0  0
  6  7  1  6  0  0  0
  6  8  1  0  0  0  0
  8  9  1  0  0  0  0
  8 10  1  1  0  0  0
  8 13  1  0  0  0  0
 10 11  1  0  0  0  0
 12 13  1  1  0  0  0
 12 14  1  0  0  0  0
 12 21  1  0  0  0  0
 14 15  1  1  0  0  0
 14 16  1  0  0  0  0
 16 17  1  6  0  0  0
 16 18  1  0  0  0  0
 18 19  1  1  0  0  0
 18 20  1  0  0  0  0
 20 21  1  0  0  0  0
 20 22  1  6  0  0  0
 22 23  1  0  0  0  0
M  END
>  <CHROM.1>
-63.03709575,64.74145156,-148.95883018,-167.84819605,176.94830545,-9.85674282
2.94154702,-0.66775694,-1.66169692,-1.20029974,-2.06196384

>  <Name>
ligand

>  <RI>
0

>  <Rbt.Current_Directory>
/home/itssahil/PROJECTS/Mol_Feturizer/New_Systems/rnas/4TS2

>  <Rbt.Executable>
rbdock ($Id: //depot/dev/client3/rdock/2013.1/src/exe/rbdock.cxx#4 $)

>  <Rbt.Library>
libRbt.so (2013.1, Build901 2013/11/27)

>  <Rbt.Parameter_File>
/export/apps/rDock/src/rDock_2013.1_src/data/scripts/dock_solv.prm

>  <Rbt.Receptor>
prm/blind_docking_60.prm

>  <SCORE>
-8.6273

>  <SCORE.INTER>
-3.53703

>  <SCORE.INTER.CONST>
1

>  <SCORE.INTER.POLAR>
0

>  <SCORE.INTER.ROT>
5

>  <SCORE.INTER.SOLV>
11.5995

>  <SCORE.INTER.VDW>
-13.1579

>  <SCORE.INTER.norm>
-0.153784

>  <SCORE.INTRA>
-5.09027

>  <SCORE.INTRA.DIHEDRAL>
-7.9347

>  <SCORE.INTRA.DIHEDRAL.0>
12.4853

>  <SCORE.INTRA.POLAR>
0

>  <SCORE.INTRA.POLAR.0>
0

>  <SCORE.INTRA.REPUL>
0

>  <SCORE.INTRA.REPUL.0>
0

>  <SCORE.INTRA.SOLV>
0.48422

>  <SCORE.INTRA.SOLV.lig_0>
-31.1706

>  <SCORE.INTRA.VDW>
-1.36503

>  <SCORE.INTRA.VDW.0>
-1.16895

>  <SCORE.INTRA.norm>
-0.221316

>  <SCORE.RESTR>
0

>  <SCORE.RESTR.CAVITY>
0

>  <SCORE.RESTR.norm>
0

>  <SCORE.SYSTEM>
0

>  <SCORE.SYSTEM.CONST>
0

>  <SCORE.SYSTEM.DIHEDRAL>
0

>  <SCORE.SYSTEM.SOLV>
0

>  <SCORE.SYSTEM.norm>
0

>  <SCORE.heavy>
23

>  <SCORE.norm>
-0.3751

>  <RMSD>
14.102

$$$$
ligand
 OpenBabel11021811513D
libRbt.so/2013.1/901 2013/11/27
 23 24  0  0  0  0  0  0  0  0999 V2000
  -13.0680    3.6845    2.2591 C   0  0  0  0  0  0  0  0  0  0  0  0
  -12.7586    2.7249    3.2882 O   0  0  0  0  0  0  0  0  0  0  0  0
  -11.8150    4.4857    1.9359 C   0  0  2  0  0  0  0  0  0  0  0  0
  -11.9795    5.5609    0.8727 C   0  0  1  0  0  0  0  0  0  0  0  0
  -12.5861    6.7158    1.4563 O   0  0  0  0  0  0  0  0  0  0  0  0
  -10.5392    5.7790    0.4218 C   0  0  2  0  0  0  0  0  0  0  0  0
  -10.3042    6.3582   -0.8673 O   0  0  0  0  0  0  0  0  0  0  0  0
   -9.9927    4.3628    0.4621 C   0  0  2  0  0  0  0  0  0  0  0  0
  -10.7655    3.6453    1.4476 O   0  0  0  0  0  0  0  0  0  0  0  0
   -8.5008    4.4471    0.8320 C   0  0  0  0  0  0  0  0  0  0  0  0
   -8.2927    4.9949    2.1414 O   0  0  0  0  0  0  0  0  0  0  0  0
   -9.6620    2.4211   -0.9336 C   0  0  2  0  0  0  0  0  0  0  0  0
  -10.2275    3.7376   -0.8111 O   0  0  0  0  0  0  0  0  0  0  0  0
   -9.8701    1.9690   -2.3671 C   0  0  2  0  0  0  0  0  0  0  0  0
   -9.4487    3.0105   -3.2547 O   0  0  0  0  0  0  0  0  0  0  0  0
  -11.3347    1.6944   -2.6288 C   0  0  1  0  0  0  0  0  0  0  0  0
  -11.4567    1.0422   -3.8950 O   0  0  0  0  0  0  0  0  0  0  0  0
  -11.9195    0.8238   -1.5330 C   0  0  2  0  0  0  0  0  0  0  0  0
  -13.3255    0.7402   -1.7213 O   0  0  0  0  0  0  0  0  0  0  0  0
  -11.6404    1.3876   -0.1462 C   0  0  2  0  0  0  0  0  0  0  0  0
  -10.2304    1.4971   -0.0058 O   0  0  0  0  0  0  0  0  0  0  0  0
  -12.2202    0.4913    0.9544 C   0  0  0  0  0  0  0  0  0  0  0  0
  -11.7437   -0.8607    0.8861 O   0  0  0  0  0  0  0  0  0  0  0  0
  1  2  1  0  0  0  0
  3  1  1  6  0  0  0
  3  9  1  0  0  0  0
  3  4  1  0  0  0  0
  4  5  1  1  0  0  0
  4  6  1  0  0  0  0
  6  7  1  6  0  0  0
  6  8  1  0  0  0  0
  8  9  1  0  0  0  0
  8 10  1  1  0  0  0
  8 13  1  0  0  0  0
 10 11  1  0  0  0  0
 12 13  1  6  0  0  0
 12 14  1  0  0  0  0
 12 21  1  0  0  0  0
 14 15  1  6  0  0  0
 14 16  1  0  0  0  0
 16 17  1  6  0  0  0
 16 18  1  0  0  0  0
 18 19  1  6  0  0  0
 18 20  1  0  0  0  0
 20 21  1  0  0  0  0
 20 22  1  1  0  0  0
 22 23  1  0  0  0  0
M  END
>  <CHROM.1>
-179.26619499,63.32034146,-174.14330447,175.49007670,56.27471996,-11.03322162
3.06688883,-0.04808098,1.39117791,0.95060488,0.78093982

>  <Name>
ligand

>  <RI>
0

>  <Rbt.Current_Directory>
/home/itssahil/PROJECTS/Mol_Feturizer/New_Systems/rnas/4TS2

>  <Rbt.Executable>
rbdock ($Id: //depot/dev/client3/rdock/2013.1/src/exe/rbdock.cxx#4 $)

>  <Rbt.Library>
libRbt.so (2013.1, Build901 2013/11/27)

>  <Rbt.Parameter_File>
/export/apps/rDock/src/rDock_2013.1_src/data/scripts/dock_solv.prm

>  <Rbt.Receptor>
prm/blind_docking_20.prm

>  <SCORE>
-13.8563

>  <SCORE.INTER>
-6.70652

>  <SCORE.INTER.CONST>
1

>  <SCORE.INTER.POLAR>
0

>  <SCORE.INTER.ROT>
5

>  <SCORE.INTER.SOLV>
10.15

>  <SCORE.INTER.VDW>
-14.7877

>  <SCORE.INTER.norm>
-0.291588

>  <SCORE.INTRA>
-7.14974

>  <SCORE.INTRA.DIHEDRAL>
-11.968

>  <SCORE.INTRA.DIHEDRAL.0>
12.4853

>  <SCORE.INTRA.POLAR>
0

>  <SCORE.INTRA.POLAR.0>
0

>  <SCORE.INTRA.REPUL>
0

>  <SCORE.INTRA.REPUL.0>
0

>  <SCORE.INTRA.SOLV>
0.334501

>  <SCORE.INTRA.SOLV.lig_0>
-31.1706

>  <SCORE.INTRA.VDW>
-1.33298

>  <SCORE.INTRA.VDW.0>
-1.16895

>  <SCORE.INTRA.norm>
-0.310858

>  <SCORE.RESTR>
0

>  <SCORE.RESTR.CAVITY>
0

>  <SCORE.RESTR.norm>
0

>  <SCORE.SYSTEM>
0

>  <SCORE.SYSTEM.CONST>
0

>  <SCORE.SYSTEM.DIHEDRAL>
0

>  <SCORE.SYSTEM.SOLV>
0

>  <SCORE.SYSTEM.norm>
0

>  <SCORE.heavy>
23

>  <SCORE.norm>
-0.602446

>  <RMSD>
14.106

$$$$
ligand
 OpenBabel11021811513D
libRbt.so/2013.1/901 2013/11/27
 23 24  0  0  0  0  0  0  0  0999 V2000
   -8.7606    2.5313    0.8885 C   0  0  0  0  0  0  0  0  0  0  0  0
   -9.0374    1.3590    1.6789 O   0  0  0  0  0  0  0  0  0  0  0  0
   -9.3137    3.7544    1.6058 C   0  0  2  0  0  0  0  0  0  0  0  0
   -8.8300    3.9520    3.0343 C   0  0  1  0  0  0  0  0  0  0  0  0
   -7.5247    4.5334    3.0167 O   0  0  0  0  0  0  0  0  0  0  0  0
   -9.9078    4.8667    3.6065 C   0  0  2  0  0  0  0  0  0  0  0  0
  -10.0831    4.9148    5.0275 O   0  0  0  0  0  0  0  0  0  0  0  0
  -11.1573    4.3094    2.9478 C   0  0  2  0  0  0  0  0  0  0  0  0
  -10.7398    3.7047    1.7055 O   0  0  0  0  0  0  0  0  0  0  0  0
  -12.1346    5.4793    2.7331 C   0  0  0  0  0  0  0  0  0  0  0  0
  -11.6327    6.4463    1.8000 O   0  0  0  0  0  0  0  0  0  0  0  0
  -12.9718    2.7674    3.3445 C   0  0  2  0  0  0  0  0  0  0  0  0
  -11.6945    3.2659    3.7781 O   0  0  0  0  0  0  0  0  0  0  0  0
  -13.4900    1.8415    4.4292 C   0  0  2  0  0  0  0  0  0  0  0  0
  -13.3736    2.4929    5.6990 O   0  0  0  0  0  0  0  0  0  0  0  0
  -12.6702    0.5709    4.4776 C   0  0  1  0  0  0  0  0  0  0  0  0
  -13.3329   -0.3668    5.3291 O   0  0  0  0  0  0  0  0  0  0  0  0
  -12.5041   -0.0114    3.0869 C   0  0  2  0  0  0  0  0  0  0  0  0
  -11.5861   -1.0941    3.1547 O   0  0  0  0  0  0  0  0  0  0  0  0
  -11.9791    1.0188    2.0959 C   0  0  2  0  0  0  0  0  0  0  0  0
  -12.8962    2.1043    2.0826 O   0  0  0  0  0  0  0  0  0  0  0  0
  -11.8316    0.4251    0.6899 C   0  0  0  0  0  0  0  0  0  0  0  0
  -13.0889    0.0700    0.0960 O   0  0  0  0  0  0  0  0  0  0  0  0
  1  2  1  0  0  0  0
  3  1  1  1  0  0  0
  3  9  1  0  0  0  0
  3  4  1  0  0  0  0
  4  5  1  6  0  0  0
  4  6  1  0  0  0  0
  6  7  1  1  0  0  0
  6  8  1  0  0  0  0
  8  9  1  0  0  0  0
  8 10  1  6  0  0  0
  8 13  1  0  0  0  0
 10 11  1  0  0  0  0
 12 13  1  1  0  0  0
 12 14  1  0  0  0  0
 12 21  1  0  0  0  0
 14 15  1  1  0  0  0
 14 16  1  0  0  0  0
 16 17  1  1  0  0  0
 16 18  1  0  0  0  0
 18 19  1  1  0  0  0
 18 20  1  0  0  0  0
 20 21  1  0  0  0  0
 20 22  1  6  0  0  0
 22 23  1  0  0  0  0
M  END
>  <CHROM.1>
55.02762093,65.23635854,-171.43460384,172.80012327,66.30390206,-11.32800318
2.55266934,2.88445514,-0.69786512,-0.73936404,-2.58389370

>  <Name>
ligand

>  <RI>
0

>  <Rbt.Current_Directory>
/home/itssahil/PROJECTS/Mol_Feturizer/New_Systems/rnas/4TS2

>  <Rbt.Executable>
rbdock ($Id: //depot/dev/client3/rdock/2013.1/src/exe/rbdock.cxx#4 $)

>  <Rbt.Library>
libRbt.so (2013.1, Build901 2013/11/27)

>  <Rbt.Parameter_File>
/export/apps/rDock/src/rDock_2013.1_src/data/scripts/dock_solv.prm

>  <Rbt.Receptor>
prm/blind_docking_60.prm

>  <SCORE>
-10.2055

>  <SCORE.INTER>
-3.55549

>  <SCORE.INTER.CONST>
1

>  <SCORE.INTER.POLAR>
0

>  <SCORE.INTER.ROT>
5

>  <SCORE.INTER.SOLV>
8.16235

>  <SCORE.INTER.VDW>
-12.0244

>  <SCORE.INTER.norm>
-0.154586

>  <SCORE.INTRA>
-6.65005

>  <SCORE.INTRA.DIHEDRAL>
-11.3457

>  <SCORE.INTRA.DIHEDRAL.0>
12.4853

>  <SCORE.INTRA.POLAR>
0

>  <SCORE.INTRA.POLAR.0>
0

>  <SCORE.INTRA.REPUL>
0

>  <SCORE.INTRA.REPUL.0>
0

>  <SCORE.INTRA.SOLV>
1.03341

>  <SCORE.INTRA.SOLV.lig_0>
-31.1706

>  <SCORE.INTRA.VDW>
-1.49392

>  <SCORE.INTRA.VDW.0>
-1.16895

>  <SCORE.INTRA.norm>
-0.289133

>  <SCORE.RESTR>
0

>  <SCORE.RESTR.CAVITY>
0

>  <SCORE.RESTR.norm>
0

>  <SCORE.SYSTEM>
0

>  <SCORE.SYSTEM.CONST>
0

>  <SCORE.SYSTEM.DIHEDRAL>
0

>  <SCORE.SYSTEM.SOLV>
0

>  <SCORE.SYSTEM.norm>
0

>  <SCORE.heavy>
23

>  <SCORE.norm>
-0.443719

>  <RMSD>
14.111

$$$$
ligand
 OpenBabel11021811513D
libRbt.so/2013.1/901 2013/11/27
 23 24  0  0  0  0  0  0  0  0999 V2000
   -9.6919    2.4280   -1.8893 C   0  0  0  0  0  0  0  0  0  0  0  0
  -10.5213    3.6041   -1.8233 O   0  0  0  0  0  0  0  0  0  0  0  0
  -10.4112    1.2754   -1.2034 C   0  0  2  0  0  0  0  0  0  0  0  0
  -11.8344    1.0170   -1.6737 C   0  0  1  0  0  0  0  0  0  0  0  0
  -11.8028    0.2869   -2.9017 O   0  0  0  0  0  0  0  0  0  0  0  0
  -12.4145    0.2327   -0.5016 C   0  0  2  0  0  0  0  0  0  0  0  0
  -13.8369    0.2001   -0.3348 O   0  0  0  0  0  0  0  0  0  0  0  0
  -11.7692    0.9349    0.6802 C   0  0  2  0  0  0  0  0  0  0  0  0
  -10.5246    1.4913    0.2060 O   0  0  0  0  0  0  0  0  0  0  0  0
  -11.5607   -0.1117    1.7896 C   0  0  0  0  0  0  0  0  0  0  0  0
  -12.7810   -0.7713    2.1549 O   0  0  0  0  0  0  0  0  0  0  0  0
  -12.1733    2.6929    2.2844 C   0  0  2  0  0  0  0  0  0  0  0  0
  -12.6074    2.0310    1.0838 O   0  0  0  0  0  0  0  0  0  0  0  0
  -13.2407    3.7052    2.6562 C   0  0  2  0  0  0  0  0  0  0  0  0
  -14.5242    3.0716    2.6167 O   0  0  0  0  0  0  0  0  0  0  0  0
  -13.2528    4.8501    1.6673 C   0  0  1  0  0  0  0  0  0  0  0  0
  -14.0880    5.8892    2.1833 O   0  0  0  0  0  0  0  0  0  0  0  0
  -11.8476    5.3733    1.4381 C   0  0  2  0  0  0  0  0  0  0  0  0
  -11.8825    6.3189    0.3779 O   0  0  0  0  0  0  0  0  0  0  0  0
  -10.8762    4.2589    1.0730 C   0  0  2  0  0  0  0  0  0  0  0  0
  -10.8959    3.3114    2.1322 O   0  0  0  0  0  0  0  0  0  0  0  0
   -9.4557    4.7956    0.8608 C   0  0  0  0  0  0  0  0  0  0  0  0
   -9.3534    5.6840   -0.2616 O   0  0  0  0  0  0  0  0  0  0  0  0
  1  2  1  0  0  0  0
  3  1  1  6  0  0  0
  3  9  1  0  0  0  0
  3  4  1  0  0  0  0
  4  5  1  6  0  0  0
  4  6  1  0  0  0  0
  6  7  1  1  0  0  0
  6  8  1  0  0  0  0
  8  9  1  0  0  0  0
  8 10  1  1  0  0  0
  8 13  1  0  0  0  0
 10 11  1  0  0  0  0
 12 13  1  6  0  0  0
 12 14  1  0  0  0  0
 12 21  1  0  0  0  0
 14 15  1  6  0  0  0
 14 16  1  0  0  0  0
 16 17  1  1  0  0  0
 16 18  1  0  0  0  0
 18 19  1  6  0  0  0
 18 20  1  0  0  0  0
 20 21  1  0  0  0  0
 20 22  1  1  0  0  0
 22 23  1  0  0  0  0
M  END
>  <CHROM.1>
51.89272447,-56.06228144,-173.55316679,173.89030369,-64.83390004,-11.81076483
2.73327129,0.54006806,-1.55579530,0.81838854,0.35904312

>  <Name>
ligand

>  <RI>
0

>  <Rbt.Current_Directory>
/home/itssahil/PROJECTS/Mol_Feturizer/New_Systems/rnas/4TS2

>  <Rbt.Executable>
rbdock ($Id: //depot/dev/client3/rdock/2013.1/src/exe/rbdock.cxx#4 $)

>  <Rbt.Library>
libRbt.so (2013.1, Build901 2013/11/27)

>  <Rbt.Parameter_File>
/export/apps/rDock/src/rDock_2013.1_src/data/scripts/dock_solv.prm

>  <Rbt.Receptor>
prm/blind_docking_60.prm

>  <SCORE>
-14.3391

>  <SCORE.INTER>
-7.95606

>  <SCORE.INTER.CONST>
1

>  <SCORE.INTER.POLAR>
0

>  <SCORE.INTER.ROT>
5

>  <SCORE.INTER.SOLV>
10.6674

>  <SCORE.INTER.VDW>
-15.7932

>  <SCORE.INTER.norm>
-0.345915

>  <SCORE.INTRA>
-6.38309

>  <SCORE.INTRA.DIHEDRAL>
-11.5418

>  <SCORE.INTRA.DIHEDRAL.0>
12.4853

>  <SCORE.INTRA.POLAR>
0

>  <SCORE.INTRA.POLAR.0>
0

>  <SCORE.INTRA.REPUL>
0

>  <SCORE.INTRA.REPUL.0>
0

>  <SCORE.INTRA.SOLV>
1.70645

>  <SCORE.INTRA.SOLV.lig_0>
-31.1706

>  <SCORE.INTRA.VDW>
-1.46542

>  <SCORE.INTRA.VDW.0>
-1.16895

>  <SCORE.INTRA.norm>
-0.277526

>  <SCORE.RESTR>
0

>  <SCORE.RESTR.CAVITY>
0

>  <SCORE.RESTR.norm>
0

>  <SCORE.SYSTEM>
0

>  <SCORE.SYSTEM.CONST>
0

>  <SCORE.SYSTEM.DIHEDRAL>
0

>  <SCORE.SYSTEM.SOLV>
0

>  <SCORE.SYSTEM.norm>
0

>  <SCORE.heavy>
23

>  <SCORE.norm>
-0.623441

>  <RMSD>
14.118

$$$$
ligand
 OpenBabel11021811513D
libRbt.so/2013.1/901 2013/11/27
 23 24  0  0  0  0  0  0  0  0999 V2000
   -9.6962    2.5160   -1.8548 C   0  0  0  0  0  0  0  0  0  0  0  0
   -9.5350    2.2462   -3.2608 O   0  0  0  0  0  0  0  0  0  0  0  0
  -10.4133    1.3418   -1.2040 C   0  0  2  0  0  0  0  0  0  0  0  0
  -11.8419    1.1053   -1.6697 C   0  0  1  0  0  0  0  0  0  0  0  0
  -11.8244    0.4197   -2.9234 O   0  0  0  0  0  0  0  0  0  0  0  0
  -12.4138    0.2813   -0.5211 C   0  0  2  0  0  0  0  0  0  0  0  0
  -13.8348    0.2475   -0.3422 O   0  0  0  0  0  0  0  0  0  0  0  0
  -11.7550    0.9384    0.6789 C   0  0  2  0  0  0  0  0  0  0  0  0
  -10.5128    1.5073    0.2133 O   0  0  0  0  0  0  0  0  0  0  0  0
  -11.5399   -0.1481    1.7480 C   0  0  0  0  0  0  0  0  0  0  0  0
  -12.7640   -0.7947    2.1239 O   0  0  0  0  0  0  0  0  0  0  0  0
  -12.0596    2.7346    2.2628 C   0  0  2  0  0  0  0  0  0  0  0  0
  -12.5852    2.0220    1.1296 O   0  0  0  0  0  0  0  0  0  0  0  0
  -13.1355    3.6948    2.7345 C   0  0  2  0  0  0  0  0  0  0  0  0
  -14.3770    2.9907    2.8495 O   0  0  0  0  0  0  0  0  0  0  0  0
  -13.3226    4.8141    1.7339 C   0  0  1  0  0  0  0  0  0  0  0  0
  -14.1538    5.8172    2.3225 O   0  0  0  0  0  0  0  0  0  0  0  0
  -11.9838    5.4085    1.3402 C   0  0  2  0  0  0  0  0  0  0  0  0
  -12.1901    6.3259    0.2747 O   0  0  0  0  0  0  0  0  0  0  0  0
  -10.9965    4.3411    0.8876 C   0  0  2  0  0  0  0  0  0  0  0  0
  -10.8444    3.4188    1.9581 O   0  0  0  0  0  0  0  0  0  0  0  0
   -9.6414    4.9502    0.5087 C   0  0  0  0  0  0  0  0  0  0  0  0
   -9.7095    5.7927   -0.6511 O   0  0  0  0  0  0  0  0  0  0  0  0
  1  2  1  0  0  0  0
  3  1  1  6  0  0  0
  3  9  1  0  0  0  0
  3  4  1  0  0  0  0
  4  5  1  6  0  0  0
  4  6  1  0  0  0  0
  6  7  1  1  0  0  0
  6  8  1  0  0  0  0
  8  9  1  0  0  0  0
  8 10  1  1  0  0  0
  8 13  1  0  0  0  0
 10 11  1  0  0  0  0
 12 13  1  6  0  0  0
 12 14  1  0  0  0  0
 12 21  1  0  0  0  0
 14 15  1  6  0  0  0
 14 16  1  0  0  0  0
 16 17  1  1  0  0  0
 16 18  1  0  0  0  0
 18 19  1  6  0  0  0
 18 20  1  0  0  0  0
 20 21  1  0  0  0  0
 20 22  1  1  0  0  0
 22 23  1  0  0  0  0
M  END
>  <CHROM.1>
-64.78979702,-57.43865288,-171.73502206,-179.53127614,-66.16134092,-11.79857812
2.70055181,0.43482503,-1.23437824,0.88107763,0.31331713

>  <Name>
ligand

>  <RI>
0

>  <Rbt.Current_Directory>
/home/itssahil/PROJECTS/Mol_Feturizer/New_Systems/rnas/4TS2

>  <Rbt.Executable>
rbdock ($Id: //depot/dev/client3/rdock/2013.1/src/exe/rbdock.cxx#4 $)

>  <Rbt.Library>
libRbt.so (2013.1, Build901 2013/11/27)

>  <Rbt.Parameter_File>
/export/apps/rDock/src/rDock_2013.1_src/data/scripts/dock_solv.prm

>  <Rbt.Receptor>
prm/blind_docking_80.prm

>  <SCORE>
-14.8668

>  <SCORE.INTER>
-7.99044

>  <SCORE.INTER.CONST>
1

>  <SCORE.INTER.POLAR>
0

>  <SCORE.INTER.ROT>
5

>  <SCORE.INTER.SOLV>
10.6856

>  <SCORE.INTER.VDW>
-15.8222

>  <SCORE.INTER.norm>
-0.34741

>  <SCORE.INTRA>
-6.87633

>  <SCORE.INTRA.DIHEDRAL>
-11.8271

>  <SCORE.INTRA.DIHEDRAL.0>
12.4853

>  <SCORE.INTRA.POLAR>
0

>  <SCORE.INTRA.POLAR.0>
0

>  <SCORE.INTRA.REPUL>
0

>  <SCORE.INTRA.REPUL.0>
0

>  <SCORE.INTRA.SOLV>
0.647721

>  <SCORE.INTRA.SOLV.lig_0>
-31.1706

>  <SCORE.INTRA.VDW>
-1.28663

>  <SCORE.INTRA.VDW.0>
-1.16895

>  <SCORE.INTRA.norm>
-0.298971

>  <SCORE.RESTR>
0

>  <SCORE.RESTR.CAVITY>
0

>  <SCORE.RESTR.norm>
0

>  <SCORE.SYSTEM>
0

>  <SCORE.SYSTEM.CONST>
0

>  <SCORE.SYSTEM.DIHEDRAL>
0

>  <SCORE.SYSTEM.SOLV>
0

>  <SCORE.SYSTEM.norm>
0

>  <SCORE.heavy>
23

>  <SCORE.norm>
-0.646381

>  <RMSD>
14.134

$$$$
ligand
 OpenBabel11021811513D
libRbt.so/2013.1/901 2013/11/27
 23 24  0  0  0  0  0  0  0  0999 V2000
   -5.8011    4.3068   -1.2818 C   0  0  0  0  0  0  0  0  0  0  0  0
   -5.0826    5.4736   -1.7264 O   0  0  0  0  0  0  0  0  0  0  0  0
   -6.9409    4.0275   -2.2510 C   0  0  2  0  0  0  0  0  0  0  0  0
   -7.9915    5.1219   -2.3615 C   0  0  1  0  0  0  0  0  0  0  0  0
   -7.5041    6.1629   -3.2105 O   0  0  0  0  0  0  0  0  0  0  0  0
   -9.1798    4.3588   -2.9370 C   0  0  2  0  0  0  0  0  0  0  0  0
  -10.4939    4.9011   -2.7603 O   0  0  0  0  0  0  0  0  0  0  0  0
   -9.0648    3.0297   -2.2115 C   0  0  2  0  0  0  0  0  0  0  0  0
   -7.6711    2.8550   -1.8793 O   0  0  0  0  0  0  0  0  0  0  0  0
   -9.5857    1.9333   -3.1582 C   0  0  0  0  0  0  0  0  0  0  0  0
  -11.0093    1.9866   -3.3252 O   0  0  0  0  0  0  0  0  0  0  0  0
   -9.3746    2.1632    0.0202 C   0  0  2  0  0  0  0  0  0  0  0  0
   -9.7974    3.1091   -0.9771 O   0  0  0  0  0  0  0  0  0  0  0  0
  -10.6225    1.6330    0.7014 C   0  0  2  0  0  0  0  0  0  0  0  0
  -11.5718    1.2399   -0.2958 O   0  0  0  0  0  0  0  0  0  0  0  0
  -11.2578    2.7085    1.5550 C   0  0  1  0  0  0  0  0  0  0  0  0
  -12.2726    2.1084    2.3634 O   0  0  0  0  0  0  0  0  0  0  0  0
  -10.2177    3.3785    2.4325 C   0  0  2  0  0  0  0  0  0  0  0  0
  -10.8186    4.4920    3.0794 O   0  0  0  0  0  0  0  0  0  0  0  0
   -9.0192    3.8636    1.6279 C   0  0  2  0  0  0  0  0  0  0  0  0
   -8.4674    2.7358    0.9620 O   0  0  0  0  0  0  0  0  0  0  0  0
   -7.9662    4.5232    2.5262 C   0  0  0  0  0  0  0  0  0  0  0  0
   -6.9123    5.1549    1.7847 O   0  0  0  0  0  0  0  0  0  0  0  0
  1  2  1  0  0  0  0
  3  1  1  1  0  0  0
  3  9  1  0  0  0  0
  3  4  1  0  0  0  0
  4  5  1  6  0  0  0
  4  6  1  0  0  0  0
  6  7  1  1  0  0  0
  6  8  1  0  0  0  0
  8  9  1  0  0  0  0
  8 10  1  6  0  0  0
  8 13  1  0  0  0  0
 10 11  1  0  0  0  0
 12 13  1  6  0  0  0
 12 14  1  0  0  0  0
 12 21  1  0  0  0  0
 14 15  1  6  0  0  0
 14 16  1  0  0  0  0
 16 17  1  1  0  0  0
 16 18  1  0  0  0  0
 18 19  1  6  0  0  0
 18 20  1  0  0  0  0
 20 21  1  0  0  0  0
 20 22  1  1  0  0  0
 22 23  1  0  0  0  0
M  END
>  <CHROM.1>
-61.94561816,-71.52381740,-139.57666723,-157.36871762,-171.89647706,-9.07521465
3.54743606,-0.49352229,-0.74600791,0.57253509,1.47966744

>  <Name>
ligand

>  <RI>
0

>  <Rbt.Current_Directory>
/home/itssahil/PROJECTS/Mol_Feturizer/New_Systems/rnas/4TS2

>  <Rbt.Executable>
rbdock ($Id: //depot/dev/client3/rdock/2013.1/src/exe/rbdock.cxx#4 $)

>  <Rbt.Library>
libRbt.so (2013.1, Build901 2013/11/27)

>  <Rbt.Parameter_File>
/export/apps/rDock/src/rDock_2013.1_src/data/scripts/dock_solv.prm

>  <Rbt.Receptor>
prm/blind_docking_80.prm

>  <SCORE>
-8.43346

>  <SCORE.INTER>
-4.87626

>  <SCORE.INTER.CONST>
1

>  <SCORE.INTER.POLAR>
0

>  <SCORE.INTER.ROT>
5

>  <SCORE.INTER.SOLV>
7.76305

>  <SCORE.INTER.VDW>
-12.7719

>  <SCORE.INTER.norm>
-0.212011

>  <SCORE.INTRA>
-3.5572

>  <SCORE.INTRA.DIHEDRAL>
-4.40475

>  <SCORE.INTRA.DIHEDRAL.0>
12.4853

>  <SCORE.INTRA.POLAR>
0

>  <SCORE.INTRA.POLAR.0>
0

>  <SCORE.INTRA.REPUL>
0

>  <SCORE.INTRA.REPUL.0>
0

>  <SCORE.INTRA.SOLV>
0.641917

>  <SCORE.INTRA.SOLV.lig_0>
-31.1706

>  <SCORE.INTRA.VDW>
-1.67578

>  <SCORE.INTRA.VDW.0>
-1.16895

>  <SCORE.INTRA.norm>
-0.154661

>  <SCORE.RESTR>
0

>  <SCORE.RESTR.CAVITY>
0

>  <SCORE.RESTR.norm>
0

>  <SCORE.SYSTEM>
0

>  <SCORE.SYSTEM.CONST>
0

>  <SCORE.SYSTEM.DIHEDRAL>
0

>  <SCORE.SYSTEM.SOLV>
0

>  <SCORE.SYSTEM.norm>
0

>  <SCORE.heavy>
23

>  <SCORE.norm>
-0.366672

>  <RMSD>
14.137

$$$$
ligand
 OpenBabel11021811513D
libRbt.so/2013.1/901 2013/11/27
 23 24  0  0  0  0  0  0  0  0999 V2000
  -12.9447    3.6492    2.3412 C   0  0  0  0  0  0  0  0  0  0  0  0
  -13.9610    4.4901    2.9206 O   0  0  0  0  0  0  0  0  0  0  0  0
  -11.7608    4.5135    1.9315 C   0  0  2  0  0  0  0  0  0  0  0  0
  -12.0423    5.5399    0.8449 C   0  0  1  0  0  0  0  0  0  0  0  0
  -12.6913    6.6750    1.4216 O   0  0  0  0  0  0  0  0  0  0  0  0
  -10.6415    5.8295    0.3165 C   0  0  2  0  0  0  0  0  0  0  0  0
  -10.5046    6.3776   -1.0000 O   0  0  0  0  0  0  0  0  0  0  0  0
  -10.0066    4.4512    0.3737 C   0  0  2  0  0  0  0  0  0  0  0  0
  -10.6855    3.7222    1.4182 O   0  0  0  0  0  0  0  0  0  0  0  0
   -8.5070    4.6385    0.6665 C   0  0  0  0  0  0  0  0  0  0  0  0
   -7.8310    5.3511   -0.3789 O   0  0  0  0  0  0  0  0  0  0  0  0
   -9.6658    2.4643   -0.9544 C   0  0  2  0  0  0  0  0  0  0  0  0
  -10.2623    3.7699   -0.8662 O   0  0  0  0  0  0  0  0  0  0  0  0
   -9.8711    1.9661   -2.3728 C   0  0  2  0  0  0  0  0  0  0  0  0
   -9.4801    2.9913   -3.2928 O   0  0  0  0  0  0  0  0  0  0  0  0
  -11.3300    1.6489   -2.6171 C   0  0  1  0  0  0  0  0  0  0  0  0
  -11.4435    0.9575   -3.8632 O   0  0  0  0  0  0  0  0  0  0  0  0
  -11.8873    0.7966   -1.4929 C   0  0  2  0  0  0  0  0  0  0  0  0
  -13.2920    0.6739   -1.6698 O   0  0  0  0  0  0  0  0  0  0  0  0
  -11.6141    1.4069   -0.1248 C   0  0  2  0  0  0  0  0  0  0  0  0
  -10.2063    1.5543    0.0033 O   0  0  0  0  0  0  0  0  0  0  0  0
  -12.1657    0.5292    1.0049 C   0  0  0  0  0  0  0  0  0  0  0  0
  -11.6855   -0.8221    0.9511 O   0  0  0  0  0  0  0  0  0  0  0  0
  1  2  1  0  0  0  0
  3  1  1  6  0  0  0
  3  9  1  0  0  0  0
  3  4  1  0  0  0  0
  4  5  1  1  0  0  0
  4  6  1  0  0  0  0
  6  7  1  6  0  0  0
  6  8  1  0  0  0  0
  8  9  1  0  0  0  0
  8 10  1  1  0  0  0
  8 13  1  0  0  0  0
 10 11  1  0  0  0  0
 12 13  1  6  0  0  0
 12 14  1  0  0  0  0
 12 21  1  0  0  0  0
 14 15  1  6  0  0  0
 14 16  1  0  0  0  0
 16 17  1  6  0  0  0
 16 18  1  0  0  0  0
 18 19  1  6  0  0  0
 18 20  1  0  0  0  0
 20 21  1  0  0  0  0
 20 22  1  1  0  0  0
 22 23  1  0  0  0  0
M  END
>  <CHROM.1>
-63.72722366,-63.20284736,-172.62896595,177.81688752,54.67247943,-11.07180052
3.18212418,-0.20078135,1.58123890,0.79193231,0.56717133

>  <Name>
ligand

>  <RI>
0

>  <Rbt.Current_Directory>
/home/itssahil/PROJECTS/Mol_Feturizer/New_Systems/rnas/4TS2

>  <Rbt.Executable>
rbdock ($Id: //depot/dev/client3/rdock/2013.1/src/exe/rbdock.cxx#4 $)

>  <Rbt.Library>
libRbt.so (2013.1, Build901 2013/11/27)

>  <Rbt.Parameter_File>
/export/apps/rDock/src/rDock_2013.1_src/data/scripts/dock_solv.prm

>  <Rbt.Receptor>
prm/blind_docking_40.prm

>  <SCORE>
-13.3651

>  <SCORE.INTER>
-6.35362

>  <SCORE.INTER.CONST>
1

>  <SCORE.INTER.POLAR>
0

>  <SCORE.INTER.ROT>
5

>  <SCORE.INTER.SOLV>
9.69642

>  <SCORE.INTER.VDW>
-14.4012

>  <SCORE.INTER.norm>
-0.276244

>  <SCORE.INTRA>
-7.0115

>  <SCORE.INTRA.DIHEDRAL>
-11.9276

>  <SCORE.INTRA.DIHEDRAL.0>
12.4853

>  <SCORE.INTRA.POLAR>
0

>  <SCORE.INTRA.POLAR.0>
0

>  <SCORE.INTRA.REPUL>
0

>  <SCORE.INTRA.REPUL.0>
0

>  <SCORE.INTRA.SOLV>
0.521171

>  <SCORE.INTRA.SOLV.lig_0>
-31.1706

>  <SCORE.INTRA.VDW>
-1.30831

>  <SCORE.INTRA.VDW.0>
-1.16895

>  <SCORE.INTRA.norm>
-0.304848

>  <SCORE.RESTR>
0

>  <SCORE.RESTR.CAVITY>
0

>  <SCORE.RESTR.norm>
0

>  <SCORE.SYSTEM>
0

>  <SCORE.SYSTEM.CONST>
0

>  <SCORE.SYSTEM.DIHEDRAL>
0

>  <SCORE.SYSTEM.SOLV>
0

>  <SCORE.SYSTEM.norm>
0

>  <SCORE.heavy>
23

>  <SCORE.norm>
-0.581092

>  <RMSD>
14.172

$$$$
ligand
 OpenBabel11021811513D
libRbt.so/2013.1/901 2013/11/27
 23 24  0  0  0  0  0  0  0  0999 V2000
  -10.4180    1.8249   -2.5675 C   0  0  0  0  0  0  0  0  0  0  0  0
  -11.8417    1.6734   -2.7279 O   0  0  0  0  0  0  0  0  0  0  0  0
  -10.0473    3.2847   -2.7862 C   0  0  2  0  0  0  0  0  0  0  0  0
   -8.5631    3.6055   -2.6971 C   0  0  1  0  0  0  0  0  0  0  0  0
   -7.9255    3.2438   -3.9238 O   0  0  0  0  0  0  0  0  0  0  0  0
   -8.5822    5.1064   -2.4280 C   0  0  2  0  0  0  0  0  0  0  0  0
   -7.4320    5.7097   -1.8238 O   0  0  0  0  0  0  0  0  0  0  0  0
   -9.7803    5.2319   -1.5035 C   0  0  2  0  0  0  0  0  0  0  0  0
  -10.6646    4.1345   -1.8152 O   0  0  0  0  0  0  0  0  0  0  0  0
  -10.4303    6.6029   -1.7633 C   0  0  0  0  0  0  0  0  0  0  0  0
  -10.9728    6.7085   -3.0870 O   0  0  0  0  0  0  0  0  0  0  0  0
  -10.3821    5.2051    0.8342 C   0  0  2  0  0  0  0  0  0  0  0  0
   -9.3397    5.0605   -0.1458 O   0  0  0  0  0  0  0  0  0  0  0  0
   -9.7152    5.3363    2.1908 C   0  0  2  0  0  0  0  0  0  0  0  0
   -8.6731    6.3149    2.1101 O   0  0  0  0  0  0  0  0  0  0  0  0
   -9.0920    4.0212    2.6043 C   0  0  1  0  0  0  0  0  0  0  0  0
   -8.6969    4.1152    3.9749 O   0  0  0  0  0  0  0  0  0  0  0  0
  -10.0764    2.8819    2.4203 C   0  0  2  0  0  0  0  0  0  0  0  0
   -9.3977    1.6543    2.6478 O   0  0  0  0  0  0  0  0  0  0  0  0
  -10.6724    2.8634    1.0191 C   0  0  2  0  0  0  0  0  0  0  0  0
  -11.3066    4.1177    0.8084 O   0  0  0  0  0  0  0  0  0  0  0  0
  -11.6789    1.7192    0.8491 C   0  0  0  0  0  0  0  0  0  0  0  0
  -11.0771    0.4213    0.9621 O   0  0  0  0  0  0  0  0  0  0  0  0
  1  2  1  0  0  0  0
  3  1  1  1  0  0  0
  3  9  1  0  0  0  0
  3  4  1  0  0  0  0
  4  5  1  6  0  0  0
  4  6  1  0  0  0  0
  6  7  1  1  0  0  0
  6  8  1  0  0  0  0
  8  9  1  0  0  0  0
  8 10  1  6  0  0  0
  8 13  1  0  0  0  0
 10 11  1  0  0  0  0
 12 13  1  6  0  0  0
 12 14  1  0  0  0  0
 12 21  1  0  0  0  0
 14 15  1  6  0  0  0
 14 16  1  0  0  0  0
 16 17  1  1  0  0  0
 16 18  1  0  0  0  0
 18 19  1  6  0  0  0
 18 20  1  0  0  0  0
 20 21  1  0  0  0  0
 20 22  1  1  0  0  0
 22 23  1  0  0  0  0
M  END
>  <CHROM.1>
-178.03798853,64.93063738,-166.42104130,177.92197934,-64.42742443,-9.85847649
3.93785835,-0.29963455,1.48537876,-1.18349355,-1.45525450

>  <Name>
ligand

>  <RI>
0

>  <Rbt.Current_Directory>
/home/itssahil/PROJECTS/Mol_Feturizer/New_Systems/rnas/4TS2

>  <Rbt.Executable>
rbdock ($Id: //depot/dev/client3/rdock/2013.1/src/exe/rbdock.cxx#4 $)

>  <Rbt.Library>
libRbt.so (2013.1, Build901 2013/11/27)

>  <Rbt.Parameter_File>
/export/apps/rDock/src/rDock_2013.1_src/data/scripts/dock_solv.prm

>  <Rbt.Receptor>
prm/blind_docking_20.prm

>  <SCORE>
-11.6375

>  <SCORE.INTER>
-4.71636

>  <SCORE.INTER.CONST>
1

>  <SCORE.INTER.POLAR>
0

>  <SCORE.INTER.ROT>
5

>  <SCORE.INTER.SOLV>
9.70899

>  <SCORE.INTER.VDW>
-13.3139

>  <SCORE.INTER.norm>
-0.205059

>  <SCORE.INTRA>
-6.92112

>  <SCORE.INTRA.DIHEDRAL>
-11.293

>  <SCORE.INTRA.DIHEDRAL.0>
12.4853

>  <SCORE.INTRA.POLAR>
0

>  <SCORE.INTRA.POLAR.0>
0

>  <SCORE.INTRA.REPUL>
0

>  <SCORE.INTRA.REPUL.0>
0

>  <SCORE.INTRA.SOLV>
0.380643

>  <SCORE.INTRA.SOLV.lig_0>
-31.1706

>  <SCORE.INTRA.VDW>
-1.46493

>  <SCORE.INTRA.VDW.0>
-1.16895

>  <SCORE.INTRA.norm>
-0.300918

>  <SCORE.RESTR>
0

>  <SCORE.RESTR.CAVITY>
0

>  <SCORE.RESTR.norm>
0

>  <SCORE.SYSTEM>
0

>  <SCORE.SYSTEM.CONST>
0

>  <SCORE.SYSTEM.DIHEDRAL>
0

>  <SCORE.SYSTEM.SOLV>
0

>  <SCORE.SYSTEM.norm>
0

>  <SCORE.heavy>
23

>  <SCORE.norm>
-0.505977

>  <RMSD>
14.183

$$$$
ligand
 OpenBabel11021811513D
libRbt.so/2013.1/901 2013/11/27
 23 24  0  0  0  0  0  0  0  0999 V2000
  -12.9068    3.9081    2.3696 C   0  0  0  0  0  0  0  0  0  0  0  0
  -13.9389    4.7896    2.8526 O   0  0  0  0  0  0  0  0  0  0  0  0
  -11.7407    4.7428    1.8600 C   0  0  2  0  0  0  0  0  0  0  0  0
  -12.0533    5.6613    0.6886 C   0  0  1  0  0  0  0  0  0  0  0  0
  -12.7055    6.8382    1.1699 O   0  0  0  0  0  0  0  0  0  0  0  0
  -10.6655    5.9150    0.1099 C   0  0  2  0  0  0  0  0  0  0  0  0
  -10.5581    6.3403   -1.2539 O   0  0  0  0  0  0  0  0  0  0  0  0
  -10.0133    4.5546    0.2823 C   0  0  2  0  0  0  0  0  0  0  0  0
  -10.6651    3.9184    1.4021 O   0  0  0  0  0  0  0  0  0  0  0  0
   -8.5111    4.7835    0.5288 C   0  0  0  0  0  0  0  0  0  0  0  0
   -7.8636    5.4099   -0.5874 O   0  0  0  0  0  0  0  0  0  0  0  0
   -9.6825    2.4522   -0.8571 C   0  0  2  0  0  0  0  0  0  0  0  0
  -10.2826    3.7588   -0.8844 O   0  0  0  0  0  0  0  0  0  0  0  0
   -9.8872    1.8298   -2.2257 C   0  0  2  0  0  0  0  0  0  0  0  0
   -9.4996    2.7705   -3.2331 O   0  0  0  0  0  0  0  0  0  0  0  0
  -11.3454    1.4882   -2.4398 C   0  0  1  0  0  0  0  0  0  0  0  0
  -11.4577    0.6889   -3.6196 O   0  0  0  0  0  0  0  0  0  0  0  0
  -11.8997    0.7373   -1.2441 C   0  0  2  0  0  0  0  0  0  0  0  0
  -13.3041    0.5956   -1.4082 O   0  0  0  0  0  0  0  0  0  0  0  0
  -11.6273    1.4671    0.0644 C   0  0  2  0  0  0  0  0  0  0  0  0
  -10.2200    1.6291    0.1779 O   0  0  0  0  0  0  0  0  0  0  0  0
  -12.1759    0.6914    1.2679 C   0  0  0  0  0  0  0  0  0  0  0  0
  -11.5754   -0.6029    1.4222 O   0  0  0  0  0  0  0  0  0  0  0  0
  1  2  1  0  0  0  0
  3  1  1  6  0  0  0
  3  9  1  0  0  0  0
  3  4  1  0  0  0  0
  4  5  1  1  0  0  0
  4  6  1  0  0  0  0
  6  7  1  6  0  0  0
  6  8  1  0  0  0  0
  8  9  1  0  0  0  0
  8 10  1  1  0  0  0
  8 13  1  0  0  0  0
 10 11  1  0  0  0  0
 12 13  1  6  0  0  0
 12 14  1  0  0  0  0
 12 21  1  0  0  0  0
 14 15  1  6  0  0  0
 14 16  1  0  0  0  0
 16 17  1  6  0  0  0
 16 18  1  0  0  0  0
 18 19  1  6  0  0  0
 18 20  1  0  0  0  0
 20 21  1  0  0  0  0
 20 22  1  1  0  0  0
 22 23  1  0  0  0  0
M  END
>  <CHROM.1>
-62.10660743,-62.87797454,-171.84857439,178.36718626,61.46268670,-11.07584111
3.23352377,-0.16217373,1.58881866,0.80866685,0.48043350

>  <Name>
ligand

>  <RI>
0

>  <Rbt.Current_Directory>
/home/itssahil/PROJECTS/Mol_Feturizer/New_Systems/rnas/4TS2

>  <Rbt.Executable>
rbdock ($Id: //depot/dev/client3/rdock/2013.1/src/exe/rbdock.cxx#4 $)

>  <Rbt.Library>
libRbt.so (2013.1, Build901 2013/11/27)

>  <Rbt.Parameter_File>
/export/apps/rDock/src/rDock_2013.1_src/data/scripts/dock_solv.prm

>  <Rbt.Receptor>
prm/blind_docking_40.prm

>  <SCORE>
-13.182

>  <SCORE.INTER>
-6.07741

>  <SCORE.INTER.CONST>
1

>  <SCORE.INTER.POLAR>
0

>  <SCORE.INTER.ROT>
5

>  <SCORE.INTER.SOLV>
9.29958

>  <SCORE.INTER.VDW>
-14.0848

>  <SCORE.INTER.norm>
-0.264235

>  <SCORE.INTRA>
-7.10464

>  <SCORE.INTRA.DIHEDRAL>
-12.0223

>  <SCORE.INTRA.DIHEDRAL.0>
12.4853

>  <SCORE.INTRA.POLAR>
0

>  <SCORE.INTRA.POLAR.0>
0

>  <SCORE.INTRA.REPUL>
0

>  <SCORE.INTRA.REPUL.0>
0

>  <SCORE.INTRA.SOLV>
0.504372

>  <SCORE.INTRA.SOLV.lig_0>
-31.1706

>  <SCORE.INTRA.VDW>
-1.34569

>  <SCORE.INTRA.VDW.0>
-1.16895

>  <SCORE.INTRA.norm>
-0.308897

>  <SCORE.RESTR>
0

>  <SCORE.RESTR.CAVITY>
0

>  <SCORE.RESTR.norm>
0

>  <SCORE.SYSTEM>
0

>  <SCORE.SYSTEM.CONST>
0

>  <SCORE.SYSTEM.DIHEDRAL>
0

>  <SCORE.SYSTEM.SOLV>
0

>  <SCORE.SYSTEM.norm>
0

>  <SCORE.heavy>
23

>  <SCORE.norm>
-0.573132

>  <RMSD>
14.194

$$$$
ligand
 OpenBabel11021811513D
libRbt.so/2013.1/901 2013/11/27
 23 24  0  0  0  0  0  0  0  0999 V2000
   -8.8523    2.6830    0.8443 C   0  0  0  0  0  0  0  0  0  0  0  0
   -7.4439    2.8855    0.6185 O   0  0  0  0  0  0  0  0  0  0  0  0
   -9.3977    3.8517    1.6525 C   0  0  2  0  0  0  0  0  0  0  0  0
   -8.8584    3.9786    3.0690 C   0  0  1  0  0  0  0  0  0  0  0  0
   -7.5661    4.5875    3.0316 O   0  0  0  0  0  0  0  0  0  0  0  0
   -9.9282    4.8365    3.7361 C   0  0  2  0  0  0  0  0  0  0  0  0
  -10.0448    4.8006    5.1635 O   0  0  0  0  0  0  0  0  0  0  0  0
  -11.1936    4.2910    3.0980 C   0  0  2  0  0  0  0  0  0  0  0  0
  -10.8171    3.7664    1.8071 O   0  0  0  0  0  0  0  0  0  0  0  0
  -12.2008    5.4503    2.9906 C   0  0  0  0  0  0  0  0  0  0  0  0
  -12.5895    5.9571    4.2750 O   0  0  0  0  0  0  0  0  0  0  0  0
  -12.9228    2.6398    3.4310 C   0  0  2  0  0  0  0  0  0  0  0  0
  -11.6759    3.1912    3.8883 O   0  0  0  0  0  0  0  0  0  0  0  0
  -13.4426    1.7243    4.5238 C   0  0  2  0  0  0  0  0  0  0  0  0
  -13.3853    2.4106    5.7791 O   0  0  0  0  0  0  0  0  0  0  0  0
  -12.5837    0.4833    4.6286 C   0  0  1  0  0  0  0  0  0  0  0  0
  -13.2406   -0.4545    5.4844 O   0  0  0  0  0  0  0  0  0  0  0  0
  -12.3573   -0.1274    3.2587 C   0  0  2  0  0  0  0  0  0  0  0  0
  -11.4070   -1.1769    3.3809 O   0  0  0  0  0  0  0  0  0  0  0  0
  -11.8369    0.8948    2.2571 C   0  0  2  0  0  0  0  0  0  0  0  0
  -12.7881    1.9485    2.1893 O   0  0  0  0  0  0  0  0  0  0  0  0
  -11.6284    0.2716    0.8717 C   0  0  0  0  0  0  0  0  0  0  0  0
  -11.2580    1.2340   -0.1264 O   0  0  0  0  0  0  0  0  0  0  0  0
  1  2  1  0  0  0  0
  3  1  1  1  0  0  0
  3  9  1  0  0  0  0
  3  4  1  0  0  0  0
  4  5  1  6  0  0  0
  4  6  1  0  0  0  0
  6  7  1  1  0  0  0
  6  8  1  0  0  0  0
  8  9  1  0  0  0  0
  8 10  1  6  0  0  0
  8 13  1  0  0  0  0
 10 11  1  0  0  0  0
 12 13  1  1  0  0  0
 12 14  1  0  0  0  0
 12 21  1  0  0  0  0
 14 15  1  1  0  0  0
 14 16  1  0  0  0  0
 16 17  1  1  0  0  0
 16 18  1  0  0  0  0
 18 19  1  1  0  0  0
 18 20  1  0  0  0  0
 20 21  1  0  0  0  0
 20 22  1  6  0  0  0
 22 23  1  0  0  0  0
M  END
>  <CHROM.1>
-65.56576350,-63.48871920,-167.47936577,176.29325407,174.52342951,-11.18143062
2.61438460,3.04219401,-0.46599870,-0.72165145,-2.65160165

>  <Name>
ligand

>  <RI>
0

>  <Rbt.Current_Directory>
/home/itssahil/PROJECTS/Mol_Feturizer/New_Systems/rnas/4TS2

>  <Rbt.Executable>
rbdock ($Id: //depot/dev/client3/rdock/2013.1/src/exe/rbdock.cxx#4 $)

>  <Rbt.Library>
libRbt.so (2013.1, Build901 2013/11/27)

>  <Rbt.Parameter_File>
/export/apps/rDock/src/rDock_2013.1_src/data/scripts/dock_solv.prm

>  <Rbt.Receptor>
prm/blind_docking_60.prm

>  <SCORE>
-10.0284

>  <SCORE.INTER>
-3.19183

>  <SCORE.INTER.CONST>
1

>  <SCORE.INTER.POLAR>
0

>  <SCORE.INTER.ROT>
5

>  <SCORE.INTER.SOLV>
7.19028

>  <SCORE.INTER.VDW>
-11.458

>  <SCORE.INTER.norm>
-0.138775

>  <SCORE.INTRA>
-6.83656

>  <SCORE.INTRA.DIHEDRAL>
-11.3129

>  <SCORE.INTRA.DIHEDRAL.0>
12.4853

>  <SCORE.INTRA.POLAR>
0

>  <SCORE.INTRA.POLAR.0>
0

>  <SCORE.INTRA.REPUL>
0

>  <SCORE.INTRA.REPUL.0>
0

>  <SCORE.INTRA.SOLV>
0.747744

>  <SCORE.INTRA.SOLV.lig_0>
-31.1706

>  <SCORE.INTRA.VDW>
-1.55399

>  <SCORE.INTRA.VDW.0>
-1.16895

>  <SCORE.INTRA.norm>
-0.297242

>  <SCORE.RESTR>
0

>  <SCORE.RESTR.CAVITY>
0

>  <SCORE.RESTR.norm>
0

>  <SCORE.SYSTEM>
0

>  <SCORE.SYSTEM.CONST>
0

>  <SCORE.SYSTEM.DIHEDRAL>
0

>  <SCORE.SYSTEM.SOLV>
0

>  <SCORE.SYSTEM.norm>
0

>  <SCORE.heavy>
23

>  <SCORE.norm>
-0.436017

>  <RMSD>
14.198

$$$$
ligand
 OpenBabel11021811513D
libRbt.so/2013.1/901 2013/11/27
 23 24  0  0  0  0  0  0  0  0999 V2000
   -9.7049    2.5252   -1.9020 C   0  0  0  0  0  0  0  0  0  0  0  0
  -10.5646    3.6805   -1.8610 O   0  0  0  0  0  0  0  0  0  0  0  0
  -10.3789    1.3794   -1.1609 C   0  0  2  0  0  0  0  0  0  0  0  0
  -11.8109    1.0804   -1.5777 C   0  0  1  0  0  0  0  0  0  0  0  0
  -11.8034    0.3156   -2.7848 O   0  0  0  0  0  0  0  0  0  0  0  0
  -12.3378    0.3194   -0.3657 C   0  0  2  0  0  0  0  0  0  0  0  0
  -13.7533    0.2645   -0.1526 O   0  0  0  0  0  0  0  0  0  0  0  0
  -11.6698    1.0678    0.7742 C   0  0  2  0  0  0  0  0  0  0  0  0
  -10.4522    1.6339    0.2448 O   0  0  0  0  0  0  0  0  0  0  0  0
  -11.4054    0.0581    1.9057 C   0  0  0  0  0  0  0  0  0  0  0  0
  -12.6170   -0.4944    2.4392 O   0  0  0  0  0  0  0  0  0  0  0  0
  -12.0393    2.8862    2.3184 C   0  0  2  0  0  0  0  0  0  0  0  0
  -12.5166    2.1589    1.1733 O   0  0  0  0  0  0  0  0  0  0  0  0
  -13.1875    3.7386    2.8260 C   0  0  2  0  0  0  0  0  0  0  0  0
  -14.3624    2.9278    2.9364 O   0  0  0  0  0  0  0  0  0  0  0  0
  -13.4827    4.8617    1.8562 C   0  0  1  0  0  0  0  0  0  0  0  0
  -14.3891    5.7750    2.4789 O   0  0  0  0  0  0  0  0  0  0  0  0
  -12.2049    5.5784    1.4632 C   0  0  2  0  0  0  0  0  0  0  0  0
  -12.5028    6.5003    0.4237 O   0  0  0  0  0  0  0  0  0  0  0  0
  -11.1357    4.6112    0.9731 C   0  0  2  0  0  0  0  0  0  0  0  0
  -10.8913    3.6797    2.0182 O   0  0  0  0  0  0  0  0  0  0  0  0
   -9.8427    5.3437    0.5953 C   0  0  0  0  0  0  0  0  0  0  0  0
   -9.2747    6.0794    1.6887 O   0  0  0  0  0  0  0  0  0  0  0  0
  1  2  1  0  0  0  0
  3  1  1  6  0  0  0
  3  9  1  0  0  0  0
  3  4  1  0  0  0  0
  4  5  1  6  0  0  0
  4  6  1  0  0  0  0
  6  7  1  1  0  0  0
  6  8  1  0  0  0  0
  8  9  1  0  0  0  0
  8 10  1  1  0  0  0
  8 13  1  0  0  0  0
 10 11  1  0  0  0  0
 12 13  1  6  0  0  0
 12 14  1  0  0  0  0
 12 21  1  0  0  0  0
 14 15  1  6  0  0  0
 14 16  1  0  0  0  0
 16 17  1  1  0  0  0
 16 18  1  0  0  0  0
 18 19  1  6  0  0  0
 18 20  1  0  0  0  0
 20 21  1  0  0  0  0
 20 22  1  1  0  0  0
 22 23  1  0  0  0  0
M  END
>  <CHROM.1>
50.99374321,-63.13798076,-165.38117542,175.48485706,59.30825971,-11.85280110
2.88035321,0.71151665,-1.45632888,0.82747973,0.36470063

>  <Name>
ligand

>  <RI>
0

>  <Rbt.Current_Directory>
/home/itssahil/PROJECTS/Mol_Feturizer/New_Systems/rnas/4TS2

>  <Rbt.Executable>
rbdock ($Id: //depot/dev/client3/rdock/2013.1/src/exe/rbdock.cxx#4 $)

>  <Rbt.Library>
libRbt.so (2013.1, Build901 2013/11/27)

>  <Rbt.Parameter_File>
/export/apps/rDock/src/rDock_2013.1_src/data/scripts/dock_solv.prm

>  <Rbt.Receptor>
prm/blind_docking_40.prm

>  <SCORE>
-14.1246

>  <SCORE.INTER>
-7.6521

>  <SCORE.INTER.CONST>
1

>  <SCORE.INTER.POLAR>
0

>  <SCORE.INTER.ROT>
5

>  <SCORE.INTER.SOLV>
9.78666

>  <SCORE.INTER.VDW>
-15.297

>  <SCORE.INTER.norm>
-0.3327

>  <SCORE.INTRA>
-6.47255

>  <SCORE.INTRA.DIHEDRAL>
-10.9487

>  <SCORE.INTRA.DIHEDRAL.0>
12.4853

>  <SCORE.INTRA.POLAR>
0

>  <SCORE.INTRA.POLAR.0>
0

>  <SCORE.INTRA.REPUL>
0

>  <SCORE.INTRA.REPUL.0>
0

>  <SCORE.INTRA.SOLV>
1.2184

>  <SCORE.INTRA.SOLV.lig_0>
-31.1706

>  <SCORE.INTRA.VDW>
-1.60737

>  <SCORE.INTRA.VDW.0>
-1.16895

>  <SCORE.INTRA.norm>
-0.281415

>  <SCORE.RESTR>
0

>  <SCORE.RESTR.CAVITY>
0

>  <SCORE.RESTR.norm>
0

>  <SCORE.SYSTEM>
0

>  <SCORE.SYSTEM.CONST>
0

>  <SCORE.SYSTEM.DIHEDRAL>
0

>  <SCORE.SYSTEM.SOLV>
0

>  <SCORE.SYSTEM.norm>
0

>  <SCORE.heavy>
23

>  <SCORE.norm>
-0.614115

>  <RMSD>
14.268

$$$$
ligand
 OpenBabel11021811513D
libRbt.so/2013.1/901 2013/11/27
 23 24  0  0  0  0  0  0  0  0999 V2000
  -11.0416    3.4655    5.5584 C   0  0  0  0  0  0  0  0  0  0  0  0
  -10.1569    2.5706    6.2600 O   0  0  0  0  0  0  0  0  0  0  0  0
  -10.2112    4.5089    4.8248 C   0  0  2  0  0  0  0  0  0  0  0  0
  -10.9933    5.4634    3.9355 C   0  0  1  0  0  0  0  0  0  0  0  0
  -11.5890    6.4819    4.7417 O   0  0  0  0  0  0  0  0  0  0  0  0
   -9.9083    5.9746    2.9937 C   0  0  2  0  0  0  0  0  0  0  0  0
  -10.3000    6.5240    1.7300 O   0  0  0  0  0  0  0  0  0  0  0  0
   -9.0790    4.7206    2.7800 C   0  0  2  0  0  0  0  0  0  0  0  0
   -9.2524    3.9005    3.9550 O   0  0  0  0  0  0  0  0  0  0  0  0
   -7.6164    5.1557    2.5772 C   0  0  0  0  0  0  0  0  0  0  0  0
   -7.4374    5.9309    1.3835 O   0  0  0  0  0  0  0  0  0  0  0  0
   -9.0664    2.6743    1.4993 C   0  0  2  0  0  0  0  0  0  0  0  0
   -9.6154    3.9935    1.6617 O   0  0  0  0  0  0  0  0  0  0  0  0
   -9.2820    2.2675    0.0535 C   0  0  2  0  0  0  0  0  0  0  0  0
   -8.8488    3.3295   -0.8036 O   0  0  0  0  0  0  0  0  0  0  0  0
  -10.7502    2.0190   -0.2138 C   0  0  1  0  0  0  0  0  0  0  0  0
  -10.8821    1.4061   -1.4986 O   0  0  0  0  0  0  0  0  0  0  0  0
  -11.3444    1.1236    0.8567 C   0  0  2  0  0  0  0  0  0  0  0  0
  -12.7516    1.0632    0.6683 O   0  0  0  0  0  0  0  0  0  0  0  0
  -11.0565    1.6426    2.2591 C   0  0  2  0  0  0  0  0  0  0  0  0
   -9.6451    1.7305    2.4004 O   0  0  0  0  0  0  0  0  0  0  0  0
  -11.6461    0.7214    3.3337 C   0  0  0  0  0  0  0  0  0  0  0  0
  -11.1590   -0.6257    3.2466 O   0  0  0  0  0  0  0  0  0  0  0  0
  1  2  1  0  0  0  0
  3  1  1  6  0  0  0
  3  9  1  0  0  0  0
  3  4  1  0  0  0  0
  4  5  1  1  0  0  0
  4  6  1  0  0  0  0
  6  7  1  6  0  0  0
  6  8  1  0  0  0  0
  8  9  1  0  0  0  0
  8 10  1  6  0  0  0
  8 13  1  0  0  0  0
 10 11  1  0  0  0  0
 12 13  1  6  0  0  0
 12 14  1  0  0  0  0
 12 21  1  0  0  0  0
 14 15  1  6  0  0  0
 14 16  1  0  0  0  0
 16 17  1  6  0  0  0
 16 18  1  0  0  0  0
 18 19  1  6  0  0  0
 18 20  1  0  0  0  0
 20 21  1  0  0  0  0
 20 22  1  1  0  0  0
 22 23  1  0  0  0  0
M  END
>  <CHROM.1>
175.01664379,-64.67181188,-158.01271019,-169.73415481,57.84093117,-10.15980873
3.29961651,2.34922714,1.15042927,1.08129514,1.05003785

>  <Name>
ligand

>  <RI>
0

>  <Rbt.Current_Directory>
/home/itssahil/PROJECTS/Mol_Feturizer/New_Systems/rnas/4TS2

>  <Rbt.Executable>
rbdock ($Id: //depot/dev/client3/rdock/2013.1/src/exe/rbdock.cxx#4 $)

>  <Rbt.Library>
libRbt.so (2013.1, Build901 2013/11/27)

>  <Rbt.Parameter_File>
/export/apps/rDock/src/rDock_2013.1_src/data/scripts/dock_solv.prm

>  <Rbt.Receptor>
prm/blind_docking_40.prm

>  <SCORE>
-11.3214

>  <SCORE.INTER>
-4.79191

>  <SCORE.INTER.CONST>
1

>  <SCORE.INTER.POLAR>
0

>  <SCORE.INTER.ROT>
5

>  <SCORE.INTER.SOLV>
8.00687

>  <SCORE.INTER.VDW>
-12.7969

>  <SCORE.INTER.norm>
-0.208344

>  <SCORE.INTRA>
-6.52952

>  <SCORE.INTRA.DIHEDRAL>
-9.7838

>  <SCORE.INTRA.DIHEDRAL.0>
12.4853

>  <SCORE.INTRA.POLAR>
0

>  <SCORE.INTRA.POLAR.0>
0

>  <SCORE.INTRA.REPUL>
0

>  <SCORE.INTRA.REPUL.0>
0

>  <SCORE.INTRA.SOLV>
0.500599

>  <SCORE.INTRA.SOLV.lig_0>
-31.1706

>  <SCORE.INTRA.VDW>
-1.88792

>  <SCORE.INTRA.VDW.0>
-1.16895

>  <SCORE.INTRA.norm>
-0.283892

>  <SCORE.RESTR>
0

>  <SCORE.RESTR.CAVITY>
0

>  <SCORE.RESTR.norm>
0

>  <SCORE.SYSTEM>
0

>  <SCORE.SYSTEM.CONST>
0

>  <SCORE.SYSTEM.DIHEDRAL>
0

>  <SCORE.SYSTEM.SOLV>
0

>  <SCORE.SYSTEM.norm>
0

>  <SCORE.heavy>
23

>  <SCORE.norm>
-0.492236

>  <RMSD>
14.270

$$$$
ligand
 OpenBabel11021811513D
libRbt.so/2013.1/901 2013/11/27
 23 24  0  0  0  0  0  0  0  0999 V2000
   -8.5460    2.7757    0.6488 C   0  0  0  0  0  0  0  0  0  0  0  0
   -8.8422    1.6657    1.5181 O   0  0  0  0  0  0  0  0  0  0  0  0
   -9.1835    4.0349    1.2183 C   0  0  2  0  0  0  0  0  0  0  0  0
   -8.7692    4.3967    2.6363 C   0  0  1  0  0  0  0  0  0  0  0  0
   -7.4921    5.0374    2.6082 O   0  0  0  0  0  0  0  0  0  0  0  0
   -9.9103    5.3090    3.0734 C   0  0  2  0  0  0  0  0  0  0  0  0
  -10.1466    5.4888    4.4748 O   0  0  0  0  0  0  0  0  0  0  0  0
  -11.1047    4.6282    2.4287 C   0  0  2  0  0  0  0  0  0  0  0  0
  -10.6088    3.9248    1.2699 O   0  0  0  0  0  0  0  0  0  0  0  0
  -12.1245    5.7212    2.0612 C   0  0  0  0  0  0  0  0  0  0  0  0
  -11.6119    6.6418    1.0879 O   0  0  0  0  0  0  0  0  0  0  0  0
  -12.8899    3.0854    2.9393 C   0  0  2  0  0  0  0  0  0  0  0  0
  -11.6279    3.6466    3.3396 O   0  0  0  0  0  0  0  0  0  0  0  0
  -13.3395    2.1455    4.0424 C   0  0  2  0  0  0  0  0  0  0  0  0
  -13.2249    2.8124    5.3044 O   0  0  0  0  0  0  0  0  0  0  0  0
  -12.4602    0.9150    4.0812 C   0  0  1  0  0  0  0  0  0  0  0  0
  -13.0588   -0.0454    4.9546 O   0  0  0  0  0  0  0  0  0  0  0  0
  -12.2986    0.3294    2.6913 C   0  0  2  0  0  0  0  0  0  0  0  0
  -11.3297   -0.7086    2.7459 O   0  0  0  0  0  0  0  0  0  0  0  0
  -11.8451    1.3746    1.6809 C   0  0  2  0  0  0  0  0  0  0  0  0
  -12.8121    2.4161    1.6809 O   0  0  0  0  0  0  0  0  0  0  0  0
  -11.7019    0.7767    0.2763 C   0  0  0  0  0  0  0  0  0  0  0  0
  -12.9512    0.3368   -0.2763 O   0  0  0  0  0  0  0  0  0  0  0  0
  1  2  1  0  0  0  0
  3  1  1  1  0  0  0
  3  9  1  0  0  0  0
  3  4  1  0  0  0  0
  4  5  1  6  0  0  0
  4  6  1  0  0  0  0
  6  7  1  1  0  0  0
  6  8  1  0  0  0  0
  8  9  1  0  0  0  0
  8 10  1  6  0  0  0
  8 13  1  0  0  0  0
 10 11  1  0  0  0  0
 12 13  1  1  0  0  0
 12 14  1  0  0  0  0
 12 21  1  0  0  0  0
 14 15  1  1  0  0  0
 14 16  1  0  0  0  0
 16 17  1  1  0  0  0
 16 18  1  0  0  0  0
 18 19  1  1  0  0  0
 18 20  1  0  0  0  0
 20 21  1  0  0  0  0
 20 22  1  6  0  0  0
 22 23  1  0  0  0  0
M  END
>  <CHROM.1>
57.05947631,63.23908467,-176.39531869,170.34160326,65.27156431,-11.21197954
2.89075967,2.45788984,-0.74273043,-0.74118002,-2.64106141

>  <Name>
ligand

>  <RI>
0

>  <Rbt.Current_Directory>
/home/itssahil/PROJECTS/Mol_Feturizer/New_Systems/rnas/4TS2

>  <Rbt.Executable>
rbdock ($Id: //depot/dev/client3/rdock/2013.1/src/exe/rbdock.cxx#4 $)

>  <Rbt.Library>
libRbt.so (2013.1, Build901 2013/11/27)

>  <Rbt.Parameter_File>
/export/apps/rDock/src/rDock_2013.1_src/data/scripts/dock_solv.prm

>  <Rbt.Receptor>
prm/blind_docking_80.prm

>  <SCORE>
-10.1857

>  <SCORE.INTER>
-3.54284

>  <SCORE.INTER.CONST>
1

>  <SCORE.INTER.POLAR>
0

>  <SCORE.INTER.ROT>
5

>  <SCORE.INTER.SOLV>
7.03354

>  <SCORE.INTER.VDW>
-11.6397

>  <SCORE.INTER.norm>
-0.154036

>  <SCORE.INTRA>
-6.64287

>  <SCORE.INTRA.DIHEDRAL>
-11.5793

>  <SCORE.INTRA.DIHEDRAL.0>
12.4853

>  <SCORE.INTRA.POLAR>
0

>  <SCORE.INTRA.POLAR.0>
0

>  <SCORE.INTRA.REPUL>
0

>  <SCORE.INTRA.REPUL.0>
0

>  <SCORE.INTRA.SOLV>
1.07013

>  <SCORE.INTRA.SOLV.lig_0>
-31.1706

>  <SCORE.INTRA.VDW>
-1.3883

>  <SCORE.INTRA.VDW.0>
-1.16895

>  <SCORE.INTRA.norm>
-0.28882

>  <SCORE.RESTR>
0

>  <SCORE.RESTR.CAVITY>
0

>  <SCORE.RESTR.norm>
0

>  <SCORE.SYSTEM>
0

>  <SCORE.SYSTEM.CONST>
0

>  <SCORE.SYSTEM.DIHEDRAL>
0

>  <SCORE.SYSTEM.SOLV>
0

>  <SCORE.SYSTEM.norm>
0

>  <SCORE.heavy>
23

>  <SCORE.norm>
-0.442857

>  <RMSD>
14.291

$$$$
ligand
 OpenBabel11021811513D
libRbt.so/2013.1/901 2013/11/27
 23 24  0  0  0  0  0  0  0  0999 V2000
   -6.5032    3.9532    0.6966 C   0  0  0  0  0  0  0  0  0  0  0  0
   -5.5676    4.8893    0.1276 O   0  0  0  0  0  0  0  0  0  0  0  0
   -7.8281    4.6620    0.9388 C   0  0  2  0  0  0  0  0  0  0  0  0
   -8.9193    3.8146    1.5749 C   0  0  1  0  0  0  0  0  0  0  0  0
   -8.6911    3.7269    2.9829 O   0  0  0  0  0  0  0  0  0  0  0  0
  -10.1776    4.5893    1.1985 C   0  0  2  0  0  0  0  0  0  0  0  0
  -11.4334    3.9000    1.1986 O   0  0  0  0  0  0  0  0  0  0  0  0
   -9.8386    5.0504   -0.2080 C   0  0  2  0  0  0  0  0  0  0  0  0
   -8.3999    5.1386   -0.2827 O   0  0  0  0  0  0  0  0  0  0  0  0
  -10.5236    6.4106   -0.4325 C   0  0  0  0  0  0  0  0  0  0  0  0
  -10.0507    7.4168    0.4738 O   0  0  0  0  0  0  0  0  0  0  0  0
   -9.5477    2.7976   -1.0252 C   0  0  2  0  0  0  0  0  0  0  0  0
  -10.2595    4.0417   -1.1420 O   0  0  0  0  0  0  0  0  0  0  0  0
   -8.6592    2.6662   -2.2483 C   0  0  2  0  0  0  0  0  0  0  0  0
   -7.9342    3.8864   -2.4364 O   0  0  0  0  0  0  0  0  0  0  0  0
   -9.4942    2.4217   -3.4860 C   0  0  1  0  0  0  0  0  0  0  0  0
   -8.6224    2.0603   -4.5597 O   0  0  0  0  0  0  0  0  0  0  0  0
  -10.5057    1.3186   -3.2392 C   0  0  2  0  0  0  0  0  0  0  0  0
  -11.3799    1.2458   -4.3572 O   0  0  0  0  0  0  0  0  0  0  0  0
  -11.3304    1.5710   -1.9841 C   0  0  2  0  0  0  0  0  0  0  0  0
  -10.4256    1.6797   -0.8936 O   0  0  0  0  0  0  0  0  0  0  0  0
  -12.3372    0.4419   -1.7341 C   0  0  0  0  0  0  0  0  0  0  0  0
  -13.1514    0.6630   -0.5731 O   0  0  0  0  0  0  0  0  0  0  0  0
  1  2  1  0  0  0  0
  3  1  1  6  0  0  0
  3  9  1  0  0  0  0
  3  4  1  0  0  0  0
  4  5  1  1  0  0  0
  4  6  1  0  0  0  0
  6  7  1  6  0  0  0
  6  8  1  0  0  0  0
  8  9  1  0  0  0  0
  8 10  1  6  0  0  0
  8 13  1  0  0  0  0
 10 11  1  0  0  0  0
 12 13  1  6  0  0  0
 12 14  1  0  0  0  0
 12 21  1  0  0  0  0
 14 15  1  6  0  0  0
 14 16  1  0  0  0  0
 16 17  1  6  0  0  0
 16 18  1  0  0  0  0
 18 19  1  6  0  0  0
 18 20  1  0  0  0  0
 20 21  1  0  0  0  0
 20 22  1  1  0  0  0
 22 23  1  0  0  0  0
M  END
>  <CHROM.1>
-178.45530799,61.92954405,-109.48943565,-65.37765559,-178.74439104,-9.63419613
3.41365657,-0.84423947,-1.04608841,-0.44713226,-2.12050514

>  <Name>
ligand

>  <RI>
0

>  <Rbt.Current_Directory>
/home/itssahil/PROJECTS/Mol_Feturizer/New_Systems/rnas/4TS2

>  <Rbt.Executable>
rbdock ($Id: //depot/dev/client3/rdock/2013.1/src/exe/rbdock.cxx#4 $)

>  <Rbt.Library>
libRbt.so (2013.1, Build901 2013/11/27)

>  <Rbt.Parameter_File>
/export/apps/rDock/src/rDock_2013.1_src/data/scripts/dock_solv.prm

>  <Rbt.Receptor>
prm/blind_docking_40.prm

>  <SCORE>
-10.4646

>  <SCORE.INTER>
-7.86444

>  <SCORE.INTER.CONST>
1

>  <SCORE.INTER.POLAR>
0

>  <SCORE.INTER.ROT>
5

>  <SCORE.INTER.SOLV>
11.0931

>  <SCORE.INTER.VDW>
-15.874

>  <SCORE.INTER.norm>
-0.341932

>  <SCORE.INTRA>
-2.60014

>  <SCORE.INTRA.DIHEDRAL>
-5.54049

>  <SCORE.INTRA.DIHEDRAL.0>
12.4853

>  <SCORE.INTRA.POLAR>
0

>  <SCORE.INTRA.POLAR.0>
0

>  <SCORE.INTRA.REPUL>
0

>  <SCORE.INTRA.REPUL.0>
0

>  <SCORE.INTRA.SOLV>
0.751756

>  <SCORE.INTRA.SOLV.lig_0>
-31.1706

>  <SCORE.INTRA.VDW>
-0.205772

>  <SCORE.INTRA.VDW.0>
-1.16895

>  <SCORE.INTRA.norm>
-0.113049

>  <SCORE.RESTR>
0

>  <SCORE.RESTR.CAVITY>
0

>  <SCORE.RESTR.norm>
0

>  <SCORE.SYSTEM>
0

>  <SCORE.SYSTEM.CONST>
0

>  <SCORE.SYSTEM.DIHEDRAL>
0

>  <SCORE.SYSTEM.SOLV>
0

>  <SCORE.SYSTEM.norm>
0

>  <SCORE.heavy>
23

>  <SCORE.norm>
-0.454982

>  <RMSD>
14.341

$$$$
ligand
 OpenBabel11021811513D
libRbt.so/2013.1/901 2013/11/27
 23 24  0  0  0  0  0  0  0  0999 V2000
   -5.3441    4.2191   -2.5719 C   0  0  0  0  0  0  0  0  0  0  0  0
   -4.7025    2.9776   -2.9218 O   0  0  0  0  0  0  0  0  0  0  0  0
   -6.7615    4.2178   -3.1263 C   0  0  2  0  0  0  0  0  0  0  0  0
   -7.5976    5.4441   -2.7934 C   0  0  1  0  0  0  0  0  0  0  0  0
   -7.2393    6.5143   -3.6699 O   0  0  0  0  0  0  0  0  0  0  0  0
   -9.0156    4.9224   -3.0002 C   0  0  2  0  0  0  0  0  0  0  0  0
  -10.0979    5.6029   -2.3540 O   0  0  0  0  0  0  0  0  0  0  0  0
   -8.8976    3.5070   -2.4631 C   0  0  2  0  0  0  0  0  0  0  0  0
   -7.5193    3.1116   -2.6281 O   0  0  0  0  0  0  0  0  0  0  0  0
   -9.8644    2.6191   -3.2673 C   0  0  0  0  0  0  0  0  0  0  0  0
   -9.8402    1.2522   -2.8332 O   0  0  0  0  0  0  0  0  0  0  0  0
   -8.3603    2.6235   -0.2817 C   0  0  2  0  0  0  0  0  0  0  0  0
   -9.1783    3.5200   -1.0532 O   0  0  0  0  0  0  0  0  0  0  0  0
   -9.0372    2.4344    1.0631 C   0  0  2  0  0  0  0  0  0  0  0  0
  -10.4217    2.1342    0.8548 O   0  0  0  0  0  0  0  0  0  0  0  0
   -8.9511    3.7031    1.8827 C   0  0  1  0  0  0  0  0  0  0  0  0
   -9.3730    3.4128    3.2174 O   0  0  0  0  0  0  0  0  0  0  0  0
   -7.5330    4.2413    1.8873 C   0  0  2  0  0  0  0  0  0  0  0  0
   -7.5338    5.5174    2.5128 O   0  0  0  0  0  0  0  0  0  0  0  0
   -6.9718    4.3829    0.4788 C   0  0  2  0  0  0  0  0  0  0  0  0
   -7.0234    3.1008   -0.1321 O   0  0  0  0  0  0  0  0  0  0  0  0
   -5.5323    4.9108    0.4955 C   0  0  0  0  0  0  0  0  0  0  0  0
   -5.4340    6.2571    0.9827 O   0  0  0  0  0  0  0  0  0  0  0  0
  1  2  1  0  0  0  0
  3  1  1  1  0  0  0
  3  9  1  0  0  0  0
  3  4  1  0  0  0  0
  4  5  1  6  0  0  0
  4  6  1  0  0  0  0
  6  7  1  1  0  0  0
  6  8  1  0  0  0  0
  8  9  1  0  0  0  0
  8 10  1  6  0  0  0
  8 13  1  0  0  0  0
 10 11  1  0  0  0  0
 12 13  1  6  0  0  0
 12 14  1  0  0  0  0
 12 21  1  0  0  0  0
 14 15  1  6  0  0  0
 14 16  1  0  0  0  0
 16 17  1  1  0  0  0
 16 18  1  0  0  0  0
 18 19  1  6  0  0  0
 18 20  1  0  0  0  0
 20 21  1  0  0  0  0
 20 22  1  1  0  0  0
 22 23  1  0  0  0  0
M  END
>  <CHROM.1>
177.64302230,-179.60989436,-163.02313307,-142.25166833,-66.19947754,-7.92175657
3.94188580,-0.84841041,-1.41126155,0.57471922,1.52890023

>  <Name>
ligand

>  <RI>
0

>  <Rbt.Current_Directory>
/home/itssahil/PROJECTS/Mol_Feturizer/New_Systems/rnas/4TS2

>  <Rbt.Executable>
rbdock ($Id: //depot/dev/client3/rdock/2013.1/src/exe/rbdock.cxx#4 $)

>  <Rbt.Library>
libRbt.so (2013.1, Build901 2013/11/27)

>  <Rbt.Parameter_File>
/export/apps/rDock/src/rDock_2013.1_src/data/scripts/dock_solv.prm

>  <Rbt.Receptor>
prm/blind_docking_100.prm

>  <SCORE>
-11.1983

>  <SCORE.INTER>
-7.64923

>  <SCORE.INTER.CONST>
1

>  <SCORE.INTER.POLAR>
0

>  <SCORE.INTER.ROT>
5

>  <SCORE.INTER.SOLV>
10.5331

>  <SCORE.INTER.VDW>
-15.5439

>  <SCORE.INTER.norm>
-0.332575

>  <SCORE.INTRA>
-3.54907

>  <SCORE.INTRA.DIHEDRAL>
-6.21024

>  <SCORE.INTRA.DIHEDRAL.0>
12.4853

>  <SCORE.INTRA.POLAR>
0

>  <SCORE.INTRA.POLAR.0>
0

>  <SCORE.INTRA.REPUL>
0

>  <SCORE.INTRA.REPUL.0>
0

>  <SCORE.INTRA.SOLV>
0.598698

>  <SCORE.INTRA.SOLV.lig_0>
-31.1706

>  <SCORE.INTRA.VDW>
-0.743299

>  <SCORE.INTRA.VDW.0>
-1.16895

>  <SCORE.INTRA.norm>
-0.154307

>  <SCORE.RESTR>
0

>  <SCORE.RESTR.CAVITY>
0

>  <SCORE.RESTR.norm>
0

>  <SCORE.SYSTEM>
0

>  <SCORE.SYSTEM.CONST>
0

>  <SCORE.SYSTEM.DIHEDRAL>
0

>  <SCORE.SYSTEM.SOLV>
0

>  <SCORE.SYSTEM.norm>
0

>  <SCORE.heavy>
23

>  <SCORE.norm>
-0.486882

>  <RMSD>
14.351

$$$$
ligand
 OpenBabel11021811513D
libRbt.so/2013.1/901 2013/11/27
 23 24  0  0  0  0  0  0  0  0999 V2000
  -10.0021    1.6671   -0.2277 C   0  0  0  0  0  0  0  0  0  0  0  0
  -11.1064    1.8057    0.6871 O   0  0  0  0  0  0  0  0  0  0  0  0
  -10.1402    2.7053   -1.3320 C   0  0  2  0  0  0  0  0  0  0  0  0
   -9.0717    2.6592   -2.4135 C   0  0  1  0  0  0  0  0  0  0  0  0
   -9.3775    1.6129   -3.3377 O   0  0  0  0  0  0  0  0  0  0  0  0
   -9.1681    4.0596   -3.0094 C   0  0  2  0  0  0  0  0  0  0  0  0
   -8.0416    4.5792   -3.7259 O   0  0  0  0  0  0  0  0  0  0  0  0
   -9.4265    4.8978   -1.7699 C   0  0  2  0  0  0  0  0  0  0  0  0
  -10.0781    4.0364   -0.8122 O   0  0  0  0  0  0  0  0  0  0  0  0
  -10.3091    6.0885   -2.1857 C   0  0  0  0  0  0  0  0  0  0  0  0
  -10.6867    6.9052   -1.0685 O   0  0  0  0  0  0  0  0  0  0  0  0
   -7.4986    4.2590   -0.4650 C   0  0  2  0  0  0  0  0  0  0  0  0
   -8.1652    5.2954   -1.2063 O   0  0  0  0  0  0  0  0  0  0  0  0
   -6.6688    4.9328    0.6120 C   0  0  2  0  0  0  0  0  0  0  0  0
   -7.4799    5.8913    1.3001 O   0  0  0  0  0  0  0  0  0  0  0  0
   -5.4970    5.6659   -0.0030 C   0  0  1  0  0  0  0  0  0  0  0  0
   -4.6131    6.0720    1.0446 O   0  0  0  0  0  0  0  0  0  0  0  0
   -4.7659    4.7740   -0.9884 C   0  0  2  0  0  0  0  0  0  0  0  0
   -3.7914    5.5528   -1.6690 O   0  0  0  0  0  0  0  0  0  0  0  0
   -5.7110    4.1612   -2.0132 C   0  0  2  0  0  0  0  0  0  0  0  0
   -6.6952    3.4250   -1.2996 O   0  0  0  0  0  0  0  0  0  0  0  0
   -4.9651    3.2480   -2.9933 C   0  0  0  0  0  0  0  0  0  0  0  0
   -5.8154    2.7090   -4.0160 O   0  0  0  0  0  0  0  0  0  0  0  0
  1  2  1  0  0  0  0
  3  1  1  1  0  0  0
  3  9  1  0  0  0  0
  3  4  1  0  0  0  0
  4  5  1  6  0  0  0
  4  6  1  0  0  0  0
  6  7  1  1  0  0  0
  6  8  1  0  0  0  0
  8  9  1  0  0  0  0
  8 10  1  6  0  0  0
  8 13  1  0  0  0  0
 10 11  1  0  0  0  0
 12 13  1  6  0  0  0
 12 14  1  0  0  0  0
 12 21  1  0  0  0  0
 14 15  1  6  0  0  0
 14 16  1  0  0  0  0
 16 17  1  1  0  0  0
 16 18  1  0  0  0  0
 18 19  1  6  0  0  0
 18 20  1  0  0  0  0
 20 21  1  0  0  0  0
 20 22  1  6  0  0  0
 22 23  1  0  0  0  0
M  END
>  <CHROM.1>
-177.92621586,176.30566745,-150.58897709,-77.40417352,-176.92355948,-7.78853027
4.22381235,-1.34002982,-2.86696809,0.19981829,0.85595022

>  <Name>
ligand

>  <RI>
0

>  <Rbt.Current_Directory>
/home/itssahil/PROJECTS/Mol_Feturizer/New_Systems/rnas/4TS2

>  <Rbt.Executable>
rbdock ($Id: //depot/dev/client3/rdock/2013.1/src/exe/rbdock.cxx#4 $)

>  <Rbt.Library>
libRbt.so (2013.1, Build901 2013/11/27)

>  <Rbt.Parameter_File>
/export/apps/rDock/src/rDock_2013.1_src/data/scripts/dock_solv.prm

>  <Rbt.Receptor>
prm/blind_docking_20.prm

>  <SCORE>
-11.9286

>  <SCORE.INTER>
-7.86076

>  <SCORE.INTER.CONST>
1

>  <SCORE.INTER.POLAR>
0

>  <SCORE.INTER.ROT>
5

>  <SCORE.INTER.SOLV>
8.85528

>  <SCORE.INTER.VDW>
-15.1256

>  <SCORE.INTER.norm>
-0.341772

>  <SCORE.INTRA>
-4.06789

>  <SCORE.INTRA.DIHEDRAL>
-7.28285

>  <SCORE.INTRA.DIHEDRAL.0>
12.4853

>  <SCORE.INTRA.POLAR>
0

>  <SCORE.INTRA.POLAR.0>
0

>  <SCORE.INTRA.REPUL>
0

>  <SCORE.INTRA.REPUL.0>
0

>  <SCORE.INTRA.SOLV>
0.9316

>  <SCORE.INTRA.SOLV.lig_0>
-31.1706

>  <SCORE.INTRA.VDW>
-0.892265

>  <SCORE.INTRA.VDW.0>
-1.16895

>  <SCORE.INTRA.norm>
-0.176865

>  <SCORE.RESTR>
0

>  <SCORE.RESTR.CAVITY>
0

>  <SCORE.RESTR.norm>
0

>  <SCORE.SYSTEM>
0

>  <SCORE.SYSTEM.CONST>
0

>  <SCORE.SYSTEM.DIHEDRAL>
0

>  <SCORE.SYSTEM.SOLV>
0

>  <SCORE.SYSTEM.norm>
0

>  <SCORE.heavy>
23

>  <SCORE.norm>
-0.518637

>  <RMSD>
14.353

$$$$
ligand
 OpenBabel11021811513D
libRbt.so/2013.1/901 2013/11/27
 23 24  0  0  0  0  0  0  0  0999 V2000
   -8.5365    2.8452    0.6730 C   0  0  0  0  0  0  0  0  0  0  0  0
   -7.1175    3.0755    0.5797 O   0  0  0  0  0  0  0  0  0  0  0  0
   -9.2058    4.0943    1.2283 C   0  0  2  0  0  0  0  0  0  0  0  0
   -8.8197    4.4683    2.6512 C   0  0  1  0  0  0  0  0  0  0  0  0
   -7.5544    5.1324    2.6401 O   0  0  0  0  0  0  0  0  0  0  0  0
   -9.9839    5.3608    3.0677 C   0  0  2  0  0  0  0  0  0  0  0  0
  -10.2446    5.5408    4.4648 O   0  0  0  0  0  0  0  0  0  0  0  0
  -11.1557    4.6558    2.4075 C   0  0  2  0  0  0  0  0  0  0  0  0
  -10.6293    3.9580    1.2589 O   0  0  0  0  0  0  0  0  0  0  0  0
  -12.1898    5.7286    2.0209 C   0  0  0  0  0  0  0  0  0  0  0  0
  -11.6825    6.6501    1.0456 O   0  0  0  0  0  0  0  0  0  0  0  0
  -12.9130    3.0726    2.8902 C   0  0  2  0  0  0  0  0  0  0  0  0
  -11.6744    3.6678    3.3140 O   0  0  0  0  0  0  0  0  0  0  0  0
  -13.3724    2.1427    3.9977 C   0  0  2  0  0  0  0  0  0  0  0  0
  -13.3062    2.8339    5.2500 O   0  0  0  0  0  0  0  0  0  0  0  0
  -12.4688    0.9323    4.0823 C   0  0  1  0  0  0  0  0  0  0  0  0
  -13.0705   -0.0253    4.9566 O   0  0  0  0  0  0  0  0  0  0  0  0
  -12.2572    0.3261    2.7081 C   0  0  2  0  0  0  0  0  0  0  0  0
  -11.2684   -0.6898    2.8073 O   0  0  0  0  0  0  0  0  0  0  0  0
  -11.7985    1.3629    1.6915 C   0  0  2  0  0  0  0  0  0  0  0  0
  -12.7869    2.3832    1.6467 O   0  0  0  0  0  0  0  0  0  0  0  0
  -11.6046    0.7437    0.3022 C   0  0  0  0  0  0  0  0  0  0  0  0
  -12.8185    0.2135   -0.2501 O   0  0  0  0  0  0  0  0  0  0  0  0
  1  2  1  0  0  0  0
  3  1  1  1  0  0  0
  3  9  1  0  0  0  0
  3  4  1  0  0  0  0
  4  5  1  6  0  0  0
  4  6  1  0  0  0  0
  6  7  1  1  0  0  0
  6  8  1  0  0  0  0
  8  9  1  0  0  0  0
  8 10  1  6  0  0  0
  8 13  1  0  0  0  0
 10 11  1  0  0  0  0
 12 13  1  1  0  0  0
 12 14  1  0  0  0  0
 12 21  1  0  0  0  0
 14 15  1  1  0  0  0
 14 16  1  0  0  0  0
 16 17  1  1  0  0  0
 16 18  1  0  0  0  0
 18 19  1  1  0  0  0
 18 20  1  0  0  0  0
 20 21  1  0  0  0  0
 20 22  1  6  0  0  0
 22 23  1  0  0  0  0
M  END
>  <CHROM.1>
-64.35250927,63.62273269,-175.68850610,170.92002219,62.64558902,-11.14252654
2.97313432,2.40813327,-0.65562041,-0.67667030,-2.69963540

>  <Name>
ligand

>  <RI>
0

>  <Rbt.Current_Directory>
/home/itssahil/PROJECTS/Mol_Feturizer/New_Systems/rnas/4TS2

>  <Rbt.Executable>
rbdock ($Id: //depot/dev/client3/rdock/2013.1/src/exe/rbdock.cxx#4 $)

>  <Rbt.Library>
libRbt.so (2013.1, Build901 2013/11/27)

>  <Rbt.Parameter_File>
/export/apps/rDock/src/rDock_2013.1_src/data/scripts/dock_solv.prm

>  <Rbt.Receptor>
prm/blind_docking_80.prm

>  <SCORE>
-10.3657

>  <SCORE.INTER>
-3.67359

>  <SCORE.INTER.CONST>
1

>  <SCORE.INTER.POLAR>
0

>  <SCORE.INTER.ROT>
5

>  <SCORE.INTER.SOLV>
6.92621

>  <SCORE.INTER.VDW>
-11.6911

>  <SCORE.INTER.norm>
-0.159721

>  <SCORE.INTRA>
-6.69385

>  <SCORE.INTRA.DIHEDRAL>
-11.6356

>  <SCORE.INTRA.DIHEDRAL.0>
12.4853

>  <SCORE.INTRA.POLAR>
0

>  <SCORE.INTRA.POLAR.0>
0

>  <SCORE.INTRA.REPUL>
0

>  <SCORE.INTRA.REPUL.0>
0

>  <SCORE.INTRA.SOLV>
0.293113

>  <SCORE.INTRA.SOLV.lig_0>
-31.1706

>  <SCORE.INTRA.VDW>
-1.0226

>  <SCORE.INTRA.VDW.0>
-1.16895

>  <SCORE.INTRA.norm>
-0.291037

>  <SCORE.RESTR>
0.00173628

>  <SCORE.RESTR.CAVITY>
0.00173628

>  <SCORE.RESTR.norm>
7.54905e-05

>  <SCORE.SYSTEM>
0

>  <SCORE.SYSTEM.CONST>
0

>  <SCORE.SYSTEM.DIHEDRAL>
0

>  <SCORE.SYSTEM.SOLV>
0

>  <SCORE.SYSTEM.norm>
0

>  <SCORE.heavy>
23

>  <SCORE.norm>
-0.450683

>  <RMSD>
14.374

$$$$
ligand
 OpenBabel11021811513D
libRbt.so/2013.1/901 2013/11/27
 23 24  0  0  0  0  0  0  0  0999 V2000
  -11.0749    5.9459    0.5371 C   0  0  0  0  0  0  0  0  0  0  0  0
  -12.4081    5.8641    1.0770 O   0  0  0  0  0  0  0  0  0  0  0  0
  -10.1673    5.0023    1.3131 C   0  0  2  0  0  0  0  0  0  0  0  0
   -8.7211    4.9494    0.8447 C   0  0  1  0  0  0  0  0  0  0  0  0
   -8.0141    6.0789    1.3609 O   0  0  0  0  0  0  0  0  0  0  0  0
   -8.2555    3.6139    1.4148 C   0  0  2  0  0  0  0  0  0  0  0  0
   -7.1194    2.9736    0.8218 O   0  0  0  0  0  0  0  0  0  0  0  0
   -9.4936    2.7559    1.2231 C   0  0  2  0  0  0  0  0  0  0  0  0
  -10.6268    3.6499    1.2364 O   0  0  0  0  0  0  0  0  0  0  0  0
   -9.5375    1.7338    2.3734 C   0  0  0  0  0  0  0  0  0  0  0  0
  -10.6614    0.8480    2.2748 O   0  0  0  0  0  0  0  0  0  0  0  0
  -10.5749    2.4338   -0.9111 C   0  0  2  0  0  0  0  0  0  0  0  0
   -9.4393    2.1453   -0.0773 O   0  0  0  0  0  0  0  0  0  0  0  0
  -10.5898    1.4080   -2.0291 C   0  0  2  0  0  0  0  0  0  0  0  0
  -10.4316    0.0997   -1.4692 O   0  0  0  0  0  0  0  0  0  0  0  0
   -9.4431    1.6501   -2.9858 C   0  0  1  0  0  0  0  0  0  0  0  0
   -9.6339    0.8316   -4.1421 O   0  0  0  0  0  0  0  0  0  0  0  0
   -9.3788    3.1122   -3.3841 C   0  0  2  0  0  0  0  0  0  0  0  0
   -8.1908    3.3267   -4.1338 O   0  0  0  0  0  0  0  0  0  0  0  0
   -9.3702    4.0341   -2.1721 C   0  0  2  0  0  0  0  0  0  0  0  0
  -10.5481    3.7659   -1.4234 O   0  0  0  0  0  0  0  0  0  0  0  0
   -9.3229    5.5097   -2.5859 C   0  0  0  0  0  0  0  0  0  0  0  0
  -10.5898    6.0050   -3.0433 O   0  0  0  0  0  0  0  0  0  0  0  0
  1  2  1  0  0  0  0
  3  1  1  6  0  0  0
  3  9  1  0  0  0  0
  3  4  1  0  0  0  0
  4  5  1  1  0  0  0
  4  6  1  0  0  0  0
  6  7  1  6  0  0  0
  6  8  1  0  0  0  0
  8  9  1  0  0  0  0
  8 10  1  1  0  0  0
  8 13  1  0  0  0  0
 10 11  1  0  0  0  0
 12 13  1  1  0  0  0
 12 14  1  0  0  0  0
 12 21  1  0  0  0  0
 14 15  1  1  0  0  0
 14 16  1  0  0  0  0
 16 17  1  6  0  0  0
 16 18  1  0  0  0  0
 18 19  1  1  0  0  0
 18 20  1  0  0  0  0
 20 21  1  0  0  0  0
 20 22  1  6  0  0  0
 22 23  1  0  0  0  0
M  END
>  <CHROM.1>
178.79915165,-178.82122878,-162.59546364,-123.08717348,76.92343149,-9.73092495
3.37679806,-0.61039826,2.83553266,-1.51749594,2.43512859

>  <Name>
ligand

>  <RI>
0

>  <Rbt.Current_Directory>
/home/itssahil/PROJECTS/Mol_Feturizer/New_Systems/rnas/4TS2

>  <Rbt.Executable>
rbdock ($Id: //depot/dev/client3/rdock/2013.1/src/exe/rbdock.cxx#4 $)

>  <Rbt.Library>
libRbt.so (2013.1, Build901 2013/11/27)

>  <Rbt.Parameter_File>
/export/apps/rDock/src/rDock_2013.1_src/data/scripts/dock_solv.prm

>  <Rbt.Receptor>
prm/blind_docking_60.prm

>  <SCORE>
-5.75246

>  <SCORE.INTER>
-3.95111

>  <SCORE.INTER.CONST>
1

>  <SCORE.INTER.POLAR>
0

>  <SCORE.INTER.ROT>
5

>  <SCORE.INTER.SOLV>
11.2421

>  <SCORE.INTER.VDW>
-13.3148

>  <SCORE.INTER.norm>
-0.171787

>  <SCORE.INTRA>
-1.80135

>  <SCORE.INTRA.DIHEDRAL>
-3.00421

>  <SCORE.INTRA.DIHEDRAL.0>
12.4853

>  <SCORE.INTRA.POLAR>
0

>  <SCORE.INTRA.POLAR.0>
0

>  <SCORE.INTRA.REPUL>
0

>  <SCORE.INTRA.REPUL.0>
0

>  <SCORE.INTRA.SOLV>
0.635174

>  <SCORE.INTRA.SOLV.lig_0>
-31.1706

>  <SCORE.INTRA.VDW>
-0.616836

>  <SCORE.INTRA.VDW.0>
-1.16895

>  <SCORE.INTRA.norm>
-0.0783197

>  <SCORE.RESTR>
0

>  <SCORE.RESTR.CAVITY>
0

>  <SCORE.RESTR.norm>
0

>  <SCORE.SYSTEM>
0

>  <SCORE.SYSTEM.CONST>
0

>  <SCORE.SYSTEM.DIHEDRAL>
0

>  <SCORE.SYSTEM.SOLV>
0

>  <SCORE.SYSTEM.norm>
0

>  <SCORE.heavy>
23

>  <SCORE.norm>
-0.250107

>  <RMSD>
14.386

$$$$
ligand
 OpenBabel11021811513D
libRbt.so/2013.1/901 2013/11/27
 23 24  0  0  0  0  0  0  0  0999 V2000
   -8.3976    2.9190    0.6641 C   0  0  0  0  0  0  0  0  0  0  0  0
   -6.9783    3.1579    0.5993 O   0  0  0  0  0  0  0  0  0  0  0  0
   -9.0820    4.1521    1.2362 C   0  0  2  0  0  0  0  0  0  0  0  0
   -8.7216    4.4954    2.6735 C   0  0  1  0  0  0  0  0  0  0  0  0
   -7.4595    5.1653    2.6987 O   0  0  0  0  0  0  0  0  0  0  0  0
   -9.8969    5.3730    3.0905 C   0  0  2  0  0  0  0  0  0  0  0  0
  -10.1818    5.5200    4.4867 O   0  0  0  0  0  0  0  0  0  0  0  0
  -11.0541    4.6780    2.3949 C   0  0  2  0  0  0  0  0  0  0  0  0
  -10.5052    4.0088    1.2398 O   0  0  0  0  0  0  0  0  0  0  0  0
  -12.0868    5.7546    2.0154 C   0  0  0  0  0  0  0  0  0  0  0  0
  -11.5551    6.7234    1.1008 O   0  0  0  0  0  0  0  0  0  0  0  0
  -12.8081    3.0718    2.8089 C   0  0  2  0  0  0  0  0  0  0  0  0
  -11.5830    3.6673    3.2699 O   0  0  0  0  0  0  0  0  0  0  0  0
  -13.3128    2.1596    3.9114 C   0  0  2  0  0  0  0  0  0  0  0  0
  -13.2895    2.8680    5.1556 O   0  0  0  0  0  0  0  0  0  0  0  0
  -12.4190    0.9464    4.0462 C   0  0  1  0  0  0  0  0  0  0  0  0
  -13.0575    0.0039    4.9108 O   0  0  0  0  0  0  0  0  0  0  0  0
  -12.1598    0.3200    2.6893 C   0  0  2  0  0  0  0  0  0  0  0  0
  -11.1805   -0.6988    2.8392 O   0  0  0  0  0  0  0  0  0  0  0  0
  -11.6586    1.3404    1.6761 C   0  0  2  0  0  0  0  0  0  0  0  0
  -12.6395    2.3643    1.5806 O   0  0  0  0  0  0  0  0  0  0  0  0
  -11.4166    0.7008    0.3037 C   0  0  0  0  0  0  0  0  0  0  0  0
  -10.9488    1.6379   -0.6774 O   0  0  0  0  0  0  0  0  0  0  0  0
  1  2  1  0  0  0  0
  3  1  1  1  0  0  0
  3  9  1  0  0  0  0
  3  4  1  0  0  0  0
  4  5  1  6  0  0  0
  4  6  1  0  0  0  0
  6  7  1  1  0  0  0
  6  8  1  0  0  0  0
  8  9  1  0  0  0  0
  8 10  1  6  0  0  0
  8 13  1  0  0  0  0
 10 11  1  0  0  0  0
 12 13  1  1  0  0  0
 12 14  1  0  0  0  0
 12 21  1  0  0  0  0
 14 15  1  1  0  0  0
 14 16  1  0  0  0  0
 16 17  1  1  0  0  0
 16 18  1  0  0  0  0
 18 19  1  1  0  0  0
 18 20  1  0  0  0  0
 20 21  1  0  0  0  0
 20 22  1  6  0  0  0
 22 23  1  0  0  0  0
M  END
>  <CHROM.1>
-64.37360182,61.86788420,-173.35591603,171.20283269,179.73337943,-10.95840742
3.06048945,2.37555819,-0.60164705,-0.69388258,-2.77489939

>  <Name>
ligand

>  <RI>
0

>  <Rbt.Current_Directory>
/home/itssahil/PROJECTS/Mol_Feturizer/New_Systems/rnas/4TS2

>  <Rbt.Executable>
rbdock ($Id: //depot/dev/client3/rdock/2013.1/src/exe/rbdock.cxx#4 $)

>  <Rbt.Library>
libRbt.so (2013.1, Build901 2013/11/27)

>  <Rbt.Parameter_File>
/export/apps/rDock/src/rDock_2013.1_src/data/scripts/dock_solv.prm

>  <Rbt.Receptor>
prm/blind_docking_40.prm

>  <SCORE>
-9.91454

>  <SCORE.INTER>
-3.02707

>  <SCORE.INTER.CONST>
1

>  <SCORE.INTER.POLAR>
0

>  <SCORE.INTER.ROT>
5

>  <SCORE.INTER.SOLV>
6.29357

>  <SCORE.INTER.VDW>
-11.0492

>  <SCORE.INTER.norm>
-0.131612

>  <SCORE.INTRA>
-6.88747

>  <SCORE.INTRA.DIHEDRAL>
-11.6088

>  <SCORE.INTRA.DIHEDRAL.0>
12.4853

>  <SCORE.INTRA.POLAR>
0

>  <SCORE.INTRA.POLAR.0>
0

>  <SCORE.INTRA.REPUL>
0

>  <SCORE.INTRA.REPUL.0>
0

>  <SCORE.INTRA.SOLV>
0.532978

>  <SCORE.INTRA.SOLV.lig_0>
-31.1706

>  <SCORE.INTRA.VDW>
-1.34955

>  <SCORE.INTRA.VDW.0>
-1.16895

>  <SCORE.INTRA.norm>
-0.299455

>  <SCORE.RESTR>
0

>  <SCORE.RESTR.CAVITY>
0

>  <SCORE.RESTR.norm>
0

>  <SCORE.SYSTEM>
0

>  <SCORE.SYSTEM.CONST>
0

>  <SCORE.SYSTEM.DIHEDRAL>
0

>  <SCORE.SYSTEM.SOLV>
0

>  <SCORE.SYSTEM.norm>
0

>  <SCORE.heavy>
23

>  <SCORE.norm>
-0.431067

>  <RMSD>
14.401

$$$$
ligand
 OpenBabel11021811513D
libRbt.so/2013.1/901 2013/11/27
 23 24  0  0  0  0  0  0  0  0999 V2000
   -9.9157    5.9698    1.1905 C   0  0  0  0  0  0  0  0  0  0  0  0
  -11.1830    6.6368    1.0333 O   0  0  0  0  0  0  0  0  0  0  0  0
  -10.1617    4.5427    1.6589 C   0  0  2  0  0  0  0  0  0  0  0  0
   -8.9143    3.7033    1.8891 C   0  0  1  0  0  0  0  0  0  0  0  0
   -8.3451    4.0377    3.1566 O   0  0  0  0  0  0  0  0  0  0  0  0
   -9.4721    2.2860    1.8153 C   0  0  2  0  0  0  0  0  0  0  0  0
   -8.5743    1.2101    1.5177 O   0  0  0  0  0  0  0  0  0  0  0  0
  -10.5018    2.4243    0.7078 C   0  0  2  0  0  0  0  0  0  0  0  0
  -10.9308    3.8025    0.7068 O   0  0  0  0  0  0  0  0  0  0  0  0
  -11.6535    1.4502    1.0152 C   0  0  0  0  0  0  0  0  0  0  0  0
  -12.3303    1.7728    2.2381 O   0  0  0  0  0  0  0  0  0  0  0  0
  -10.6821    2.4666   -1.6991 C   0  0  2  0  0  0  0  0  0  0  0  0
   -9.8637    2.1687   -0.5548 O   0  0  0  0  0  0  0  0  0  0  0  0
  -10.0546    1.7794   -2.8976 C   0  0  2  0  0  0  0  0  0  0  0  0
   -9.7683    0.4172   -2.5622 O   0  0  0  0  0  0  0  0  0  0  0  0
   -8.7531    2.4530   -3.2733 C   0  0  1  0  0  0  0  0  0  0  0  0
   -8.3247    1.9430   -4.5382 O   0  0  0  0  0  0  0  0  0  0  0  0
   -8.9320    3.9573   -3.3489 C   0  0  2  0  0  0  0  0  0  0  0  0
   -7.6564    4.5579   -3.5262 O   0  0  0  0  0  0  0  0  0  0  0  0
   -9.5707    4.5201   -2.0862 C   0  0  2  0  0  0  0  0  0  0  0  0
  -10.8231    3.8705   -1.9154 O   0  0  0  0  0  0  0  0  0  0  0  0
   -9.7632    6.0384   -2.1799 C   0  0  0  0  0  0  0  0  0  0  0  0
  -10.8644    6.4136   -3.0203 O   0  0  0  0  0  0  0  0  0  0  0  0
  1  2  1  0  0  0  0
  3  1  1  6  0  0  0
  3  9  1  0  0  0  0
  3  4  1  0  0  0  0
  4  5  1  1  0  0  0
  4  6  1  0  0  0  0
  6  7  1  6  0  0  0
  6  8  1  0  0  0  0
  8  9  1  0  0  0  0
  8 10  1  1  0  0  0
  8 13  1  0  0  0  0
 10 11  1  0  0  0  0
 12 13  1  1  0  0  0
 12 14  1  0  0  0  0
 12 21  1  0  0  0  0
 14 15  1  1  0  0  0
 14 16  1  0  0  0  0
 16 17  1  6  0  0  0
 16 18  1  0  0  0  0
 18 19  1  1  0  0  0
 18 20  1  0  0  0  0
 20 21  1  0  0  0  0
 20 22  1  6  0  0  0
 22 23  1  0  0  0  0
M  END
>  <CHROM.1>
-179.32798554,63.20108867,-163.63349052,-171.01131716,75.72942340,-9.87525551
3.41633791,-0.64014025,2.88433427,-1.37122308,2.87709556

>  <Name>
ligand

>  <RI>
0

>  <Rbt.Current_Directory>
/home/itssahil/PROJECTS/Mol_Feturizer/New_Systems/rnas/4TS2

>  <Rbt.Executable>
rbdock ($Id: //depot/dev/client3/rdock/2013.1/src/exe/rbdock.cxx#4 $)

>  <Rbt.Library>
libRbt.so (2013.1, Build901 2013/11/27)

>  <Rbt.Parameter_File>
/export/apps/rDock/src/rDock_2013.1_src/data/scripts/dock_solv.prm

>  <Rbt.Receptor>
prm/blind_docking_100.prm

>  <SCORE>
-9.95594

>  <SCORE.INTER>
-3.73953

>  <SCORE.INTER.CONST>
1

>  <SCORE.INTER.POLAR>
0

>  <SCORE.INTER.ROT>
5

>  <SCORE.INTER.SOLV>
11.2186

>  <SCORE.INTER.VDW>
-13.1659

>  <SCORE.INTER.norm>
-0.162588

>  <SCORE.INTRA>
-6.53758

>  <SCORE.INTRA.DIHEDRAL>
-10.0136

>  <SCORE.INTRA.DIHEDRAL.0>
12.4853

>  <SCORE.INTRA.POLAR>
0

>  <SCORE.INTRA.POLAR.0>
0

>  <SCORE.INTRA.REPUL>
0

>  <SCORE.INTRA.REPUL.0>
0

>  <SCORE.INTRA.SOLV>
0.304368

>  <SCORE.INTRA.SOLV.lig_0>
-31.1706

>  <SCORE.INTRA.VDW>
-1.68299

>  <SCORE.INTRA.VDW.0>
-1.16895

>  <SCORE.INTRA.norm>
-0.284243

>  <SCORE.RESTR>
0.321169

>  <SCORE.RESTR.CAVITY>
0.321169

>  <SCORE.RESTR.norm>
0.0139639

>  <SCORE.SYSTEM>
0

>  <SCORE.SYSTEM.CONST>
0

>  <SCORE.SYSTEM.DIHEDRAL>
0

>  <SCORE.SYSTEM.SOLV>
0

>  <SCORE.SYSTEM.norm>
0

>  <SCORE.heavy>
23

>  <SCORE.norm>
-0.432867

>  <RMSD>
14.446

$$$$
ligand
 OpenBabel11021811513D
libRbt.so/2013.1/901 2013/11/27
 23 24  0  0  0  0  0  0  0  0999 V2000
   -9.7263    6.1056    1.1243 C   0  0  0  0  0  0  0  0  0  0  0  0
   -8.9130    6.7716    2.1095 O   0  0  0  0  0  0  0  0  0  0  0  0
  -10.0398    4.6977    1.6103 C   0  0  2  0  0  0  0  0  0  0  0  0
   -8.8338    3.8024    1.8500 C   0  0  1  0  0  0  0  0  0  0  0  0
   -8.2478    4.1245    3.1130 O   0  0  0  0  0  0  0  0  0  0  0  0
   -9.4589    2.4126    1.7937 C   0  0  2  0  0  0  0  0  0  0  0  0
   -8.6139    1.2914    1.5087 O   0  0  0  0  0  0  0  0  0  0  0  0
  -10.4819    2.5866    0.6852 C   0  0  2  0  0  0  0  0  0  0  0  0
  -10.8444    3.9837    0.6676 O   0  0  0  0  0  0  0  0  0  0  0  0
  -11.6786    1.6726    1.0050 C   0  0  0  0  0  0  0  0  0  0  0  0
  -11.3272    0.2822    0.9758 O   0  0  0  0  0  0  0  0  0  0  0  0
  -10.6780    2.5715   -1.7209 C   0  0  2  0  0  0  0  0  0  0  0  0
   -9.8581    2.2854   -0.5746 O   0  0  0  0  0  0  0  0  0  0  0  0
  -10.0668    1.8504   -2.9078 C   0  0  2  0  0  0  0  0  0  0  0  0
   -9.7986    0.4914   -2.5455 O   0  0  0  0  0  0  0  0  0  0  0  0
   -8.7576    2.4969   -3.3038 C   0  0  1  0  0  0  0  0  0  0  0  0
   -8.3431    1.9546   -4.5598 O   0  0  0  0  0  0  0  0  0  0  0  0
   -8.9150    4.0019   -3.4098 C   0  0  2  0  0  0  0  0  0  0  0  0
   -7.6318    4.5799   -3.6059 O   0  0  0  0  0  0  0  0  0  0  0  0
   -9.5389    4.6001   -2.1561 C   0  0  2  0  0  0  0  0  0  0  0  0
  -10.7998    3.9725   -1.9657 O   0  0  0  0  0  0  0  0  0  0  0  0
   -9.7099    6.1187   -2.2805 C   0  0  0  0  0  0  0  0  0  0  0  0
   -8.4618    6.8150   -2.4112 O   0  0  0  0  0  0  0  0  0  0  0  0
  1  2  1  0  0  0  0
  3  1  1  6  0  0  0
  3  9  1  0  0  0  0
  3  4  1  0  0  0  0
  4  5  1  1  0  0  0
  4  6  1  0  0  0  0
  6  7  1  6  0  0  0
  6  8  1  0  0  0  0
  8  9  1  0  0  0  0
  8 10  1  1  0  0  0
  8 13  1  0  0  0  0
 10 11  1  0  0  0  0
 12 13  1  1  0  0  0
 12 14  1  0  0  0  0
 12 21  1  0  0  0  0
 14 15  1  1  0  0  0
 14 16  1  0  0  0  0
 16 17  1  6  0  0  0
 16 18  1  0  0  0  0
 18 19  1  1  0  0  0
 18 20  1  0  0  0  0
 20 21  1  0  0  0  0
 20 22  1  6  0  0  0
 22 23  1  0  0  0  0
M  END
>  <CHROM.1>
-60.21108658,-64.65211535,-164.10719386,-172.75712036,-63.29912109,-9.57678318
3.45547201,-0.65173011,-1.96025090,-1.28036343,-2.04948666

>  <Name>
ligand

>  <RI>
0

>  <Rbt.Current_Directory>
/home/itssahil/PROJECTS/Mol_Feturizer/New_Systems/rnas/4TS2

>  <Rbt.Executable>
rbdock ($Id: //depot/dev/client3/rdock/2013.1/src/exe/rbdock.cxx#4 $)

>  <Rbt.Library>
libRbt.so (2013.1, Build901 2013/11/27)

>  <Rbt.Parameter_File>
/export/apps/rDock/src/rDock_2013.1_src/data/scripts/dock_solv.prm

>  <Rbt.Receptor>
prm/blind_docking_80.prm

>  <SCORE>
-10.7326

>  <SCORE.INTER>
-4.1094

>  <SCORE.INTER.CONST>
1

>  <SCORE.INTER.POLAR>
0

>  <SCORE.INTER.ROT>
5

>  <SCORE.INTER.SOLV>
10.8717

>  <SCORE.INTER.VDW>
-13.2968

>  <SCORE.INTER.norm>
-0.17867

>  <SCORE.INTRA>
-6.62318

>  <SCORE.INTRA.DIHEDRAL>
-11.0114

>  <SCORE.INTRA.DIHEDRAL.0>
12.4853

>  <SCORE.INTRA.POLAR>
0

>  <SCORE.INTRA.POLAR.0>
0

>  <SCORE.INTRA.REPUL>
0

>  <SCORE.INTRA.REPUL.0>
0

>  <SCORE.INTRA.SOLV>
0.720375

>  <SCORE.INTRA.SOLV.lig_0>
-31.1706

>  <SCORE.INTRA.VDW>
-1.47766

>  <SCORE.INTRA.VDW.0>
-1.16895

>  <SCORE.INTRA.norm>
-0.287964

>  <SCORE.RESTR>
0

>  <SCORE.RESTR.CAVITY>
0

>  <SCORE.RESTR.norm>
0

>  <SCORE.SYSTEM>
0

>  <SCORE.SYSTEM.CONST>
0

>  <SCORE.SYSTEM.DIHEDRAL>
0

>  <SCORE.SYSTEM.SOLV>
0

>  <SCORE.SYSTEM.norm>
0

>  <SCORE.heavy>
23

>  <SCORE.norm>
-0.466634

>  <RMSD>
14.472

$$$$
ligand
 OpenBabel11021811513D
libRbt.so/2013.1/901 2013/11/27
 23 24  0  0  0  0  0  0  0  0999 V2000
   -5.2196    4.0652   -2.6798 C   0  0  0  0  0  0  0  0  0  0  0  0
   -4.4289    5.1021   -3.2923 O   0  0  0  0  0  0  0  0  0  0  0  0
   -6.6419    4.1448   -3.2159 C   0  0  2  0  0  0  0  0  0  0  0  0
   -7.3967    5.4237   -2.8871 C   0  0  1  0  0  0  0  0  0  0  0  0
   -6.9853    6.4601   -3.7809 O   0  0  0  0  0  0  0  0  0  0  0  0
   -8.8466    4.9879   -3.0695 C   0  0  2  0  0  0  0  0  0  0  0  0
   -9.8764    5.7408   -2.4177 O   0  0  0  0  0  0  0  0  0  0  0  0
   -8.8084    3.5740   -2.5169 C   0  0  2  0  0  0  0  0  0  0  0  0
   -7.4592    3.0929   -2.6948 O   0  0  0  0  0  0  0  0  0  0  0  0
   -9.8385    2.7382   -3.2979 C   0  0  0  0  0  0  0  0  0  0  0  0
   -9.8984    1.3795   -2.8420 O   0  0  0  0  0  0  0  0  0  0  0  0
   -8.2868    2.6932   -0.3306 C   0  0  2  0  0  0  0  0  0  0  0  0
   -9.0687    3.6200   -1.1037 O   0  0  0  0  0  0  0  0  0  0  0  0
   -8.9583    2.5508    1.0226 C   0  0  2  0  0  0  0  0  0  0  0  0
  -10.3576    2.3153    0.8309 O   0  0  0  0  0  0  0  0  0  0  0  0
   -8.8032    3.8222    1.8277 C   0  0  1  0  0  0  0  0  0  0  0  0
   -9.2249    3.5663    3.1694 O   0  0  0  0  0  0  0  0  0  0  0  0
   -7.3608    4.2917    1.8128 C   0  0  2  0  0  0  0  0  0  0  0  0
   -7.2940    5.5726    2.4244 O   0  0  0  0  0  0  0  0  0  0  0  0
   -6.8078    4.3916    0.3975 C   0  0  2  0  0  0  0  0  0  0  0  0
   -6.9270    3.1072   -0.1991 O   0  0  0  0  0  0  0  0  0  0  0  0
   -5.3446    4.8498    0.3946 C   0  0  0  0  0  0  0  0  0  0  0  0
   -5.1739    6.1856    0.8906 O   0  0  0  0  0  0  0  0  0  0  0  0
  1  2  1  0  0  0  0
  3  1  1  1  0  0  0
  3  9  1  0  0  0  0
  3  4  1  0  0  0  0
  4  5  1  6  0  0  0
  4  6  1  0  0  0  0
  6  7  1  1  0  0  0
  6  8  1  0  0  0  0
  8  9  1  0  0  0  0
  8 10  1  6  0  0  0
  8 13  1  0  0  0  0
 10 11  1  0  0  0  0
 12 13  1  6  0  0  0
 12 14  1  0  0  0  0
 12 21  1  0  0  0  0
 14 15  1  6  0  0  0
 14 16  1  0  0  0  0
 16 17  1  1  0  0  0
 16 18  1  0  0  0  0
 18 19  1  6  0  0  0
 18 20  1  0  0  0  0
 20 21  1  0  0  0  0
 20 22  1  1  0  0  0
 22 23  1  0  0  0  0
M  END
>  <CHROM.1>
-63.43844311,-179.23500261,-162.70727448,-141.64534209,-65.06470435,-7.78060918
4.08460751,-0.92933960,-1.27832532,0.57346248,1.57716942

>  <Name>
ligand

>  <RI>
0

>  <Rbt.Current_Directory>
/home/itssahil/PROJECTS/Mol_Feturizer/New_Systems/rnas/4TS2

>  <Rbt.Executable>
rbdock ($Id: //depot/dev/client3/rdock/2013.1/src/exe/rbdock.cxx#4 $)

>  <Rbt.Library>
libRbt.so (2013.1, Build901 2013/11/27)

>  <Rbt.Parameter_File>
/export/apps/rDock/src/rDock_2013.1_src/data/scripts/dock_solv.prm

>  <Rbt.Receptor>
prm/blind_docking_60.prm

>  <SCORE>
-10.7366

>  <SCORE.INTER>
-7.34907

>  <SCORE.INTER.CONST>
1

>  <SCORE.INTER.POLAR>
0

>  <SCORE.INTER.ROT>
5

>  <SCORE.INTER.SOLV>
9.65013

>  <SCORE.INTER.VDW>
-15.0494

>  <SCORE.INTER.norm>
-0.319525

>  <SCORE.INTRA>
-3.38754

>  <SCORE.INTRA.DIHEDRAL>
-6.07618

>  <SCORE.INTRA.DIHEDRAL.0>
12.4853

>  <SCORE.INTRA.POLAR>
0

>  <SCORE.INTRA.POLAR.0>
0

>  <SCORE.INTRA.REPUL>
0

>  <SCORE.INTRA.REPUL.0>
0

>  <SCORE.INTRA.SOLV>
0.810719

>  <SCORE.INTRA.SOLV.lig_0>
-31.1706

>  <SCORE.INTRA.VDW>
-0.75481

>  <SCORE.INTRA.VDW.0>
-1.16895

>  <SCORE.INTRA.norm>
-0.147284

>  <SCORE.RESTR>
0

>  <SCORE.RESTR.CAVITY>
0

>  <SCORE.RESTR.norm>
0

>  <SCORE.SYSTEM>
0

>  <SCORE.SYSTEM.CONST>
0

>  <SCORE.SYSTEM.DIHEDRAL>
0

>  <SCORE.SYSTEM.SOLV>
0

>  <SCORE.SYSTEM.norm>
0

>  <SCORE.heavy>
23

>  <SCORE.norm>
-0.466809

>  <RMSD>
14.478

$$$$
ligand
 OpenBabel11021811513D
libRbt.so/2013.1/901 2013/11/27
 23 24  0  0  0  0  0  0  0  0999 V2000
   -7.7132    4.9495    1.8816 C   0  0  0  0  0  0  0  0  0  0  0  0
   -8.0636    4.4196    3.1747 O   0  0  0  0  0  0  0  0  0  0  0  0
   -8.6358    4.3461    0.8323 C   0  0  2  0  0  0  0  0  0  0  0  0
   -8.5664    2.8334    0.6892 C   0  0  1  0  0  0  0  0  0  0  0  0
   -9.3286    2.2231    1.7326 O   0  0  0  0  0  0  0  0  0  0  0  0
   -9.1464    2.6234   -0.7055 C   0  0  2  0  0  0  0  0  0  0  0  0
   -8.8343    1.4116   -1.4028 O   0  0  0  0  0  0  0  0  0  0  0  0
   -8.5737    3.8147   -1.4529 C   0  0  2  0  0  0  0  0  0  0  0  0
   -8.3466    4.8512   -0.4743 O   0  0  0  0  0  0  0  0  0  0  0  0
   -9.5976    4.2315   -2.5241 C   0  0  0  0  0  0  0  0  0  0  0  0
   -9.2844    5.5005   -3.1151 O   0  0  0  0  0  0  0  0  0  0  0  0
   -6.6914    4.4682   -2.8159 C   0  0  2  0  0  0  0  0  0  0  0  0
   -7.2957    3.4492   -2.0006 O   0  0  0  0  0  0  0  0  0  0  0  0
   -5.4075    3.8930   -3.3842 C   0  0  2  0  0  0  0  0  0  0  0  0
   -5.6766    2.6018   -3.9415 O   0  0  0  0  0  0  0  0  0  0  0  0
   -4.3730    3.7260   -2.2929 C   0  0  1  0  0  0  0  0  0  0  0  0
   -3.1152    3.4215   -2.9002 O   0  0  0  0  0  0  0  0  0  0  0  0
   -4.2613    4.9914   -1.4640 C   0  0  2  0  0  0  0  0  0  0  0  0
   -3.4173    4.7318   -0.3506 O   0  0  0  0  0  0  0  0  0  0  0  0
   -5.6174    5.4620   -0.9555 C   0  0  2  0  0  0  0  0  0  0  0  0
   -6.4487    5.6724   -2.0889 O   0  0  0  0  0  0  0  0  0  0  0  0
   -5.4956    6.7509   -0.1340 C   0  0  0  0  0  0  0  0  0  0  0  0
   -4.9631    7.8492   -0.8888 O   0  0  0  0  0  0  0  0  0  0  0  0
  1  2  1  0  0  0  0
  3  1  1  1  0  0  0
  3  9  1  0  0  0  0
  3  4  1  0  0  0  0
  4  5  1  1  0  0  0
  4  6  1  0  0  0  0
  6  7  1  6  0  0  0
  6  8  1  0  0  0  0
  8  9  1  0  0  0  0
  8 10  1  6  0  0  0
  8 13  1  0  0  0  0
 10 11  1  0  0  0  0
 12 13  1  1  0  0  0
 12 14  1  0  0  0  0
 12 21  1  0  0  0  0
 14 15  1  1  0  0  0
 14 16  1  0  0  0  0
 16 17  1  6  0  0  0
 16 18  1  0  0  0  0
 18 19  1  1  0  0  0
 18 20  1  0  0  0  0
 20 21  1  0  0  0  0
 20 22  1  6  0  0  0
 22 23  1  0  0  0  0
M  END
>  <CHROM.1>
-61.21461021,168.56676942,-176.32361100,175.79466051,61.11591705,-6.89723669
4.27378391,-1.06471614,-2.77200107,-0.49423771,-2.00253576

>  <Name>
ligand

>  <RI>
0

>  <Rbt.Current_Directory>
/home/itssahil/PROJECTS/Mol_Feturizer/New_Systems/rnas/4TS2

>  <Rbt.Executable>
rbdock ($Id: //depot/dev/client3/rdock/2013.1/src/exe/rbdock.cxx#4 $)

>  <Rbt.Library>
libRbt.so (2013.1, Build901 2013/11/27)

>  <Rbt.Parameter_File>
/export/apps/rDock/src/rDock_2013.1_src/data/scripts/dock_solv.prm

>  <Rbt.Receptor>
prm/blind_docking_80.prm

>  <SCORE>
-11.9892

>  <SCORE.INTER>
-5.29846

>  <SCORE.INTER.CONST>
1

>  <SCORE.INTER.POLAR>
0

>  <SCORE.INTER.ROT>
5

>  <SCORE.INTER.SOLV>
11.3745

>  <SCORE.INTER.VDW>
-14.2572

>  <SCORE.INTER.norm>
-0.230368

>  <SCORE.INTRA>
-6.6907

>  <SCORE.INTRA.DIHEDRAL>
-11.8277

>  <SCORE.INTRA.DIHEDRAL.0>
12.4853

>  <SCORE.INTRA.POLAR>
0

>  <SCORE.INTRA.POLAR.0>
0

>  <SCORE.INTRA.REPUL>
0

>  <SCORE.INTRA.REPUL.0>
0

>  <SCORE.INTRA.SOLV>
0.579812

>  <SCORE.INTRA.SOLV.lig_0>
-31.1706

>  <SCORE.INTRA.VDW>
-1.06676

>  <SCORE.INTRA.VDW.0>
-1.16895

>  <SCORE.INTRA.norm>
-0.2909

>  <SCORE.RESTR>
0

>  <SCORE.RESTR.CAVITY>
0

>  <SCORE.RESTR.norm>
0

>  <SCORE.SYSTEM>
0

>  <SCORE.SYSTEM.CONST>
0

>  <SCORE.SYSTEM.DIHEDRAL>
0

>  <SCORE.SYSTEM.SOLV>
0

>  <SCORE.SYSTEM.norm>
0

>  <SCORE.heavy>
23

>  <SCORE.norm>
-0.521268

>  <RMSD>
14.510

$$$$
ligand
 OpenBabel11021811513D
libRbt.so/2013.1/901 2013/11/27
 23 24  0  0  0  0  0  0  0  0999 V2000
   -9.4041    6.2682    1.2372 C   0  0  0  0  0  0  0  0  0  0  0  0
  -10.5879    7.0854    1.1585 O   0  0  0  0  0  0  0  0  0  0  0  0
   -9.8000    4.8625    1.6661 C   0  0  2  0  0  0  0  0  0  0  0  0
   -8.6508    3.8818    1.8419 C   0  0  1  0  0  0  0  0  0  0  0  0
   -8.0240    4.1076    3.1062 O   0  0  0  0  0  0  0  0  0  0  0  0
   -9.3656    2.5389    1.7362 C   0  0  2  0  0  0  0  0  0  0  0  0
   -8.6001    1.3801    1.3850 O   0  0  0  0  0  0  0  0  0  0  0  0
  -10.3938    2.8286    0.6569 C   0  0  2  0  0  0  0  0  0  0  0  0
  -10.6651    4.2453    0.7086 O   0  0  0  0  0  0  0  0  0  0  0  0
  -11.6417    1.9794    0.9592 C   0  0  0  0  0  0  0  0  0  0  0  0
  -12.2589    2.3389    2.2032 O   0  0  0  0  0  0  0  0  0  0  0  0
  -10.5051    3.1496   -1.7331 C   0  0  2  0  0  0  0  0  0  0  0  0
   -9.8121    2.5459   -0.6271 O   0  0  0  0  0  0  0  0  0  0  0  0
  -10.4540    2.1697   -2.8905 C   0  0  2  0  0  0  0  0  0  0  0  0
  -10.8462    0.8731   -2.4268 O   0  0  0  0  0  0  0  0  0  0  0  0
   -9.0466    2.0665   -3.4358 C   0  0  1  0  0  0  0  0  0  0  0  0
   -9.0862    1.3360   -4.6639 O   0  0  0  0  0  0  0  0  0  0  0  0
   -8.4600    3.4462   -3.6661 C   0  0  2  0  0  0  0  0  0  0  0  0
   -7.0871    3.3051   -4.0047 O   0  0  0  0  0  0  0  0  0  0  0  0
   -8.5748    4.3286   -2.4303 C   0  0  2  0  0  0  0  0  0  0  0  0
   -9.9530    4.4155   -2.0944 O   0  0  0  0  0  0  0  0  0  0  0  0
   -7.9951    5.7262   -2.6791 C   0  0  0  0  0  0  0  0  0  0  0  0
   -8.0328    6.5646   -1.5150 O   0  0  0  0  0  0  0  0  0  0  0  0
  1  2  1  0  0  0  0
  3  1  1  6  0  0  0
  3  9  1  0  0  0  0
  3  4  1  0  0  0  0
  4  5  1  1  0  0  0
  4  6  1  0  0  0  0
  6  7  1  6  0  0  0
  6  8  1  0  0  0  0
  8  9  1  0  0  0  0
  8 10  1  1  0  0  0
  8 13  1  0  0  0  0
 10 11  1  0  0  0  0
 12 13  1  1  0  0  0
 12 14  1  0  0  0  0
 12 21  1  0  0  0  0
 14 15  1  1  0  0  0
 14 16  1  0  0  0  0
 16 17  1  6  0  0  0
 16 18  1  0  0  0  0
 18 19  1  1  0  0  0
 18 20  1  0  0  0  0
 20 21  1  0  0  0  0
 20 22  1  6  0  0  0
 22 23  1  0  0  0  0
M  END
>  <CHROM.1>
-178.05563805,63.49955199,-143.44333392,-161.90487993,-177.35484123,-9.53199010
3.54655592,-0.66786239,-1.98178734,-1.08809054,-2.18418709

>  <Name>
ligand

>  <RI>
0

>  <Rbt.Current_Directory>
/home/itssahil/PROJECTS/Mol_Feturizer/New_Systems/rnas/4TS2

>  <Rbt.Executable>
rbdock ($Id: //depot/dev/client3/rdock/2013.1/src/exe/rbdock.cxx#4 $)

>  <Rbt.Library>
libRbt.so (2013.1, Build901 2013/11/27)

>  <Rbt.Parameter_File>
/export/apps/rDock/src/rDock_2013.1_src/data/scripts/dock_solv.prm

>  <Rbt.Receptor>
prm/blind_docking_100.prm

>  <SCORE>
-8.36874

>  <SCORE.INTER>
-3.64144

>  <SCORE.INTER.CONST>
1

>  <SCORE.INTER.POLAR>
0

>  <SCORE.INTER.ROT>
5

>  <SCORE.INTER.SOLV>
9.45613

>  <SCORE.INTER.VDW>
-12.513

>  <SCORE.INTER.norm>
-0.158324

>  <SCORE.INTRA>
-4.7273

>  <SCORE.INTRA.DIHEDRAL>
-6.27411

>  <SCORE.INTRA.DIHEDRAL.0>
12.4853

>  <SCORE.INTRA.POLAR>
0

>  <SCORE.INTRA.POLAR.0>
0

>  <SCORE.INTRA.REPUL>
0

>  <SCORE.INTRA.REPUL.0>
0

>  <SCORE.INTRA.SOLV>
0.0698252

>  <SCORE.INTRA.SOLV.lig_0>
-31.1706

>  <SCORE.INTRA.VDW>
-1.62516

>  <SCORE.INTRA.VDW.0>
-1.16895

>  <SCORE.INTRA.norm>
-0.205535

>  <SCORE.RESTR>
0

>  <SCORE.RESTR.CAVITY>
0

>  <SCORE.RESTR.norm>
0

>  <SCORE.SYSTEM>
0

>  <SCORE.SYSTEM.CONST>
0

>  <SCORE.SYSTEM.DIHEDRAL>
0

>  <SCORE.SYSTEM.SOLV>
0

>  <SCORE.SYSTEM.norm>
0

>  <SCORE.heavy>
23

>  <SCORE.norm>
-0.363858

>  <RMSD>
14.525

$$$$
ligand
 OpenBabel11021811513D
libRbt.so/2013.1/901 2013/11/27
 23 24  0  0  0  0  0  0  0  0999 V2000
  -10.1466    1.4687   -1.9415 C   0  0  0  0  0  0  0  0  0  0  0  0
  -11.5441    1.1859   -1.7352 O   0  0  0  0  0  0  0  0  0  0  0  0
  -10.0126    2.7957   -2.6748 C   0  0  2  0  0  0  0  0  0  0  0  0
   -8.5941    3.2002   -3.0458 C   0  0  1  0  0  0  0  0  0  0  0  0
   -8.1912    2.4929   -4.2203 O   0  0  0  0  0  0  0  0  0  0  0  0
   -8.7398    4.7047   -3.2483 C   0  0  2  0  0  0  0  0  0  0  0  0
   -7.5706    5.5265   -3.1499 O   0  0  0  0  0  0  0  0  0  0  0  0
   -9.7210    5.0637   -2.1464 C   0  0  2  0  0  0  0  0  0  0  0  0
  -10.5097    3.8826   -1.8890 O   0  0  0  0  0  0  0  0  0  0  0  0
  -10.5745    6.2434   -2.6459 C   0  0  0  0  0  0  0  0  0  0  0  0
  -11.5651    6.6448   -1.6892 O   0  0  0  0  0  0  0  0  0  0  0  0
   -8.4297    4.2080   -0.2950 C   0  0  2  0  0  0  0  0  0  0  0  0
   -8.9853    5.3625   -0.9480 O   0  0  0  0  0  0  0  0  0  0  0  0
   -8.4199    4.4902    1.1959 C   0  0  2  0  0  0  0  0  0  0  0  0
   -9.7057    4.9813    1.5902 O   0  0  0  0  0  0  0  0  0  0  0  0
   -7.3918    5.5492    1.5280 C   0  0  1  0  0  0  0  0  0  0  0  0
   -7.2398    5.6072    2.9482 O   0  0  0  0  0  0  0  0  0  0  0  0
   -6.0623    5.2280    0.8721 C   0  0  2  0  0  0  0  0  0  0  0  0
   -5.1852    6.3300    1.0603 O   0  0  0  0  0  0  0  0  0  0  0  0
   -6.2111    4.9656   -0.6206 C   0  0  2  0  0  0  0  0  0  0  0  0
   -7.1243    3.8877   -0.7756 O   0  0  0  0  0  0  0  0  0  0  0  0
   -4.8648    4.6247   -1.2704 C   0  0  0  0  0  0  0  0  0  0  0  0
   -3.9443    5.7257   -1.2648 O   0  0  0  0  0  0  0  0  0  0  0  0
  1  2  1  0  0  0  0
  3  1  1  1  0  0  0
  3  9  1  0  0  0  0
  3  4  1  0  0  0  0
  4  5  1  6  0  0  0
  4  6  1  0  0  0  0
  6  7  1  1  0  0  0
  6  8  1  0  0  0  0
  8  9  1  0  0  0  0
  8 10  1  6  0  0  0
  8 13  1  0  0  0  0
 10 11  1  0  0  0  0
 12 13  1  6  0  0  0
 12 14  1  0  0  0  0
 12 21  1  0  0  0  0
 14 15  1  6  0  0  0
 14 16  1  0  0  0  0
 16 17  1  1  0  0  0
 16 18  1  0  0  0  0
 18 19  1  6  0  0  0
 18 20  1  0  0  0  0
 20 21  1  0  0  0  0
 20 22  1  1  0  0  0
 22 23  1  0  0  0  0
M  END
>  <CHROM.1>
-176.44544503,178.51002369,-148.02533756,-73.69806155,-66.40516186,-8.29365837
4.53983843,-1.05008771,-2.43938777,0.18139335,1.16790613

>  <Name>
ligand

>  <RI>
0

>  <Rbt.Current_Directory>
/home/itssahil/PROJECTS/Mol_Feturizer/New_Systems/rnas/4TS2

>  <Rbt.Executable>
rbdock ($Id: //depot/dev/client3/rdock/2013.1/src/exe/rbdock.cxx#4 $)

>  <Rbt.Library>
libRbt.so (2013.1, Build901 2013/11/27)

>  <Rbt.Parameter_File>
/export/apps/rDock/src/rDock_2013.1_src/data/scripts/dock_solv.prm

>  <Rbt.Receptor>
prm/blind_docking_20.prm

>  <SCORE>
-12.6995

>  <SCORE.INTER>
-8.88136

>  <SCORE.INTER.CONST>
1

>  <SCORE.INTER.POLAR>
0

>  <SCORE.INTER.ROT>
5

>  <SCORE.INTER.SOLV>
9.78137

>  <SCORE.INTER.VDW>
-16.1147

>  <SCORE.INTER.norm>
-0.386146

>  <SCORE.INTRA>
-3.83285

>  <SCORE.INTRA.DIHEDRAL>
-7.22276

>  <SCORE.INTRA.DIHEDRAL.0>
12.4853

>  <SCORE.INTRA.POLAR>
0

>  <SCORE.INTRA.POLAR.0>
0

>  <SCORE.INTRA.REPUL>
0

>  <SCORE.INTRA.REPUL.0>
0

>  <SCORE.INTRA.SOLV>
0.627914

>  <SCORE.INTRA.SOLV.lig_0>
-31.1706

>  <SCORE.INTRA.VDW>
-0.535426

>  <SCORE.INTRA.VDW.0>
-1.16895

>  <SCORE.INTRA.norm>
-0.166646

>  <SCORE.RESTR>
0.0146693

>  <SCORE.RESTR.CAVITY>
0.0146693

>  <SCORE.RESTR.norm>
0.000637794

>  <SCORE.SYSTEM>
0

>  <SCORE.SYSTEM.CONST>
0

>  <SCORE.SYSTEM.DIHEDRAL>
0

>  <SCORE.SYSTEM.SOLV>
0

>  <SCORE.SYSTEM.norm>
0

>  <SCORE.heavy>
23

>  <SCORE.norm>
-0.552154

>  <RMSD>
14.663

$$$$
ligand
 OpenBabel11021811513D
libRbt.so/2013.1/901 2013/11/27
 23 24  0  0  0  0  0  0  0  0999 V2000
  -10.2030    1.5692   -1.8699 C   0  0  0  0  0  0  0  0  0  0  0  0
   -9.3657    1.6043   -0.6981 O   0  0  0  0  0  0  0  0  0  0  0  0
  -10.0274    2.8682   -2.6434 C   0  0  2  0  0  0  0  0  0  0  0  0
   -8.5982    3.2109   -3.0350 C   0  0  1  0  0  0  0  0  0  0  0  0
   -8.2291    2.4551   -4.1903 O   0  0  0  0  0  0  0  0  0  0  0  0
   -8.6922    4.7128   -3.2816 C   0  0  2  0  0  0  0  0  0  0  0  0
   -7.4940    5.4952   -3.2150 O   0  0  0  0  0  0  0  0  0  0  0  0
   -9.6522    5.1391   -2.1849 C   0  0  2  0  0  0  0  0  0  0  0  0
  -10.4802    3.9949   -1.8874 O   0  0  0  0  0  0  0  0  0  0  0  0
  -10.4670    6.3331   -2.7143 C   0  0  0  0  0  0  0  0  0  0  0  0
  -11.4825    6.7533   -1.7923 O   0  0  0  0  0  0  0  0  0  0  0  0
   -8.4052    4.2921   -0.2994 C   0  0  2  0  0  0  0  0  0  0  0  0
   -8.8977    5.4470   -1.0006 O   0  0  0  0  0  0  0  0  0  0  0  0
   -8.3293    4.6526    1.1726 C   0  0  2  0  0  0  0  0  0  0  0  0
   -9.5644    5.2560    1.5735 O   0  0  0  0  0  0  0  0  0  0  0  0
   -7.2190    5.6508    1.4171 C   0  0  1  0  0  0  0  0  0  0  0  0
   -7.0195    5.7740    2.8273 O   0  0  0  0  0  0  0  0  0  0  0  0
   -5.9366    5.1994    0.7444 C   0  0  2  0  0  0  0  0  0  0  0  0
   -4.9783    6.2437    0.8471 O   0  0  0  0  0  0  0  0  0  0  0  0
   -6.1498    4.8687   -0.7267 C   0  0  2  0  0  0  0  0  0  0  0  0
   -7.1413    3.8529   -0.7965 O   0  0  0  0  0  0  0  0  0  0  0  0
   -4.8518    4.3968   -1.3927 C   0  0  0  0  0  0  0  0  0  0  0  0
   -3.8286    5.4031   -1.4031 O   0  0  0  0  0  0  0  0  0  0  0  0
  1  2  1  0  0  0  0
  3  1  1  1  0  0  0
  3  9  1  0  0  0  0
  3  4  1  0  0  0  0
  4  5  1  6  0  0  0
  4  6  1  0  0  0  0
  6  7  1  1  0  0  0
  6  8  1  0  0  0  0
  8  9  1  0  0  0  0
  8 10  1  6  0  0  0
  8 13  1  0  0  0  0
 10 11  1  0  0  0  0
 12 13  1  6  0  0  0
 12 14  1  0  0  0  0
 12 21  1  0  0  0  0
 14 15  1  6  0  0  0
 14 16  1  0  0  0  0
 16 17  1  1  0  0  0
 16 18  1  0  0  0  0
 18 19  1  6  0  0  0
 18 20  1  0  0  0  0
 20 21  1  0  0  0  0
 20 22  1  1  0  0  0
 22 23  1  0  0  0  0
M  END
>  <CHROM.1>
55.54029639,175.47183781,-149.98583563,-75.08892864,-62.97374732,-8.12125922
4.58441168,-1.05446685,-2.41682232,0.01731118,1.09843784

>  <Name>
ligand

>  <RI>
0

>  <Rbt.Current_Directory>
/home/itssahil/PROJECTS/Mol_Feturizer/New_Systems/rnas/4TS2

>  <Rbt.Executable>
rbdock ($Id: //depot/dev/client3/rdock/2013.1/src/exe/rbdock.cxx#4 $)

>  <Rbt.Library>
libRbt.so (2013.1, Build901 2013/11/27)

>  <Rbt.Parameter_File>
/export/apps/rDock/src/rDock_2013.1_src/data/scripts/dock_solv.prm

>  <Rbt.Receptor>
prm/blind_docking_20.prm

>  <SCORE>
-11.8162

>  <SCORE.INTER>
-8.36337

>  <SCORE.INTER.CONST>
1

>  <SCORE.INTER.POLAR>
0

>  <SCORE.INTER.ROT>
5

>  <SCORE.INTER.SOLV>
9.55187

>  <SCORE.INTER.VDW>
-15.6929

>  <SCORE.INTER.norm>
-0.363625

>  <SCORE.INTRA>
-3.45431

>  <SCORE.INTRA.DIHEDRAL>
-7.44328

>  <SCORE.INTRA.DIHEDRAL.0>
12.4853

>  <SCORE.INTRA.POLAR>
0

>  <SCORE.INTRA.POLAR.0>
0

>  <SCORE.INTRA.REPUL>
0

>  <SCORE.INTRA.REPUL.0>
0

>  <SCORE.INTRA.SOLV>
1.63529

>  <SCORE.INTRA.SOLV.lig_0>
-31.1706

>  <SCORE.INTRA.VDW>
-0.550316

>  <SCORE.INTRA.VDW.0>
-1.16895

>  <SCORE.INTRA.norm>
-0.150187

>  <SCORE.RESTR>
0.00149642

>  <SCORE.RESTR.CAVITY>
0.00149642

>  <SCORE.RESTR.norm>
6.50617e-05

>  <SCORE.SYSTEM>
0

>  <SCORE.SYSTEM.CONST>
0

>  <SCORE.SYSTEM.DIHEDRAL>
0

>  <SCORE.SYSTEM.SOLV>
0

>  <SCORE.SYSTEM.norm>
0

>  <SCORE.heavy>
23

>  <SCORE.norm>
-0.513747

>  <RMSD>
14.694

$$$$
ligand
 OpenBabel11021811513D
libRbt.so/2013.1/901 2013/11/27
 23 24  0  0  0  0  0  0  0  0999 V2000
  -10.1495    2.7449    0.1311 C   0  0  0  0  0  0  0  0  0  0  0  0
  -10.4452    1.4047   -0.3071 O   0  0  0  0  0  0  0  0  0  0  0  0
  -10.1032    3.6638   -1.0813 C   0  0  2  0  0  0  0  0  0  0  0  0
   -9.0553    3.3172   -2.1279 C   0  0  1  0  0  0  0  0  0  0  0  0
   -9.5340    2.2435   -2.9405 O   0  0  0  0  0  0  0  0  0  0  0  0
   -8.9070    4.6394   -2.8730 C   0  0  2  0  0  0  0  0  0  0  0  0
   -7.7057    4.8769   -3.6164 O   0  0  0  0  0  0  0  0  0  0  0  0
   -9.0210    5.6404   -1.7369 C   0  0  2  0  0  0  0  0  0  0  0  0
   -9.8141    5.0136   -0.7066 O   0  0  0  0  0  0  0  0  0  0  0  0
   -9.6838    6.9115   -2.2977 C   0  0  0  0  0  0  0  0  0  0  0  0
  -11.0261    6.6759   -2.7452 O   0  0  0  0  0  0  0  0  0  0  0  0
   -7.2450    4.8389   -0.3117 C   0  0  2  0  0  0  0  0  0  0  0  0
   -7.7116    5.8760   -1.1919 O   0  0  0  0  0  0  0  0  0  0  0  0
   -6.2727    5.4749    0.6643 C   0  0  2  0  0  0  0  0  0  0  0  0
   -6.8619    6.6603    1.2101 O   0  0  0  0  0  0  0  0  0  0  0  0
   -4.9945    5.8695   -0.0423 C   0  0  1  0  0  0  0  0  0  0  0  0
   -4.0228    6.2310    0.9419 O   0  0  0  0  0  0  0  0  0  0  0  0
   -4.4779    4.7241   -0.8920 C   0  0  2  0  0  0  0  0  0  0  0  0
   -3.3856    5.1933   -1.6706 O   0  0  0  0  0  0  0  0  0  0  0  0
   -5.5497    4.1773   -1.8252 C   0  0  2  0  0  0  0  0  0  0  0  0
   -6.6423    3.7559   -1.0199 O   0  0  0  0  0  0  0  0  0  0  0  0
   -5.0226    3.0089   -2.6666 C   0  0  0  0  0  0  0  0  0  0  0  0
   -3.9044    3.3704   -3.4904 O   0  0  0  0  0  0  0  0  0  0  0  0
  1  2  1  0  0  0  0
  3  1  1  1  0  0  0
  3  9  1  0  0  0  0
  3  4  1  0  0  0  0
  4  5  1  6  0  0  0
  4  6  1  0  0  0  0
  6  7  1  1  0  0  0
  6  8  1  0  0  0  0
  8  9  1  0  0  0  0
  8 10  1  6  0  0  0
  8 13  1  0  0  0  0
 10 11  1  0  0  0  0
 12 13  1  6  0  0  0
 12 14  1  0  0  0  0
 12 21  1  0  0  0  0
 14 15  1  6  0  0  0
 14 16  1  0  0  0  0
 16 17  1  1  0  0  0
 16 18  1  0  0  0  0
 18 19  1  6  0  0  0
 18 20  1  0  0  0  0
 20 21  1  0  0  0  0
 20 22  1  1  0  0  0
 22 23  1  0  0  0  0
M  END
>  <CHROM.1>
-60.47482621,63.91455690,-152.69552033,-78.35953086,-59.76079737,-7.45206374
4.61965047,-1.33961652,-2.92960596,0.00468535,0.63803763

>  <Name>
ligand

>  <RI>
0

>  <Rbt.Current_Directory>
/home/itssahil/PROJECTS/Mol_Feturizer/New_Systems/rnas/4TS2

>  <Rbt.Executable>
rbdock ($Id: //depot/dev/client3/rdock/2013.1/src/exe/rbdock.cxx#4 $)

>  <Rbt.Library>
libRbt.so (2013.1, Build901 2013/11/27)

>  <Rbt.Parameter_File>
/export/apps/rDock/src/rDock_2013.1_src/data/scripts/dock_solv.prm

>  <Rbt.Receptor>
prm/blind_docking_20.prm

>  <SCORE>
-10.77

>  <SCORE.INTER>
-7.61176

>  <SCORE.INTER.CONST>
1

>  <SCORE.INTER.POLAR>
0

>  <SCORE.INTER.ROT>
5

>  <SCORE.INTER.SOLV>
8.99848

>  <SCORE.INTER.VDW>
-15.0073

>  <SCORE.INTER.norm>
-0.330946

>  <SCORE.INTRA>
-3.15827

>  <SCORE.INTRA.DIHEDRAL>
-7.51268

>  <SCORE.INTRA.DIHEDRAL.0>
12.4853

>  <SCORE.INTRA.POLAR>
0

>  <SCORE.INTRA.POLAR.0>
0

>  <SCORE.INTRA.REPUL>
0

>  <SCORE.INTRA.REPUL.0>
0

>  <SCORE.INTRA.SOLV>
1.24468

>  <SCORE.INTRA.SOLV.lig_0>
-31.1706

>  <SCORE.INTRA.VDW>
-0.0242674

>  <SCORE.INTRA.VDW.0>
-1.16895

>  <SCORE.INTRA.norm>
-0.137316

>  <SCORE.RESTR>
0

>  <SCORE.RESTR.CAVITY>
0

>  <SCORE.RESTR.norm>
0

>  <SCORE.SYSTEM>
0

>  <SCORE.SYSTEM.CONST>
0

>  <SCORE.SYSTEM.DIHEDRAL>
0

>  <SCORE.SYSTEM.SOLV>
0

>  <SCORE.SYSTEM.norm>
0

>  <SCORE.heavy>
23

>  <SCORE.norm>
-0.468262

>  <RMSD>
14.696

$$$$
ligand
 OpenBabel11021811513D
libRbt.so/2013.1/901 2013/11/27
 23 24  0  0  0  0  0  0  0  0999 V2000
   -7.7961    5.7836    1.5188 C   0  0  0  0  0  0  0  0  0  0  0  0
   -6.4265    5.3454    1.4325 O   0  0  0  0  0  0  0  0  0  0  0  0
   -8.6296    5.0061    0.5102 C   0  0  2  0  0  0  0  0  0  0  0  0
   -8.5433    3.4913    0.6162 C   0  0  1  0  0  0  0  0  0  0  0  0
   -9.3842    3.0419    1.6807 O   0  0  0  0  0  0  0  0  0  0  0  0
   -9.0091    3.0529   -0.7681 C   0  0  2  0  0  0  0  0  0  0  0  0
   -8.6376    1.7511   -1.2365 O   0  0  0  0  0  0  0  0  0  0  0  0
   -8.3829    4.1198   -1.6489 C   0  0  2  0  0  0  0  0  0  0  0  0
   -8.2387    5.3021   -0.8336 O   0  0  0  0  0  0  0  0  0  0  0  0
   -9.3195    4.3442   -2.8498 C   0  0  0  0  0  0  0  0  0  0  0  0
   -9.4997    3.1552   -3.6318 O   0  0  0  0  0  0  0  0  0  0  0  0
   -6.3931    4.5886   -2.9328 C   0  0  2  0  0  0  0  0  0  0  0  0
   -7.0639    3.6930   -2.0295 O   0  0  0  0  0  0  0  0  0  0  0  0
   -5.1959    3.8489   -3.5002 C   0  0  2  0  0  0  0  0  0  0  0  0
   -5.6138    2.5578   -3.9570 O   0  0  0  0  0  0  0  0  0  0  0  0
   -4.1416    3.6499   -2.4335 C   0  0  1  0  0  0  0  0  0  0  0  0
   -2.9450    3.1789   -3.0578 O   0  0  0  0  0  0  0  0  0  0  0  0
   -3.8723    4.9495   -1.6990 C   0  0  2  0  0  0  0  0  0  0  0  0
   -3.0158    4.6794   -0.5977 O   0  0  0  0  0  0  0  0  0  0  0  0
   -5.1539    5.5888   -1.1817 C   0  0  2  0  0  0  0  0  0  0  0  0
   -6.0034    5.8073   -2.2999 O   0  0  0  0  0  0  0  0  0  0  0  0
   -4.8725    6.9101   -0.4565 C   0  0  0  0  0  0  0  0  0  0  0  0
   -4.2105    7.8757   -1.2866 O   0  0  0  0  0  0  0  0  0  0  0  0
  1  2  1  0  0  0  0
  3  1  1  1  0  0  0
  3  9  1  0  0  0  0
  3  4  1  0  0  0  0
  4  5  1  1  0  0  0
  4  6  1  0  0  0  0
  6  7  1  6  0  0  0
  6  8  1  0  0  0  0
  8  9  1  0  0  0  0
  8 10  1  6  0  0  0
  8 13  1  0  0  0  0
 10 11  1  0  0  0  0
 12 13  1  1  0  0  0
 12 14  1  0  0  0  0
 12 21  1  0  0  0  0
 14 15  1  1  0  0  0
 14 16  1  0  0  0  0
 16 17  1  6  0  0  0
 16 18  1  0  0  0  0
 18 19  1  1  0  0  0
 18 20  1  0  0  0  0
 20 21  1  0  0  0  0
 20 22  1  6  0  0  0
 22 23  1  0  0  0  0
M  END
>  <CHROM.1>
54.67577865,-60.50123748,-166.10921713,176.59583403,58.58376364,-6.60868471
4.41479249,-1.33501034,-3.05539324,-0.38585183,-2.16984509

>  <Name>
ligand

>  <RI>
0

>  <Rbt.Current_Directory>
/home/itssahil/PROJECTS/Mol_Feturizer/New_Systems/rnas/4TS2

>  <Rbt.Executable>
rbdock ($Id: //depot/dev/client3/rdock/2013.1/src/exe/rbdock.cxx#4 $)

>  <Rbt.Library>
libRbt.so (2013.1, Build901 2013/11/27)

>  <Rbt.Parameter_File>
/export/apps/rDock/src/rDock_2013.1_src/data/scripts/dock_solv.prm

>  <Rbt.Receptor>
prm/blind_docking_40.prm

>  <SCORE>
-11.4733

>  <SCORE.INTER>
-5.13951

>  <SCORE.INTER.CONST>
1

>  <SCORE.INTER.POLAR>
0

>  <SCORE.INTER.ROT>
5

>  <SCORE.INTER.SOLV>
10.5324

>  <SCORE.INTER.VDW>
-13.8705

>  <SCORE.INTER.norm>
-0.223457

>  <SCORE.INTRA>
-6.33383

>  <SCORE.INTRA.DIHEDRAL>
-11.2951

>  <SCORE.INTRA.DIHEDRAL.0>
12.4853

>  <SCORE.INTRA.POLAR>
0

>  <SCORE.INTRA.POLAR.0>
0

>  <SCORE.INTRA.REPUL>
0

>  <SCORE.INTRA.REPUL.0>
0

>  <SCORE.INTRA.SOLV>
1.29409

>  <SCORE.INTRA.SOLV.lig_0>
-31.1706

>  <SCORE.INTRA.VDW>
-1.33331

>  <SCORE.INTRA.VDW.0>
-1.16895

>  <SCORE.INTRA.norm>
-0.275384

>  <SCORE.RESTR>
0

>  <SCORE.RESTR.CAVITY>
0

>  <SCORE.RESTR.norm>
0

>  <SCORE.SYSTEM>
0

>  <SCORE.SYSTEM.CONST>
0

>  <SCORE.SYSTEM.DIHEDRAL>
0

>  <SCORE.SYSTEM.SOLV>
0

>  <SCORE.SYSTEM.norm>
0

>  <SCORE.heavy>
23

>  <SCORE.norm>
-0.498841

>  <RMSD>
14.725

$$$$
ligand
 OpenBabel11021811513D
libRbt.so/2013.1/901 2013/11/27
 23 24  0  0  0  0  0  0  0  0999 V2000
  -10.3542    3.9750    5.2282 C   0  0  0  0  0  0  0  0  0  0  0  0
  -10.7957    2.9761    4.2886 O   0  0  0  0  0  0  0  0  0  0  0  0
   -9.6860    5.1107    4.4666 C   0  0  2  0  0  0  0  0  0  0  0  0
  -10.6016    5.9243    3.5649 C   0  0  1  0  0  0  0  0  0  0  0  0
  -11.3326    6.8639    4.3553 O   0  0  0  0  0  0  0  0  0  0  0  0
   -9.6063    6.5654    2.6037 C   0  0  2  0  0  0  0  0  0  0  0  0
  -10.0796    7.0261    1.3325 O   0  0  0  0  0  0  0  0  0  0  0  0
   -8.6070    5.4387    2.4084 C   0  0  2  0  0  0  0  0  0  0  0  0
   -8.6547    4.6274    3.6012 O   0  0  0  0  0  0  0  0  0  0  0  0
   -7.2230    6.0743    2.1844 C   0  0  0  0  0  0  0  0  0  0  0  0
   -6.8428    6.9478    3.2568 O   0  0  0  0  0  0  0  0  0  0  0  0
   -8.3284    3.3750    1.1873 C   0  0  2  0  0  0  0  0  0  0  0  0
   -9.0399    4.6188    1.3097 O   0  0  0  0  0  0  0  0  0  0  0  0
   -7.5953    3.4000   -0.1410 C   0  0  2  0  0  0  0  0  0  0  0  0
   -6.8892    4.6394   -0.2654 O   0  0  0  0  0  0  0  0  0  0  0  0
   -8.5755    3.3018   -1.2892 C   0  0  1  0  0  0  0  0  0  0  0  0
   -7.8425    3.0802   -2.4964 O   0  0  0  0  0  0  0  0  0  0  0  0
   -9.5579    2.1694   -1.0581 C   0  0  2  0  0  0  0  0  0  0  0  0
  -10.5613    2.2268   -2.0628 O   0  0  0  0  0  0  0  0  0  0  0  0
  -10.2230    2.2611    0.3087 C   0  0  2  0  0  0  0  0  0  0  0  0
   -9.1923    2.2430    1.2870 O   0  0  0  0  0  0  0  0  0  0  0  0
  -11.2006    1.1026    0.5393 C   0  0  0  0  0  0  0  0  0  0  0  0
  -11.9917    1.2637    1.7258 O   0  0  0  0  0  0  0  0  0  0  0  0
  1  2  1  0  0  0  0
  3  1  1  6  0  0  0
  3  9  1  0  0  0  0
  3  4  1  0  0  0  0
  4  5  1  1  0  0  0
  4  6  1  0  0  0  0
  6  7  1  6  0  0  0
  6  8  1  0  0  0  0
  8  9  1  0  0  0  0
  8 10  1  6  0  0  0
  8 13  1  0  0  0  0
 10 11  1  0  0  0  0
 12 13  1  6  0  0  0
 12 14  1  0  0  0  0
 12 21  1  0  0  0  0
 14 15  1  6  0  0  0
 14 16  1  0  0  0  0
 16 17  1  6  0  0  0
 16 18  1  0  0  0  0
 18 19  1  6  0  0  0
 18 20  1  0  0  0  0
 20 21  1  0  0  0  0
 20 22  1  1  0  0  0
 22 23  1  0  0  0  0
M  END
>  <CHROM.1>
66.45396242,56.24907253,-116.73331260,-168.42351141,-171.18369662,-9.34727957
4.14060346,1.57766614,1.62914116,0.75006778,0.90907606

>  <Name>
ligand

>  <RI>
0

>  <Rbt.Current_Directory>
/home/itssahil/PROJECTS/Mol_Feturizer/New_Systems/rnas/4TS2

>  <Rbt.Executable>
rbdock ($Id: //depot/dev/client3/rdock/2013.1/src/exe/rbdock.cxx#4 $)

>  <Rbt.Library>
libRbt.so (2013.1, Build901 2013/11/27)

>  <Rbt.Parameter_File>
/export/apps/rDock/src/rDock_2013.1_src/data/scripts/dock_solv.prm

>  <Rbt.Receptor>
prm/blind_docking_60.prm

>  <SCORE>
-9.41808

>  <SCORE.INTER>
-6.48024

>  <SCORE.INTER.CONST>
1

>  <SCORE.INTER.POLAR>
0

>  <SCORE.INTER.ROT>
5

>  <SCORE.INTER.SOLV>
6.83142

>  <SCORE.INTER.VDW>
-13.5306

>  <SCORE.INTER.norm>
-0.28175

>  <SCORE.INTRA>
-2.93784

>  <SCORE.INTRA.DIHEDRAL>
-4.39862

>  <SCORE.INTRA.DIHEDRAL.0>
12.4853

>  <SCORE.INTRA.POLAR>
0

>  <SCORE.INTRA.POLAR.0>
0

>  <SCORE.INTRA.REPUL>
0

>  <SCORE.INTRA.REPUL.0>
0

>  <SCORE.INTRA.SOLV>
0.49454

>  <SCORE.INTRA.SOLV.lig_0>
-31.1706

>  <SCORE.INTRA.VDW>
-0.985802

>  <SCORE.INTRA.VDW.0>
-1.16895

>  <SCORE.INTRA.norm>
-0.127732

>  <SCORE.RESTR>
0

>  <SCORE.RESTR.CAVITY>
0

>  <SCORE.RESTR.norm>
0

>  <SCORE.SYSTEM>
0

>  <SCORE.SYSTEM.CONST>
0

>  <SCORE.SYSTEM.DIHEDRAL>
0

>  <SCORE.SYSTEM.SOLV>
0

>  <SCORE.SYSTEM.norm>
0

>  <SCORE.heavy>
23

>  <SCORE.norm>
-0.409482

>  <RMSD>
14.817

$$$$
ligand
 OpenBabel11021811513D
libRbt.so/2013.1/901 2013/11/27
 23 24  0  0  0  0  0  0  0  0999 V2000
   -7.7459    5.4195    1.6080 C   0  0  0  0  0  0  0  0  0  0  0  0
   -7.8990    6.8516    1.6387 O   0  0  0  0  0  0  0  0  0  0  0  0
   -8.6647    4.8457    0.5389 C   0  0  2  0  0  0  0  0  0  0  0  0
   -8.7183    3.3274    0.4654 C   0  0  1  0  0  0  0  0  0  0  0  0
   -9.5798    2.8332    1.4929 O   0  0  0  0  0  0  0  0  0  0  0  0
   -9.2456    3.1003   -0.9474 C   0  0  2  0  0  0  0  0  0  0  0  0
   -9.0049    1.8348   -1.5742 O   0  0  0  0  0  0  0  0  0  0  0  0
   -8.5372    4.2027   -1.7147 C   0  0  2  0  0  0  0  0  0  0  0  0
   -8.2700    5.2621   -0.7714 O   0  0  0  0  0  0  0  0  0  0  0  0
   -9.4684    4.6519   -2.8552 C   0  0  0  0  0  0  0  0  0  0  0  0
  -10.6750    5.2567   -2.3695 O   0  0  0  0  0  0  0  0  0  0  0  0
   -6.5339    4.6379   -2.9893 C   0  0  2  0  0  0  0  0  0  0  0  0
   -7.2702    3.7062   -2.1782 O   0  0  0  0  0  0  0  0  0  0  0  0
   -5.2770    3.9325   -3.4639 C   0  0  2  0  0  0  0  0  0  0  0  0
   -5.6291    2.6499   -3.9942 O   0  0  0  0  0  0  0  0  0  0  0  0
   -4.3228    3.7165   -2.3099 C   0  0  1  0  0  0  0  0  0  0  0  0
   -3.0658    3.2813   -2.8335 O   0  0  0  0  0  0  0  0  0  0  0  0
   -4.1444    4.9971   -1.5168 C   0  0  2  0  0  0  0  0  0  0  0  0
   -3.3890    4.7063   -0.3488 O   0  0  0  0  0  0  0  0  0  0  0  0
   -5.4790    5.6025   -1.1028 C   0  0  2  0  0  0  0  0  0  0  0  0
   -6.2250    5.8425   -2.2885 O   0  0  0  0  0  0  0  0  0  0  0  0
   -5.2881    6.9053   -0.3173 C   0  0  0  0  0  0  0  0  0  0  0  0
   -4.6547    7.9374   -1.0876 O   0  0  0  0  0  0  0  0  0  0  0  0
  1  2  1  0  0  0  0
  3  1  1  1  0  0  0
  3  9  1  0  0  0  0
  3  4  1  0  0  0  0
  4  5  1  1  0  0  0
  4  6  1  0  0  0  0
  6  7  1  6  0  0  0
  6  8  1  0  0  0  0
  8  9  1  0  0  0  0
  8 10  1  6  0  0  0
  8 13  1  0  0  0  0
 10 11  1  0  0  0  0
 12 13  1  1  0  0  0
 12 14  1  0  0  0  0
 12 21  1  0  0  0  0
 14 15  1  1  0  0  0
 14 16  1  0  0  0  0
 16 17  1  6  0  0  0
 16 18  1  0  0  0  0
 18 19  1  1  0  0  0
 18 20  1  0  0  0  0
 20 21  1  0  0  0  0
 20 22  1  6  0  0  0
 22 23  1  0  0  0  0
M  END
>  <CHROM.1>
-174.56604059,64.93272930,-176.45356842,176.57936751,62.83958785,-6.91348920
4.59524491,-1.25363641,-2.98780303,-0.32128173,-2.31043474

>  <Name>
ligand

>  <RI>
0

>  <Rbt.Current_Directory>
/home/itssahil/PROJECTS/Mol_Feturizer/New_Systems/rnas/4TS2

>  <Rbt.Executable>
rbdock ($Id: //depot/dev/client3/rdock/2013.1/src/exe/rbdock.cxx#4 $)

>  <Rbt.Library>
libRbt.so (2013.1, Build901 2013/11/27)

>  <Rbt.Parameter_File>
/export/apps/rDock/src/rDock_2013.1_src/data/scripts/dock_solv.prm

>  <Rbt.Receptor>
prm/blind_docking_80.prm

>  <SCORE>
-12.6287

>  <SCORE.INTER>
-5.50428

>  <SCORE.INTER.CONST>
1

>  <SCORE.INTER.POLAR>
0

>  <SCORE.INTER.ROT>
5

>  <SCORE.INTER.SOLV>
9.4739

>  <SCORE.INTER.VDW>
-13.7608

>  <SCORE.INTER.norm>
-0.239316

>  <SCORE.INTRA>
-7.1354

>  <SCORE.INTRA.DIHEDRAL>
-11.9925

>  <SCORE.INTRA.DIHEDRAL.0>
12.4853

>  <SCORE.INTRA.POLAR>
0

>  <SCORE.INTRA.POLAR.0>
0

>  <SCORE.INTRA.REPUL>
0

>  <SCORE.INTRA.REPUL.0>
0

>  <SCORE.INTRA.SOLV>
0.316291

>  <SCORE.INTRA.SOLV.lig_0>
-31.1706

>  <SCORE.INTRA.VDW>
-1.29731

>  <SCORE.INTRA.VDW.0>
-1.16895

>  <SCORE.INTRA.norm>
-0.310235

>  <SCORE.RESTR>
0.0109801

>  <SCORE.RESTR.CAVITY>
0.0109801

>  <SCORE.RESTR.norm>
0.000477396

>  <SCORE.SYSTEM>
0

>  <SCORE.SYSTEM.CONST>
0

>  <SCORE.SYSTEM.DIHEDRAL>
0

>  <SCORE.SYSTEM.SOLV>
0

>  <SCORE.SYSTEM.norm>
0

>  <SCORE.heavy>
23

>  <SCORE.norm>
-0.549074

>  <RMSD>
14.830

$$$$
ligand
 OpenBabel11021811513D
libRbt.so/2013.1/901 2013/11/27
 23 24  0  0  0  0  0  0  0  0999 V2000
   -6.9656    6.0019    1.3301 C   0  0  0  0  0  0  0  0  0  0  0  0
   -7.3086    5.8304    2.7188 O   0  0  0  0  0  0  0  0  0  0  0  0
   -7.9812    5.2592    0.4736 C   0  0  2  0  0  0  0  0  0  0  0  0
   -7.9963    3.7470    0.6363 C   0  0  1  0  0  0  0  0  0  0  0  0
   -8.7208    3.4047    1.8195 O   0  0  0  0  0  0  0  0  0  0  0  0
   -8.6724    3.2993   -0.6552 C   0  0  2  0  0  0  0  0  0  0  0  0
   -8.4653    1.9560   -1.1079 O   0  0  0  0  0  0  0  0  0  0  0  0
   -8.0892    4.2804   -1.6568 C   0  0  2  0  0  0  0  0  0  0  0  0
   -7.7498    5.4752   -0.9214 O   0  0  0  0  0  0  0  0  0  0  0  0
   -9.1564    4.5374   -2.7360 C   0  0  0  0  0  0  0  0  0  0  0  0
  -10.3278    5.1731   -2.2057 O   0  0  0  0  0  0  0  0  0  0  0  0
   -6.1814    4.6065   -3.0996 C   0  0  2  0  0  0  0  0  0  0  0  0
   -6.8679    3.7354   -2.1843 O   0  0  0  0  0  0  0  0  0  0  0  0
   -5.0197    3.8256   -3.6853 C   0  0  2  0  0  0  0  0  0  0  0  0
   -5.4892    2.5492   -4.1334 O   0  0  0  0  0  0  0  0  0  0  0  0
   -3.9558    3.5914   -2.6355 C   0  0  1  0  0  0  0  0  0  0  0  0
   -2.7864    3.0789   -3.2784 O   0  0  0  0  0  0  0  0  0  0  0  0
   -3.6300    4.8815   -1.9074 C   0  0  2  0  0  0  0  0  0  0  0  0
   -2.7656    4.5832   -0.8197 O   0  0  0  0  0  0  0  0  0  0  0  0
   -4.8803    5.5650   -1.3703 C   0  0  2  0  0  0  0  0  0  0  0  0
   -5.7399    5.8117   -2.4749 O   0  0  0  0  0  0  0  0  0  0  0  0
   -4.5419    6.8766   -0.6517 C   0  0  0  0  0  0  0  0  0  0  0  0
   -3.7390    6.6823    0.5218 O   0  0  0  0  0  0  0  0  0  0  0  0
  1  2  1  0  0  0  0
  3  1  1  1  0  0  0
  3  9  1  0  0  0  0
  3  4  1  0  0  0  0
  4  5  1  1  0  0  0
  4  6  1  0  0  0  0
  6  7  1  6  0  0  0
  6  8  1  0  0  0  0
  8  9  1  0  0  0  0
  8 10  1  6  0  0  0
  8 13  1  0  0  0  0
 10 11  1  0  0  0  0
 12 13  1  1  0  0  0
 12 14  1  0  0  0  0
 12 21  1  0  0  0  0
 14 15  1  1  0  0  0
 14 16  1  0  0  0  0
 16 17  1  6  0  0  0
 16 18  1  0  0  0  0
 18 19  1  1  0  0  0
 18 20  1  0  0  0  0
 20 21  1  0  0  0  0
 20 22  1  6  0  0  0
 22 23  1  0  0  0  0
M  END
>  <CHROM.1>
-64.71452319,63.93956117,-173.29148435,-177.04105383,-63.97125796,-6.38878923
4.55034823,-1.20034695,-2.70798091,-0.22664395,-2.06379066

>  <Name>
ligand

>  <RI>
0

>  <Rbt.Current_Directory>
/home/itssahil/PROJECTS/Mol_Feturizer/New_Systems/rnas/4TS2

>  <Rbt.Executable>
rbdock ($Id: //depot/dev/client3/rdock/2013.1/src/exe/rbdock.cxx#4 $)

>  <Rbt.Library>
libRbt.so (2013.1, Build901 2013/11/27)

>  <Rbt.Parameter_File>
/export/apps/rDock/src/rDock_2013.1_src/data/scripts/dock_solv.prm

>  <Rbt.Receptor>
prm/blind_docking_20.prm

>  <SCORE>
-13.4466

>  <SCORE.INTER>
-6.69833

>  <SCORE.INTER.CONST>
1

>  <SCORE.INTER.POLAR>
0

>  <SCORE.INTER.ROT>
5

>  <SCORE.INTER.SOLV>
12.402

>  <SCORE.INTER.VDW>
-15.5329

>  <SCORE.INTER.norm>
-0.291232

>  <SCORE.INTRA>
-6.74827

>  <SCORE.INTRA.DIHEDRAL>
-11.9744

>  <SCORE.INTRA.DIHEDRAL.0>
12.4853

>  <SCORE.INTRA.POLAR>
0

>  <SCORE.INTRA.POLAR.0>
0

>  <SCORE.INTRA.REPUL>
0

>  <SCORE.INTRA.REPUL.0>
0

>  <SCORE.INTRA.SOLV>
0.599246

>  <SCORE.INTRA.SOLV.lig_0>
-31.1706

>  <SCORE.INTRA.VDW>
-1.06069

>  <SCORE.INTRA.VDW.0>
-1.16895

>  <SCORE.INTRA.norm>
-0.293403

>  <SCORE.RESTR>
0

>  <SCORE.RESTR.CAVITY>
0

>  <SCORE.RESTR.norm>
0

>  <SCORE.SYSTEM>
0

>  <SCORE.SYSTEM.CONST>
0

>  <SCORE.SYSTEM.DIHEDRAL>
0

>  <SCORE.SYSTEM.SOLV>
0

>  <SCORE.SYSTEM.norm>
0

>  <SCORE.heavy>
23

>  <SCORE.norm>
-0.584635

>  <RMSD>
14.837

$$$$
ligand
 OpenBabel11021811513D
libRbt.so/2013.1/901 2013/11/27
 23 24  0  0  0  0  0  0  0  0999 V2000
   -7.3205    5.5302    1.5530 C   0  0  0  0  0  0  0  0  0  0  0  0
   -7.7830    5.1347    2.8588 O   0  0  0  0  0  0  0  0  0  0  0  0
   -8.3018    5.0241    0.5055 C   0  0  2  0  0  0  0  0  0  0  0  0
   -8.4566    3.5130    0.4269 C   0  0  1  0  0  0  0  0  0  0  0  0
   -9.3222    3.0701    1.4741 O   0  0  0  0  0  0  0  0  0  0  0  0
   -9.0334    3.3293   -0.9728 C   0  0  2  0  0  0  0  0  0  0  0  0
   -8.8922    2.0545   -1.6110 O   0  0  0  0  0  0  0  0  0  0  0  0
   -8.2741    4.3876   -1.7533 C   0  0  2  0  0  0  0  0  0  0  0  0
   -7.9142    5.4216   -0.8128 O   0  0  0  0  0  0  0  0  0  0  0  0
   -9.2026    4.9034   -2.8676 C   0  0  0  0  0  0  0  0  0  0  0  0
  -10.3848    5.5281   -2.3482 O   0  0  0  0  0  0  0  0  0  0  0  0
   -6.3193    4.6698   -3.1414 C   0  0  2  0  0  0  0  0  0  0  0  0
   -7.0545    3.8121   -2.2515 O   0  0  0  0  0  0  0  0  0  0  0  0
   -5.1301    3.8794   -3.6547 C   0  0  2  0  0  0  0  0  0  0  0  0
   -5.5781    2.5977   -4.1095 O   0  0  0  0  0  0  0  0  0  0  0  0
   -4.1231    3.6580   -2.5476 C   0  0  1  0  0  0  0  0  0  0  0  0
   -2.9227    3.1353   -3.1214 O   0  0  0  0  0  0  0  0  0  0  0  0
   -3.8332    4.9576   -1.8209 C   0  0  2  0  0  0  0  0  0  0  0  0
   -3.0275    4.6728   -0.6855 O   0  0  0  0  0  0  0  0  0  0  0  0
   -5.1085    5.6500   -1.3593 C   0  0  2  0  0  0  0  0  0  0  0  0
   -5.9086    5.8828   -2.5107 O   0  0  0  0  0  0  0  0  0  0  0  0
   -4.8055    6.9707   -0.6418 C   0  0  0  0  0  0  0  0  0  0  0  0
   -5.9892    7.6704   -0.2308 O   0  0  0  0  0  0  0  0  0  0  0  0
  1  2  1  0  0  0  0
  3  1  1  1  0  0  0
  3  9  1  0  0  0  0
  3  4  1  0  0  0  0
  4  5  1  1  0  0  0
  4  6  1  0  0  0  0
  6  7  1  6  0  0  0
  6  8  1  0  0  0  0
  8  9  1  0  0  0  0
  8 10  1  6  0  0  0
  8 13  1  0  0  0  0
 10 11  1  0  0  0  0
 12 13  1  1  0  0  0
 12 14  1  0  0  0  0
 12 21  1  0  0  0  0
 14 15  1  1  0  0  0
 14 16  1  0  0  0  0
 16 17  1  6  0  0  0
 16 18  1  0  0  0  0
 18 19  1  1  0  0  0
 18 20  1  0  0  0  0
 20 21  1  0  0  0  0
 20 22  1  6  0  0  0
 22 23  1  0  0  0  0
M  END
>  <CHROM.1>
-62.10400919,62.22142458,-175.68623201,173.06366488,178.13756229,-6.73136716
4.58355919,-1.27347693,-2.68469070,-0.26935628,-2.09981775

>  <Name>
ligand

>  <RI>
0

>  <Rbt.Current_Directory>
/home/itssahil/PROJECTS/Mol_Feturizer/New_Systems/rnas/4TS2

>  <Rbt.Executable>
rbdock ($Id: //depot/dev/client3/rdock/2013.1/src/exe/rbdock.cxx#4 $)

>  <Rbt.Library>
libRbt.so (2013.1, Build901 2013/11/27)

>  <Rbt.Parameter_File>
/export/apps/rDock/src/rDock_2013.1_src/data/scripts/dock_solv.prm

>  <Rbt.Receptor>
prm/blind_docking_40.prm

>  <SCORE>
-13.1543

>  <SCORE.INTER>
-6.1536

>  <SCORE.INTER.CONST>
1

>  <SCORE.INTER.POLAR>
0

>  <SCORE.INTER.ROT>
5

>  <SCORE.INTER.SOLV>
10.3678

>  <SCORE.INTER.VDW>
-14.4917

>  <SCORE.INTER.norm>
-0.267548

>  <SCORE.INTRA>
-7.00068

>  <SCORE.INTRA.DIHEDRAL>
-11.9288

>  <SCORE.INTRA.DIHEDRAL.0>
12.4853

>  <SCORE.INTRA.POLAR>
0

>  <SCORE.INTRA.POLAR.0>
0

>  <SCORE.INTRA.REPUL>
0

>  <SCORE.INTRA.REPUL.0>
0

>  <SCORE.INTRA.SOLV>
0.606643

>  <SCORE.INTRA.SOLV.lig_0>
-31.1706

>  <SCORE.INTRA.VDW>
-1.3396

>  <SCORE.INTRA.VDW.0>
-1.16895

>  <SCORE.INTRA.norm>
-0.304377

>  <SCORE.RESTR>
0

>  <SCORE.RESTR.CAVITY>
0

>  <SCORE.RESTR.norm>
0

>  <SCORE.SYSTEM>
0

>  <SCORE.SYSTEM.CONST>
0

>  <SCORE.SYSTEM.DIHEDRAL>
0

>  <SCORE.SYSTEM.SOLV>
0

>  <SCORE.SYSTEM.norm>
0

>  <SCORE.heavy>
23

>  <SCORE.norm>
-0.571925

>  <RMSD>
14.840

$$$$
ligand
 OpenBabel11021811513D
libRbt.so/2013.1/901 2013/11/27
 23 24  0  0  0  0  0  0  0  0999 V2000
   -7.3897    5.4386    1.5353 C   0  0  0  0  0  0  0  0  0  0  0  0
   -7.5323    6.8659    1.6696 O   0  0  0  0  0  0  0  0  0  0  0  0
   -8.3459    4.9441    0.4594 C   0  0  2  0  0  0  0  0  0  0  0  0
   -8.4946    3.4338    0.3572 C   0  0  1  0  0  0  0  0  0  0  0  0
   -9.3822    2.9747    1.3788 O   0  0  0  0  0  0  0  0  0  0  0  0
   -9.0394    3.2673   -1.0574 C   0  0  2  0  0  0  0  0  0  0  0  0
   -8.8803    2.0016   -1.7092 O   0  0  0  0  0  0  0  0  0  0  0  0
   -8.2658    4.3379   -1.8065 C   0  0  2  0  0  0  0  0  0  0  0  0
   -7.9300    5.3602   -0.8445 O   0  0  0  0  0  0  0  0  0  0  0  0
   -9.1706    4.8663   -2.9344 C   0  0  0  0  0  0  0  0  0  0  0  0
  -10.3314    5.5428   -2.4320 O   0  0  0  0  0  0  0  0  0  0  0  0
   -6.2996    4.6290   -3.1766 C   0  0  2  0  0  0  0  0  0  0  0  0
   -7.0337    3.7722   -2.2849 O   0  0  0  0  0  0  0  0  0  0  0  0
   -5.0992    3.8453   -3.6738 C   0  0  2  0  0  0  0  0  0  0  0  0
   -5.5317    2.5555   -4.1206 O   0  0  0  0  0  0  0  0  0  0  0  0
   -4.0988    3.6431   -2.5570 C   0  0  1  0  0  0  0  0  0  0  0  0
   -2.8891    3.1266   -3.1169 O   0  0  0  0  0  0  0  0  0  0  0  0
   -3.8267    4.9516   -1.8396 C   0  0  2  0  0  0  0  0  0  0  0  0
   -3.0273    4.6844   -0.6956 O   0  0  0  0  0  0  0  0  0  0  0  0
   -5.1120    5.6360   -1.3940 C   0  0  2  0  0  0  0  0  0  0  0  0
   -5.9051    5.8512   -2.5535 O   0  0  0  0  0  0  0  0  0  0  0  0
   -4.8268    6.9658   -0.6859 C   0  0  0  0  0  0  0  0  0  0  0  0
   -6.0195    7.6912   -0.3528 O   0  0  0  0  0  0  0  0  0  0  0  0
  1  2  1  0  0  0  0
  3  1  1  1  0  0  0
  3  9  1  0  0  0  0
  3  4  1  0  0  0  0
  4  5  1  1  0  0  0
  4  6  1  0  0  0  0
  6  7  1  6  0  0  0
  6  8  1  0  0  0  0
  8  9  1  0  0  0  0
  8 10  1  6  0  0  0
  8 13  1  0  0  0  0
 10 11  1  0  0  0  0
 12 13  1  1  0  0  0
 12 14  1  0  0  0  0
 12 21  1  0  0  0  0
 14 15  1  1  0  0  0
 14 16  1  0  0  0  0
 16 17  1  6  0  0  0
 16 18  1  0  0  0  0
 18 19  1  1  0  0  0
 18 20  1  0  0  0  0
 20 21  1  0  0  0  0
 20 22  1  6  0  0  0
 22 23  1  0  0  0  0
M  END
>  <CHROM.1>
-169.92654825,65.27916546,-175.38670393,171.39493375,175.06307876,-6.71889116
4.63249379,-1.37515282,-2.78081787,-0.27928236,-2.29912147

>  <Name>
ligand

>  <RI>
0

>  <Rbt.Current_Directory>
/home/itssahil/PROJECTS/Mol_Feturizer/New_Systems/rnas/4TS2

>  <Rbt.Executable>
rbdock ($Id: //depot/dev/client3/rdock/2013.1/src/exe/rbdock.cxx#4 $)

>  <Rbt.Library>
libRbt.so (2013.1, Build901 2013/11/27)

>  <Rbt.Parameter_File>
/export/apps/rDock/src/rDock_2013.1_src/data/scripts/dock_solv.prm

>  <Rbt.Receptor>
prm/blind_docking_20.prm

>  <SCORE>
-12.7691

>  <SCORE.INTER>
-6.10815

>  <SCORE.INTER.CONST>
1

>  <SCORE.INTER.POLAR>
0

>  <SCORE.INTER.ROT>
5

>  <SCORE.INTER.SOLV>
9.766

>  <SCORE.INTER.VDW>
-14.2608

>  <SCORE.INTER.norm>
-0.265572

>  <SCORE.INTRA>
-6.66095

>  <SCORE.INTRA.DIHEDRAL>
-11.2544

>  <SCORE.INTRA.DIHEDRAL.0>
12.4853

>  <SCORE.INTRA.POLAR>
0

>  <SCORE.INTRA.POLAR.0>
0

>  <SCORE.INTRA.REPUL>
0

>  <SCORE.INTRA.REPUL.0>
0

>  <SCORE.INTRA.SOLV>
0.815225

>  <SCORE.INTRA.SOLV.lig_0>
-31.1706

>  <SCORE.INTRA.VDW>
-1.44137

>  <SCORE.INTRA.VDW.0>
-1.16895

>  <SCORE.INTRA.norm>
-0.289606

>  <SCORE.RESTR>
0

>  <SCORE.RESTR.CAVITY>
0

>  <SCORE.RESTR.norm>
0

>  <SCORE.SYSTEM>
0

>  <SCORE.SYSTEM.CONST>
0

>  <SCORE.SYSTEM.DIHEDRAL>
0

>  <SCORE.SYSTEM.SOLV>
0

>  <SCORE.SYSTEM.norm>
0

>  <SCORE.heavy>
23

>  <SCORE.norm>
-0.555178

>  <RMSD>
14.883

$$$$
ligand
 OpenBabel11021811513D
libRbt.so/2013.1/901 2013/11/27
 23 24  0  0  0  0  0  0  0  0999 V2000
   -6.5755    3.6205   -2.9215 C   0  0  0  0  0  0  0  0  0  0  0  0
   -6.9295    3.8256   -4.3029 O   0  0  0  0  0  0  0  0  0  0  0  0
   -7.8035    3.1402   -2.1614 C   0  0  2  0  0  0  0  0  0  0  0  0
   -9.0100    4.0650   -2.2120 C   0  0  1  0  0  0  0  0  0  0  0  0
   -9.6914    3.8877   -3.4555 O   0  0  0  0  0  0  0  0  0  0  0  0
   -9.8088    3.6051   -0.9970 C   0  0  2  0  0  0  0  0  0  0  0  0
  -10.7620    4.5064   -0.4216 O   0  0  0  0  0  0  0  0  0  0  0  0
   -8.7009    3.3149    0.0001 C   0  0  2  0  0  0  0  0  0  0  0  0
   -7.5270    2.9747   -0.7677 O   0  0  0  0  0  0  0  0  0  0  0  0
   -9.1716    2.1572    0.8989 C   0  0  0  0  0  0  0  0  0  0  0  0
  -10.3281    2.5027    1.6741 O   0  0  0  0  0  0  0  0  0  0  0  0
   -7.3047    4.3950    1.6469 C   0  0  2  0  0  0  0  0  0  0  0  0
   -8.4065    4.5175    0.7309 O   0  0  0  0  0  0  0  0  0  0  0  0
   -7.2690    5.6588    2.4859 C   0  0  2  0  0  0  0  0  0  0  0  0
   -8.5834    5.9294    2.9852 O   0  0  0  0  0  0  0  0  0  0  0  0
   -6.8343    6.8401    1.6465 C   0  0  1  0  0  0  0  0  0  0  0  0
   -6.5759    7.9457    2.5150 O   0  0  0  0  0  0  0  0  0  0  0  0
   -5.5902    6.4996    0.8482 C   0  0  2  0  0  0  0  0  0  0  0  0
   -5.3233    7.5654   -0.0530 O   0  0  0  0  0  0  0  0  0  0  0  0
   -5.7571    5.2117    0.0531 C   0  0  2  0  0  0  0  0  0  0  0  0
   -6.0633    4.1762    0.9772 O   0  0  0  0  0  0  0  0  0  0  0  0
   -4.4884    4.8674   -0.7361 C   0  0  0  0  0  0  0  0  0  0  0  0
   -3.3097    4.8366    0.0821 O   0  0  0  0  0  0  0  0  0  0  0  0
  1  2  1  0  0  0  0
  3  1  1  6  0  0  0
  3  9  1  0  0  0  0
  3  4  1  0  0  0  0
  4  5  1  6  0  0  0
  4  6  1  0  0  0  0
  6  7  1  1  0  0  0
  6  8  1  0  0  0  0
  8  9  1  0  0  0  0
  8 10  1  1  0  0  0
  8 13  1  0  0  0  0
 10 11  1  0  0  0  0
 12 13  1  6  0  0  0
 12 14  1  0  0  0  0
 12 21  1  0  0  0  0
 14 15  1  6  0  0  0
 14 16  1  0  0  0  0
 16 17  1  1  0  0  0
 16 18  1  0  0  0  0
 18 19  1  6  0  0  0
 18 20  1  0  0  0  0
 20 21  1  0  0  0  0
 20 22  1  1  0  0  0
 22 23  1  0  0  0  0
M  END
>  <CHROM.1>
-57.85676239,-63.34738589,-171.09491288,-175.91633290,53.13365553,-7.47175321
4.62228670,-0.06646703,-2.27232638,0.43544016,1.16048784

>  <Name>
ligand

>  <RI>
0

>  <Rbt.Current_Directory>
/home/itssahil/PROJECTS/Mol_Feturizer/New_Systems/rnas/4TS2

>  <Rbt.Executable>
rbdock ($Id: //depot/dev/client3/rdock/2013.1/src/exe/rbdock.cxx#4 $)

>  <Rbt.Library>
libRbt.so (2013.1, Build901 2013/11/27)

>  <Rbt.Parameter_File>
/export/apps/rDock/src/rDock_2013.1_src/data/scripts/dock_solv.prm

>  <Rbt.Receptor>
prm/blind_docking_20.prm

>  <SCORE>
-13.62

>  <SCORE.INTER>
-6.84024

>  <SCORE.INTER.CONST>
1

>  <SCORE.INTER.POLAR>
0

>  <SCORE.INTER.ROT>
5

>  <SCORE.INTER.SOLV>
12.4205

>  <SCORE.INTER.VDW>
-15.6337

>  <SCORE.INTER.norm>
-0.297402

>  <SCORE.INTRA>
-6.77978

>  <SCORE.INTRA.DIHEDRAL>
-11.806

>  <SCORE.INTRA.DIHEDRAL.0>
12.4853

>  <SCORE.INTRA.POLAR>
0

>  <SCORE.INTRA.POLAR.0>
0

>  <SCORE.INTRA.REPUL>
0

>  <SCORE.INTRA.REPUL.0>
0

>  <SCORE.INTRA.SOLV>
0.615798

>  <SCORE.INTRA.SOLV.lig_0>
-31.1706

>  <SCORE.INTRA.VDW>
-1.18469

>  <SCORE.INTRA.VDW.0>
-1.16895

>  <SCORE.INTRA.norm>
-0.294773

>  <SCORE.RESTR>
0

>  <SCORE.RESTR.CAVITY>
0

>  <SCORE.RESTR.norm>
0

>  <SCORE.SYSTEM>
0

>  <SCORE.SYSTEM.CONST>
0

>  <SCORE.SYSTEM.DIHEDRAL>
0

>  <SCORE.SYSTEM.SOLV>
0

>  <SCORE.SYSTEM.norm>
0

>  <SCORE.heavy>
23

>  <SCORE.norm>
-0.592175

>  <RMSD>
14.884

$$$$
ligand
 OpenBabel11021811513D
libRbt.so/2013.1/901 2013/11/27
 23 24  0  0  0  0  0  0  0  0999 V2000
   -7.5962    5.7082    1.4326 C   0  0  0  0  0  0  0  0  0  0  0  0
   -6.2660    5.1800    1.2675 O   0  0  0  0  0  0  0  0  0  0  0  0
   -8.4991    5.1217    0.3569 C   0  0  2  0  0  0  0  0  0  0  0  0
   -8.6023    3.6043    0.3421 C   0  0  1  0  0  0  0  0  0  0  0  0
   -9.5129    3.1811    1.3590 O   0  0  0  0  0  0  0  0  0  0  0  0
   -9.0913    3.3369   -1.0774 C   0  0  2  0  0  0  0  0  0  0  0  0
   -8.8741    2.0396   -1.6448 O   0  0  0  0  0  0  0  0  0  0  0  0
   -8.3212    4.3831   -1.8637 C   0  0  2  0  0  0  0  0  0  0  0  0
   -8.0485    5.4709   -0.9550 O   0  0  0  0  0  0  0  0  0  0  0  0
   -9.1992    4.8156   -3.0519 C   0  0  0  0  0  0  0  0  0  0  0  0
  -10.3974    5.4829   -2.6316 O   0  0  0  0  0  0  0  0  0  0  0  0
   -6.3060    4.6598   -3.1637 C   0  0  2  0  0  0  0  0  0  0  0  0
   -7.0576    3.8266   -2.2643 O   0  0  0  0  0  0  0  0  0  0  0  0
   -5.1196    3.8485   -3.6501 C   0  0  2  0  0  0  0  0  0  0  0  0
   -5.5754    2.5623   -4.0839 O   0  0  0  0  0  0  0  0  0  0  0  0
   -4.1252    3.6396   -2.5293 C   0  0  1  0  0  0  0  0  0  0  0  0
   -2.9244    3.0946   -3.0812 O   0  0  0  0  0  0  0  0  0  0  0  0
   -3.8299    4.9505   -1.8255 C   0  0  2  0  0  0  0  0  0  0  0  0
   -3.0376    4.6807   -0.6771 O   0  0  0  0  0  0  0  0  0  0  0  0
   -5.1029    5.6636   -1.3898 C   0  0  2  0  0  0  0  0  0  0  0  0
   -5.8898    5.8811   -2.5531 O   0  0  0  0  0  0  0  0  0  0  0  0
   -4.7941    6.9954   -0.6954 C   0  0  0  0  0  0  0  0  0  0  0  0
   -4.0476    7.8997   -1.5229 O   0  0  0  0  0  0  0  0  0  0  0  0
  1  2  1  0  0  0  0
  3  1  1  1  0  0  0
  3  9  1  0  0  0  0
  3  4  1  0  0  0  0
  4  5  1  1  0  0  0
  4  6  1  0  0  0  0
  6  7  1  6  0  0  0
  6  8  1  0  0  0  0
  8  9  1  0  0  0  0
  8 10  1  6  0  0  0
  8 13  1  0  0  0  0
 10 11  1  0  0  0  0
 12 13  1  1  0  0  0
 12 14  1  0  0  0  0
 12 21  1  0  0  0  0
 14 15  1  1  0  0  0
 14 16  1  0  0  0  0
 16 17  1  6  0  0  0
 16 18  1  0  0  0  0
 18 19  1  1  0  0  0
 18 20  1  0  0  0  0
 20 21  1  0  0  0  0
 20 22  1  6  0  0  0
 22 23  1  0  0  0  0
M  END
>  <CHROM.1>
58.57570062,65.11835935,-171.50289142,172.37567502,58.39617124,-6.60786251
4.60910954,-1.47161546,-2.98881222,-0.28880062,-2.19599281

>  <Name>
ligand

>  <RI>
0

>  <Rbt.Current_Directory>
/home/itssahil/PROJECTS/Mol_Feturizer/New_Systems/rnas/4TS2

>  <Rbt.Executable>
rbdock ($Id: //depot/dev/client3/rdock/2013.1/src/exe/rbdock.cxx#4 $)

>  <Rbt.Library>
libRbt.so (2013.1, Build901 2013/11/27)

>  <Rbt.Parameter_File>
/export/apps/rDock/src/rDock_2013.1_src/data/scripts/dock_solv.prm

>  <Rbt.Receptor>
prm/blind_docking_40.prm

>  <SCORE>
-12.2261

>  <SCORE.INTER>
-5.60122

>  <SCORE.INTER.CONST>
1

>  <SCORE.INTER.POLAR>
0

>  <SCORE.INTER.ROT>
5

>  <SCORE.INTER.SOLV>
10.1191

>  <SCORE.INTER.VDW>
-14.0405

>  <SCORE.INTER.norm>
-0.243531

>  <SCORE.INTRA>
-6.62487

>  <SCORE.INTRA.DIHEDRAL>
-11.5344

>  <SCORE.INTRA.DIHEDRAL.0>
12.4853

>  <SCORE.INTRA.POLAR>
0

>  <SCORE.INTRA.POLAR.0>
0

>  <SCORE.INTRA.REPUL>
0

>  <SCORE.INTRA.REPUL.0>
0

>  <SCORE.INTRA.SOLV>
1.09331

>  <SCORE.INTRA.SOLV.lig_0>
-31.1706

>  <SCORE.INTRA.VDW>
-1.4043

>  <SCORE.INTRA.VDW.0>
-1.16895

>  <SCORE.INTRA.norm>
-0.288038

>  <SCORE.RESTR>
0

>  <SCORE.RESTR.CAVITY>
0

>  <SCORE.RESTR.norm>
0

>  <SCORE.SYSTEM>
0

>  <SCORE.SYSTEM.CONST>
0

>  <SCORE.SYSTEM.DIHEDRAL>
0

>  <SCORE.SYSTEM.SOLV>
0

>  <SCORE.SYSTEM.norm>
0

>  <SCORE.heavy>
23

>  <SCORE.norm>
-0.531569

>  <RMSD>
14.908

$$$$
ligand
 OpenBabel11021811513D
libRbt.so/2013.1/901 2013/11/27
 23 24  0  0  0  0  0  0  0  0999 V2000
  -14.4876    6.2509    2.3080 C   0  0  0  0  0  0  0  0  0  0  0  0
  -14.9230    6.8761    3.5307 O   0  0  0  0  0  0  0  0  0  0  0  0
  -12.9663    6.2581    2.2623 C   0  0  2  0  0  0  0  0  0  0  0  0
  -12.3408    5.4965    1.1038 C   0  0  1  0  0  0  0  0  0  0  0  0
  -12.3954    6.3002   -0.0765 O   0  0  0  0  0  0  0  0  0  0  0  0
  -10.9272    5.2477    1.6188 C   0  0  2  0  0  0  0  0  0  0  0  0
  -10.1669    4.1771    1.0460 O   0  0  0  0  0  0  0  0  0  0  0  0
  -11.1861    4.9717    3.0894 C   0  0  2  0  0  0  0  0  0  0  0  0
  -12.4027    5.6665    3.4364 O   0  0  0  0  0  0  0  0  0  0  0  0
   -9.9701    5.4832    3.8828 C   0  0  0  0  0  0  0  0  0  0  0  0
  -10.0623    5.1779    5.2813 O   0  0  0  0  0  0  0  0  0  0  0  0
  -12.6815    3.1116    2.7270 C   0  0  2  0  0  0  0  0  0  0  0  0
  -11.4264    3.5650    3.2631 O   0  0  0  0  0  0  0  0  0  0  0  0
  -13.3311    2.2288    3.7763 C   0  0  2  0  0  0  0  0  0  0  0  0
  -13.2976    2.8989    5.0412 O   0  0  0  0  0  0  0  0  0  0  0  0
  -12.5739    0.9264    3.9157 C   0  0  1  0  0  0  0  0  0  0  0  0
  -13.3477    0.0334    4.7202 O   0  0  0  0  0  0  0  0  0  0  0  0
  -12.3128    0.3114    2.5540 C   0  0  2  0  0  0  0  0  0  0  0  0
  -11.4515   -0.8069    2.7185 O   0  0  0  0  0  0  0  0  0  0  0  0
  -11.6601    1.2999    1.5971 C   0  0  2  0  0  0  0  0  0  0  0  0
  -12.5252    2.4221    1.4869 O   0  0  0  0  0  0  0  0  0  0  0  0
  -11.4166    0.6740    0.2187 C   0  0  0  0  0  0  0  0  0  0  0  0
  -12.6303    0.3022   -0.4510 O   0  0  0  0  0  0  0  0  0  0  0  0
  1  2  1  0  0  0  0
  3  1  1  1  0  0  0
  3  9  1  0  0  0  0
  3  4  1  0  0  0  0
  4  5  1  6  0  0  0
  4  6  1  0  0  0  0
  6  7  1  6  0  0  0
  6  8  1  0  0  0  0
  8  9  1  0  0  0  0
  8 10  1  1  0  0  0
  8 13  1  0  0  0  0
 10 11  1  0  0  0  0
 12 13  1  1  0  0  0
 12 14  1  0  0  0  0
 12 21  1  0  0  0  0
 14 15  1  1  0  0  0
 14 16  1  0  0  0  0
 16 17  1  1  0  0  0
 16 18  1  0  0  0  0
 18 19  1  1  0  0  0
 18 20  1  0  0  0  0
 20 21  1  0  0  0  0
 20 22  1  6  0  0  0
 22 23  1  0  0  0  0
M  END
>  <CHROM.1>
173.54819528,-175.43657318,-133.73875532,-70.56588665,63.54193552,-12.20014334
3.42109651,2.57760185,-1.81746703,-1.40865150,2.95704477

>  <Name>
ligand

>  <RI>
0

>  <Rbt.Current_Directory>
/home/itssahil/PROJECTS/Mol_Feturizer/New_Systems/rnas/4TS2

>  <Rbt.Executable>
rbdock ($Id: //depot/dev/client3/rdock/2013.1/src/exe/rbdock.cxx#4 $)

>  <Rbt.Library>
libRbt.so (2013.1, Build901 2013/11/27)

>  <Rbt.Parameter_File>
/export/apps/rDock/src/rDock_2013.1_src/data/scripts/dock_solv.prm

>  <Rbt.Receptor>
prm/blind_docking_60.prm

>  <SCORE>
-5.80227

>  <SCORE.INTER>
-2.51093

>  <SCORE.INTER.CONST>
1

>  <SCORE.INTER.POLAR>
0

>  <SCORE.INTER.ROT>
5

>  <SCORE.INTER.SOLV>
7.55004

>  <SCORE.INTER.VDW>
-11.124

>  <SCORE.INTER.norm>
-0.109171

>  <SCORE.INTRA>
-3.29135

>  <SCORE.INTRA.DIHEDRAL>
-5.18108

>  <SCORE.INTRA.DIHEDRAL.0>
12.4853

>  <SCORE.INTRA.POLAR>
0

>  <SCORE.INTRA.POLAR.0>
0

>  <SCORE.INTRA.REPUL>
0

>  <SCORE.INTRA.REPUL.0>
0

>  <SCORE.INTRA.SOLV>
0.512726

>  <SCORE.INTRA.SOLV.lig_0>
-31.1706

>  <SCORE.INTRA.VDW>
-0.957167

>  <SCORE.INTRA.VDW.0>
-1.16895

>  <SCORE.INTRA.norm>
-0.143102

>  <SCORE.RESTR>
0

>  <SCORE.RESTR.CAVITY>
0

>  <SCORE.RESTR.norm>
0

>  <SCORE.SYSTEM>
0

>  <SCORE.SYSTEM.CONST>
0

>  <SCORE.SYSTEM.DIHEDRAL>
0

>  <SCORE.SYSTEM.SOLV>
0

>  <SCORE.SYSTEM.norm>
0

>  <SCORE.heavy>
23

>  <SCORE.norm>
-0.252273

>  <RMSD>
14.908

$$$$
ligand
 OpenBabel11021811513D
libRbt.so/2013.1/901 2013/11/27
 23 24  0  0  0  0  0  0  0  0999 V2000
   -6.5973    3.6301   -2.8990 C   0  0  0  0  0  0  0  0  0  0  0  0
   -6.9228    3.7992   -4.2921 O   0  0  0  0  0  0  0  0  0  0  0  0
   -7.8430    3.1783   -2.1504 C   0  0  2  0  0  0  0  0  0  0  0  0
   -9.0271    4.1311   -2.2113 C   0  0  1  0  0  0  0  0  0  0  0  0
   -9.7011    3.9704   -3.4612 O   0  0  0  0  0  0  0  0  0  0  0  0
   -9.8474    3.6894   -1.0040 C   0  0  2  0  0  0  0  0  0  0  0  0
  -10.7845    4.6125   -0.4367 O   0  0  0  0  0  0  0  0  0  0  0  0
   -8.7558    3.3729    0.0030 C   0  0  2  0  0  0  0  0  0  0  0  0
   -7.5833    3.0057   -0.7544 O   0  0  0  0  0  0  0  0  0  0  0  0
   -9.2617    2.2261    0.8966 C   0  0  0  0  0  0  0  0  0  0  0  0
  -10.4335    2.5890    1.6402 O   0  0  0  0  0  0  0  0  0  0  0  0
   -7.3426    4.4223    1.6550 C   0  0  2  0  0  0  0  0  0  0  0  0
   -8.4401    4.5680    0.7372 O   0  0  0  0  0  0  0  0  0  0  0  0
   -7.2810    5.6854    2.4935 C   0  0  2  0  0  0  0  0  0  0  0  0
   -8.5901    5.9843    2.9906 O   0  0  0  0  0  0  0  0  0  0  0  0
   -6.8198    6.8567    1.6542 C   0  0  1  0  0  0  0  0  0  0  0  0
   -6.5392    7.9570    2.5227 O   0  0  0  0  0  0  0  0  0  0  0  0
   -5.5821    6.4893    0.8580 C   0  0  2  0  0  0  0  0  0  0  0  0
   -5.2911    7.5487   -0.0433 O   0  0  0  0  0  0  0  0  0  0  0  0
   -5.7753    5.2049    0.0632 C   0  0  2  0  0  0  0  0  0  0  0  0
   -6.1050    4.1766    0.9873 O   0  0  0  0  0  0  0  0  0  0  0  0
   -4.5131    4.8331   -0.7238 C   0  0  0  0  0  0  0  0  0  0  0  0
   -3.3320    4.8041    0.0910 O   0  0  0  0  0  0  0  0  0  0  0  0
  1  2  1  0  0  0  0
  3  1  1  6  0  0  0
  3  9  1  0  0  0  0
  3  4  1  0  0  0  0
  4  5  1  6  0  0  0
  4  6  1  0  0  0  0
  6  7  1  1  0  0  0
  6  8  1  0  0  0  0
  8  9  1  0  0  0  0
  8 10  1  1  0  0  0
  8 13  1  0  0  0  0
 10 11  1  0  0  0  0
 12 13  1  6  0  0  0
 12 14  1  0  0  0  0
 12 21  1  0  0  0  0
 14 15  1  6  0  0  0
 14 16  1  0  0  0  0
 16 17  1  1  0  0  0
 16 18  1  0  0  0  0
 18 19  1  6  0  0  0
 18 20  1  0  0  0  0
 20 21  1  0  0  0  0
 20 22  1  1  0  0  0
 22 23  1  0  0  0  0
M  END
>  <CHROM.1>
-59.83343109,-62.11381515,-171.31195129,-175.41917106,51.94460704,-7.49559722
4.65228279,-0.06228500,-2.27697549,0.41418182,1.15797564

>  <Name>
ligand

>  <RI>
0

>  <Rbt.Current_Directory>
/home/itssahil/PROJECTS/Mol_Feturizer/New_Systems/rnas/4TS2

>  <Rbt.Executable>
rbdock ($Id: //depot/dev/client3/rdock/2013.1/src/exe/rbdock.cxx#4 $)

>  <Rbt.Library>
libRbt.so (2013.1, Build901 2013/11/27)

>  <Rbt.Parameter_File>
/export/apps/rDock/src/rDock_2013.1_src/data/scripts/dock_solv.prm

>  <Rbt.Receptor>
prm/blind_docking_100.prm

>  <SCORE>
-13.5571

>  <SCORE.INTER>
-6.85056

>  <SCORE.INTER.CONST>
1

>  <SCORE.INTER.POLAR>
0

>  <SCORE.INTER.ROT>
5

>  <SCORE.INTER.SOLV>
12.3185

>  <SCORE.INTER.VDW>
-15.6065

>  <SCORE.INTER.norm>
-0.29785

>  <SCORE.INTRA>
-6.70658

>  <SCORE.INTRA.DIHEDRAL>
-11.7782

>  <SCORE.INTRA.DIHEDRAL.0>
12.4853

>  <SCORE.INTRA.POLAR>
0

>  <SCORE.INTRA.POLAR.0>
0

>  <SCORE.INTRA.REPUL>
0

>  <SCORE.INTRA.REPUL.0>
0

>  <SCORE.INTRA.SOLV>
0.612871

>  <SCORE.INTRA.SOLV.lig_0>
-31.1706

>  <SCORE.INTRA.VDW>
-1.1239

>  <SCORE.INTRA.VDW.0>
-1.16895

>  <SCORE.INTRA.norm>
-0.29159

>  <SCORE.RESTR>
0

>  <SCORE.RESTR.CAVITY>
0

>  <SCORE.RESTR.norm>
0

>  <SCORE.SYSTEM>
0

>  <SCORE.SYSTEM.CONST>
0

>  <SCORE.SYSTEM.DIHEDRAL>
0

>  <SCORE.SYSTEM.SOLV>
0

>  <SCORE.SYSTEM.norm>
0

>  <SCORE.heavy>
23

>  <SCORE.norm>
-0.589441

>  <RMSD>
14.910

$$$$
ligand
 OpenBabel11021811513D
libRbt.so/2013.1/901 2013/11/27
 23 24  0  0  0  0  0  0  0  0999 V2000
   -7.0727    5.8012    1.5692 C   0  0  0  0  0  0  0  0  0  0  0  0
   -7.2043    7.2315    1.4575 O   0  0  0  0  0  0  0  0  0  0  0  0
   -8.0946    5.1369    0.6576 C   0  0  2  0  0  0  0  0  0  0  0  0
   -8.1401    3.6178    0.7198 C   0  0  1  0  0  0  0  0  0  0  0  0
   -8.8816    3.2125    1.8721 O   0  0  0  0  0  0  0  0  0  0  0  0
   -8.8130    3.2698   -0.6037 C   0  0  2  0  0  0  0  0  0  0  0  0
   -8.6277    1.9556   -1.1428 O   0  0  0  0  0  0  0  0  0  0  0  0
   -8.2022    4.3033   -1.5336 C   0  0  2  0  0  0  0  0  0  0  0  0
   -7.8467    5.4399   -0.7182 O   0  0  0  0  0  0  0  0  0  0  0  0
   -9.2546    4.6519   -2.6017 C   0  0  0  0  0  0  0  0  0  0  0  0
   -9.5901    3.5269   -3.4258 O   0  0  0  0  0  0  0  0  0  0  0  0
   -6.3164    4.6574   -2.9985 C   0  0  2  0  0  0  0  0  0  0  0  0
   -6.9869    3.7703   -2.0867 O   0  0  0  0  0  0  0  0  0  0  0  0
   -5.1517    3.8940   -3.6012 C   0  0  2  0  0  0  0  0  0  0  0  0
   -5.6122    2.6177   -4.0585 O   0  0  0  0  0  0  0  0  0  0  0  0
   -4.0772    3.6597   -2.5622 C   0  0  1  0  0  0  0  0  0  0  0  0
   -2.9080    3.1654   -3.2195 O   0  0  0  0  0  0  0  0  0  0  0  0
   -3.7584    4.9457   -1.8236 C   0  0  2  0  0  0  0  0  0  0  0  0
   -2.8824    4.6449   -0.7458 O   0  0  0  0  0  0  0  0  0  0  0  0
   -5.0110    5.6113   -1.2698 C   0  0  2  0  0  0  0  0  0  0  0  0
   -5.8817    5.8605   -2.3650 O   0  0  0  0  0  0  0  0  0  0  0  0
   -4.6798    6.9188   -0.5406 C   0  0  0  0  0  0  0  0  0  0  0  0
   -4.0655    7.8964   -1.3929 O   0  0  0  0  0  0  0  0  0  0  0  0
  1  2  1  0  0  0  0
  3  1  1  1  0  0  0
  3  9  1  0  0  0  0
  3  4  1  0  0  0  0
  4  5  1  1  0  0  0
  4  6  1  0  0  0  0
  6  7  1  6  0  0  0
  6  8  1  0  0  0  0
  8  9  1  0  0  0  0
  8 10  1  6  0  0  0
  8 13  1  0  0  0  0
 10 11  1  0  0  0  0
 12 13  1  1  0  0  0
 12 14  1  0  0  0  0
 12 21  1  0  0  0  0
 14 15  1  1  0  0  0
 14 16  1  0  0  0  0
 16 17  1  6  0  0  0
 16 18  1  0  0  0  0
 18 19  1  1  0  0  0
 18 20  1  0  0  0  0
 20 21  1  0  0  0  0
 20 22  1  6  0  0  0
 22 23  1  0  0  0  0
M  END
>  <CHROM.1>
-176.61878930,-63.58687442,-173.89023665,179.50269693,61.05551938,-6.47318859
4.59985180,-1.32589545,-2.93600357,-0.39022399,-2.24683894

>  <Name>
ligand

>  <RI>
0

>  <Rbt.Current_Directory>
/home/itssahil/PROJECTS/Mol_Feturizer/New_Systems/rnas/4TS2

>  <Rbt.Executable>
rbdock ($Id: //depot/dev/client3/rdock/2013.1/src/exe/rbdock.cxx#4 $)

>  <Rbt.Library>
libRbt.so (2013.1, Build901 2013/11/27)

>  <Rbt.Parameter_File>
/export/apps/rDock/src/rDock_2013.1_src/data/scripts/dock_solv.prm

>  <Rbt.Receptor>
prm/blind_docking_40.prm

>  <SCORE>
-13.3696

>  <SCORE.INTER>
-6.07855

>  <SCORE.INTER.CONST>
1

>  <SCORE.INTER.POLAR>
0

>  <SCORE.INTER.ROT>
5

>  <SCORE.INTER.SOLV>
10.5266

>  <SCORE.INTER.VDW>
-14.4946

>  <SCORE.INTER.norm>
-0.264285

>  <SCORE.INTRA>
-7.2911

>  <SCORE.INTRA.DIHEDRAL>
-12.1579

>  <SCORE.INTRA.DIHEDRAL.0>
12.4853

>  <SCORE.INTRA.POLAR>
0

>  <SCORE.INTRA.POLAR.0>
0

>  <SCORE.INTRA.REPUL>
0

>  <SCORE.INTRA.REPUL.0>
0

>  <SCORE.INTRA.SOLV>
0.49963

>  <SCORE.INTRA.SOLV.lig_0>
-31.1706

>  <SCORE.INTRA.VDW>
-1.46198

>  <SCORE.INTRA.VDW.0>
-1.16895

>  <SCORE.INTRA.norm>
-0.317004

>  <SCORE.RESTR>
0

>  <SCORE.RESTR.CAVITY>
0

>  <SCORE.RESTR.norm>
0

>  <SCORE.SYSTEM>
0

>  <SCORE.SYSTEM.CONST>
0

>  <SCORE.SYSTEM.DIHEDRAL>
0

>  <SCORE.SYSTEM.SOLV>
0

>  <SCORE.SYSTEM.norm>
0

>  <SCORE.heavy>
23

>  <SCORE.norm>
-0.581289

>  <RMSD>
14.917

$$$$
ligand
 OpenBabel11021811513D
libRbt.so/2013.1/901 2013/11/27
 23 24  0  0  0  0  0  0  0  0999 V2000
   -9.1419    2.0186    0.6249 C   0  0  0  0  0  0  0  0  0  0  0  0
   -9.4882    1.2684   -0.5552 O   0  0  0  0  0  0  0  0  0  0  0  0
  -10.0179    1.5565    1.7806 C   0  0  2  0  0  0  0  0  0  0  0  0
  -11.5158    1.7242    1.5766 C   0  0  1  0  0  0  0  0  0  0  0  0
  -12.0052    0.6589    0.7594 O   0  0  0  0  0  0  0  0  0  0  0  0
  -12.0331    1.6925    3.0108 C   0  0  2  0  0  0  0  0  0  0  0  0
  -13.3109    2.2757    3.2921 O   0  0  0  0  0  0  0  0  0  0  0  0
  -10.9422    2.4548    3.7419 C   0  0  2  0  0  0  0  0  0  0  0  0
   -9.7285    2.2791    2.9807 O   0  0  0  0  0  0  0  0  0  0  0  0
  -10.8350    1.8714    5.1624 C   0  0  0  0  0  0  0  0  0  0  0  0
   -9.7642    2.4585    5.9150 O   0  0  0  0  0  0  0  0  0  0  0  0
  -10.3480    4.6785    4.4698 C   0  0  2  0  0  0  0  0  0  0  0  0
  -11.2638    3.8560    3.7263 O   0  0  0  0  0  0  0  0  0  0  0  0
  -11.0033    6.0344    4.6554 C   0  0  2  0  0  0  0  0  0  0  0  0
  -12.3411    5.8492    5.1309 O   0  0  0  0  0  0  0  0  0  0  0  0
  -11.0726    6.7743    3.3376 C   0  0  1  0  0  0  0  0  0  0  0  0
  -11.4625    8.1256    3.5937 O   0  0  0  0  0  0  0  0  0  0  0  0
   -9.7288    6.7415    2.6348 C   0  0  2  0  0  0  0  0  0  0  0  0
   -9.8844    7.2873    1.3320 O   0  0  0  0  0  0  0  0  0  0  0  0
   -9.1824    5.3252    2.5140 C   0  0  2  0  0  0  0  0  0  0  0  0
   -9.0781    4.7944    3.8282 O   0  0  0  0  0  0  0  0  0  0  0  0
   -7.8163    5.3050    1.8182 C   0  0  0  0  0  0  0  0  0  0  0  0
   -7.2661    3.9847    1.7005 O   0  0  0  0  0  0  0  0  0  0  0  0
  1  2  1  0  0  0  0
  3  1  1  6  0  0  0
  3  9  1  0  0  0  0
  3  4  1  0  0  0  0
  4  5  1  6  0  0  0
  4  6  1  0  0  0  0
  6  7  1  6  0  0  0
  6  8  1  0  0  0  0
  8  9  1  0  0  0  0
  8 10  1  1  0  0  0
  8 13  1  0  0  0  0
 10 11  1  0  0  0  0
 12 13  1  6  0  0  0
 12 14  1  0  0  0  0
 12 21  1  0  0  0  0
 14 15  1  6  0  0  0
 14 16  1  0  0  0  0
 16 17  1  1  0  0  0
 16 18  1  0  0  0  0
 18 19  1  6  0  0  0
 18 20  1  0  0  0  0
 20 21  1  0  0  0  0
 20 22  1  1  0  0  0
 22 23  1  0  0  0  0
M  END
>  <CHROM.1>
-59.75319283,175.88570851,-165.72432864,175.97487072,179.38718139,-10.39990593
3.86956237,2.90528608,-1.61839357,0.84647060,0.37882140

>  <Name>
ligand

>  <RI>
0

>  <Rbt.Current_Directory>
/home/itssahil/PROJECTS/Mol_Feturizer/New_Systems/rnas/4TS2

>  <Rbt.Executable>
rbdock ($Id: //depot/dev/client3/rdock/2013.1/src/exe/rbdock.cxx#4 $)

>  <Rbt.Library>
libRbt.so (2013.1, Build901 2013/11/27)

>  <Rbt.Parameter_File>
/export/apps/rDock/src/rDock_2013.1_src/data/scripts/dock_solv.prm

>  <Rbt.Receptor>
prm/blind_docking_60.prm

>  <SCORE>
-9.73597

>  <SCORE.INTER>
-3.46711

>  <SCORE.INTER.CONST>
1

>  <SCORE.INTER.POLAR>
0

>  <SCORE.INTER.ROT>
5

>  <SCORE.INTER.SOLV>
8.49903

>  <SCORE.INTER.VDW>
-12.0778

>  <SCORE.INTER.norm>
-0.150744

>  <SCORE.INTRA>
-6.26885

>  <SCORE.INTRA.DIHEDRAL>
-11.2918

>  <SCORE.INTRA.DIHEDRAL.0>
12.4853

>  <SCORE.INTRA.POLAR>
0

>  <SCORE.INTRA.POLAR.0>
0

>  <SCORE.INTRA.REPUL>
0

>  <SCORE.INTRA.REPUL.0>
0

>  <SCORE.INTRA.SOLV>
0.742758

>  <SCORE.INTRA.SOLV.lig_0>
-31.1706

>  <SCORE.INTRA.VDW>
-0.994326

>  <SCORE.INTRA.VDW.0>
-1.16895

>  <SCORE.INTRA.norm>
-0.272559

>  <SCORE.RESTR>
0

>  <SCORE.RESTR.CAVITY>
0

>  <SCORE.RESTR.norm>
0

>  <SCORE.SYSTEM>
0

>  <SCORE.SYSTEM.CONST>
0

>  <SCORE.SYSTEM.DIHEDRAL>
0

>  <SCORE.SYSTEM.SOLV>
0

>  <SCORE.SYSTEM.norm>
0

>  <SCORE.heavy>
23

>  <SCORE.norm>
-0.423303

>  <RMSD>
14.971

$$$$
ligand
 OpenBabel11021811513D
libRbt.so/2013.1/901 2013/11/27
 23 24  0  0  0  0  0  0  0  0999 V2000
   -3.5251    3.2620   -2.7319 C   0  0  0  0  0  0  0  0  0  0  0  0
   -2.4558    4.0137   -3.3377 O   0  0  0  0  0  0  0  0  0  0  0  0
   -4.8400    3.6502   -3.3927 C   0  0  2  0  0  0  0  0  0  0  0  0
   -5.2124    5.1219   -3.2988 C   0  0  1  0  0  0  0  0  0  0  0  0
   -4.4828    5.8592   -4.2819 O   0  0  0  0  0  0  0  0  0  0  0  0
   -6.7167    5.0811   -3.5456 C   0  0  2  0  0  0  0  0  0  0  0  0
   -7.5170    6.1774   -3.0874 O   0  0  0  0  0  0  0  0  0  0  0  0
   -7.1083    3.8104   -2.8122 C   0  0  2  0  0  0  0  0  0  0  0  0
   -5.9460    2.9547   -2.8105 O   0  0  0  0  0  0  0  0  0  0  0  0
   -8.2980    3.1848   -3.5625 C   0  0  0  0  0  0  0  0  0  0  0  0
   -8.9204    2.1294   -2.8166 O   0  0  0  0  0  0  0  0  0  0  0  0
   -6.4341    3.6607   -0.4991 C   0  0  2  0  0  0  0  0  0  0  0  0
   -7.4077    4.1366   -1.4444 O   0  0  0  0  0  0  0  0  0  0  0  0
   -7.1119    3.5954    0.8569 C   0  0  2  0  0  0  0  0  0  0  0  0
   -8.3659    2.9172    0.7239 O   0  0  0  0  0  0  0  0  0  0  0  0
   -7.3857    4.9882    1.3802 C   0  0  1  0  0  0  0  0  0  0  0  0
   -7.7910    4.8898    2.7475 O   0  0  0  0  0  0  0  0  0  0  0  0
   -6.1475    5.8565    1.2625 C   0  0  2  0  0  0  0  0  0  0  0  0
   -6.4971    7.1932    1.5949 O   0  0  0  0  0  0  0  0  0  0  0  0
   -5.5666    5.8343   -0.1449 C   0  0  2  0  0  0  0  0  0  0  0  0
   -5.2669    4.4816   -0.4617 O   0  0  0  0  0  0  0  0  0  0  0  0
   -4.3058    6.7007   -0.2487 C   0  0  0  0  0  0  0  0  0  0  0  0
   -3.2900    6.3283    0.6942 O   0  0  0  0  0  0  0  0  0  0  0  0
  1  2  1  0  0  0  0
  3  1  1  1  0  0  0
  3  9  1  0  0  0  0
  3  4  1  0  0  0  0
  4  5  1  6  0  0  0
  4  6  1  0  0  0  0
  6  7  1  1  0  0  0
  6  8  1  0  0  0  0
  8  9  1  0  0  0  0
  8 10  1  6  0  0  0
  8 13  1  0  0  0  0
 10 11  1  0  0  0  0
 12 13  1  6  0  0  0
 12 14  1  0  0  0  0
 12 21  1  0  0  0  0
 14 15  1  6  0  0  0
 14 16  1  0  0  0  0
 16 17  1  1  0  0  0
 16 18  1  0  0  0  0
 18 19  1  6  0  0  0
 18 20  1  0  0  0  0
 20 21  1  0  0  0  0
 20 22  1  1  0  0  0
 22 23  1  0  0  0  0
M  END
>  <CHROM.1>
-59.13305460,-168.41824505,-158.67613879,-109.44273179,56.10086815,-6.10931007
4.60576268,-1.26055810,-1.25537717,0.46986000,1.19265878

>  <Name>
ligand

>  <RI>
0

>  <Rbt.Current_Directory>
/home/itssahil/PROJECTS/Mol_Feturizer/New_Systems/rnas/4TS2

>  <Rbt.Executable>
rbdock ($Id: //depot/dev/client3/rdock/2013.1/src/exe/rbdock.cxx#4 $)

>  <Rbt.Library>
libRbt.so (2013.1, Build901 2013/11/27)

>  <Rbt.Parameter_File>
/export/apps/rDock/src/rDock_2013.1_src/data/scripts/dock_solv.prm

>  <Rbt.Receptor>
prm/blind_docking_100.prm

>  <SCORE>
-12.0294

>  <SCORE.INTER>
-10.4668

>  <SCORE.INTER.CONST>
1

>  <SCORE.INTER.POLAR>
0

>  <SCORE.INTER.ROT>
5

>  <SCORE.INTER.SOLV>
12.8516

>  <SCORE.INTER.VDW>
-18.195

>  <SCORE.INTER.norm>
-0.455077

>  <SCORE.INTRA>
-1.56259

>  <SCORE.INTRA.DIHEDRAL>
-3.08299

>  <SCORE.INTRA.DIHEDRAL.0>
12.4853

>  <SCORE.INTRA.POLAR>
0

>  <SCORE.INTRA.POLAR.0>
0

>  <SCORE.INTRA.REPUL>
0

>  <SCORE.INTRA.REPUL.0>
0

>  <SCORE.INTRA.SOLV>
0.944969

>  <SCORE.INTRA.SOLV.lig_0>
-31.1706

>  <SCORE.INTRA.VDW>
-0.493582

>  <SCORE.INTRA.VDW.0>
-1.16895

>  <SCORE.INTRA.norm>
-0.0679388

>  <SCORE.RESTR>
0

>  <SCORE.RESTR.CAVITY>
0

>  <SCORE.RESTR.norm>
0

>  <SCORE.SYSTEM>
0

>  <SCORE.SYSTEM.CONST>
0

>  <SCORE.SYSTEM.DIHEDRAL>
0

>  <SCORE.SYSTEM.SOLV>
0

>  <SCORE.SYSTEM.norm>
0

>  <SCORE.heavy>
23

>  <SCORE.norm>
-0.523015

>  <RMSD>
15.032

$$$$
ligand
 OpenBabel11021811513D
libRbt.so/2013.1/901 2013/11/27
 23 24  0  0  0  0  0  0  0  0999 V2000
   -3.9048    3.4628   -2.4777 C   0  0  0  0  0  0  0  0  0  0  0  0
   -2.9046    4.0278   -3.3471 O   0  0  0  0  0  0  0  0  0  0  0  0
   -5.2652    3.5709   -3.1514 C   0  0  2  0  0  0  0  0  0  0  0  0
   -5.7512    4.9858   -3.4258 C   0  0  1  0  0  0  0  0  0  0  0  0
   -5.1120    5.4870   -4.6015 O   0  0  0  0  0  0  0  0  0  0  0  0
   -7.2540    4.7771   -3.5791 C   0  0  2  0  0  0  0  0  0  0  0  0
   -8.1257    5.8969   -3.3835 O   0  0  0  0  0  0  0  0  0  0  0  0
   -7.5212    3.7203   -2.5219 C   0  0  2  0  0  0  0  0  0  0  0  0
   -6.2946    2.9781   -2.3545 O   0  0  0  0  0  0  0  0  0  0  0  0
   -8.6785    2.8381   -3.0240 C   0  0  0  0  0  0  0  0  0  0  0  0
   -9.9088    3.5660   -3.1428 O   0  0  0  0  0  0  0  0  0  0  0  0
   -7.3304    3.6643   -0.1160 C   0  0  2  0  0  0  0  0  0  0  0  0
   -7.8057    4.3736   -1.2732 O   0  0  0  0  0  0  0  0  0  0  0  0
   -8.1372    4.1462    1.0752 C   0  0  2  0  0  0  0  0  0  0  0  0
   -9.5298    4.1156    0.7436 O   0  0  0  0  0  0  0  0  0  0  0  0
   -7.7695    5.5720    1.4225 C   0  0  1  0  0  0  0  0  0  0  0  0
   -8.3591    5.9006    2.6826 O   0  0  0  0  0  0  0  0  0  0  0  0
   -6.2628    5.7338    1.4915 C   0  0  2  0  0  0  0  0  0  0  0  0
   -5.9609    7.1143    1.6414 O   0  0  0  0  0  0  0  0  0  0  0  0
   -5.5749    5.2121    0.2371 C   0  0  2  0  0  0  0  0  0  0  0  0
   -5.9298    3.8434    0.0935 O   0  0  0  0  0  0  0  0  0  0  0  0
   -4.0517    5.3641    0.3243 C   0  0  0  0  0  0  0  0  0  0  0  0
   -3.6295    6.7316    0.4309 O   0  0  0  0  0  0  0  0  0  0  0  0
  1  2  1  0  0  0  0
  3  1  1  1  0  0  0
  3  9  1  0  0  0  0
  3  4  1  0  0  0  0
  4  5  1  6  0  0  0
  4  6  1  0  0  0  0
  6  7  1  1  0  0  0
  6  8  1  0  0  0  0
  8  9  1  0  0  0  0
  8 10  1  6  0  0  0
  8 13  1  0  0  0  0
 10 11  1  0  0  0  0
 12 13  1  6  0  0  0
 12 14  1  0  0  0  0
 12 21  1  0  0  0  0
 14 15  1  6  0  0  0
 14 16  1  0  0  0  0
 16 17  1  1  0  0  0
 16 18  1  0  0  0  0
 18 19  1  6  0  0  0
 18 20  1  0  0  0  0
 20 21  1  0  0  0  0
 20 22  1  1  0  0  0
 22 23  1  0  0  0  0
M  END
>  <CHROM.1>
-62.61223687,-64.74916254,-158.30647386,-145.66898930,-62.24311465,-6.56748790
4.67681280,-1.14226230,-1.31249828,0.21938517,1.24775145

>  <Name>
ligand

>  <RI>
0

>  <Rbt.Current_Directory>
/home/itssahil/PROJECTS/Mol_Feturizer/New_Systems/rnas/4TS2

>  <Rbt.Executable>
rbdock ($Id: //depot/dev/client3/rdock/2013.1/src/exe/rbdock.cxx#4 $)

>  <Rbt.Library>
libRbt.so (2013.1, Build901 2013/11/27)

>  <Rbt.Parameter_File>
/export/apps/rDock/src/rDock_2013.1_src/data/scripts/dock_solv.prm

>  <Rbt.Receptor>
prm/blind_docking_20.prm

>  <SCORE>
-11.5971

>  <SCORE.INTER>
-7.92291

>  <SCORE.INTER.CONST>
1

>  <SCORE.INTER.POLAR>
0

>  <SCORE.INTER.ROT>
5

>  <SCORE.INTER.SOLV>
12.0772

>  <SCORE.INTER.VDW>
-16.241

>  <SCORE.INTER.norm>
-0.344474

>  <SCORE.INTRA>
-3.67417

>  <SCORE.INTRA.DIHEDRAL>
-6.15944

>  <SCORE.INTRA.DIHEDRAL.0>
12.4853

>  <SCORE.INTRA.POLAR>
0

>  <SCORE.INTRA.POLAR.0>
0

>  <SCORE.INTRA.REPUL>
0

>  <SCORE.INTRA.REPUL.0>
0

>  <SCORE.INTRA.SOLV>
0.75542

>  <SCORE.INTRA.SOLV.lig_0>
-31.1706

>  <SCORE.INTRA.VDW>
-0.972165

>  <SCORE.INTRA.VDW.0>
-1.16895

>  <SCORE.INTRA.norm>
-0.159747

>  <SCORE.RESTR>
0

>  <SCORE.RESTR.CAVITY>
0

>  <SCORE.RESTR.norm>
0

>  <SCORE.SYSTEM>
0

>  <SCORE.SYSTEM.CONST>
0

>  <SCORE.SYSTEM.DIHEDRAL>
0

>  <SCORE.SYSTEM.SOLV>
0

>  <SCORE.SYSTEM.norm>
0

>  <SCORE.heavy>
23

>  <SCORE.norm>
-0.504221

>  <RMSD>
15.034

$$$$
ligand
 OpenBabel11021811513D
libRbt.so/2013.1/901 2013/11/27
 23 24  0  0  0  0  0  0  0  0999 V2000
   -7.1214    5.8603    1.4609 C   0  0  0  0  0  0  0  0  0  0  0  0
   -7.1705    7.2968    1.3637 O   0  0  0  0  0  0  0  0  0  0  0  0
   -8.1394    5.2635    0.4996 C   0  0  2  0  0  0  0  0  0  0  0  0
   -8.2678    3.7484    0.5370 C   0  0  1  0  0  0  0  0  0  0  0  0
   -9.0757    3.3685    1.6529 O   0  0  0  0  0  0  0  0  0  0  0  0
   -8.9043    3.4541   -0.8172 C   0  0  2  0  0  0  0  0  0  0  0  0
   -8.7673    2.1389   -1.3682 O   0  0  0  0  0  0  0  0  0  0  0  0
   -8.2025    4.4653   -1.7065 C   0  0  2  0  0  0  0  0  0  0  0  0
   -7.8204    5.5706   -0.8605 O   0  0  0  0  0  0  0  0  0  0  0  0
   -9.1909    4.8836   -2.8100 C   0  0  0  0  0  0  0  0  0  0  0  0
  -10.3471    5.5499   -2.2840 O   0  0  0  0  0  0  0  0  0  0  0  0
   -6.2605    4.7242   -3.1169 C   0  0  2  0  0  0  0  0  0  0  0  0
   -6.9958    3.8752   -2.2189 O   0  0  0  0  0  0  0  0  0  0  0  0
   -5.0964    3.9144   -3.6568 C   0  0  2  0  0  0  0  0  0  0  0  0
   -5.5774    2.6445   -4.1111 O   0  0  0  0  0  0  0  0  0  0  0  0
   -4.0738    3.6666   -2.5698 C   0  0  1  0  0  0  0  0  0  0  0  0
   -2.8944    3.1245   -3.1687 O   0  0  0  0  0  0  0  0  0  0  0  0
   -3.7456    4.9556   -1.8407 C   0  0  2  0  0  0  0  0  0  0  0  0
   -2.9249    4.6481   -0.7220 O   0  0  0  0  0  0  0  0  0  0  0  0
   -4.9986    5.6695   -1.3516 C   0  0  2  0  0  0  0  0  0  0  0  0
   -5.8149    5.9250   -2.4866 O   0  0  0  0  0  0  0  0  0  0  0  0
   -4.6569    6.9795   -0.6317 C   0  0  0  0  0  0  0  0  0  0  0  0
   -3.9636    7.9158   -1.4697 O   0  0  0  0  0  0  0  0  0  0  0  0
  1  2  1  0  0  0  0
  3  1  1  1  0  0  0
  3  9  1  0  0  0  0
  3  4  1  0  0  0  0
  4  5  1  1  0  0  0
  4  6  1  0  0  0  0
  6  7  1  6  0  0  0
  6  8  1  0  0  0  0
  8  9  1  0  0  0  0
  8 10  1  6  0  0  0
  8 13  1  0  0  0  0
 10 11  1  0  0  0  0
 12 13  1  1  0  0  0
 12 14  1  0  0  0  0
 12 21  1  0  0  0  0
 14 15  1  1  0  0  0
 14 16  1  0  0  0  0
 16 17  1  6  0  0  0
 16 18  1  0  0  0  0
 18 19  1  1  0  0  0
 18 20  1  0  0  0  0
 20 21  1  0  0  0  0
 20 22  1  6  0  0  0
 22 23  1  0  0  0  0
M  END
>  <CHROM.1>
-176.73123434,63.44499805,-175.02950300,177.99488571,60.37457683,-6.51783895
4.77491258,-1.37444278,-2.89067894,-0.31120704,-2.32740894

>  <Name>
ligand

>  <RI>
0

>  <Rbt.Current_Directory>
/home/itssahil/PROJECTS/Mol_Feturizer/New_Systems/rnas/4TS2

>  <Rbt.Executable>
rbdock ($Id: //depot/dev/client3/rdock/2013.1/src/exe/rbdock.cxx#4 $)

>  <Rbt.Library>
libRbt.so (2013.1, Build901 2013/11/27)

>  <Rbt.Parameter_File>
/export/apps/rDock/src/rDock_2013.1_src/data/scripts/dock_solv.prm

>  <Rbt.Receptor>
prm/blind_docking_100.prm

>  <SCORE>
-13.6325

>  <SCORE.INTER>
-6.3848

>  <SCORE.INTER.CONST>
1

>  <SCORE.INTER.POLAR>
0

>  <SCORE.INTER.ROT>
5

>  <SCORE.INTER.SOLV>
9.71543

>  <SCORE.INTER.VDW>
-14.4283

>  <SCORE.INTER.norm>
-0.2776

>  <SCORE.INTRA>
-7.24766

>  <SCORE.INTRA.DIHEDRAL>
-12.1394

>  <SCORE.INTRA.DIHEDRAL.0>
12.4853

>  <SCORE.INTRA.POLAR>
0

>  <SCORE.INTRA.POLAR.0>
0

>  <SCORE.INTRA.REPUL>
0

>  <SCORE.INTRA.REPUL.0>
0

>  <SCORE.INTRA.SOLV>
0.345143

>  <SCORE.INTRA.SOLV.lig_0>
-31.1706

>  <SCORE.INTRA.VDW>
-1.35054

>  <SCORE.INTRA.VDW.0>
-1.16895

>  <SCORE.INTRA.norm>
-0.315115

>  <SCORE.RESTR>
0

>  <SCORE.RESTR.CAVITY>
0

>  <SCORE.RESTR.norm>
0

>  <SCORE.SYSTEM>
0

>  <SCORE.SYSTEM.CONST>
0

>  <SCORE.SYSTEM.DIHEDRAL>
0

>  <SCORE.SYSTEM.SOLV>
0

>  <SCORE.SYSTEM.norm>
0

>  <SCORE.heavy>
23

>  <SCORE.norm>
-0.592715

>  <RMSD>
15.067

$$$$
ligand
 OpenBabel11021811513D
libRbt.so/2013.1/901 2013/11/27
 23 24  0  0  0  0  0  0  0  0999 V2000
   -9.9949    6.2816    4.6211 C   0  0  0  0  0  0  0  0  0  0  0  0
  -10.6906    7.5096    4.3323 O   0  0  0  0  0  0  0  0  0  0  0  0
  -10.9353    5.1101    4.3771 C   0  0  2  0  0  0  0  0  0  0  0  0
  -10.3787    3.7381    4.7254 C   0  0  1  0  0  0  0  0  0  0  0  0
  -10.4673    3.5351    6.1372 O   0  0  0  0  0  0  0  0  0  0  0  0
  -11.2802    2.8176    3.9096 C   0  0  2  0  0  0  0  0  0  0  0  0
  -10.8091    1.5030    3.5901 O   0  0  0  0  0  0  0  0  0  0  0  0
  -11.4651    3.6262    2.6377 C   0  0  2  0  0  0  0  0  0  0  0  0
  -11.3091    5.0147    2.9997 O   0  0  0  0  0  0  0  0  0  0  0  0
  -12.8684    3.3164    2.0860 C   0  0  0  0  0  0  0  0  0  0  0  0
  -13.9103    3.7144    2.9880 O   0  0  0  0  0  0  0  0  0  0  0  0
  -10.2080    4.2696    0.6798 C   0  0  2  0  0  0  0  0  0  0  0  0
  -10.4087    3.2969    1.7198 O   0  0  0  0  0  0  0  0  0  0  0  0
   -9.5390    3.5600   -0.4827 C   0  0  2  0  0  0  0  0  0  0  0  0
  -10.2495    2.3499   -0.7670 O   0  0  0  0  0  0  0  0  0  0  0  0
   -8.1135    3.1949   -0.1311 C   0  0  1  0  0  0  0  0  0  0  0  0
   -7.4487    2.7587   -1.3191 O   0  0  0  0  0  0  0  0  0  0  0  0
   -7.3887    4.3854    0.4673 C   0  0  2  0  0  0  0  0  0  0  0  0
   -6.1218    3.9529    0.9440 O   0  0  0  0  0  0  0  0  0  0  0  0
   -8.1648    5.0046    1.6219 C   0  0  2  0  0  0  0  0  0  0  0  0
   -9.4392    5.3878    1.1228 O   0  0  0  0  0  0  0  0  0  0  0  0
   -7.4324    6.2174    2.2080 C   0  0  0  0  0  0  0  0  0  0  0  0
   -7.2352    7.2696    1.2522 O   0  0  0  0  0  0  0  0  0  0  0  0
  1  2  1  0  0  0  0
  3  1  1  6  0  0  0
  3  9  1  0  0  0  0
  3  4  1  0  0  0  0
  4  5  1  1  0  0  0
  4  6  1  0  0  0  0
  6  7  1  6  0  0  0
  6  8  1  0  0  0  0
  8  9  1  0  0  0  0
  8 10  1  6  0  0  0
  8 13  1  0  0  0  0
 10 11  1  0  0  0  0
 12 13  1  1  0  0  0
 12 14  1  0  0  0  0
 12 21  1  0  0  0  0
 14 15  1  1  0  0  0
 14 16  1  0  0  0  0
 16 17  1  6  0  0  0
 16 18  1  0  0  0  0
 18 19  1  1  0  0  0
 18 20  1  0  0  0  0
 20 21  1  0  0  0  0
 20 22  1  6  0  0  0
 22 23  1  0  0  0  0
M  END
>  <CHROM.1>
-176.14057728,62.52681976,-156.38898970,-161.05481853,60.54768550,-9.81812798
4.25956190,2.16069792,-2.55704184,-0.60470399,-2.28557918

>  <Name>
ligand

>  <RI>
0

>  <Rbt.Current_Directory>
/home/itssahil/PROJECTS/Mol_Feturizer/New_Systems/rnas/4TS2

>  <Rbt.Executable>
rbdock ($Id: //depot/dev/client3/rdock/2013.1/src/exe/rbdock.cxx#4 $)

>  <Rbt.Library>
libRbt.so (2013.1, Build901 2013/11/27)

>  <Rbt.Parameter_File>
/export/apps/rDock/src/rDock_2013.1_src/data/scripts/dock_solv.prm

>  <Rbt.Receptor>
prm/blind_docking_80.prm

>  <SCORE>
-10.3997

>  <SCORE.INTER>
-4.54457

>  <SCORE.INTER.CONST>
1

>  <SCORE.INTER.POLAR>
0

>  <SCORE.INTER.ROT>
5

>  <SCORE.INTER.SOLV>
7.60618

>  <SCORE.INTER.VDW>
-12.4984

>  <SCORE.INTER.norm>
-0.19759

>  <SCORE.INTRA>
-5.85516

>  <SCORE.INTRA.DIHEDRAL>
-8.53516

>  <SCORE.INTRA.DIHEDRAL.0>
12.4853

>  <SCORE.INTRA.POLAR>
0

>  <SCORE.INTRA.POLAR.0>
0

>  <SCORE.INTRA.REPUL>
0

>  <SCORE.INTRA.REPUL.0>
0

>  <SCORE.INTRA.SOLV>
0.167876

>  <SCORE.INTRA.SOLV.lig_0>
-31.1706

>  <SCORE.INTRA.VDW>
-1.67152

>  <SCORE.INTRA.VDW.0>
-1.16895

>  <SCORE.INTRA.norm>
-0.254572

>  <SCORE.RESTR>
0

>  <SCORE.RESTR.CAVITY>
0

>  <SCORE.RESTR.norm>
0

>  <SCORE.SYSTEM>
0

>  <SCORE.SYSTEM.CONST>
0

>  <SCORE.SYSTEM.DIHEDRAL>
0

>  <SCORE.SYSTEM.SOLV>
0

>  <SCORE.SYSTEM.norm>
0

>  <SCORE.heavy>
23

>  <SCORE.norm>
-0.452163

>  <RMSD>
15.071

$$$$
ligand
 OpenBabel11021811513D
libRbt.so/2013.1/901 2013/11/27
 23 24  0  0  0  0  0  0  0  0999 V2000
   -3.9349    3.6046   -2.4814 C   0  0  0  0  0  0  0  0  0  0  0  0
   -2.9779    4.3271   -3.2799 O   0  0  0  0  0  0  0  0  0  0  0  0
   -5.3144    3.7519   -3.1074 C   0  0  2  0  0  0  0  0  0  0  0  0
   -5.8357    5.1763   -3.2193 C   0  0  1  0  0  0  0  0  0  0  0  0
   -5.2375    5.8126   -4.3505 O   0  0  0  0  0  0  0  0  0  0  0  0
   -7.3375    4.9507   -3.3581 C   0  0  2  0  0  0  0  0  0  0  0  0
   -8.2261    6.0237   -3.0247 O   0  0  0  0  0  0  0  0  0  0  0  0
   -7.5557    3.7830   -2.4121 C   0  0  2  0  0  0  0  0  0  0  0  0
   -6.3105    3.0555   -2.3532 O   0  0  0  0  0  0  0  0  0  0  0  0
   -8.7077    2.9322   -2.9768 C   0  0  0  0  0  0  0  0  0  0  0  0
   -8.4006    2.3834   -4.2661 O   0  0  0  0  0  0  0  0  0  0  0  0
   -7.0071    3.7122   -0.0623 C   0  0  2  0  0  0  0  0  0  0  0  0
   -7.8206    4.2949   -1.0951 O   0  0  0  0  0  0  0  0  0  0  0  0
   -7.7634    3.8535    1.2455 C   0  0  2  0  0  0  0  0  0  0  0  0
   -9.1102    3.4038    1.0612 O   0  0  0  0  0  0  0  0  0  0  0  0
   -7.8083    5.3026    1.6778 C   0  0  1  0  0  0  0  0  0  0  0  0
   -8.3039    5.3634    3.0173 O   0  0  0  0  0  0  0  0  0  0  0  0
   -6.4277    5.9263    1.6017 C   0  0  2  0  0  0  0  0  0  0  0  0
   -6.5461    7.3219    1.8414 O   0  0  0  0  0  0  0  0  0  0  0  0
   -5.7795    5.7131    0.2403 C   0  0  2  0  0  0  0  0  0  0  0  0
   -5.7138    4.3116    0.0136 O   0  0  0  0  0  0  0  0  0  0  0  0
   -4.3779    6.3317    0.1797 C   0  0  0  0  0  0  0  0  0  0  0  0
   -3.8190    6.3264   -1.1422 O   0  0  0  0  0  0  0  0  0  0  0  0
  1  2  1  0  0  0  0
  3  1  1  1  0  0  0
  3  9  1  0  0  0  0
  3  4  1  0  0  0  0
  4  5  1  6  0  0  0
  4  6  1  0  0  0  0
  6  7  1  1  0  0  0
  6  8  1  0  0  0  0
  8  9  1  0  0  0  0
  8 10  1  6  0  0  0
  8 13  1  0  0  0  0
 10 11  1  0  0  0  0
 12 13  1  6  0  0  0
 12 14  1  0  0  0  0
 12 21  1  0  0  0  0
 14 15  1  6  0  0  0
 14 16  1  0  0  0  0
 16 17  1  1  0  0  0
 16 18  1  0  0  0  0
 18 19  1  6  0  0  0
 18 20  1  0  0  0  0
 20 21  1  0  0  0  0
 20 22  1  1  0  0  0
 22 23  1  0  0  0  0
M  END
>  <CHROM.1>
-60.24818960,62.09186651,-155.48857811,-129.16894287,-171.22976664,-6.52974224
4.69024578,-1.15223130,-1.26127397,0.43829521,1.21218984

>  <Name>
ligand

>  <RI>
0

>  <Rbt.Current_Directory>
/home/itssahil/PROJECTS/Mol_Feturizer/New_Systems/rnas/4TS2

>  <Rbt.Executable>
rbdock ($Id: //depot/dev/client3/rdock/2013.1/src/exe/rbdock.cxx#4 $)

>  <Rbt.Library>
libRbt.so (2013.1, Build901 2013/11/27)

>  <Rbt.Parameter_File>
/export/apps/rDock/src/rDock_2013.1_src/data/scripts/dock_solv.prm

>  <Rbt.Receptor>
prm/blind_docking_60.prm

>  <SCORE>
-10.9567

>  <SCORE.INTER>
-9.13466

>  <SCORE.INTER.CONST>
1

>  <SCORE.INTER.POLAR>
0

>  <SCORE.INTER.ROT>
5

>  <SCORE.INTER.SOLV>
10.642

>  <SCORE.INTER.VDW>
-16.5705

>  <SCORE.INTER.norm>
-0.397159

>  <SCORE.INTRA>
-1.82203

>  <SCORE.INTRA.DIHEDRAL>
-2.95197

>  <SCORE.INTRA.DIHEDRAL.0>
12.4853

>  <SCORE.INTRA.POLAR>
0

>  <SCORE.INTRA.POLAR.0>
0

>  <SCORE.INTRA.REPUL>
0

>  <SCORE.INTRA.REPUL.0>
0

>  <SCORE.INTRA.SOLV>
1.35477

>  <SCORE.INTRA.SOLV.lig_0>
-31.1706

>  <SCORE.INTRA.VDW>
-1.02343

>  <SCORE.INTRA.VDW.0>
-1.16895

>  <SCORE.INTRA.norm>
-0.0792188

>  <SCORE.RESTR>
0

>  <SCORE.RESTR.CAVITY>
0

>  <SCORE.RESTR.norm>
0

>  <SCORE.SYSTEM>
0

>  <SCORE.SYSTEM.CONST>
0

>  <SCORE.SYSTEM.DIHEDRAL>
0

>  <SCORE.SYSTEM.SOLV>
0

>  <SCORE.SYSTEM.norm>
0

>  <SCORE.heavy>
23

>  <SCORE.norm>
-0.476378

>  <RMSD>
15.082

$$$$
ligand
 OpenBabel11021811513D
libRbt.so/2013.1/901 2013/11/27
 23 24  0  0  0  0  0  0  0  0999 V2000
  -10.2133    6.5382   -2.1023 C   0  0  0  0  0  0  0  0  0  0  0  0
  -11.0009    7.0033   -0.9893 O   0  0  0  0  0  0  0  0  0  0  0  0
  -10.2544    5.0172   -2.1372 C   0  0  2  0  0  0  0  0  0  0  0  0
   -9.7048    4.3173   -0.9037 C   0  0  1  0  0  0  0  0  0  0  0  0
  -10.6907    4.3357    0.1306 O   0  0  0  0  0  0  0  0  0  0  0  0
   -9.3994    2.9242   -1.4436 C   0  0  2  0  0  0  0  0  0  0  0  0
   -8.4511    2.1099   -0.7436 O   0  0  0  0  0  0  0  0  0  0  0  0
   -8.8807    3.2464   -2.8339 C   0  0  2  0  0  0  0  0  0  0  0  0
   -9.4876    4.4958   -3.2264 O   0  0  0  0  0  0  0  0  0  0  0  0
   -9.2759    2.0836   -3.7620 C   0  0  0  0  0  0  0  0  0  0  0  0
  -10.6944    1.8742   -3.8020 O   0  0  0  0  0  0  0  0  0  0  0  0
   -6.9326    4.2705   -3.8257 C   0  0  2  0  0  0  0  0  0  0  0  0
   -7.4606    3.4586   -2.7626 O   0  0  0  0  0  0  0  0  0  0  0  0
   -5.4709    3.9009   -3.9964 C   0  0  2  0  0  0  0  0  0  0  0  0
   -5.3507    2.4756   -4.0620 O   0  0  0  0  0  0  0  0  0  0  0  0
   -4.6601    4.3856   -2.8146 C   0  0  1  0  0  0  0  0  0  0  0  0
   -3.2721    4.2411   -3.1243 O   0  0  0  0  0  0  0  0  0  0  0  0
   -4.9794    5.8360   -2.5061 C   0  0  2  0  0  0  0  0  0  0  0  0
   -4.3362    6.1938   -1.2905 O   0  0  0  0  0  0  0  0  0  0  0  0
   -6.4766    6.0721   -2.3598 C   0  0  2  0  0  0  0  0  0  0  0  0
   -7.0934    5.6664   -3.5742 O   0  0  0  0  0  0  0  0  0  0  0  0
   -6.7896    7.5440   -2.0657 C   0  0  0  0  0  0  0  0  0  0  0  0
   -6.4194    8.4217   -3.1391 O   0  0  0  0  0  0  0  0  0  0  0  0
  1  2  1  0  0  0  0
  3  1  1  1  0  0  0
  3  9  1  0  0  0  0
  3  4  1  0  0  0  0
  4  5  1  1  0  0  0
  4  6  1  0  0  0  0
  6  7  1  1  0  0  0
  6  8  1  0  0  0  0
  8  9  1  0  0  0  0
  8 10  1  6  0  0  0
  8 13  1  0  0  0  0
 10 11  1  0  0  0  0
 12 13  1  1  0  0  0
 12 14  1  0  0  0  0
 12 21  1  0  0  0  0
 14 15  1  1  0  0  0
 14 16  1  0  0  0  0
 16 17  1  6  0  0  0
 16 18  1  0  0  0  0
 18 19  1  1  0  0  0
 18 20  1  0  0  0  0
 20 21  1  0  0  0  0
 20 22  1  6  0  0  0
 22 23  1  0  0  0  0
M  END
>  <CHROM.1>
-60.43093439,58.59246140,-154.77003300,-156.15548568,64.04378909,-7.70965925
4.63216993,-2.48566774,2.97118639,-0.25360131,-2.87516408

>  <Name>
ligand

>  <RI>
0

>  <Rbt.Current_Directory>
/home/itssahil/PROJECTS/Mol_Feturizer/New_Systems/rnas/4TS2

>  <Rbt.Executable>
rbdock ($Id: //depot/dev/client3/rdock/2013.1/src/exe/rbdock.cxx#4 $)

>  <Rbt.Library>
libRbt.so (2013.1, Build901 2013/11/27)

>  <Rbt.Parameter_File>
/export/apps/rDock/src/rDock_2013.1_src/data/scripts/dock_solv.prm

>  <Rbt.Receptor>
prm/blind_docking_40.prm

>  <SCORE>
-12.7133

>  <SCORE.INTER>
-7.72074

>  <SCORE.INTER.CONST>
1

>  <SCORE.INTER.POLAR>
0

>  <SCORE.INTER.ROT>
5

>  <SCORE.INTER.SOLV>
9.39124

>  <SCORE.INTER.VDW>
-15.2109

>  <SCORE.INTER.norm>
-0.335684

>  <SCORE.INTRA>
-4.9926

>  <SCORE.INTRA.DIHEDRAL>
-7.49292

>  <SCORE.INTRA.DIHEDRAL.0>
12.4853

>  <SCORE.INTRA.POLAR>
0

>  <SCORE.INTRA.POLAR.0>
0

>  <SCORE.INTRA.REPUL>
0

>  <SCORE.INTRA.REPUL.0>
0

>  <SCORE.INTRA.SOLV>
0.453176

>  <SCORE.INTRA.SOLV.lig_0>
-31.1706

>  <SCORE.INTRA.VDW>
-1.47273

>  <SCORE.INTRA.VDW.0>
-1.16895

>  <SCORE.INTRA.norm>
-0.21707

>  <SCORE.RESTR>
0

>  <SCORE.RESTR.CAVITY>
0

>  <SCORE.RESTR.norm>
0

>  <SCORE.SYSTEM>
0

>  <SCORE.SYSTEM.CONST>
0

>  <SCORE.SYSTEM.DIHEDRAL>
0

>  <SCORE.SYSTEM.SOLV>
0

>  <SCORE.SYSTEM.norm>
0

>  <SCORE.heavy>
23

>  <SCORE.norm>
-0.552754

>  <RMSD>
15.088

$$$$
ligand
 OpenBabel11021811513D
libRbt.so/2013.1/901 2013/11/27
 23 24  0  0  0  0  0  0  0  0999 V2000
   -3.7790    4.1047   -2.5520 C   0  0  0  0  0  0  0  0  0  0  0  0
   -3.1743    2.8228   -2.8104 O   0  0  0  0  0  0  0  0  0  0  0  0
   -5.1431    4.1538   -3.2252 C   0  0  2  0  0  0  0  0  0  0  0  0
   -5.8024    5.5236   -3.2732 C   0  0  1  0  0  0  0  0  0  0  0  0
   -5.2322    6.2872   -4.3381 O   0  0  0  0  0  0  0  0  0  0  0  0
   -7.2675    5.1591   -3.4879 C   0  0  2  0  0  0  0  0  0  0  0  0
   -8.2721    6.1150   -3.1282 O   0  0  0  0  0  0  0  0  0  0  0  0
   -7.3993    3.9174   -2.6238 C   0  0  2  0  0  0  0  0  0  0  0  0
   -6.0893    3.3150   -2.5565 O   0  0  0  0  0  0  0  0  0  0  0  0
   -8.4378    2.9942   -3.2862 C   0  0  0  0  0  0  0  0  0  0  0  0
   -9.7538    3.5649   -3.2881 O   0  0  0  0  0  0  0  0  0  0  0  0
   -7.0119    3.6563   -0.2553 C   0  0  2  0  0  0  0  0  0  0  0  0
   -7.7616    4.3152   -1.2906 O   0  0  0  0  0  0  0  0  0  0  0  0
   -7.8641    3.6678    1.0001 C   0  0  2  0  0  0  0  0  0  0  0  0
   -9.1833    3.2140    0.6774 O   0  0  0  0  0  0  0  0  0  0  0  0
   -7.9738    5.0717    1.5532 C   0  0  1  0  0  0  0  0  0  0  0  0
   -8.5666    5.0045    2.8523 O   0  0  0  0  0  0  0  0  0  0  0  0
   -6.6061    5.7225    1.6349 C   0  0  2  0  0  0  0  0  0  0  0  0
   -6.7739    7.0891    1.9866 O   0  0  0  0  0  0  0  0  0  0  0  0
   -5.8561    5.6424    0.3120 C   0  0  2  0  0  0  0  0  0  0  0  0
   -5.7418    4.2680   -0.0313 O   0  0  0  0  0  0  0  0  0  0  0  0
   -4.4685    6.2871    0.4102 C   0  0  0  0  0  0  0  0  0  0  0  0
   -3.8367    6.4561   -0.8673 O   0  0  0  0  0  0  0  0  0  0  0  0
  1  2  1  0  0  0  0
  3  1  1  1  0  0  0
  3  9  1  0  0  0  0
  3  4  1  0  0  0  0
  4  5  1  6  0  0  0
  4  6  1  0  0  0  0
  6  7  1  1  0  0  0
  6  8  1  0  0  0  0
  8  9  1  0  0  0  0
  8 10  1  6  0  0  0
  8 13  1  0  0  0  0
 10 11  1  0  0  0  0
 12 13  1  6  0  0  0
 12 14  1  0  0  0  0
 12 21  1  0  0  0  0
 14 15  1  6  0  0  0
 14 16  1  0  0  0  0
 16 17  1  1  0  0  0
 16 18  1  0  0  0  0
 18 19  1  6  0  0  0
 18 20  1  0  0  0  0
 20 21  1  0  0  0  0
 20 22  1  1  0  0  0
 22 23  1  0  0  0  0
M  END
>  <CHROM.1>
-168.94546002,-65.71226396,-154.90081081,-134.65026946,-168.97472100,-6.61173231
4.71673969,-1.15816741,-1.16010991,0.31564384,1.30824949

>  <Name>
ligand

>  <RI>
0

>  <Rbt.Current_Directory>
/home/itssahil/PROJECTS/Mol_Feturizer/New_Systems/rnas/4TS2

>  <Rbt.Executable>
rbdock ($Id: //depot/dev/client3/rdock/2013.1/src/exe/rbdock.cxx#4 $)

>  <Rbt.Library>
libRbt.so (2013.1, Build901 2013/11/27)

>  <Rbt.Parameter_File>
/export/apps/rDock/src/rDock_2013.1_src/data/scripts/dock_solv.prm

>  <Rbt.Receptor>
prm/blind_docking_80.prm

>  <SCORE>
-10.4659

>  <SCORE.INTER>
-8.3975

>  <SCORE.INTER.CONST>
1

>  <SCORE.INTER.POLAR>
0

>  <SCORE.INTER.ROT>
5

>  <SCORE.INTER.SOLV>
10.8926

>  <SCORE.INTER.VDW>
-16.1625

>  <SCORE.INTER.norm>
-0.365109

>  <SCORE.INTRA>
-2.06837

>  <SCORE.INTRA.DIHEDRAL>
-2.88045

>  <SCORE.INTRA.DIHEDRAL.0>
12.4853

>  <SCORE.INTRA.POLAR>
0

>  <SCORE.INTRA.POLAR.0>
0

>  <SCORE.INTRA.REPUL>
0

>  <SCORE.INTRA.REPUL.0>
0

>  <SCORE.INTRA.SOLV>
0.708246

>  <SCORE.INTRA.SOLV.lig_0>
-31.1706

>  <SCORE.INTRA.VDW>
-0.982265

>  <SCORE.INTRA.VDW.0>
-1.16895

>  <SCORE.INTRA.norm>
-0.089929

>  <SCORE.RESTR>
0

>  <SCORE.RESTR.CAVITY>
0

>  <SCORE.RESTR.norm>
0

>  <SCORE.SYSTEM>
0

>  <SCORE.SYSTEM.CONST>
0

>  <SCORE.SYSTEM.DIHEDRAL>
0

>  <SCORE.SYSTEM.SOLV>
0

>  <SCORE.SYSTEM.norm>
0

>  <SCORE.heavy>
23

>  <SCORE.norm>
-0.455038

>  <RMSD>
15.107

$$$$
ligand
 OpenBabel11021811513D
libRbt.so/2013.1/901 2013/11/27
 23 24  0  0  0  0  0  0  0  0999 V2000
   -2.7294    4.1521   -2.5600 C   0  0  0  0  0  0  0  0  0  0  0  0
   -2.1935    4.6670   -3.7942 O   0  0  0  0  0  0  0  0  0  0  0  0
   -3.4204    5.2821   -1.8103 C   0  0  2  0  0  0  0  0  0  0  0  0
   -3.9912    4.9142   -0.4493 C   0  0  1  0  0  0  0  0  0  0  0  0
   -2.9386    4.8960    0.5170 O   0  0  0  0  0  0  0  0  0  0  0  0
   -5.0154    6.0223   -0.2288 C   0  0  2  0  0  0  0  0  0  0  0  0
   -6.0842    5.7941    0.6974 O   0  0  0  0  0  0  0  0  0  0  0  0
   -5.5721    6.2018   -1.6301 C   0  0  2  0  0  0  0  0  0  0  0  0
   -4.5329    5.7979   -2.5468 O   0  0  0  0  0  0  0  0  0  0  0  0
   -5.9580    7.6830   -1.7942 C   0  0  0  0  0  0  0  0  0  0  0  0
   -4.8239    8.5566   -1.7017 O   0  0  0  0  0  0  0  0  0  0  0  0
   -6.3158    3.9121   -1.8088 C   0  0  2  0  0  0  0  0  0  0  0  0
   -6.6801    5.3033   -1.8087 O   0  0  0  0  0  0  0  0  0  0  0  0
   -6.7613    3.3260   -3.1356 C   0  0  2  0  0  0  0  0  0  0  0  0
   -6.3195    4.1779   -4.1983 O   0  0  0  0  0  0  0  0  0  0  0  0
   -8.2707    3.2432   -3.1981 C   0  0  1  0  0  0  0  0  0  0  0  0
   -8.6374    2.4680   -4.3419 O   0  0  0  0  0  0  0  0  0  0  0  0
   -8.8240    2.6086   -1.9364 C   0  0  2  0  0  0  0  0  0  0  0  0
  -10.2410    2.7135   -1.9593 O   0  0  0  0  0  0  0  0  0  0  0  0
   -8.2996    3.2882   -0.6786 C   0  0  2  0  0  0  0  0  0  0  0  0
   -6.8812    3.2025   -0.7069 O   0  0  0  0  0  0  0  0  0  0  0  0
   -8.8509    2.6283    0.5908 C   0  0  0  0  0  0  0  0  0  0  0  0
   -8.4599    3.3091    1.7922 O   0  0  0  0  0  0  0  0  0  0  0  0
  1  2  1  0  0  0  0
  3  1  1  6  0  0  0
  3  9  1  0  0  0  0
  3  4  1  0  0  0  0
  4  5  1  1  0  0  0
  4  6  1  0  0  0  0
  6  7  1  1  0  0  0
  6  8  1  0  0  0  0
  8  9  1  0  0  0  0
  8 10  1  6  0  0  0
  8 13  1  0  0  0  0
 10 11  1  0  0  0  0
 12 13  1  6  0  0  0
 12 14  1  0  0  0  0
 12 21  1  0  0  0  0
 14 15  1  6  0  0  0
 14 16  1  0  0  0  0
 16 17  1  6  0  0  0
 16 18  1  0  0  0  0
 18 19  1  6  0  0  0
 18 20  1  0  0  0  0
 20 21  1  0  0  0  0
 20 22  1  1  0  0  0
 22 23  1  0  0  0  0
M  END
>  <CHROM.1>
-177.46116648,63.48855689,-121.42085062,-66.83870337,-175.41495851,-6.16392955
4.53536385,-1.59654582,-0.10527013,-0.52734591,-1.84983586

>  <Name>
ligand

>  <RI>
0

>  <Rbt.Current_Directory>
/home/itssahil/PROJECTS/Mol_Feturizer/New_Systems/rnas/4TS2

>  <Rbt.Executable>
rbdock ($Id: //depot/dev/client3/rdock/2013.1/src/exe/rbdock.cxx#4 $)

>  <Rbt.Library>
libRbt.so (2013.1, Build901 2013/11/27)

>  <Rbt.Parameter_File>
/export/apps/rDock/src/rDock_2013.1_src/data/scripts/dock_solv.prm

>  <Rbt.Receptor>
prm/blind_docking_100.prm

>  <SCORE>
-9.63343

>  <SCORE.INTER>
-6.72947

>  <SCORE.INTER.CONST>
1

>  <SCORE.INTER.POLAR>
0

>  <SCORE.INTER.ROT>
5

>  <SCORE.INTER.SOLV>
11.7928

>  <SCORE.INTER.VDW>
-15.3506

>  <SCORE.INTER.norm>
-0.292586

>  <SCORE.INTRA>
-2.90397

>  <SCORE.INTRA.DIHEDRAL>
-4.79377

>  <SCORE.INTRA.DIHEDRAL.0>
12.4853

>  <SCORE.INTRA.POLAR>
0

>  <SCORE.INTRA.POLAR.0>
0

>  <SCORE.INTRA.REPUL>
0

>  <SCORE.INTRA.REPUL.0>
0

>  <SCORE.INTRA.SOLV>
0.570353

>  <SCORE.INTRA.SOLV.lig_0>
-31.1706

>  <SCORE.INTRA.VDW>
-0.792258

>  <SCORE.INTRA.VDW.0>
-1.16895

>  <SCORE.INTRA.norm>
-0.126259

>  <SCORE.RESTR>
0

>  <SCORE.RESTR.CAVITY>
0

>  <SCORE.RESTR.norm>
0

>  <SCORE.SYSTEM>
0

>  <SCORE.SYSTEM.CONST>
0

>  <SCORE.SYSTEM.DIHEDRAL>
0

>  <SCORE.SYSTEM.SOLV>
0

>  <SCORE.SYSTEM.norm>
0

>  <SCORE.heavy>
23

>  <SCORE.norm>
-0.418845

>  <RMSD>
15.207

$$$$
ligand
 OpenBabel11021811513D
libRbt.so/2013.1/901 2013/11/27
 23 24  0  0  0  0  0  0  0  0999 V2000
  -10.5089    6.5713   -1.7511 C   0  0  0  0  0  0  0  0  0  0  0  0
  -11.0530    7.0688   -2.9888 O   0  0  0  0  0  0  0  0  0  0  0  0
  -10.4899    5.0500   -1.7942 C   0  0  2  0  0  0  0  0  0  0  0  0
   -9.9525    4.3647   -0.5472 C   0  0  1  0  0  0  0  0  0  0  0  0
  -10.9704    4.3389    0.4555 O   0  0  0  0  0  0  0  0  0  0  0  0
   -9.5764    2.9876   -1.0835 C   0  0  2  0  0  0  0  0  0  0  0  0
   -8.6197    2.2066   -0.3576 O   0  0  0  0  0  0  0  0  0  0  0  0
   -9.0272    3.3377   -2.4552 C   0  0  2  0  0  0  0  0  0  0  0  0
   -9.6695    4.5650   -2.8609 O   0  0  0  0  0  0  0  0  0  0  0  0
   -9.3476    2.1659   -3.4007 C   0  0  0  0  0  0  0  0  0  0  0  0
  -10.7563    1.9157   -3.5029 O   0  0  0  0  0  0  0  0  0  0  0  0
   -7.0255    4.1633   -3.5225 C   0  0  2  0  0  0  0  0  0  0  0  0
   -7.6194    3.6043   -2.3381 O   0  0  0  0  0  0  0  0  0  0  0  0
   -5.5221    4.0010   -3.3967 C   0  0  2  0  0  0  0  0  0  0  0  0
   -5.2244    2.6523   -3.0194 O   0  0  0  0  0  0  0  0  0  0  0  0
   -4.9780    4.9186   -2.3238 C   0  0  1  0  0  0  0  0  0  0  0  0
   -3.5508    4.9192   -2.4056 O   0  0  0  0  0  0  0  0  0  0  0  0
   -5.5132    6.3266   -2.5028 C   0  0  2  0  0  0  0  0  0  0  0  0
   -5.1237    7.1063   -1.3804 O   0  0  0  0  0  0  0  0  0  0  0  0
   -7.0316    6.3498   -2.6162 C   0  0  2  0  0  0  0  0  0  0  0  0
   -7.3897    5.5293   -3.7200 O   0  0  0  0  0  0  0  0  0  0  0  0
   -7.5608    7.7751   -2.8144 C   0  0  0  0  0  0  0  0  0  0  0  0
   -7.3100    8.6284   -1.6880 O   0  0  0  0  0  0  0  0  0  0  0  0
  1  2  1  0  0  0  0
  3  1  1  1  0  0  0
  3  9  1  0  0  0  0
  3  4  1  0  0  0  0
  4  5  1  1  0  0  0
  4  6  1  0  0  0  0
  6  7  1  1  0  0  0
  6  8  1  0  0  0  0
  8  9  1  0  0  0  0
  8 10  1  6  0  0  0
  8 13  1  0  0  0  0
 10 11  1  0  0  0  0
 12 13  1  1  0  0  0
 12 14  1  0  0  0  0
 12 21  1  0  0  0  0
 14 15  1  1  0  0  0
 14 16  1  0  0  0  0
 16 17  1  6  0  0  0
 16 18  1  0  0  0  0
 18 19  1  1  0  0  0
 18 20  1  0  0  0  0
 20 21  1  0  0  0  0
 20 22  1  6  0  0  0
 22 23  1  0  0  0  0
M  END
>  <CHROM.1>
-179.41139938,59.51527183,-163.49712084,-170.15266142,-64.56770269,-7.99386156
4.81411311,-2.25493751,2.78793555,-0.16910807,-3.06470862

>  <Name>
ligand

>  <RI>
0

>  <Rbt.Current_Directory>
/home/itssahil/PROJECTS/Mol_Feturizer/New_Systems/rnas/4TS2

>  <Rbt.Executable>
rbdock ($Id: //depot/dev/client3/rdock/2013.1/src/exe/rbdock.cxx#4 $)

>  <Rbt.Library>
libRbt.so (2013.1, Build901 2013/11/27)

>  <Rbt.Parameter_File>
/export/apps/rDock/src/rDock_2013.1_src/data/scripts/dock_solv.prm

>  <Rbt.Receptor>
prm/blind_docking_20.prm

>  <SCORE>
-12.8188

>  <SCORE.INTER>
-6.14375

>  <SCORE.INTER.CONST>
1

>  <SCORE.INTER.POLAR>
0

>  <SCORE.INTER.ROT>
5

>  <SCORE.INTER.SOLV>
9.06647

>  <SCORE.INTER.VDW>
-14.0513

>  <SCORE.INTER.norm>
-0.267119

>  <SCORE.INTRA>
-6.67509

>  <SCORE.INTRA.DIHEDRAL>
-10.7571

>  <SCORE.INTRA.DIHEDRAL.0>
12.4853

>  <SCORE.INTRA.POLAR>
0

>  <SCORE.INTRA.POLAR.0>
0

>  <SCORE.INTRA.REPUL>
0

>  <SCORE.INTRA.REPUL.0>
0

>  <SCORE.INTRA.SOLV>
0.43331

>  <SCORE.INTRA.SOLV.lig_0>
-31.1706

>  <SCORE.INTRA.VDW>
-1.5132

>  <SCORE.INTRA.VDW.0>
-1.16895

>  <SCORE.INTRA.norm>
-0.290221

>  <SCORE.RESTR>
0

>  <SCORE.RESTR.CAVITY>
0

>  <SCORE.RESTR.norm>
0

>  <SCORE.SYSTEM>
0

>  <SCORE.SYSTEM.CONST>
0

>  <SCORE.SYSTEM.DIHEDRAL>
0

>  <SCORE.SYSTEM.SOLV>
0

>  <SCORE.SYSTEM.norm>
0

>  <SCORE.heavy>
23

>  <SCORE.norm>
-0.557341

>  <RMSD>
15.239

$$$$
ligand
 OpenBabel11021811513D
libRbt.so/2013.1/901 2013/11/27
 23 24  0  0  0  0  0  0  0  0999 V2000
   -9.4340    4.0650   -3.0913 C   0  0  0  0  0  0  0  0  0  0  0  0
   -8.4028    5.0279   -3.3828 O   0  0  0  0  0  0  0  0  0  0  0  0
   -9.7532    4.1158   -1.6040 C   0  0  2  0  0  0  0  0  0  0  0  0
  -10.1207    5.4870   -1.0580 C   0  0  1  0  0  0  0  0  0  0  0  0
  -11.4840    5.7741   -1.3761 O   0  0  0  0  0  0  0  0  0  0  0  0
   -9.8564    5.3117    0.4337 C   0  0  2  0  0  0  0  0  0  0  0  0
   -9.6311    6.4794    1.2323 O   0  0  0  0  0  0  0  0  0  0  0  0
   -8.6102    4.4441    0.4194 C   0  0  2  0  0  0  0  0  0  0  0  0
   -8.6389    3.6931   -0.8129 O   0  0  0  0  0  0  0  0  0  0  0  0
   -8.6573    3.5369    1.6621 C   0  0  0  0  0  0  0  0  0  0  0  0
   -8.5934    4.2827    2.8858 O   0  0  0  0  0  0  0  0  0  0  0  0
   -6.2036    4.5969    0.5307 C   0  0  2  0  0  0  0  0  0  0  0  0
   -7.4520    5.2949    0.3809 O   0  0  0  0  0  0  0  0  0  0  0  0
   -5.1120    5.6423    0.6644 C   0  0  2  0  0  0  0  0  0  0  0  0
   -5.5068    6.6126    1.6404 O   0  0  0  0  0  0  0  0  0  0  0  0
   -4.9013    6.3596   -0.6509 C   0  0  1  0  0  0  0  0  0  0  0  0
   -3.7141    7.1501   -0.5537 O   0  0  0  0  0  0  0  0  0  0  0  0
   -4.7757    5.3642   -1.7885 C   0  0  2  0  0  0  0  0  0  0  0  0
   -4.7593    6.0785   -3.0169 O   0  0  0  0  0  0  0  0  0  0  0  0
   -5.9316    4.3731   -1.8098 C   0  0  2  0  0  0  0  0  0  0  0  0
   -5.9455    3.7065   -0.5548 O   0  0  0  0  0  0  0  0  0  0  0  0
   -5.7860    3.3610   -2.9523 C   0  0  0  0  0  0  0  0  0  0  0  0
   -5.8246    3.9711   -4.2507 O   0  0  0  0  0  0  0  0  0  0  0  0
  1  2  1  0  0  0  0
  3  1  1  6  0  0  0
  3  9  1  0  0  0  0
  3  4  1  0  0  0  0
  4  5  1  1  0  0  0
  4  6  1  0  0  0  0
  6  7  1  6  0  0  0
  6  8  1  0  0  0  0
  8  9  1  0  0  0  0
  8 10  1  1  0  0  0
  8 13  1  0  0  0  0
 10 11  1  0  0  0  0
 12 13  1  6  0  0  0
 12 14  1  0  0  0  0
 12 21  1  0  0  0  0
 14 15  1  1  0  0  0
 14 16  1  0  0  0  0
 16 17  1  1  0  0  0
 16 18  1  0  0  0  0
 18 19  1  6  0  0  0
 18 20  1  0  0  0  0
 20 21  1  0  0  0  0
 20 22  1  6  0  0  0
 22 23  1  0  0  0  0
M  END
>  <CHROM.1>
54.32166109,-64.12981786,-172.17599324,172.70343869,-63.08161810,-7.34542964
5.00632049,-0.74835160,2.83667067,0.17776807,1.36376810

>  <Name>
ligand

>  <RI>
0

>  <Rbt.Current_Directory>
/home/itssahil/PROJECTS/Mol_Feturizer/New_Systems/rnas/4TS2

>  <Rbt.Executable>
rbdock ($Id: //depot/dev/client3/rdock/2013.1/src/exe/rbdock.cxx#4 $)

>  <Rbt.Library>
libRbt.so (2013.1, Build901 2013/11/27)

>  <Rbt.Parameter_File>
/export/apps/rDock/src/rDock_2013.1_src/data/scripts/dock_solv.prm

>  <Rbt.Receptor>
prm/blind_docking_20.prm

>  <SCORE>
-12.476

>  <SCORE.INTER>
-5.96532

>  <SCORE.INTER.CONST>
1

>  <SCORE.INTER.POLAR>
0

>  <SCORE.INTER.ROT>
5

>  <SCORE.INTER.SOLV>
8.86535

>  <SCORE.INTER.VDW>
-13.8653

>  <SCORE.INTER.norm>
-0.259362

>  <SCORE.INTRA>
-6.51073

>  <SCORE.INTRA.DIHEDRAL>
-11.5751

>  <SCORE.INTRA.DIHEDRAL.0>
12.4853

>  <SCORE.INTRA.POLAR>
0

>  <SCORE.INTRA.POLAR.0>
0

>  <SCORE.INTRA.REPUL>
0

>  <SCORE.INTRA.REPUL.0>
0

>  <SCORE.INTRA.SOLV>
1.70582

>  <SCORE.INTRA.SOLV.lig_0>
-31.1706

>  <SCORE.INTRA.VDW>
-1.5761

>  <SCORE.INTRA.VDW.0>
-1.16895

>  <SCORE.INTRA.norm>
-0.283075

>  <SCORE.RESTR>
0

>  <SCORE.RESTR.CAVITY>
0

>  <SCORE.RESTR.norm>
0

>  <SCORE.SYSTEM>
0

>  <SCORE.SYSTEM.CONST>
0

>  <SCORE.SYSTEM.DIHEDRAL>
0

>  <SCORE.SYSTEM.SOLV>
0

>  <SCORE.SYSTEM.norm>
0

>  <SCORE.heavy>
23

>  <SCORE.norm>
-0.542437

>  <RMSD>
15.289

$$$$
ligand
 OpenBabel11021811513D
libRbt.so/2013.1/901 2013/11/27
 23 24  0  0  0  0  0  0  0  0999 V2000
   -9.1587    3.5220   -3.2875 C   0  0  0  0  0  0  0  0  0  0  0  0
   -7.8443    4.0331   -3.5818 O   0  0  0  0  0  0  0  0  0  0  0  0
   -9.7269    4.2745   -2.0928 C   0  0  2  0  0  0  0  0  0  0  0  0
   -9.7584    5.7894   -2.2258 C   0  0  1  0  0  0  0  0  0  0  0  0
  -10.8823    6.1722   -3.0211 O   0  0  0  0  0  0  0  0  0  0  0  0
   -9.8516    6.2302   -0.7689 C   0  0  2  0  0  0  0  0  0  0  0  0
   -9.4402    7.5591   -0.4267 O   0  0  0  0  0  0  0  0  0  0  0  0
   -8.9494    5.2159   -0.0885 C   0  0  2  0  0  0  0  0  0  0  0  0
   -8.9674    4.0267   -0.9063 O   0  0  0  0  0  0  0  0  0  0  0  0
   -9.5076    4.9665    1.3243 C   0  0  0  0  0  0  0  0  0  0  0  0
  -10.8233    4.3955    1.2991 O   0  0  0  0  0  0  0  0  0  0  0  0
   -6.6602    4.8760    0.5980 C   0  0  2  0  0  0  0  0  0  0  0  0
   -7.6028    5.7193   -0.0862 O   0  0  0  0  0  0  0  0  0  0  0  0
   -5.4915    5.7481    1.0175 C   0  0  2  0  0  0  0  0  0  0  0  0
   -5.9905    6.9262    1.6604 O   0  0  0  0  0  0  0  0  0  0  0  0
   -4.6902    6.1779   -0.1917 C   0  0  1  0  0  0  0  0  0  0  0  0
   -3.4747    6.7811    0.2580 O   0  0  0  0  0  0  0  0  0  0  0  0
   -4.3860    4.9880   -1.0819 C   0  0  2  0  0  0  0  0  0  0  0  0
   -3.7933    5.4603   -2.2841 O   0  0  0  0  0  0  0  0  0  0  0  0
   -5.6413    4.1986   -1.4281 C   0  0  2  0  0  0  0  0  0  0  0  0
   -6.2311    3.7771   -0.2057 O   0  0  0  0  0  0  0  0  0  0  0  0
   -5.3206    2.9885   -2.3134 C   0  0  0  0  0  0  0  0  0  0  0  0
   -4.8634    3.3568   -3.6230 O   0  0  0  0  0  0  0  0  0  0  0  0
  1  2  1  0  0  0  0
  3  1  1  6  0  0  0
  3  9  1  0  0  0  0
  3  4  1  0  0  0  0
  4  5  1  6  0  0  0
  4  6  1  0  0  0  0
  6  7  1  6  0  0  0
  6  8  1  0  0  0  0
  8  9  1  0  0  0  0
  8 10  1  1  0  0  0
  8 13  1  0  0  0  0
 10 11  1  0  0  0  0
 12 13  1  6  0  0  0
 12 14  1  0  0  0  0
 12 21  1  0  0  0  0
 14 15  1  6  0  0  0
 14 16  1  0  0  0  0
 16 17  1  1  0  0  0
 16 18  1  0  0  0  0
 18 19  1  6  0  0  0
 18 20  1  0  0  0  0
 20 21  1  0  0  0  0
 20 22  1  6  0  0  0
 22 23  1  0  0  0  0
M  END
>  <CHROM.1>
54.70467132,62.79479771,-156.87736725,176.84231417,-67.17155105,-7.34289392
5.10235741,-0.94573361,-3.12232187,-0.02340882,1.06686603

>  <Name>
ligand

>  <RI>
0

>  <Rbt.Current_Directory>
/home/itssahil/PROJECTS/Mol_Feturizer/New_Systems/rnas/4TS2

>  <Rbt.Executable>
rbdock ($Id: //depot/dev/client3/rdock/2013.1/src/exe/rbdock.cxx#4 $)

>  <Rbt.Library>
libRbt.so (2013.1, Build901 2013/11/27)

>  <Rbt.Parameter_File>
/export/apps/rDock/src/rDock_2013.1_src/data/scripts/dock_solv.prm

>  <Rbt.Receptor>
prm/blind_docking_20.prm

>  <SCORE>
-12.4032

>  <SCORE.INTER>
-6.71865

>  <SCORE.INTER.CONST>
1

>  <SCORE.INTER.POLAR>
0

>  <SCORE.INTER.ROT>
5

>  <SCORE.INTER.SOLV>
9.37626

>  <SCORE.INTER.VDW>
-14.5379

>  <SCORE.INTER.norm>
-0.292115

>  <SCORE.INTRA>
-5.68459

>  <SCORE.INTRA.DIHEDRAL>
-9.6722

>  <SCORE.INTRA.DIHEDRAL.0>
12.4853

>  <SCORE.INTRA.POLAR>
0

>  <SCORE.INTRA.POLAR.0>
0

>  <SCORE.INTRA.REPUL>
0

>  <SCORE.INTRA.REPUL.0>
0

>  <SCORE.INTRA.SOLV>
1.21733

>  <SCORE.INTRA.SOLV.lig_0>
-31.1706

>  <SCORE.INTRA.VDW>
-1.45715

>  <SCORE.INTRA.VDW.0>
-1.16895

>  <SCORE.INTRA.norm>
-0.247156

>  <SCORE.RESTR>
0

>  <SCORE.RESTR.CAVITY>
0

>  <SCORE.RESTR.norm>
0

>  <SCORE.SYSTEM>
0

>  <SCORE.SYSTEM.CONST>
0

>  <SCORE.SYSTEM.DIHEDRAL>
0

>  <SCORE.SYSTEM.SOLV>
0

>  <SCORE.SYSTEM.norm>
0

>  <SCORE.heavy>
23

>  <SCORE.norm>
-0.539271

>  <RMSD>
15.306

$$$$
ligand
 OpenBabel11021811513D
libRbt.so/2013.1/901 2013/11/27
 23 24  0  0  0  0  0  0  0  0999 V2000
   -6.9082    7.1896    2.1354 C   0  0  0  0  0  0  0  0  0  0  0  0
   -6.1040    6.8954    3.2939 O   0  0  0  0  0  0  0  0  0  0  0  0
   -6.0770    6.9537    0.8824 C   0  0  2  0  0  0  0  0  0  0  0  0
   -6.6657    7.5018   -0.4086 C   0  0  1  0  0  0  0  0  0  0  0  0
   -6.4125    8.9061   -0.4863 O   0  0  0  0  0  0  0  0  0  0  0  0
   -5.9300    6.6807   -1.4621 C   0  0  2  0  0  0  0  0  0  0  0  0
   -6.5146    6.5531   -2.7638 O   0  0  0  0  0  0  0  0  0  0  0  0
   -5.8588    5.3211   -0.7895 C   0  0  2  0  0  0  0  0  0  0  0  0
   -5.8855    5.5581    0.6341 O   0  0  0  0  0  0  0  0  0  0  0  0
   -4.5568    4.6397   -1.2479 C   0  0  0  0  0  0  0  0  0  0  0  0
   -4.5497    4.3663   -2.6560 O   0  0  0  0  0  0  0  0  0  0  0  0
   -7.1037    3.2702   -0.5218 C   0  0  2  0  0  0  0  0  0  0  0  0
   -7.0399    4.5736   -1.1260 O   0  0  0  0  0  0  0  0  0  0  0  0
   -8.2907    2.5458   -1.1289 C   0  0  2  0  0  0  0  0  0  0  0  0
   -8.2375    2.6680   -2.5546 O   0  0  0  0  0  0  0  0  0  0  0  0
   -9.5877    3.1630   -0.6538 C   0  0  1  0  0  0  0  0  0  0  0  0
  -10.6673    2.3106   -1.0429 O   0  0  0  0  0  0  0  0  0  0  0  0
   -9.5760    3.3382    0.8528 C   0  0  2  0  0  0  0  0  0  0  0  0
  -10.7279    4.0786    1.2327 O   0  0  0  0  0  0  0  0  0  0  0  0
   -8.3342    4.0781    1.3316 C   0  0  2  0  0  0  0  0  0  0  0  0
   -7.2019    3.3351    0.9008 O   0  0  0  0  0  0  0  0  0  0  0  0
   -8.3235    4.2344    2.8569 C   0  0  0  0  0  0  0  0  0  0  0  0
   -9.3193    5.1511    3.3339 O   0  0  0  0  0  0  0  0  0  0  0  0
  1  2  1  0  0  0  0
  3  1  1  1  0  0  0
  3  9  1  0  0  0  0
  3  4  1  0  0  0  0
  4  5  1  6  0  0  0
  4  6  1  0  0  0  0
  6  7  1  6  0  0  0
  6  8  1  0  0  0  0
  8  9  1  0  0  0  0
  8 10  1  6  0  0  0
  8 13  1  0  0  0  0
 10 11  1  0  0  0  0
 12 13  1  6  0  0  0
 12 14  1  0  0  0  0
 12 21  1  0  0  0  0
 14 15  1  6  0  0  0
 14 16  1  0  0  0  0
 16 17  1  1  0  0  0
 16 18  1  0  0  0  0
 18 19  1  6  0  0  0
 18 20  1  0  0  0  0
 20 21  1  0  0  0  0
 20 22  1  1  0  0  0
 22 23  1  0  0  0  0
M  END
>  <CHROM.1>
-167.17603606,-64.45897117,-171.97472578,-178.74728462,-69.85052332,-7.39584851
4.93110792,0.02651208,0.28354761,0.74137238,0.98265115

>  <Name>
ligand

>  <RI>
0

>  <Rbt.Current_Directory>
/home/itssahil/PROJECTS/Mol_Feturizer/New_Systems/rnas/4TS2

>  <Rbt.Executable>
rbdock ($Id: //depot/dev/client3/rdock/2013.1/src/exe/rbdock.cxx#4 $)

>  <Rbt.Library>
libRbt.so (2013.1, Build901 2013/11/27)

>  <Rbt.Parameter_File>
/export/apps/rDock/src/rDock_2013.1_src/data/scripts/dock_solv.prm

>  <Rbt.Receptor>
prm/blind_docking_60.prm

>  <SCORE>
-10.7112

>  <SCORE.INTER>
-3.8957

>  <SCORE.INTER.CONST>
1

>  <SCORE.INTER.POLAR>
0

>  <SCORE.INTER.ROT>
5

>  <SCORE.INTER.SOLV>
7.36379

>  <SCORE.INTER.VDW>
-11.9851

>  <SCORE.INTER.norm>
-0.169378

>  <SCORE.INTRA>
-6.81548

>  <SCORE.INTRA.DIHEDRAL>
-11.1574

>  <SCORE.INTRA.DIHEDRAL.0>
12.4853

>  <SCORE.INTRA.POLAR>
0

>  <SCORE.INTRA.POLAR.0>
0

>  <SCORE.INTRA.REPUL>
0

>  <SCORE.INTRA.REPUL.0>
0

>  <SCORE.INTRA.SOLV>
0.741008

>  <SCORE.INTRA.SOLV.lig_0>
-31.1706

>  <SCORE.INTRA.VDW>
-1.6073

>  <SCORE.INTRA.VDW.0>
-1.16895

>  <SCORE.INTRA.norm>
-0.296325

>  <SCORE.RESTR>
0

>  <SCORE.RESTR.CAVITY>
0

>  <SCORE.RESTR.norm>
0

>  <SCORE.SYSTEM>
0

>  <SCORE.SYSTEM.CONST>
0

>  <SCORE.SYSTEM.DIHEDRAL>
0

>  <SCORE.SYSTEM.SOLV>
0

>  <SCORE.SYSTEM.norm>
0

>  <SCORE.heavy>
23

>  <SCORE.norm>
-0.465704

>  <RMSD>
15.311

$$$$
ligand
 OpenBabel11021811513D
libRbt.so/2013.1/901 2013/11/27
 23 24  0  0  0  0  0  0  0  0999 V2000
   -6.1023    5.9400   -1.3514 C   0  0  0  0  0  0  0  0  0  0  0  0
   -5.7483    7.0159   -2.2416 O   0  0  0  0  0  0  0  0  0  0  0  0
   -7.3638    5.2636   -1.8686 C   0  0  2  0  0  0  0  0  0  0  0  0
   -8.6088    6.1365   -1.9052 C   0  0  1  0  0  0  0  0  0  0  0  0
   -8.5659    6.9753   -3.0614 O   0  0  0  0  0  0  0  0  0  0  0  0
   -9.7217    5.0944   -1.9371 C   0  0  2  0  0  0  0  0  0  0  0  0
  -11.0342    5.4793   -1.5112 O   0  0  0  0  0  0  0  0  0  0  0  0
   -9.1654    4.0305   -1.0073 C   0  0  2  0  0  0  0  0  0  0  0  0
   -7.7272    4.1410   -1.0600 O   0  0  0  0  0  0  0  0  0  0  0  0
   -9.6688    2.6638   -1.5058 C   0  0  0  0  0  0  0  0  0  0  0  0
   -9.1559    1.5748   -0.7254 O   0  0  0  0  0  0  0  0  0  0  0  0
   -8.7865    3.6785    1.3507 C   0  0  2  0  0  0  0  0  0  0  0  0
   -9.5734    4.3296    0.3383 O   0  0  0  0  0  0  0  0  0  0  0  0
   -9.7175    3.3343    2.4983 C   0  0  2  0  0  0  0  0  0  0  0  0
  -10.8853    2.6885    1.9793 O   0  0  0  0  0  0  0  0  0  0  0  0
  -10.1575    4.5899    3.2186 C   0  0  1  0  0  0  0  0  0  0  0  0
  -10.8226    4.2130    4.4265 O   0  0  0  0  0  0  0  0  0  0  0  0
   -8.9643    5.4726    3.5315 C   0  0  2  0  0  0  0  0  0  0  0  0
   -9.4376    6.7114    4.0422 O   0  0  0  0  0  0  0  0  0  0  0  0
   -8.1135    5.7408    2.2974 C   0  0  2  0  0  0  0  0  0  0  0  0
   -7.6914    4.4828    1.7883 O   0  0  0  0  0  0  0  0  0  0  0  0
   -6.9009    6.6190    2.6279 C   0  0  0  0  0  0  0  0  0  0  0  0
   -6.0671    6.8761    1.4885 O   0  0  0  0  0  0  0  0  0  0  0  0
  1  2  1  0  0  0  0
  3  1  1  1  0  0  0
  3  9  1  0  0  0  0
  3  4  1  0  0  0  0
  4  5  1  6  0  0  0
  4  6  1  0  0  0  0
  6  7  1  1  0  0  0
  6  8  1  0  0  0  0
  8  9  1  0  0  0  0
  8 10  1  6  0  0  0
  8 13  1  0  0  0  0
 10 11  1  0  0  0  0
 12 13  1  6  0  0  0
 12 14  1  0  0  0  0
 12 21  1  0  0  0  0
 14 15  1  6  0  0  0
 14 16  1  0  0  0  0
 16 17  1  1  0  0  0
 16 18  1  0  0  0  0
 18 19  1  6  0  0  0
 18 20  1  0  0  0  0
 20 21  1  0  0  0  0
 20 22  1  1  0  0  0
 22 23  1  0  0  0  0
M  END
>  <CHROM.1>
-63.32898606,177.67007230,-144.91856173,-161.00401479,179.20132449,-8.69257655
4.92313660,0.49559080,-1.05463538,0.80701049,1.40305692

>  <Name>
ligand

>  <RI>
0

>  <Rbt.Current_Directory>
/home/itssahil/PROJECTS/Mol_Feturizer/New_Systems/rnas/4TS2

>  <Rbt.Executable>
rbdock ($Id: //depot/dev/client3/rdock/2013.1/src/exe/rbdock.cxx#4 $)

>  <Rbt.Library>
libRbt.so (2013.1, Build901 2013/11/27)

>  <Rbt.Parameter_File>
/export/apps/rDock/src/rDock_2013.1_src/data/scripts/dock_solv.prm

>  <Rbt.Receptor>
prm/blind_docking_100.prm

>  <SCORE>
-9.27234

>  <SCORE.INTER>
-4.7013

>  <SCORE.INTER.CONST>
1

>  <SCORE.INTER.POLAR>
0

>  <SCORE.INTER.ROT>
5

>  <SCORE.INTER.SOLV>
5.73401

>  <SCORE.INTER.VDW>
-11.9789

>  <SCORE.INTER.norm>
-0.204404

>  <SCORE.INTRA>
-4.57105

>  <SCORE.INTRA.DIHEDRAL>
-6.46495

>  <SCORE.INTRA.DIHEDRAL.0>
12.4853

>  <SCORE.INTRA.POLAR>
0

>  <SCORE.INTRA.POLAR.0>
0

>  <SCORE.INTRA.REPUL>
0

>  <SCORE.INTRA.REPUL.0>
0

>  <SCORE.INTRA.SOLV>
0.710702

>  <SCORE.INTRA.SOLV.lig_0>
-31.1706

>  <SCORE.INTRA.VDW>
-1.69392

>  <SCORE.INTRA.VDW.0>
-1.16895

>  <SCORE.INTRA.norm>
-0.198741

>  <SCORE.RESTR>
0

>  <SCORE.RESTR.CAVITY>
0

>  <SCORE.RESTR.norm>
0

>  <SCORE.SYSTEM>
0

>  <SCORE.SYSTEM.CONST>
0

>  <SCORE.SYSTEM.DIHEDRAL>
0

>  <SCORE.SYSTEM.SOLV>
0

>  <SCORE.SYSTEM.norm>
0

>  <SCORE.heavy>
23

>  <SCORE.norm>
-0.403145

>  <RMSD>
15.333

$$$$
ligand
 OpenBabel11021811513D
libRbt.so/2013.1/901 2013/11/27
 23 24  0  0  0  0  0  0  0  0999 V2000
   -9.2051    2.0382    1.1015 C   0  0  0  0  0  0  0  0  0  0  0  0
   -9.7045    3.3013    0.6211 O   0  0  0  0  0  0  0  0  0  0  0  0
   -9.9137    1.6876    2.4020 C   0  0  2  0  0  0  0  0  0  0  0  0
  -11.4321    1.6359    2.3289 C   0  0  1  0  0  0  0  0  0  0  0  0
  -11.8370    0.3914    1.7548 O   0  0  0  0  0  0  0  0  0  0  0  0
  -11.8223    1.7981    3.7942 C   0  0  2  0  0  0  0  0  0  0  0  0
  -13.1405    2.2649    4.1054 O   0  0  0  0  0  0  0  0  0  0  0  0
  -10.7893    2.8033    4.2720 C   0  0  2  0  0  0  0  0  0  0  0  0
   -9.6288    2.6415    3.4292 O   0  0  0  0  0  0  0  0  0  0  0  0
  -10.4891    2.4988    5.7508 C   0  0  0  0  0  0  0  0  0  0  0  0
  -11.6346    2.6933    6.5921 O   0  0  0  0  0  0  0  0  0  0  0  0
  -10.4943    5.1708    4.6401 C   0  0  2  0  0  0  0  0  0  0  0  0
  -11.2983    4.1306    4.0575 O   0  0  0  0  0  0  0  0  0  0  0  0
  -11.2246    6.4834    4.4256 C   0  0  2  0  0  0  0  0  0  0  0  0
  -12.5914    6.3319    4.8247 O   0  0  0  0  0  0  0  0  0  0  0  0
  -11.2036    6.8687    2.9628 C   0  0  1  0  0  0  0  0  0  0  0  0
  -11.6763    8.2120    2.8385 O   0  0  0  0  0  0  0  0  0  0  0  0
   -9.7997    6.7536    2.3998 C   0  0  2  0  0  0  0  0  0  0  0  0
   -9.8572    6.9492    0.9935 O   0  0  0  0  0  0  0  0  0  0  0  0
   -9.1811    5.3913    2.6833 C   0  0  2  0  0  0  0  0  0  0  0  0
   -9.1764    5.2096    4.0928 O   0  0  0  0  0  0  0  0  0  0  0  0
   -7.7563    5.2917    2.1257 C   0  0  0  0  0  0  0  0  0  0  0  0
   -6.8556    6.2411    2.7148 O   0  0  0  0  0  0  0  0  0  0  0  0
  1  2  1  0  0  0  0
  3  1  1  6  0  0  0
  3  9  1  0  0  0  0
  3  4  1  0  0  0  0
  4  5  1  1  0  0  0
  4  6  1  0  0  0  0
  6  7  1  6  0  0  0
  6  8  1  0  0  0  0
  8  9  1  0  0  0  0
  8 10  1  1  0  0  0
  8 13  1  0  0  0  0
 10 11  1  0  0  0  0
 12 13  1  6  0  0  0
 12 14  1  0  0  0  0
 12 21  1  0  0  0  0
 14 15  1  6  0  0  0
 14 16  1  0  0  0  0
 16 17  1  1  0  0  0
 16 18  1  0  0  0  0
 18 19  1  6  0  0  0
 18 20  1  0  0  0  0
 20 21  1  0  0  0  0
 20 22  1  1  0  0  0
 22 23  1  0  0  0  0
M  END
>  <CHROM.1>
56.34196280,-64.10010791,-175.32766501,171.70291322,61.81025375,-10.47316547
4.22250203,3.25331539,-2.01661490,0.82446848,0.18943023

>  <Name>
ligand

>  <RI>
0

>  <Rbt.Current_Directory>
/home/itssahil/PROJECTS/Mol_Feturizer/New_Systems/rnas/4TS2

>  <Rbt.Executable>
rbdock ($Id: //depot/dev/client3/rdock/2013.1/src/exe/rbdock.cxx#4 $)

>  <Rbt.Library>
libRbt.so (2013.1, Build901 2013/11/27)

>  <Rbt.Parameter_File>
/export/apps/rDock/src/rDock_2013.1_src/data/scripts/dock_solv.prm

>  <Rbt.Receptor>
prm/blind_docking_100.prm

>  <SCORE>
-11.7735

>  <SCORE.INTER>
-5.0318

>  <SCORE.INTER.CONST>
1

>  <SCORE.INTER.POLAR>
0

>  <SCORE.INTER.ROT>
5

>  <SCORE.INTER.SOLV>
6.46408

>  <SCORE.INTER.VDW>
-12.4426

>  <SCORE.INTER.norm>
-0.218774

>  <SCORE.INTRA>
-6.74175

>  <SCORE.INTRA.DIHEDRAL>
-11.7685

>  <SCORE.INTRA.DIHEDRAL.0>
12.4853

>  <SCORE.INTRA.POLAR>
0

>  <SCORE.INTRA.POLAR.0>
0

>  <SCORE.INTRA.REPUL>
0

>  <SCORE.INTRA.REPUL.0>
0

>  <SCORE.INTRA.SOLV>
1.27684

>  <SCORE.INTRA.SOLV.lig_0>
-31.1706

>  <SCORE.INTRA.VDW>
-1.49591

>  <SCORE.INTRA.VDW.0>
-1.16895

>  <SCORE.INTRA.norm>
-0.29312

>  <SCORE.RESTR>
0

>  <SCORE.RESTR.CAVITY>
0

>  <SCORE.RESTR.norm>
0

>  <SCORE.SYSTEM>
0

>  <SCORE.SYSTEM.CONST>
0

>  <SCORE.SYSTEM.DIHEDRAL>
0

>  <SCORE.SYSTEM.SOLV>
0

>  <SCORE.SYSTEM.norm>
0

>  <SCORE.heavy>
23

>  <SCORE.norm>
-0.511893

>  <RMSD>
15.375

$$$$
ligand
 OpenBabel11021811513D
libRbt.so/2013.1/901 2013/11/27
 23 24  0  0  0  0  0  0  0  0999 V2000
   -8.0052    6.3595    2.3902 C   0  0  0  0  0  0  0  0  0  0  0  0
   -8.9934    5.9437    1.4280 O   0  0  0  0  0  0  0  0  0  0  0  0
   -6.7089    6.6828    1.6610 C   0  0  2  0  0  0  0  0  0  0  0  0
   -6.8361    7.6494    0.4935 C   0  0  1  0  0  0  0  0  0  0  0  0
   -6.9078    8.9871    0.9912 O   0  0  0  0  0  0  0  0  0  0  0  0
   -5.5686    7.3510   -0.3001 C   0  0  2  0  0  0  0  0  0  0  0  0
   -5.5305    7.7008   -1.6888 O   0  0  0  0  0  0  0  0  0  0  0  0
   -5.4606    5.8447   -0.1410 C   0  0  2  0  0  0  0  0  0  0  0  0
   -6.1142    5.5085    1.1012 O   0  0  0  0  0  0  0  0  0  0  0  0
   -3.9649    5.4806   -0.1359 C   0  0  0  0  0  0  0  0  0  0  0  0
   -3.2359    6.1799    0.8825 O   0  0  0  0  0  0  0  0  0  0  0  0
   -6.0522    3.7811   -1.2452 C   0  0  2  0  0  0  0  0  0  0  0  0
   -6.1955    5.2113   -1.2020 O   0  0  0  0  0  0  0  0  0  0  0  0
   -6.4187    3.3300   -2.6468 C   0  0  2  0  0  0  0  0  0  0  0  0
   -5.7258    4.1442   -3.5993 O   0  0  0  0  0  0  0  0  0  0  0  0
   -7.9040    3.4923   -2.8844 C   0  0  1  0  0  0  0  0  0  0  0  0
   -8.2445    2.8345   -4.1071 O   0  0  0  0  0  0  0  0  0  0  0  0
   -8.6970    2.9019   -1.7340 C   0  0  2  0  0  0  0  0  0  0  0  0
  -10.0677    3.2328   -1.9103 O   0  0  0  0  0  0  0  0  0  0  0  0
   -8.2305    3.4354   -0.3862 C   0  0  2  0  0  0  0  0  0  0  0  0
   -6.8493    3.1253   -0.2592 O   0  0  0  0  0  0  0  0  0  0  0  0
   -9.0262    2.8193    0.7706 C   0  0  0  0  0  0  0  0  0  0  0  0
   -8.6137    3.3047    2.0566 O   0  0  0  0  0  0  0  0  0  0  0  0
  1  2  1  0  0  0  0
  3  1  1  6  0  0  0
  3  9  1  0  0  0  0
  3  4  1  0  0  0  0
  4  5  1  1  0  0  0
  4  6  1  0  0  0  0
  6  7  1  6  0  0  0
  6  8  1  0  0  0  0
  8  9  1  0  0  0  0
  8 10  1  1  0  0  0
  8 13  1  0  0  0  0
 10 11  1  0  0  0  0
 12 13  1  6  0  0  0
 12 14  1  0  0  0  0
 12 21  1  0  0  0  0
 14 15  1  6  0  0  0
 14 16  1  0  0  0  0
 16 17  1  6  0  0  0
 16 18  1  0  0  0  0
 18 19  1  6  0  0  0
 18 20  1  0  0  0  0
 20 21  1  0  0  0  0
 20 22  1  1  0  0  0
 22 23  1  0  0  0  0
M  END
>  <CHROM.1>
51.83473183,56.28953131,-159.16147825,173.69594836,-179.82109823,-6.93576682
5.01859239,-0.45432920,1.02832117,0.60980388,0.95947280

>  <Name>
ligand

>  <RI>
0

>  <Rbt.Current_Directory>
/home/itssahil/PROJECTS/Mol_Feturizer/New_Systems/rnas/4TS2

>  <Rbt.Executable>
rbdock ($Id: //depot/dev/client3/rdock/2013.1/src/exe/rbdock.cxx#4 $)

>  <Rbt.Library>
libRbt.so (2013.1, Build901 2013/11/27)

>  <Rbt.Parameter_File>
/export/apps/rDock/src/rDock_2013.1_src/data/scripts/dock_solv.prm

>  <Rbt.Receptor>
prm/blind_docking_20.prm

>  <SCORE>
-13.4441

>  <SCORE.INTER>
-7.55562

>  <SCORE.INTER.CONST>
1

>  <SCORE.INTER.POLAR>
0

>  <SCORE.INTER.ROT>
5

>  <SCORE.INTER.SOLV>
10.9451

>  <SCORE.INTER.VDW>
-15.6188

>  <SCORE.INTER.norm>
-0.328505

>  <SCORE.INTRA>
-5.88851

>  <SCORE.INTRA.DIHEDRAL>
-9.9468

>  <SCORE.INTRA.DIHEDRAL.0>
12.4853

>  <SCORE.INTRA.POLAR>
0

>  <SCORE.INTRA.POLAR.0>
0

>  <SCORE.INTRA.REPUL>
0

>  <SCORE.INTRA.REPUL.0>
0

>  <SCORE.INTRA.SOLV>
1.31775

>  <SCORE.INTRA.SOLV.lig_0>
-31.1706

>  <SCORE.INTRA.VDW>
-1.57399

>  <SCORE.INTRA.VDW.0>
-1.16895

>  <SCORE.INTRA.norm>
-0.256022

>  <SCORE.RESTR>
0

>  <SCORE.RESTR.CAVITY>
0

>  <SCORE.RESTR.norm>
0

>  <SCORE.SYSTEM>
0

>  <SCORE.SYSTEM.CONST>
0

>  <SCORE.SYSTEM.DIHEDRAL>
0

>  <SCORE.SYSTEM.SOLV>
0

>  <SCORE.SYSTEM.norm>
0

>  <SCORE.heavy>
23

>  <SCORE.norm>
-0.584528

>  <RMSD>
15.420

$$$$
ligand
 OpenBabel11021811513D
libRbt.so/2013.1/901 2013/11/27
 23 24  0  0  0  0  0  0  0  0999 V2000
   -5.0547    7.7428   -1.1923 C   0  0  0  0  0  0  0  0  0  0  0  0
   -3.7236    7.6895   -0.6439 O   0  0  0  0  0  0  0  0  0  0  0  0
   -5.2304    6.5972   -2.1789 C   0  0  2  0  0  0  0  0  0  0  0  0
   -6.5645    6.5579   -2.9083 C   0  0  1  0  0  0  0  0  0  0  0  0
   -6.5455    7.5004   -3.9824 O   0  0  0  0  0  0  0  0  0  0  0  0
   -6.6313    5.1034   -3.3617 C   0  0  2  0  0  0  0  0  0  0  0  0
   -7.9114    4.5389   -3.6694 O   0  0  0  0  0  0  0  0  0  0  0  0
   -6.0211    4.3875   -2.1697 C   0  0  2  0  0  0  0  0  0  0  0  0
   -5.1296    5.3259   -1.5310 O   0  0  0  0  0  0  0  0  0  0  0  0
   -5.2848    3.1430   -2.6978 C   0  0  0  0  0  0  0  0  0  0  0  0
   -4.1700    3.4817   -3.5345 O   0  0  0  0  0  0  0  0  0  0  0  0
   -6.5945    3.5114    0.0055 C   0  0  2  0  0  0  0  0  0  0  0  0
   -7.0645    4.0745   -1.2315 O   0  0  0  0  0  0  0  0  0  0  0  0
   -7.7850    2.8706    0.6942 C   0  0  2  0  0  0  0  0  0  0  0  0
   -8.4830    2.0447   -0.2444 O   0  0  0  0  0  0  0  0  0  0  0  0
   -8.7443    3.9304    1.1897 C   0  0  1  0  0  0  0  0  0  0  0  0
   -9.7121    3.3082    2.0380 O   0  0  0  0  0  0  0  0  0  0  0  0
   -8.0001    5.0118    1.9497 C   0  0  2  0  0  0  0  0  0  0  0  0
   -8.9054    6.0681    2.2393 O   0  0  0  0  0  0  0  0  0  0  0  0
   -6.8308    5.5699    1.1496 C   0  0  2  0  0  0  0  0  0  0  0  0
   -5.9674    4.4839    0.8414 O   0  0  0  0  0  0  0  0  0  0  0  0
   -6.0749    6.6493    1.9334 C   0  0  0  0  0  0  0  0  0  0  0  0
   -6.8396    7.8502    2.1147 O   0  0  0  0  0  0  0  0  0  0  0  0
  1  2  1  0  0  0  0
  3  1  1  1  0  0  0
  3  9  1  0  0  0  0
  3  4  1  0  0  0  0
  4  5  1  6  0  0  0
  4  6  1  0  0  0  0
  6  7  1  1  0  0  0
  6  8  1  0  0  0  0
  8  9  1  0  0  0  0
  8 10  1  6  0  0  0
  8 13  1  0  0  0  0
 10 11  1  0  0  0  0
 12 13  1  6  0  0  0
 12 14  1  0  0  0  0
 12 21  1  0  0  0  0
 14 15  1  6  0  0  0
 14 16  1  0  0  0  0
 16 17  1  1  0  0  0
 16 18  1  0  0  0  0
 18 19  1  6  0  0  0
 18 20  1  0  0  0  0
 20 21  1  0  0  0  0
 20 22  1  1  0  0  0
 22 23  1  0  0  0  0
M  END
>  <CHROM.1>
-176.71539640,64.96533091,-163.58667408,-174.11177545,-68.57275797,-6.66524492
5.11676455,-0.65884786,-0.52358956,0.94739692,0.87140836

>  <Name>
ligand

>  <RI>
0

>  <Rbt.Current_Directory>
/home/itssahil/PROJECTS/Mol_Feturizer/New_Systems/rnas/4TS2

>  <Rbt.Executable>
rbdock ($Id: //depot/dev/client3/rdock/2013.1/src/exe/rbdock.cxx#4 $)

>  <Rbt.Library>
libRbt.so (2013.1, Build901 2013/11/27)

>  <Rbt.Parameter_File>
/export/apps/rDock/src/rDock_2013.1_src/data/scripts/dock_solv.prm

>  <Rbt.Receptor>
prm/blind_docking_60.prm

>  <SCORE>
-12.2042

>  <SCORE.INTER>
-5.35946

>  <SCORE.INTER.CONST>
1

>  <SCORE.INTER.POLAR>
0

>  <SCORE.INTER.ROT>
5

>  <SCORE.INTER.SOLV>
10.5106

>  <SCORE.INTER.VDW>
-14.0098

>  <SCORE.INTER.norm>
-0.23302

>  <SCORE.INTRA>
-6.84472

>  <SCORE.INTRA.DIHEDRAL>
-10.6674

>  <SCORE.INTRA.DIHEDRAL.0>
12.4853

>  <SCORE.INTRA.POLAR>
0

>  <SCORE.INTRA.POLAR.0>
0

>  <SCORE.INTRA.REPUL>
0

>  <SCORE.INTRA.REPUL.0>
0

>  <SCORE.INTRA.SOLV>
0.33442

>  <SCORE.INTRA.SOLV.lig_0>
-31.1706

>  <SCORE.INTRA.VDW>
-1.67824

>  <SCORE.INTRA.VDW.0>
-1.16895

>  <SCORE.INTRA.norm>
-0.297597

>  <SCORE.RESTR>
0

>  <SCORE.RESTR.CAVITY>
0

>  <SCORE.RESTR.norm>
0

>  <SCORE.SYSTEM>
0

>  <SCORE.SYSTEM.CONST>
0

>  <SCORE.SYSTEM.DIHEDRAL>
0

>  <SCORE.SYSTEM.SOLV>
0

>  <SCORE.SYSTEM.norm>
0

>  <SCORE.heavy>
23

>  <SCORE.norm>
-0.530617

>  <RMSD>
15.445

$$$$
ligand
 OpenBabel11021811513D
libRbt.so/2013.1/901 2013/11/27
 23 24  0  0  0  0  0  0  0  0999 V2000
   -9.6332    3.7022   -3.0790 C   0  0  0  0  0  0  0  0  0  0  0  0
   -9.9258    2.3542   -2.6632 O   0  0  0  0  0  0  0  0  0  0  0  0
  -10.0128    4.6597   -1.9585 C   0  0  2  0  0  0  0  0  0  0  0  0
   -9.8156    6.1369   -2.2625 C   0  0  1  0  0  0  0  0  0  0  0  0
  -10.9072    6.6077   -3.0556 O   0  0  0  0  0  0  0  0  0  0  0  0
   -9.7611    6.7406   -0.8632 C   0  0  2  0  0  0  0  0  0  0  0  0
   -9.1304    8.0151   -0.6900 O   0  0  0  0  0  0  0  0  0  0  0  0
   -8.9924    5.6735   -0.1040 C   0  0  2  0  0  0  0  0  0  0  0  0
   -9.2387    4.4219   -0.7795 O   0  0  0  0  0  0  0  0  0  0  0  0
   -9.5062    5.6697    1.3471 C   0  0  0  0  0  0  0  0  0  0  0  0
  -10.8925    5.3119    1.4349 O   0  0  0  0  0  0  0  0  0  0  0  0
   -6.7402    4.9153    0.3205 C   0  0  2  0  0  0  0  0  0  0  0  0
   -7.5857    5.9517   -0.2076 O   0  0  0  0  0  0  0  0  0  0  0  0
   -5.5278    5.5882    0.9367 C   0  0  2  0  0  0  0  0  0  0  0  0
   -5.9632    6.6545    1.7874 O   0  0  0  0  0  0  0  0  0  0  0  0
   -4.6449    6.1789   -0.1405 C   0  0  1  0  0  0  0  0  0  0  0  0
   -3.4076    6.5792    0.4532 O   0  0  0  0  0  0  0  0  0  0  0  0
   -4.3938    5.1657   -1.2411 C   0  0  2  0  0  0  0  0  0  0  0  0
   -3.7157    5.8138   -2.3086 O   0  0  0  0  0  0  0  0  0  0  0  0
   -5.6893    4.5664   -1.7714 C   0  0  2  0  0  0  0  0  0  0  0  0
   -6.3616    3.9637   -0.6739 O   0  0  0  0  0  0  0  0  0  0  0  0
   -5.4236    3.5311   -2.8707 C   0  0  0  0  0  0  0  0  0  0  0  0
   -6.6222    3.0807   -3.5188 O   0  0  0  0  0  0  0  0  0  0  0  0
  1  2  1  0  0  0  0
  3  1  1  6  0  0  0
  3  9  1  0  0  0  0
  3  4  1  0  0  0  0
  4  5  1  6  0  0  0
  4  6  1  0  0  0  0
  6  7  1  6  0  0  0
  6  8  1  0  0  0  0
  8  9  1  0  0  0  0
  8 10  1  1  0  0  0
  8 13  1  0  0  0  0
 10 11  1  0  0  0  0
 12 13  1  6  0  0  0
 12 14  1  0  0  0  0
 12 21  1  0  0  0  0
 14 15  1  1  0  0  0
 14 16  1  0  0  0  0
 16 17  1  1  0  0  0
 16 18  1  0  0  0  0
 18 19  1  6  0  0  0
 18 20  1  0  0  0  0
 20 21  1  0  0  0  0
 20 22  1  6  0  0  0
 22 23  1  0  0  0  0
M  END
>  <CHROM.1>
-177.67627737,63.05295283,-145.31104421,-172.18285235,-172.00278018,-7.56706834
5.26983812,-0.95806903,-2.98042582,-0.03890079,0.92826083

>  <Name>
ligand

>  <RI>
0

>  <Rbt.Current_Directory>
/home/itssahil/PROJECTS/Mol_Feturizer/New_Systems/rnas/4TS2

>  <Rbt.Executable>
rbdock ($Id: //depot/dev/client3/rdock/2013.1/src/exe/rbdock.cxx#4 $)

>  <Rbt.Library>
libRbt.so (2013.1, Build901 2013/11/27)

>  <Rbt.Parameter_File>
/export/apps/rDock/src/rDock_2013.1_src/data/scripts/dock_solv.prm

>  <Rbt.Receptor>
prm/blind_docking_20.prm

>  <SCORE>
-11.5935

>  <SCORE.INTER>
-6.25259

>  <SCORE.INTER.CONST>
1

>  <SCORE.INTER.POLAR>
0

>  <SCORE.INTER.ROT>
5

>  <SCORE.INTER.SOLV>
8.27408

>  <SCORE.INTER.VDW>
-13.8598

>  <SCORE.INTER.norm>
-0.271852

>  <SCORE.INTRA>
-5.34086

>  <SCORE.INTRA.DIHEDRAL>
-7.48891

>  <SCORE.INTRA.DIHEDRAL.0>
12.4853

>  <SCORE.INTRA.POLAR>
0

>  <SCORE.INTRA.POLAR.0>
0

>  <SCORE.INTRA.REPUL>
0

>  <SCORE.INTRA.REPUL.0>
0

>  <SCORE.INTRA.SOLV>
0.0706788

>  <SCORE.INTRA.SOLV.lig_0>
-31.1706

>  <SCORE.INTRA.VDW>
-1.63174

>  <SCORE.INTRA.VDW.0>
-1.16895

>  <SCORE.INTRA.norm>
-0.232211

>  <SCORE.RESTR>
0

>  <SCORE.RESTR.CAVITY>
0

>  <SCORE.RESTR.norm>
0

>  <SCORE.SYSTEM>
0

>  <SCORE.SYSTEM.CONST>
0

>  <SCORE.SYSTEM.DIHEDRAL>
0

>  <SCORE.SYSTEM.SOLV>
0

>  <SCORE.SYSTEM.norm>
0

>  <SCORE.heavy>
23

>  <SCORE.norm>
-0.504063

>  <RMSD>
15.464

$$$$
ligand
 OpenBabel11021811513D
libRbt.so/2013.1/901 2013/11/27
 23 24  0  0  0  0  0  0  0  0999 V2000
   -6.3754    3.7452   -3.2137 C   0  0  0  0  0  0  0  0  0  0  0  0
   -7.3577    4.5101   -3.9386 O   0  0  0  0  0  0  0  0  0  0  0  0
   -5.3048    4.6887   -2.6844 C   0  0  2  0  0  0  0  0  0  0  0  0
   -4.3161    4.0758   -1.7044 C   0  0  1  0  0  0  0  0  0  0  0  0
   -3.3293    3.3364   -2.4266 O   0  0  0  0  0  0  0  0  0  0  0  0
   -3.7695    5.3110   -0.9966 C   0  0  2  0  0  0  0  0  0  0  0  0
   -3.1713    5.1528    0.2954 O   0  0  0  0  0  0  0  0  0  0  0  0
   -5.0147    6.1735   -0.8902 C   0  0  2  0  0  0  0  0  0  0  0  0
   -5.8796    5.7940   -1.9816 O   0  0  0  0  0  0  0  0  0  0  0  0
   -4.5730    7.6457   -0.9744 C   0  0  0  0  0  0  0  0  0  0  0  0
   -5.6864    8.5497   -1.0005 O   0  0  0  0  0  0  0  0  0  0  0  0
   -6.9638    6.5181    0.4919 C   0  0  2  0  0  0  0  0  0  0  0  0
   -5.6977    5.8548    0.3342 O   0  0  0  0  0  0  0  0  0  0  0  0
   -7.4002    6.3274    1.9326 C   0  0  2  0  0  0  0  0  0  0  0  0
   -6.3108    6.6565    2.8015 O   0  0  0  0  0  0  0  0  0  0  0  0
   -7.7811    4.8850    2.1844 C   0  0  1  0  0  0  0  0  0  0  0  0
   -8.4139    4.7975    3.4632 O   0  0  0  0  0  0  0  0  0  0  0  0
   -8.7171    4.3825    1.1017 C   0  0  2  0  0  0  0  0  0  0  0  0
   -8.9046    2.9848    1.2765 O   0  0  0  0  0  0  0  0  0  0  0  0
   -8.1629    4.6348   -0.2940 C   0  0  2  0  0  0  0  0  0  0  0  0
   -7.9482    6.0339   -0.4215 O   0  0  0  0  0  0  0  0  0  0  0  0
   -9.1243    4.1393   -1.3809 C   0  0  0  0  0  0  0  0  0  0  0  0
  -10.3706    4.8507   -1.3944 O   0  0  0  0  0  0  0  0  0  0  0  0
  1  2  1  0  0  0  0
  3  1  1  1  0  0  0
  3  9  1  0  0  0  0
  3  4  1  0  0  0  0
  4  5  1  6  0  0  0
  4  6  1  0  0  0  0
  6  7  1  1  0  0  0
  6  8  1  0  0  0  0
  8  9  1  0  0  0  0
  8 10  1  6  0  0  0
  8 13  1  0  0  0  0
 10 11  1  0  0  0  0
 12 13  1  1  0  0  0
 12 14  1  0  0  0  0
 12 21  1  0  0  0  0
 14 15  1  1  0  0  0
 14 16  1  0  0  0  0
 16 17  1  1  0  0  0
 16 18  1  0  0  0  0
 18 19  1  1  0  0  0
 18 20  1  0  0  0  0
 20 21  1  0  0  0  0
 20 22  1  6  0  0  0
 22 23  1  0  0  0  0
M  END
>  <CHROM.1>
170.34053303,174.93227286,-167.68249689,-174.46264060,64.44868669,-6.56200721
5.26504747,-0.40773877,0.65095327,-0.34414022,-1.94216948

>  <Name>
ligand

>  <RI>
0

>  <Rbt.Current_Directory>
/home/itssahil/PROJECTS/Mol_Feturizer/New_Systems/rnas/4TS2

>  <Rbt.Executable>
rbdock ($Id: //depot/dev/client3/rdock/2013.1/src/exe/rbdock.cxx#4 $)

>  <Rbt.Library>
libRbt.so (2013.1, Build901 2013/11/27)

>  <Rbt.Parameter_File>
/export/apps/rDock/src/rDock_2013.1_src/data/scripts/dock_solv.prm

>  <Rbt.Receptor>
prm/blind_docking_60.prm

>  <SCORE>
-12.7923

>  <SCORE.INTER>
-6.06846

>  <SCORE.INTER.CONST>
1

>  <SCORE.INTER.POLAR>
0

>  <SCORE.INTER.ROT>
5

>  <SCORE.INTER.SOLV>
9.59997

>  <SCORE.INTER.VDW>
-14.179

>  <SCORE.INTER.norm>
-0.263846

>  <SCORE.INTRA>
-6.72387

>  <SCORE.INTRA.DIHEDRAL>
-11.1689

>  <SCORE.INTRA.DIHEDRAL.0>
12.4853

>  <SCORE.INTRA.POLAR>
0

>  <SCORE.INTRA.POLAR.0>
0

>  <SCORE.INTRA.REPUL>
0

>  <SCORE.INTRA.REPUL.0>
0

>  <SCORE.INTRA.SOLV>
0.684835

>  <SCORE.INTRA.SOLV.lig_0>
-31.1706

>  <SCORE.INTRA.VDW>
-1.48185

>  <SCORE.INTRA.VDW.0>
-1.16895

>  <SCORE.INTRA.norm>
-0.292342

>  <SCORE.RESTR>
0

>  <SCORE.RESTR.CAVITY>
0

>  <SCORE.RESTR.norm>
0

>  <SCORE.SYSTEM>
0

>  <SCORE.SYSTEM.CONST>
0

>  <SCORE.SYSTEM.DIHEDRAL>
0

>  <SCORE.SYSTEM.SOLV>
0

>  <SCORE.SYSTEM.norm>
0

>  <SCORE.heavy>
23

>  <SCORE.norm>
-0.556188

>  <RMSD>
15.492

$$$$
ligand
 OpenBabel11021811513D
libRbt.so/2013.1/901 2013/11/27
 23 24  0  0  0  0  0  0  0  0999 V2000
   -5.8335    3.6525   -2.7952 C   0  0  0  0  0  0  0  0  0  0  0  0
   -6.7337    4.0072   -3.8626 O   0  0  0  0  0  0  0  0  0  0  0  0
   -5.1367    4.9102   -2.2961 C   0  0  2  0  0  0  0  0  0  0  0  0
   -4.0622    4.6909   -1.2422 C   0  0  1  0  0  0  0  0  0  0  0  0
   -2.8575    4.2566   -1.8766 O   0  0  0  0  0  0  0  0  0  0  0  0
   -3.9626    6.0722   -0.6037 C   0  0  2  0  0  0  0  0  0  0  0  0
   -3.4162    6.1801    0.7161 O   0  0  0  0  0  0  0  0  0  0  0  0
   -5.4171    6.5087   -0.6007 C   0  0  2  0  0  0  0  0  0  0  0  0
   -6.0619    5.8188   -1.6924 O   0  0  0  0  0  0  0  0  0  0  0  0
   -5.4470    8.0382   -0.7720 C   0  0  0  0  0  0  0  0  0  0  0  0
   -4.8433    8.4622   -2.0022 O   0  0  0  0  0  0  0  0  0  0  0  0
   -7.3928    6.5016    0.7864 C   0  0  2  0  0  0  0  0  0  0  0  0
   -6.0340    6.0617    0.6185 O   0  0  0  0  0  0  0  0  0  0  0  0
   -7.8271    6.1105    2.1867 C   0  0  2  0  0  0  0  0  0  0  0  0
   -6.8245    6.5221    3.1224 O   0  0  0  0  0  0  0  0  0  0  0  0
   -7.9800    4.6092    2.2941 C   0  0  1  0  0  0  0  0  0  0  0  0
   -8.6208    4.3041    3.5350 O   0  0  0  0  0  0  0  0  0  0  0  0
   -8.7987    4.0711    1.1361 C   0  0  2  0  0  0  0  0  0  0  0  0
   -8.7660    2.6510    1.1782 O   0  0  0  0  0  0  0  0  0  0  0  0
   -8.2589    4.5369   -0.2095 C   0  0  2  0  0  0  0  0  0  0  0  0
   -8.2660    5.9581   -0.2033 O   0  0  0  0  0  0  0  0  0  0  0  0
   -9.1036    4.0021   -1.3720 C   0  0  0  0  0  0  0  0  0  0  0  0
   -9.0512    2.5730   -1.4927 O   0  0  0  0  0  0  0  0  0  0  0  0
  1  2  1  0  0  0  0
  3  1  1  1  0  0  0
  3  9  1  0  0  0  0
  3  4  1  0  0  0  0
  4  5  1  6  0  0  0
  4  6  1  0  0  0  0
  6  7  1  1  0  0  0
  6  8  1  0  0  0  0
  8  9  1  0  0  0  0
  8 10  1  6  0  0  0
  8 13  1  0  0  0  0
 10 11  1  0  0  0  0
 12 13  1  6  0  0  0
 12 14  1  0  0  0  0
 12 21  1  0  0  0  0
 14 15  1  1  0  0  0
 14 16  1  0  0  0  0
 16 17  1  1  0  0  0
 16 18  1  0  0  0  0
 18 19  1  6  0  0  0
 18 20  1  0  0  0  0
 20 21  1  0  0  0  0
 20 22  1  6  0  0  0
 22 23  1  0  0  0  0
M  END
>  <CHROM.1>
-175.08400494,60.35788423,-172.47496295,175.57905087,-65.03056918,-6.55227004
5.22773822,-0.24275316,0.41457469,-0.61353933,-2.06821800

>  <Name>
ligand

>  <RI>
0

>  <Rbt.Current_Directory>
/home/itssahil/PROJECTS/Mol_Feturizer/New_Systems/rnas/4TS2

>  <Rbt.Executable>
rbdock ($Id: //depot/dev/client3/rdock/2013.1/src/exe/rbdock.cxx#4 $)

>  <Rbt.Library>
libRbt.so (2013.1, Build901 2013/11/27)

>  <Rbt.Parameter_File>
/export/apps/rDock/src/rDock_2013.1_src/data/scripts/dock_solv.prm

>  <Rbt.Receptor>
prm/blind_docking_20.prm

>  <SCORE>
-12.198

>  <SCORE.INTER>
-5.21567

>  <SCORE.INTER.CONST>
1

>  <SCORE.INTER.POLAR>
0

>  <SCORE.INTER.ROT>
5

>  <SCORE.INTER.SOLV>
9.31733

>  <SCORE.INTER.VDW>
-13.5162

>  <SCORE.INTER.norm>
-0.226768

>  <SCORE.INTRA>
-6.98231

>  <SCORE.INTRA.DIHEDRAL>
-11.7984

>  <SCORE.INTRA.DIHEDRAL.0>
12.4853

>  <SCORE.INTRA.POLAR>
0

>  <SCORE.INTRA.POLAR.0>
0

>  <SCORE.INTRA.REPUL>
0

>  <SCORE.INTRA.REPUL.0>
0

>  <SCORE.INTRA.SOLV>
0.572813

>  <SCORE.INTRA.SOLV.lig_0>
-31.1706

>  <SCORE.INTRA.VDW>
-1.36951

>  <SCORE.INTRA.VDW.0>
-1.16895

>  <SCORE.INTRA.norm>
-0.303579

>  <SCORE.RESTR>
0

>  <SCORE.RESTR.CAVITY>
0

>  <SCORE.RESTR.norm>
0

>  <SCORE.SYSTEM>
0

>  <SCORE.SYSTEM.CONST>
0

>  <SCORE.SYSTEM.DIHEDRAL>
0

>  <SCORE.SYSTEM.SOLV>
0

>  <SCORE.SYSTEM.norm>
0

>  <SCORE.heavy>
23

>  <SCORE.norm>
-0.530347

>  <RMSD>
15.508

$$$$
ligand
 OpenBabel11021811513D
libRbt.so/2013.1/901 2013/11/27
 23 24  0  0  0  0  0  0  0  0999 V2000
   -6.7661    6.9212   -2.0977 C   0  0  0  0  0  0  0  0  0  0  0  0
   -5.5895    6.1890   -2.4913 O   0  0  0  0  0  0  0  0  0  0  0  0
   -8.0012    6.1441   -2.5305 C   0  0  2  0  0  0  0  0  0  0  0  0
   -9.3355    6.7945   -2.1987 C   0  0  1  0  0  0  0  0  0  0  0  0
   -9.6194    7.8118   -3.1614 O   0  0  0  0  0  0  0  0  0  0  0  0
  -10.2873    5.6044   -2.2563 C   0  0  2  0  0  0  0  0  0  0  0  0
  -11.5370    5.6913   -1.5613 O   0  0  0  0  0  0  0  0  0  0  0  0
   -9.4324    4.5048   -1.6516 C   0  0  2  0  0  0  0  0  0  0  0  0
   -8.0565    4.8570   -1.9088 O   0  0  0  0  0  0  0  0  0  0  0  0
   -9.8346    3.1779   -2.3205 C   0  0  0  0  0  0  0  0  0  0  0  0
   -9.4556    3.1261   -3.7030 O   0  0  0  0  0  0  0  0  0  0  0  0
   -8.6575    3.7092    0.4918 C   0  0  2  0  0  0  0  0  0  0  0  0
   -9.6191    4.5015   -0.2261 O   0  0  0  0  0  0  0  0  0  0  0  0
   -9.3183    3.2476    1.7773 C   0  0  2  0  0  0  0  0  0  0  0  0
  -10.6067    2.7015    1.4742 O   0  0  0  0  0  0  0  0  0  0  0  0
   -9.5139    4.4138    2.7210 C   0  0  1  0  0  0  0  0  0  0  0  0
   -9.9042    3.9055    3.9988 O   0  0  0  0  0  0  0  0  0  0  0  0
   -8.2352    5.2200    2.8467 C   0  0  2  0  0  0  0  0  0  0  0  0
   -8.5120    6.3967    3.5939 O   0  0  0  0  0  0  0  0  0  0  0  0
   -7.6763    5.6191    1.4876 C   0  0  2  0  0  0  0  0  0  0  0  0
   -7.4498    4.4245    0.7517 O   0  0  0  0  0  0  0  0  0  0  0  0
   -6.3749    6.4182    1.6252 C   0  0  0  0  0  0  0  0  0  0  0  0
   -6.5250    7.6017    2.4230 O   0  0  0  0  0  0  0  0  0  0  0  0
  1  2  1  0  0  0  0
  3  1  1  1  0  0  0
  3  9  1  0  0  0  0
  3  4  1  0  0  0  0
  4  5  1  6  0  0  0
  4  6  1  0  0  0  0
  6  7  1  1  0  0  0
  6  8  1  0  0  0  0
  8  9  1  0  0  0  0
  8 10  1  6  0  0  0
  8 13  1  0  0  0  0
 10 11  1  0  0  0  0
 12 13  1  1  0  0  0
 12 14  1  0  0  0  0
 12 21  1  0  0  0  0
 14 15  1  6  0  0  0
 14 16  1  0  0  0  0
 16 17  1  1  0  0  0
 16 18  1  0  0  0  0
 18 19  1  1  0  0  0
 18 20  1  0  0  0  0
 20 21  1  0  0  0  0
 20 22  1  1  0  0  0
 22 23  1  0  0  0  0
M  END
>  <CHROM.1>
-179.40937268,68.37420929,-152.87167698,-167.21335726,-57.30956363,-8.70694535
5.18083041,-0.12424314,-1.63870586,0.76152581,1.72608738

>  <Name>
ligand

>  <RI>
0

>  <Rbt.Current_Directory>
/home/itssahil/PROJECTS/Mol_Feturizer/New_Systems/rnas/4TS2

>  <Rbt.Executable>
rbdock ($Id: //depot/dev/client3/rdock/2013.1/src/exe/rbdock.cxx#4 $)

>  <Rbt.Library>
libRbt.so (2013.1, Build901 2013/11/27)

>  <Rbt.Parameter_File>
/export/apps/rDock/src/rDock_2013.1_src/data/scripts/dock_solv.prm

>  <Rbt.Receptor>
prm/blind_docking_40.prm

>  <SCORE>
-11.6397

>  <SCORE.INTER>
-6.08931

>  <SCORE.INTER.CONST>
1

>  <SCORE.INTER.POLAR>
0

>  <SCORE.INTER.ROT>
5

>  <SCORE.INTER.SOLV>
8.02885

>  <SCORE.INTER.VDW>
-13.6692

>  <SCORE.INTER.norm>
-0.264752

>  <SCORE.INTRA>
-5.5504

>  <SCORE.INTRA.DIHEDRAL>
-8.45588

>  <SCORE.INTRA.DIHEDRAL.0>
12.4853

>  <SCORE.INTRA.POLAR>
0

>  <SCORE.INTRA.POLAR.0>
0

>  <SCORE.INTRA.REPUL>
0

>  <SCORE.INTRA.REPUL.0>
0

>  <SCORE.INTRA.SOLV>
0.085337

>  <SCORE.INTRA.SOLV.lig_0>
-31.1706

>  <SCORE.INTRA.VDW>
-1.36513

>  <SCORE.INTRA.VDW.0>
-1.16895

>  <SCORE.INTRA.norm>
-0.241322

>  <SCORE.RESTR>
0

>  <SCORE.RESTR.CAVITY>
0

>  <SCORE.RESTR.norm>
0

>  <SCORE.SYSTEM>
0

>  <SCORE.SYSTEM.CONST>
0

>  <SCORE.SYSTEM.DIHEDRAL>
0

>  <SCORE.SYSTEM.SOLV>
0

>  <SCORE.SYSTEM.norm>
0

>  <SCORE.heavy>
23

>  <SCORE.norm>
-0.506074

>  <RMSD>
15.512

$$$$
ligand
 OpenBabel11021811513D
libRbt.so/2013.1/901 2013/11/27
 23 24  0  0  0  0  0  0  0  0999 V2000
   -5.5006    3.6590   -3.2000 C   0  0  0  0  0  0  0  0  0  0  0  0
   -6.3542    4.0698   -4.2854 O   0  0  0  0  0  0  0  0  0  0  0  0
   -4.9036    4.8957   -2.5438 C   0  0  2  0  0  0  0  0  0  0  0  0
   -4.0022    4.6333   -1.3471 C   0  0  1  0  0  0  0  0  0  0  0  0
   -2.7092    4.2337   -1.8061 O   0  0  0  0  0  0  0  0  0  0  0  0
   -4.0182    5.9844   -0.6402 C   0  0  2  0  0  0  0  0  0  0  0  0
   -3.6833    6.0343    0.7518 O   0  0  0  0  0  0  0  0  0  0  0  0
   -5.4605    6.4139   -0.8429 C   0  0  2  0  0  0  0  0  0  0  0  0
   -5.9212    5.7717   -2.0507 O   0  0  0  0  0  0  0  0  0  0  0  0
   -5.4812    7.9495   -0.9487 C   0  0  0  0  0  0  0  0  0  0  0  0
   -4.6724    8.4336   -2.0300 O   0  0  0  0  0  0  0  0  0  0  0  0
   -7.6711    6.0646    0.0623 C   0  0  2  0  0  0  0  0  0  0  0  0
   -6.2532    5.9089    0.2451 O   0  0  0  0  0  0  0  0  0  0  0  0
   -8.2103    6.7842    1.2845 C   0  0  2  0  0  0  0  0  0  0  0  0
   -7.3965    7.9316    1.5520 O   0  0  0  0  0  0  0  0  0  0  0  0
   -8.1592    5.8806    2.4969 C   0  0  1  0  0  0  0  0  0  0  0  0
   -8.8944    6.4977    3.5563 O   0  0  0  0  0  0  0  0  0  0  0  0
   -8.7475    4.5201    2.1747 C   0  0  2  0  0  0  0  0  0  0  0  0
   -8.5178    3.6536    3.2774 O   0  0  0  0  0  0  0  0  0  0  0  0
   -8.1219    3.9085    0.9284 C   0  0  2  0  0  0  0  0  0  0  0  0
   -8.3324    4.8166   -0.1444 O   0  0  0  0  0  0  0  0  0  0  0  0
   -8.7356    2.5420    0.6016 C   0  0  0  0  0  0  0  0  0  0  0  0
   -8.2470    1.9872   -0.6285 O   0  0  0  0  0  0  0  0  0  0  0  0
  1  2  1  0  0  0  0
  3  1  1  1  0  0  0
  3  9  1  0  0  0  0
  3  4  1  0  0  0  0
  4  5  1  6  0  0  0
  4  6  1  0  0  0  0
  6  7  1  1  0  0  0
  6  8  1  0  0  0  0
  8  9  1  0  0  0  0
  8 10  1  6  0  0  0
  8 13  1  0  0  0  0
 10 11  1  0  0  0  0
 12 13  1  1  0  0  0
 12 14  1  0  0  0  0
 12 21  1  0  0  0  0
 14 15  1  1  0  0  0
 14 16  1  0  0  0  0
 16 17  1  1  0  0  0
 16 18  1  0  0  0  0
 18 19  1  1  0  0  0
 18 20  1  0  0  0  0
 20 21  1  0  0  0  0
 20 22  1  6  0  0  0
 22 23  1  0  0  0  0
M  END
>  <CHROM.1>
178.37153906,58.88159138,-126.38331236,-170.58599576,175.18181049,-6.51839517
5.32690659,-0.15984885,0.38992768,-0.75452524,-2.51256742

>  <Name>
ligand

>  <RI>
0

>  <Rbt.Current_Directory>
/home/itssahil/PROJECTS/Mol_Feturizer/New_Systems/rnas/4TS2

>  <Rbt.Executable>
rbdock ($Id: //depot/dev/client3/rdock/2013.1/src/exe/rbdock.cxx#4 $)

>  <Rbt.Library>
libRbt.so (2013.1, Build901 2013/11/27)

>  <Rbt.Parameter_File>
/export/apps/rDock/src/rDock_2013.1_src/data/scripts/dock_solv.prm

>  <Rbt.Receptor>
prm/blind_docking_20.prm

>  <SCORE>
-8.28711

>  <SCORE.INTER>
-4.44196

>  <SCORE.INTER.CONST>
1

>  <SCORE.INTER.POLAR>
0

>  <SCORE.INTER.ROT>
5

>  <SCORE.INTER.SOLV>
10.5399

>  <SCORE.INTER.VDW>
-13.4079

>  <SCORE.INTER.norm>
-0.193129

>  <SCORE.INTRA>
-3.85032

>  <SCORE.INTRA.DIHEDRAL>
-5.08314

>  <SCORE.INTRA.DIHEDRAL.0>
12.4853

>  <SCORE.INTRA.POLAR>
0

>  <SCORE.INTRA.POLAR.0>
0

>  <SCORE.INTRA.REPUL>
0

>  <SCORE.INTRA.REPUL.0>
0

>  <SCORE.INTRA.SOLV>
-0.429711

>  <SCORE.INTRA.SOLV.lig_0>
-31.1706

>  <SCORE.INTRA.VDW>
-1.0939

>  <SCORE.INTRA.VDW.0>
-1.16895

>  <SCORE.INTRA.norm>
-0.167405

>  <SCORE.RESTR>
0.00516851

>  <SCORE.RESTR.CAVITY>
0.00516851

>  <SCORE.RESTR.norm>
0.000224718

>  <SCORE.SYSTEM>
0

>  <SCORE.SYSTEM.CONST>
0

>  <SCORE.SYSTEM.DIHEDRAL>
0

>  <SCORE.SYSTEM.SOLV>
0

>  <SCORE.SYSTEM.norm>
0

>  <SCORE.heavy>
23

>  <SCORE.norm>
-0.360309

>  <RMSD>
15.576

$$$$
ligand
 OpenBabel11021811513D
libRbt.so/2013.1/901 2013/11/27
 23 24  0  0  0  0  0  0  0  0999 V2000
   -8.9776    2.7285   -3.3584 C   0  0  0  0  0  0  0  0  0  0  0  0
   -7.8000    2.7914   -4.1859 O   0  0  0  0  0  0  0  0  0  0  0  0
   -8.7597    3.5867   -2.1205 C   0  0  2  0  0  0  0  0  0  0  0  0
   -8.6009    5.0778   -2.3753 C   0  0  1  0  0  0  0  0  0  0  0  0
   -9.8886    5.6646   -2.5743 O   0  0  0  0  0  0  0  0  0  0  0  0
   -7.8995    5.5404   -1.1026 C   0  0  2  0  0  0  0  0  0  0  0  0
   -7.1603    6.7671   -1.1340 O   0  0  0  0  0  0  0  0  0  0  0  0
   -6.9622    4.3762   -0.8345 C   0  0  2  0  0  0  0  0  0  0  0  0
   -7.5720    3.2063   -1.4200 O   0  0  0  0  0  0  0  0  0  0  0  0
   -6.7953    4.2514    0.6907 C   0  0  0  0  0  0  0  0  0  0  0  0
   -8.0320    3.9522    1.3530 O   0  0  0  0  0  0  0  0  0  0  0  0
   -5.7869    4.3846   -2.9432 C   0  0  2  0  0  0  0  0  0  0  0  0
   -5.7225    4.6092   -1.5242 O   0  0  0  0  0  0  0  0  0  0  0  0
   -4.4103    3.9338   -3.3947 C   0  0  2  0  0  0  0  0  0  0  0  0
   -3.9494    2.8906   -2.5289 O   0  0  0  0  0  0  0  0  0  0  0  0
   -3.4248    5.0789   -3.3144 C   0  0  1  0  0  0  0  0  0  0  0  0
   -2.2178    4.6883   -3.9733 O   0  0  0  0  0  0  0  0  0  0  0  0
   -3.9974    6.3236   -3.9653 C   0  0  2  0  0  0  0  0  0  0  0  0
   -3.1211    7.4130   -3.7109 O   0  0  0  0  0  0  0  0  0  0  0  0
   -5.3794    6.6658   -3.4250 C   0  0  2  0  0  0  0  0  0  0  0  0
   -6.2187    5.5427   -3.6573 O   0  0  0  0  0  0  0  0  0  0  0  0
   -5.9564    7.9148   -4.1018 C   0  0  0  0  0  0  0  0  0  0  0  0
   -7.2558    8.2711   -3.6076 O   0  0  0  0  0  0  0  0  0  0  0  0
  1  2  1  0  0  0  0
  3  1  1  6  0  0  0
  3  9  1  0  0  0  0
  3  4  1  0  0  0  0
  4  5  1  1  0  0  0
  4  6  1  0  0  0  0
  6  7  1  6  0  0  0
  6  8  1  0  0  0  0
  8  9  1  0  0  0  0
  8 10  1  1  0  0  0
  8 13  1  0  0  0  0
 10 11  1  0  0  0  0
 12 13  1  1  0  0  0
 12 14  1  0  0  0  0
 12 21  1  0  0  0  0
 14 15  1  1  0  0  0
 14 16  1  0  0  0  0
 16 17  1  6  0  0  0
 16 18  1  0  0  0  0
 18 19  1  1  0  0  0
 18 20  1  0  0  0  0
 20 21  1  0  0  0  0
 20 22  1  6  0  0  0
 22 23  1  0  0  0  0
M  END
>  <CHROM.1>
64.67829148,62.51294695,-150.06951951,-75.61072255,-179.56503640,-6.34180643
5.03433448,-2.48668362,-2.65000768,0.31923147,-0.40951120

>  <Name>
ligand

>  <RI>
0

>  <Rbt.Current_Directory>
/home/itssahil/PROJECTS/Mol_Feturizer/New_Systems/rnas/4TS2

>  <Rbt.Executable>
rbdock ($Id: //depot/dev/client3/rdock/2013.1/src/exe/rbdock.cxx#4 $)

>  <Rbt.Library>
libRbt.so (2013.1, Build901 2013/11/27)

>  <Rbt.Parameter_File>
/export/apps/rDock/src/rDock_2013.1_src/data/scripts/dock_solv.prm

>  <Rbt.Receptor>
prm/blind_docking_20.prm

>  <SCORE>
-10.1025

>  <SCORE.INTER>
-6.52619

>  <SCORE.INTER.CONST>
1

>  <SCORE.INTER.POLAR>
0

>  <SCORE.INTER.ROT>
5

>  <SCORE.INTER.SOLV>
9.35712

>  <SCORE.INTER.VDW>
-14.4032

>  <SCORE.INTER.norm>
-0.283748

>  <SCORE.INTRA>
-3.57633

>  <SCORE.INTRA.DIHEDRAL>
-7.4092

>  <SCORE.INTRA.DIHEDRAL.0>
12.4853

>  <SCORE.INTRA.POLAR>
0

>  <SCORE.INTRA.POLAR.0>
0

>  <SCORE.INTRA.REPUL>
0

>  <SCORE.INTRA.REPUL.0>
0

>  <SCORE.INTRA.SOLV>
2.09536

>  <SCORE.INTRA.SOLV.lig_0>
-31.1706

>  <SCORE.INTRA.VDW>
-0.919416

>  <SCORE.INTRA.VDW.0>
-1.16895

>  <SCORE.INTRA.norm>
-0.155493

>  <SCORE.RESTR>
0

>  <SCORE.RESTR.CAVITY>
0

>  <SCORE.RESTR.norm>
0

>  <SCORE.SYSTEM>
0

>  <SCORE.SYSTEM.CONST>
0

>  <SCORE.SYSTEM.DIHEDRAL>
0

>  <SCORE.SYSTEM.SOLV>
0

>  <SCORE.SYSTEM.norm>
0

>  <SCORE.heavy>
23

>  <SCORE.norm>
-0.43924

>  <RMSD>
15.588

$$$$
ligand
 OpenBabel11021811513D
libRbt.so/2013.1/901 2013/11/27
 23 24  0  0  0  0  0  0  0  0999 V2000
   -5.7625    3.9848   -3.9997 C   0  0  0  0  0  0  0  0  0  0  0  0
   -6.6795    3.2532   -3.1633 O   0  0  0  0  0  0  0  0  0  0  0  0
   -4.8588    4.8353   -3.1186 C   0  0  2  0  0  0  0  0  0  0  0  0
   -4.1147    4.0854   -2.0243 C   0  0  1  0  0  0  0  0  0  0  0  0
   -2.9758    3.4316   -2.5878 O   0  0  0  0  0  0  0  0  0  0  0  0
   -3.7665    5.2098   -1.0547 C   0  0  2  0  0  0  0  0  0  0  0  0
   -3.4817    4.8761    0.3090 O   0  0  0  0  0  0  0  0  0  0  0  0
   -5.0160    6.0697   -1.1287 C   0  0  2  0  0  0  0  0  0  0  0  0
   -5.5982    5.8483   -2.4308 O   0  0  0  0  0  0  0  0  0  0  0  0
   -4.5899    7.5336   -0.9162 C   0  0  0  0  0  0  0  0  0  0  0  0
   -5.6418    8.4590   -1.2242 O   0  0  0  0  0  0  0  0  0  0  0  0
   -7.1357    6.4226   -0.0289 C   0  0  2  0  0  0  0  0  0  0  0  0
   -5.9590    5.6047   -0.1482 O   0  0  0  0  0  0  0  0  0  0  0  0
   -7.8532    6.0037    1.2408 C   0  0  2  0  0  0  0  0  0  0  0  0
   -6.9111    5.9501    2.3177 O   0  0  0  0  0  0  0  0  0  0  0  0
   -8.4577    4.6264    1.0781 C   0  0  1  0  0  0  0  0  0  0  0  0
   -9.3231    4.3746    2.1877 O   0  0  0  0  0  0  0  0  0  0  0  0
   -9.2331    4.5331   -0.2222 C   0  0  2  0  0  0  0  0  0  0  0  0
   -9.6291    3.1826   -0.4188 O   0  0  0  0  0  0  0  0  0  0  0  0
   -8.4012    4.9818   -1.4162 C   0  0  2  0  0  0  0  0  0  0  0  0
   -7.9873    6.3189   -1.1698 O   0  0  0  0  0  0  0  0  0  0  0  0
   -9.1996    4.9004   -2.7227 C   0  0  0  0  0  0  0  0  0  0  0  0
  -10.3040    5.8160   -2.7633 O   0  0  0  0  0  0  0  0  0  0  0  0
  1  2  1  0  0  0  0
  3  1  1  1  0  0  0
  3  9  1  0  0  0  0
  3  4  1  0  0  0  0
  4  5  1  6  0  0  0
  4  6  1  0  0  0  0
  6  7  1  1  0  0  0
  6  8  1  0  0  0  0
  8  9  1  0  0  0  0
  8 10  1  1  0  0  0
  8 13  1  0  0  0  0
 10 11  1  0  0  0  0
 12 13  1  6  0  0  0
 12 14  1  0  0  0  0
 12 21  1  0  0  0  0
 14 15  1  1  0  0  0
 14 16  1  0  0  0  0
 16 17  1  1  0  0  0
 16 18  1  0  0  0  0
 18 19  1  6  0  0  0
 18 20  1  0  0  0  0
 20 21  1  0  0  0  0
 20 22  1  6  0  0  0
 22 23  1  0  0  0  0
M  END
>  <CHROM.1>
54.34930283,168.54752847,-166.82297395,174.20969731,65.56013504,-6.66294260
5.22641470,-1.01235976,0.35302070,-0.16711226,-1.96559414

>  <Name>
ligand

>  <RI>
0

>  <Rbt.Current_Directory>
/home/itssahil/PROJECTS/Mol_Feturizer/New_Systems/rnas/4TS2

>  <Rbt.Executable>
rbdock ($Id: //depot/dev/client3/rdock/2013.1/src/exe/rbdock.cxx#4 $)

>  <Rbt.Library>
libRbt.so (2013.1, Build901 2013/11/27)

>  <Rbt.Parameter_File>
/export/apps/rDock/src/rDock_2013.1_src/data/scripts/dock_solv.prm

>  <Rbt.Receptor>
prm/blind_docking_60.prm

>  <SCORE>
-12.3505

>  <SCORE.INTER>
-6.16151

>  <SCORE.INTER.CONST>
1

>  <SCORE.INTER.POLAR>
0

>  <SCORE.INTER.ROT>
5

>  <SCORE.INTER.SOLV>
7.6291

>  <SCORE.INTER.VDW>
-13.584

>  <SCORE.INTER.norm>
-0.267892

>  <SCORE.INTRA>
-6.18902

>  <SCORE.INTRA.DIHEDRAL>
-10.7614

>  <SCORE.INTRA.DIHEDRAL.0>
12.4853

>  <SCORE.INTRA.POLAR>
0

>  <SCORE.INTRA.POLAR.0>
0

>  <SCORE.INTRA.REPUL>
0

>  <SCORE.INTRA.REPUL.0>
0

>  <SCORE.INTRA.SOLV>
1.17416

>  <SCORE.INTRA.SOLV.lig_0>
-31.1706

>  <SCORE.INTRA.VDW>
-1.39541

>  <SCORE.INTRA.VDW.0>
-1.16895

>  <SCORE.INTRA.norm>
-0.269088

>  <SCORE.RESTR>
0

>  <SCORE.RESTR.CAVITY>
0

>  <SCORE.RESTR.norm>
0

>  <SCORE.SYSTEM>
0

>  <SCORE.SYSTEM.CONST>
0

>  <SCORE.SYSTEM.DIHEDRAL>
0

>  <SCORE.SYSTEM.SOLV>
0

>  <SCORE.SYSTEM.norm>
0

>  <SCORE.heavy>
23

>  <SCORE.norm>
-0.53698

>  <RMSD>
15.629

$$$$
ligand
 OpenBabel11021811513D
libRbt.so/2013.1/901 2013/11/27
 23 24  0  0  0  0  0  0  0  0999 V2000
   -5.7689    3.9535   -4.0171 C   0  0  0  0  0  0  0  0  0  0  0  0
   -6.6838    3.2367   -3.1659 O   0  0  0  0  0  0  0  0  0  0  0  0
   -4.8610    4.8168   -3.1528 C   0  0  2  0  0  0  0  0  0  0  0  0
   -4.1085    4.0823   -2.0538 C   0  0  1  0  0  0  0  0  0  0  0  0
   -2.9721    3.4232   -2.6162 O   0  0  0  0  0  0  0  0  0  0  0  0
   -3.7561    5.2196   -1.1010 C   0  0  2  0  0  0  0  0  0  0  0  0
   -3.4619    4.9038    0.2650 O   0  0  0  0  0  0  0  0  0  0  0  0
   -5.0075    6.0763   -1.1779 C   0  0  2  0  0  0  0  0  0  0  0  0
   -5.5977    5.8373   -2.4732 O   0  0  0  0  0  0  0  0  0  0  0  0
   -4.5826    7.5436   -0.9870 C   0  0  0  0  0  0  0  0  0  0  0  0
   -3.6719    7.9854   -2.0033 O   0  0  0  0  0  0  0  0  0  0  0  0
   -7.1199    6.4408   -0.0678 C   0  0  2  0  0  0  0  0  0  0  0  0
   -5.9433    5.6224   -0.1854 O   0  0  0  0  0  0  0  0  0  0  0  0
   -7.8376    6.0245    1.2027 C   0  0  2  0  0  0  0  0  0  0  0  0
   -6.8956    5.9728    2.2798 O   0  0  0  0  0  0  0  0  0  0  0  0
   -8.4423    4.6470    1.0426 C   0  0  1  0  0  0  0  0  0  0  0  0
   -9.3078    4.3976    2.1526 O   0  0  0  0  0  0  0  0  0  0  0  0
   -9.2177    4.5513   -0.2576 C   0  0  2  0  0  0  0  0  0  0  0  0
   -9.6139    3.2005   -0.4515 O   0  0  0  0  0  0  0  0  0  0  0  0
   -8.3856    4.9975   -1.4523 C   0  0  2  0  0  0  0  0  0  0  0  0
   -7.9715    6.3350   -1.2085 O   0  0  0  0  0  0  0  0  0  0  0  0
   -9.1840    4.9137   -2.7587 C   0  0  0  0  0  0  0  0  0  0  0  0
  -10.3421    5.7612   -2.7638 O   0  0  0  0  0  0  0  0  0  0  0  0
  1  2  1  0  0  0  0
  3  1  1  1  0  0  0
  3  9  1  0  0  0  0
  3  4  1  0  0  0  0
  4  5  1  6  0  0  0
  4  6  1  0  0  0  0
  6  7  1  1  0  0  0
  6  8  1  0  0  0  0
  8  9  1  0  0  0  0
  8 10  1  1  0  0  0
  8 13  1  0  0  0  0
 10 11  1  0  0  0  0
 12 13  1  6  0  0  0
 12 14  1  0  0  0  0
 12 21  1  0  0  0  0
 14 15  1  1  0  0  0
 14 16  1  0  0  0  0
 16 17  1  1  0  0  0
 16 18  1  0  0  0  0
 18 19  1  6  0  0  0
 18 20  1  0  0  0  0
 20 21  1  0  0  0  0
 20 22  1  6  0  0  0
 22 23  1  0  0  0  0
M  END
>  <CHROM.1>
54.65058708,60.82667416,-167.52255801,174.13285734,61.45102393,-6.56122069
5.20848918,-1.08242273,0.31178685,-0.20541446,-1.91970062

>  <Name>
ligand

>  <RI>
0

>  <Rbt.Current_Directory>
/home/itssahil/PROJECTS/Mol_Feturizer/New_Systems/rnas/4TS2

>  <Rbt.Executable>
rbdock ($Id: //depot/dev/client3/rdock/2013.1/src/exe/rbdock.cxx#4 $)

>  <Rbt.Library>
libRbt.so (2013.1, Build901 2013/11/27)

>  <Rbt.Parameter_File>
/export/apps/rDock/src/rDock_2013.1_src/data/scripts/dock_solv.prm

>  <Rbt.Receptor>
prm/blind_docking_80.prm

>  <SCORE>
-12.8726

>  <SCORE.INTER>
-6.31855

>  <SCORE.INTER.CONST>
1

>  <SCORE.INTER.POLAR>
0

>  <SCORE.INTER.ROT>
5

>  <SCORE.INTER.SOLV>
7.65167

>  <SCORE.INTER.VDW>
-13.6963

>  <SCORE.INTER.norm>
-0.27472

>  <SCORE.INTRA>
-6.554

>  <SCORE.INTRA.DIHEDRAL>
-11.3069

>  <SCORE.INTRA.DIHEDRAL.0>
12.4853

>  <SCORE.INTRA.POLAR>
0

>  <SCORE.INTRA.POLAR.0>
0

>  <SCORE.INTRA.REPUL>
0

>  <SCORE.INTRA.REPUL.0>
0

>  <SCORE.INTRA.SOLV>
1.02311

>  <SCORE.INTRA.SOLV.lig_0>
-31.1706

>  <SCORE.INTRA.VDW>
-1.4121

>  <SCORE.INTRA.VDW.0>
-1.16895

>  <SCORE.INTRA.norm>
-0.284957

>  <SCORE.RESTR>
0

>  <SCORE.RESTR.CAVITY>
0

>  <SCORE.RESTR.norm>
0

>  <SCORE.SYSTEM>
0

>  <SCORE.SYSTEM.CONST>
0

>  <SCORE.SYSTEM.DIHEDRAL>
0

>  <SCORE.SYSTEM.SOLV>
0

>  <SCORE.SYSTEM.norm>
0

>  <SCORE.heavy>
23

>  <SCORE.norm>
-0.559676

>  <RMSD>
15.630

$$$$
ligand
 OpenBabel11021811513D
libRbt.so/2013.1/901 2013/11/27
 23 24  0  0  0  0  0  0  0  0999 V2000
   -5.5583    3.2512   -2.6880 C   0  0  0  0  0  0  0  0  0  0  0  0
   -5.5950    2.6692   -4.0054 O   0  0  0  0  0  0  0  0  0  0  0  0
   -6.9488    3.1756   -2.0740 C   0  0  2  0  0  0  0  0  0  0  0  0
   -8.0361    3.9381   -2.8155 C   0  0  1  0  0  0  0  0  0  0  0  0
   -8.4731    3.1691   -3.9379 O   0  0  0  0  0  0  0  0  0  0  0  0
   -9.0949    4.1082   -1.7313 C   0  0  2  0  0  0  0  0  0  0  0  0
  -10.0598    5.1576   -1.8734 O   0  0  0  0  0  0  0  0  0  0  0  0
   -8.2341    4.3569   -0.5053 C   0  0  2  0  0  0  0  0  0  0  0  0
   -6.9669    3.7096   -0.7471 O   0  0  0  0  0  0  0  0  0  0  0  0
   -8.9718    3.7695    0.7114 C   0  0  0  0  0  0  0  0  0  0  0  0
  -10.2278    4.4183    0.9545 O   0  0  0  0  0  0  0  0  0  0  0  0
   -7.1746    6.1331    0.7397 C   0  0  2  0  0  0  0  0  0  0  0  0
   -7.9845    5.7681   -0.3911 O   0  0  0  0  0  0  0  0  0  0  0  0
   -7.0801    7.6473    0.7609 C   0  0  2  0  0  0  0  0  0  0  0  0
   -8.3919    8.2026    0.6157 O   0  0  0  0  0  0  0  0  0  0  0  0
   -6.2320    8.1416   -0.3903 C   0  0  1  0  0  0  0  0  0  0  0  0
   -5.9647    9.5322   -0.1951 O   0  0  0  0  0  0  0  0  0  0  0  0
   -4.9317    7.3645   -0.4685 C   0  0  2  0  0  0  0  0  0  0  0  0
   -4.2522    7.7352   -1.6603 O   0  0  0  0  0  0  0  0  0  0  0  0
   -5.1660    5.8599   -0.4823 C   0  0  2  0  0  0  0  0  0  0  0  0
   -5.8820    5.5286    0.6999 O   0  0  0  0  0  0  0  0  0  0  0  0
   -3.8451    5.0837   -0.5436 C   0  0  0  0  0  0  0  0  0  0  0  0
   -3.0454    5.2430    0.6373 O   0  0  0  0  0  0  0  0  0  0  0  0
  1  2  1  0  0  0  0
  3  1  1  6  0  0  0
  3  9  1  0  0  0  0
  3  4  1  0  0  0  0
  4  5  1  6  0  0  0
  4  6  1  0  0  0  0
  6  7  1  6  0  0  0
  6  8  1  0  0  0  0
  8  9  1  0  0  0  0
  8 10  1  1  0  0  0
  8 13  1  0  0  0  0
 10 11  1  0  0  0  0
 12 13  1  6  0  0  0
 12 14  1  0  0  0  0
 12 21  1  0  0  0  0
 14 15  1  6  0  0  0
 14 16  1  0  0  0  0
 16 17  1  1  0  0  0
 16 18  1  0  0  0  0
 18 19  1  6  0  0  0
 18 20  1  0  0  0  0
 20 21  1  0  0  0  0
 20 22  1  1  0  0  0
 22 23  1  0  0  0  0
M  END
>  <CHROM.1>
-61.88280995,-62.89567039,-176.58039068,179.97686769,66.10126052,-6.87466274
5.39702686,-0.84964606,-2.13584781,0.18357901,0.61092447

>  <Name>
ligand

>  <RI>
0

>  <Rbt.Current_Directory>
/home/itssahil/PROJECTS/Mol_Feturizer/New_Systems/rnas/4TS2

>  <Rbt.Executable>
rbdock ($Id: //depot/dev/client3/rdock/2013.1/src/exe/rbdock.cxx#4 $)

>  <Rbt.Library>
libRbt.so (2013.1, Build901 2013/11/27)

>  <Rbt.Parameter_File>
/export/apps/rDock/src/rDock_2013.1_src/data/scripts/dock_solv.prm

>  <Rbt.Receptor>
prm/blind_docking_40.prm

>  <SCORE>
-12.349

>  <SCORE.INTER>
-5.44777

>  <SCORE.INTER.CONST>
1

>  <SCORE.INTER.POLAR>
0

>  <SCORE.INTER.ROT>
5

>  <SCORE.INTER.SOLV>
10.0435

>  <SCORE.INTER.VDW>
-13.913

>  <SCORE.INTER.norm>
-0.23686

>  <SCORE.INTRA>
-6.9012

>  <SCORE.INTRA.DIHEDRAL>
-12.1996

>  <SCORE.INTRA.DIHEDRAL.0>
12.4853

>  <SCORE.INTRA.POLAR>
0

>  <SCORE.INTRA.POLAR.0>
0

>  <SCORE.INTRA.REPUL>
0

>  <SCORE.INTRA.REPUL.0>
0

>  <SCORE.INTRA.SOLV>
0.50389

>  <SCORE.INTRA.SOLV.lig_0>
-31.1706

>  <SCORE.INTRA.VDW>
-1.05332

>  <SCORE.INTRA.VDW.0>
-1.16895

>  <SCORE.INTRA.norm>
-0.300052

>  <SCORE.RESTR>
0

>  <SCORE.RESTR.CAVITY>
0

>  <SCORE.RESTR.norm>
0

>  <SCORE.SYSTEM>
0

>  <SCORE.SYSTEM.CONST>
0

>  <SCORE.SYSTEM.DIHEDRAL>
0

>  <SCORE.SYSTEM.SOLV>
0

>  <SCORE.SYSTEM.norm>
0

>  <SCORE.heavy>
23

>  <SCORE.norm>
-0.536912

>  <RMSD>
15.646

$$$$
ligand
 OpenBabel11021811513D
libRbt.so/2013.1/901 2013/11/27
 23 24  0  0  0  0  0  0  0  0999 V2000
   -6.6672    7.5042   -2.4426 C   0  0  0  0  0  0  0  0  0  0  0  0
   -6.6516    7.5963   -1.0049 O   0  0  0  0  0  0  0  0  0  0  0  0
   -7.9168    6.7520   -2.8773 C   0  0  2  0  0  0  0  0  0  0  0  0
   -9.2375    7.3586   -2.4285 C   0  0  1  0  0  0  0  0  0  0  0  0
   -9.5754    8.4484   -3.2889 O   0  0  0  0  0  0  0  0  0  0  0  0
  -10.1830    6.1671   -2.5376 C   0  0  2  0  0  0  0  0  0  0  0  0
  -11.3974    6.1832   -1.7778 O   0  0  0  0  0  0  0  0  0  0  0  0
   -9.2918    5.0308   -2.0681 C   0  0  2  0  0  0  0  0  0  0  0  0
   -7.9327    5.4177   -2.3620 O   0  0  0  0  0  0  0  0  0  0  0  0
   -9.7177    3.7591   -2.8239 C   0  0  0  0  0  0  0  0  0  0  0  0
   -8.8591    2.6444   -2.5450 O   0  0  0  0  0  0  0  0  0  0  0  0
   -8.4480    4.0180   -0.0458 C   0  0  2  0  0  0  0  0  0  0  0  0
   -9.4079    4.9085   -0.6404 O   0  0  0  0  0  0  0  0  0  0  0  0
   -9.1491    3.2800    1.0795 C   0  0  2  0  0  0  0  0  0  0  0  0
  -10.3960    2.7653    0.5993 O   0  0  0  0  0  0  0  0  0  0  0  0
   -9.4415    4.2200    2.2283 C   0  0  1  0  0  0  0  0  0  0  0  0
   -9.8703    3.4469    3.3517 O   0  0  0  0  0  0  0  0  0  0  0  0
   -8.2073    5.0253    2.5875 C   0  0  2  0  0  0  0  0  0  0  0  0
   -8.5717    6.0132    3.5418 O   0  0  0  0  0  0  0  0  0  0  0  0
   -7.6015    5.7139    1.3718 C   0  0  2  0  0  0  0  0  0  0  0  0
   -7.2871    4.7045    0.4220 O   0  0  0  0  0  0  0  0  0  0  0  0
   -6.3450    6.5106    1.7425 C   0  0  0  0  0  0  0  0  0  0  0  0
   -6.6127    7.5913    2.6480 O   0  0  0  0  0  0  0  0  0  0  0  0
  1  2  1  0  0  0  0
  3  1  1  1  0  0  0
  3  9  1  0  0  0  0
  3  4  1  0  0  0  0
  4  5  1  6  0  0  0
  4  6  1  0  0  0  0
  6  7  1  1  0  0  0
  6  8  1  0  0  0  0
  8  9  1  0  0  0  0
  8 10  1  6  0  0  0
  8 13  1  0  0  0  0
 10 11  1  0  0  0  0
 12 13  1  1  0  0  0
 12 14  1  0  0  0  0
 12 21  1  0  0  0  0
 14 15  1  6  0  0  0
 14 16  1  0  0  0  0
 16 17  1  1  0  0  0
 16 18  1  0  0  0  0
 18 19  1  1  0  0  0
 18 20  1  0  0  0  0
 20 21  1  0  0  0  0
 20 22  1  1  0  0  0
 22 23  1  0  0  0  0
M  END
>  <CHROM.1>
58.07598145,174.73421834,-142.71217594,-170.14439151,-63.54388997,-8.64386278
5.44218028,-0.29699408,-1.71261101,0.94216236,1.98365303

>  <Name>
ligand

>  <RI>
0

>  <Rbt.Current_Directory>
/home/itssahil/PROJECTS/Mol_Feturizer/New_Systems/rnas/4TS2

>  <Rbt.Executable>
rbdock ($Id: //depot/dev/client3/rdock/2013.1/src/exe/rbdock.cxx#4 $)

>  <Rbt.Library>
libRbt.so (2013.1, Build901 2013/11/27)

>  <Rbt.Parameter_File>
/export/apps/rDock/src/rDock_2013.1_src/data/scripts/dock_solv.prm

>  <Rbt.Receptor>
prm/blind_docking_20.prm

>  <SCORE>
-10.9781

>  <SCORE.INTER>
-6.54654

>  <SCORE.INTER.CONST>
1

>  <SCORE.INTER.POLAR>
0

>  <SCORE.INTER.ROT>
5

>  <SCORE.INTER.SOLV>
6.75911

>  <SCORE.INTER.VDW>
-13.5507

>  <SCORE.INTER.norm>
-0.284632

>  <SCORE.INTRA>
-4.43153

>  <SCORE.INTRA.DIHEDRAL>
-7.06469

>  <SCORE.INTRA.DIHEDRAL.0>
12.4853

>  <SCORE.INTRA.POLAR>
0

>  <SCORE.INTRA.POLAR.0>
0

>  <SCORE.INTRA.REPUL>
0

>  <SCORE.INTRA.REPUL.0>
0

>  <SCORE.INTRA.SOLV>
1.36415

>  <SCORE.INTRA.SOLV.lig_0>
-31.1706

>  <SCORE.INTRA.VDW>
-1.58126

>  <SCORE.INTRA.VDW.0>
-1.16895

>  <SCORE.INTRA.norm>
-0.192675

>  <SCORE.RESTR>
0

>  <SCORE.RESTR.CAVITY>
0

>  <SCORE.RESTR.norm>
0

>  <SCORE.SYSTEM>
0

>  <SCORE.SYSTEM.CONST>
0

>  <SCORE.SYSTEM.DIHEDRAL>
0

>  <SCORE.SYSTEM.SOLV>
0

>  <SCORE.SYSTEM.norm>
0

>  <SCORE.heavy>
23

>  <SCORE.norm>
-0.477307

>  <RMSD>
15.746

$$$$
ligand
 OpenBabel11021811513D
libRbt.so/2013.1/901 2013/11/27
 23 24  0  0  0  0  0  0  0  0999 V2000
   -5.5789    8.4293   -1.1948 C   0  0  0  0  0  0  0  0  0  0  0  0
   -5.7806    9.5760   -2.0433 O   0  0  0  0  0  0  0  0  0  0  0  0
   -5.3369    7.2049   -2.0657 C   0  0  2  0  0  0  0  0  0  0  0  0
   -6.4833    6.8183   -2.9877 C   0  0  1  0  0  0  0  0  0  0  0  0
   -6.4685    7.6611   -4.1416 O   0  0  0  0  0  0  0  0  0  0  0  0
   -6.1675    5.3562   -3.2846 C   0  0  2  0  0  0  0  0  0  0  0  0
   -7.2287    4.5014   -3.7267 O   0  0  0  0  0  0  0  0  0  0  0  0
   -5.6444    4.8815   -1.9403 C   0  0  2  0  0  0  0  0  0  0  0  0
   -5.0931    6.0379   -1.2753 O   0  0  0  0  0  0  0  0  0  0  0  0
   -4.5859    3.7961   -2.2068 C   0  0  0  0  0  0  0  0  0  0  0  0
   -5.1375    2.6431   -2.8579 O   0  0  0  0  0  0  0  0  0  0  0  0
   -6.3901    3.9961    0.1781 C   0  0  2  0  0  0  0  0  0  0  0  0
   -6.7506    4.4141   -1.1499 O   0  0  0  0  0  0  0  0  0  0  0  0
   -7.5753    3.2446    0.7551 C   0  0  2  0  0  0  0  0  0  0  0  0
   -8.0278    2.2765   -0.1979 O   0  0  0  0  0  0  0  0  0  0  0  0
   -8.7187    4.1944    1.0371 C   0  0  1  0  0  0  0  0  0  0  0  0
   -9.7096    3.5011    1.7993 O   0  0  0  0  0  0  0  0  0  0  0  0
   -8.2279    5.4104    1.7995 C   0  0  2  0  0  0  0  0  0  0  0  0
   -9.2893    6.3514    1.8852 O   0  0  0  0  0  0  0  0  0  0  0  0
   -7.0378    6.0704    1.1161 C   0  0  2  0  0  0  0  0  0  0  0  0
   -6.0113    5.0934    1.0089 O   0  0  0  0  0  0  0  0  0  0  0  0
   -6.5386    7.2875    1.9037 C   0  0  0  0  0  0  0  0  0  0  0  0
   -6.0544    6.9494    3.2117 O   0  0  0  0  0  0  0  0  0  0  0  0
  1  2  1  0  0  0  0
  3  1  1  1  0  0  0
  3  9  1  0  0  0  0
  3  4  1  0  0  0  0
  4  5  1  6  0  0  0
  4  6  1  0  0  0  0
  6  7  1  1  0  0  0
  6  8  1  0  0  0  0
  8  9  1  0  0  0  0
  8 10  1  6  0  0  0
  8 13  1  0  0  0  0
 10 11  1  0  0  0  0
 12 13  1  6  0  0  0
 12 14  1  0  0  0  0
 12 21  1  0  0  0  0
 14 15  1  6  0  0  0
 14 16  1  0  0  0  0
 16 17  1  1  0  0  0
 16 18  1  0  0  0  0
 18 19  1  6  0  0  0
 18 20  1  0  0  0  0
 20 21  1  0  0  0  0
 20 22  1  1  0  0  0
 22 23  1  0  0  0  0
M  END
>  <CHROM.1>
-61.98059170,-63.07940043,-167.09914602,-177.11551375,62.78471338,-6.69919609
5.46626269,-0.62546390,-0.14929855,1.12852691,0.52888428

>  <Name>
ligand

>  <RI>
0

>  <Rbt.Current_Directory>
/home/itssahil/PROJECTS/Mol_Feturizer/New_Systems/rnas/4TS2

>  <Rbt.Executable>
rbdock ($Id: //depot/dev/client3/rdock/2013.1/src/exe/rbdock.cxx#4 $)

>  <Rbt.Library>
libRbt.so (2013.1, Build901 2013/11/27)

>  <Rbt.Parameter_File>
/export/apps/rDock/src/rDock_2013.1_src/data/scripts/dock_solv.prm

>  <Rbt.Receptor>
prm/blind_docking_60.prm

>  <SCORE>
-11.4886

>  <SCORE.INTER>
-4.46495

>  <SCORE.INTER.CONST>
1

>  <SCORE.INTER.POLAR>
0

>  <SCORE.INTER.ROT>
5

>  <SCORE.INTER.SOLV>
9.84208

>  <SCORE.INTER.VDW>
-13.1907

>  <SCORE.INTER.norm>
-0.194128

>  <SCORE.INTRA>
-7.02369

>  <SCORE.INTRA.DIHEDRAL>
-11.5749

>  <SCORE.INTRA.DIHEDRAL.0>
12.4853

>  <SCORE.INTRA.POLAR>
0

>  <SCORE.INTRA.POLAR.0>
0

>  <SCORE.INTRA.REPUL>
0

>  <SCORE.INTRA.REPUL.0>
0

>  <SCORE.INTRA.SOLV>
0.519249

>  <SCORE.INTRA.SOLV.lig_0>
-31.1706

>  <SCORE.INTRA.VDW>
-1.49585

>  <SCORE.INTRA.VDW.0>
-1.16895

>  <SCORE.INTRA.norm>
-0.305378

>  <SCORE.RESTR>
0

>  <SCORE.RESTR.CAVITY>
0

>  <SCORE.RESTR.norm>
0

>  <SCORE.SYSTEM>
0

>  <SCORE.SYSTEM.CONST>
0

>  <SCORE.SYSTEM.DIHEDRAL>
0

>  <SCORE.SYSTEM.SOLV>
0

>  <SCORE.SYSTEM.norm>
0

>  <SCORE.heavy>
23

>  <SCORE.norm>
-0.499506

>  <RMSD>
15.751

$$$$
ligand
 OpenBabel11021811513D
libRbt.so/2013.1/901 2013/11/27
 23 24  0  0  0  0  0  0  0  0999 V2000
   -6.7099    4.3486   -3.2439 C   0  0  0  0  0  0  0  0  0  0  0  0
   -6.3575    3.1332   -3.9326 O   0  0  0  0  0  0  0  0  0  0  0  0
   -5.4429    4.9992   -2.7074 C   0  0  2  0  0  0  0  0  0  0  0  0
   -4.6348    4.1569   -1.7323 C   0  0  1  0  0  0  0  0  0  0  0  0
   -3.8561    3.2051   -2.4604 O   0  0  0  0  0  0  0  0  0  0  0  0
   -3.8054    5.2166   -1.0150 C   0  0  2  0  0  0  0  0  0  0  0  0
   -3.2660    4.9079    0.2757 O   0  0  0  0  0  0  0  0  0  0  0  0
   -4.8036    6.3553   -0.9017 C   0  0  2  0  0  0  0  0  0  0  0  0
   -5.7329    6.2058   -1.9960 O   0  0  0  0  0  0  0  0  0  0  0  0
   -4.0169    7.6764   -0.9745 C   0  0  0  0  0  0  0  0  0  0  0  0
   -4.8772    8.8202   -1.0700 O   0  0  0  0  0  0  0  0  0  0  0  0
   -6.5569    7.2050    0.5236 C   0  0  2  0  0  0  0  0  0  0  0  0
   -5.5457    6.2030    0.3202 O   0  0  0  0  0  0  0  0  0  0  0  0
   -7.0771    7.0443    1.9400 C   0  0  2  0  0  0  0  0  0  0  0  0
   -5.9681    6.9585    2.8416 O   0  0  0  0  0  0  0  0  0  0  0  0
   -7.8838    5.7707    2.0669 C   0  0  1  0  0  0  0  0  0  0  0  0
   -8.5548    5.7803    3.3291 O   0  0  0  0  0  0  0  0  0  0  0  0
   -8.8921    5.6620    0.9389 C   0  0  2  0  0  0  0  0  0  0  0  0
   -9.4986    4.3780    0.9943 O   0  0  0  0  0  0  0  0  0  0  0  0
   -8.2425    5.8419   -0.4265 C   0  0  2  0  0  0  0  0  0  0  0  0
   -7.6112    7.1152   -0.4345 O   0  0  0  0  0  0  0  0  0  0  0  0
   -9.2727    5.7477   -1.5583 C   0  0  0  0  0  0  0  0  0  0  0  0
   -9.8730    4.4485   -1.6639 O   0  0  0  0  0  0  0  0  0  0  0  0
  1  2  1  0  0  0  0
  3  1  1  1  0  0  0
  3  9  1  0  0  0  0
  3  4  1  0  0  0  0
  4  5  1  6  0  0  0
  4  6  1  0  0  0  0
  6  7  1  1  0  0  0
  6  8  1  0  0  0  0
  8  9  1  0  0  0  0
  8 10  1  6  0  0  0
  8 13  1  0  0  0  0
 10 11  1  0  0  0  0
 12 13  1  6  0  0  0
 12 14  1  0  0  0  0
 12 21  1  0  0  0  0
 14 15  1  1  0  0  0
 14 16  1  0  0  0  0
 16 17  1  1  0  0  0
 16 18  1  0  0  0  0
 18 19  1  6  0  0  0
 18 20  1  0  0  0  0
 20 21  1  0  0  0  0
 20 22  1  6  0  0  0
 22 23  1  0  0  0  0
M  END
>  <CHROM.1>
-59.63025082,171.61865455,-170.64359777,-178.23311421,-64.88379353,-6.46368525
5.68940490,-0.47260087,0.82831822,-0.26056540,-2.13059014

>  <Name>
ligand

>  <RI>
0

>  <Rbt.Current_Directory>
/home/itssahil/PROJECTS/Mol_Feturizer/New_Systems/rnas/4TS2

>  <Rbt.Executable>
rbdock ($Id: //depot/dev/client3/rdock/2013.1/src/exe/rbdock.cxx#4 $)

>  <Rbt.Library>
libRbt.so (2013.1, Build901 2013/11/27)

>  <Rbt.Parameter_File>
/export/apps/rDock/src/rDock_2013.1_src/data/scripts/dock_solv.prm

>  <Rbt.Receptor>
prm/blind_docking_100.prm

>  <SCORE>
-13.6801

>  <SCORE.INTER>
-6.91574

>  <SCORE.INTER.CONST>
1

>  <SCORE.INTER.POLAR>
0

>  <SCORE.INTER.ROT>
5

>  <SCORE.INTER.SOLV>
9.33913

>  <SCORE.INTER.VDW>
-14.6569

>  <SCORE.INTER.norm>
-0.300684

>  <SCORE.INTRA>
-6.76437

>  <SCORE.INTRA.DIHEDRAL>
-11.7331

>  <SCORE.INTRA.DIHEDRAL.0>
12.4853

>  <SCORE.INTRA.POLAR>
0

>  <SCORE.INTRA.POLAR.0>
0

>  <SCORE.INTRA.REPUL>
0

>  <SCORE.INTRA.REPUL.0>
0

>  <SCORE.INTRA.SOLV>
0.698947

>  <SCORE.INTRA.SOLV.lig_0>
-31.1706

>  <SCORE.INTRA.VDW>
-1.2473

>  <SCORE.INTRA.VDW.0>
-1.16895

>  <SCORE.INTRA.norm>
-0.294103

>  <SCORE.RESTR>
1.91223e-05

>  <SCORE.RESTR.CAVITY>
1.91223e-05

>  <SCORE.RESTR.norm>
8.31403e-07

>  <SCORE.SYSTEM>
0

>  <SCORE.SYSTEM.CONST>
0

>  <SCORE.SYSTEM.DIHEDRAL>
0

>  <SCORE.SYSTEM.SOLV>
0

>  <SCORE.SYSTEM.norm>
0

>  <SCORE.heavy>
23

>  <SCORE.norm>
-0.594787

>  <RMSD>
15.945

$$$$
ligand
 OpenBabel11021811513D
libRbt.so/2013.1/901 2013/11/27
 23 24  0  0  0  0  0  0  0  0999 V2000
   -9.9001    5.5066   -1.9578 C   0  0  0  0  0  0  0  0  0  0  0  0
  -10.7733    6.0981   -2.9393 O   0  0  0  0  0  0  0  0  0  0  0  0
   -9.2487    6.6144   -1.1424 C   0  0  2  0  0  0  0  0  0  0  0  0
   -8.4895    7.6602   -1.9445 C   0  0  1  0  0  0  0  0  0  0  0  0
   -9.4160    8.5944   -2.5023 O   0  0  0  0  0  0  0  0  0  0  0  0
   -7.5679    8.2583   -0.8870 C   0  0  2  0  0  0  0  0  0  0  0  0
   -6.3814    8.9371   -1.3158 O   0  0  0  0  0  0  0  0  0  0  0  0
   -7.1982    7.0276   -0.0780 C   0  0  2  0  0  0  0  0  0  0  0  0
   -8.2885    6.0923   -0.2197 O   0  0  0  0  0  0  0  0  0  0  0  0
   -6.9903    7.4717    1.3812 C   0  0  0  0  0  0  0  0  0  0  0  0
   -6.7138    6.3677    2.2542 O   0  0  0  0  0  0  0  0  0  0  0  0
   -5.8164    5.0568   -0.2634 C   0  0  2  0  0  0  0  0  0  0  0  0
   -6.0307    6.4226   -0.6593 O   0  0  0  0  0  0  0  0  0  0  0  0
   -4.3186    4.8143   -0.2611 C   0  0  2  0  0  0  0  0  0  0  0  0
   -3.6717    5.8728    0.4539 O   0  0  0  0  0  0  0  0  0  0  0  0
   -3.7807    4.8071   -1.6752 C   0  0  1  0  0  0  0  0  0  0  0  0
   -2.4317    4.3352   -1.6472 O   0  0  0  0  0  0  0  0  0  0  0  0
   -4.6281    3.9176   -2.5649 C   0  0  2  0  0  0  0  0  0  0  0  0
   -4.1990    4.0799   -3.9099 O   0  0  0  0  0  0  0  0  0  0  0  0
   -6.1082    4.2639   -2.4744 C   0  0  2  0  0  0  0  0  0  0  0  0
   -6.4950    4.1321   -1.1132 O   0  0  0  0  0  0  0  0  0  0  0  0
   -6.9574    3.3479   -3.3636 C   0  0  0  0  0  0  0  0  0  0  0  0
   -8.3487    3.7002   -3.3653 O   0  0  0  0  0  0  0  0  0  0  0  0
  1  2  1  0  0  0  0
  3  1  1  6  0  0  0
  3  9  1  0  0  0  0
  3  4  1  0  0  0  0
  4  5  1  1  0  0  0
  4  6  1  0  0  0  0
  6  7  1  6  0  0  0
  6  8  1  0  0  0  0
  8  9  1  0  0  0  0
  8 10  1  1  0  0  0
  8 13  1  0  0  0  0
 10 11  1  0  0  0  0
 12 13  1  6  0  0  0
 12 14  1  0  0  0  0
 12 21  1  0  0  0  0
 14 15  1  1  0  0  0
 14 16  1  0  0  0  0
 16 17  1  1  0  0  0
 16 18  1  0  0  0  0
 18 19  1  6  0  0  0
 18 20  1  0  0  0  0
 20 21  1  0  0  0  0
 20 22  1  6  0  0  0
 22 23  1  0  0  0  0
M  END
>  <CHROM.1>
-55.79537681,176.49641408,-148.94389126,-161.83636845,-176.39067255,-6.68784731
5.79966881,-1.32121842,2.82608450,-0.36052739,0.82977410

>  <Name>
ligand

>  <RI>
0

>  <Rbt.Current_Directory>
/home/itssahil/PROJECTS/Mol_Feturizer/New_Systems/rnas/4TS2

>  <Rbt.Executable>
rbdock ($Id: //depot/dev/client3/rdock/2013.1/src/exe/rbdock.cxx#4 $)

>  <Rbt.Library>
libRbt.so (2013.1, Build901 2013/11/27)

>  <Rbt.Parameter_File>
/export/apps/rDock/src/rDock_2013.1_src/data/scripts/dock_solv.prm

>  <Rbt.Receptor>
prm/blind_docking_20.prm

>  <SCORE>
-10.4301

>  <SCORE.INTER>
-6.03852

>  <SCORE.INTER.CONST>
1

>  <SCORE.INTER.POLAR>
0

>  <SCORE.INTER.ROT>
5

>  <SCORE.INTER.SOLV>
9.89135

>  <SCORE.INTER.VDW>
-14.2561

>  <SCORE.INTER.norm>
-0.262544

>  <SCORE.INTRA>
-4.39155

>  <SCORE.INTRA.DIHEDRAL>
-7.24599

>  <SCORE.INTRA.DIHEDRAL.0>
12.4853

>  <SCORE.INTRA.POLAR>
0

>  <SCORE.INTRA.POLAR.0>
0

>  <SCORE.INTRA.REPUL>
0

>  <SCORE.INTRA.REPUL.0>
0

>  <SCORE.INTRA.SOLV>
0.90681

>  <SCORE.INTRA.SOLV.lig_0>
-31.1706

>  <SCORE.INTRA.VDW>
-1.22197

>  <SCORE.INTRA.VDW.0>
-1.16895

>  <SCORE.INTRA.norm>
-0.190937

>  <SCORE.RESTR>
0

>  <SCORE.RESTR.CAVITY>
0

>  <SCORE.RESTR.norm>
0

>  <SCORE.SYSTEM>
0

>  <SCORE.SYSTEM.CONST>
0

>  <SCORE.SYSTEM.DIHEDRAL>
0

>  <SCORE.SYSTEM.SOLV>
0

>  <SCORE.SYSTEM.norm>
0

>  <SCORE.heavy>
23

>  <SCORE.norm>
-0.453481

>  <RMSD>
16.020

$$$$
ligand
 OpenBabel11021811513D
libRbt.so/2013.1/901 2013/11/27
 23 24  0  0  0  0  0  0  0  0999 V2000
   -6.7075    4.2828   -3.2058 C   0  0  0  0  0  0  0  0  0  0  0  0
   -6.3056    3.0868   -3.9012 O   0  0  0  0  0  0  0  0  0  0  0  0
   -5.4677    4.9863   -2.6726 C   0  0  2  0  0  0  0  0  0  0  0  0
   -4.6360    4.1884   -1.6801 C   0  0  1  0  0  0  0  0  0  0  0  0
   -3.8198    3.2538   -2.3889 O   0  0  0  0  0  0  0  0  0  0  0  0
   -3.8490    5.2879   -0.9749 C   0  0  2  0  0  0  0  0  0  0  0  0
   -3.3068    5.0185    0.3234 O   0  0  0  0  0  0  0  0  0  0  0  0
   -4.8877    6.3919   -0.8849 C   0  0  2  0  0  0  0  0  0  0  0  0
   -5.8045    6.1927   -1.9817 O   0  0  0  0  0  0  0  0  0  0  0  0
   -4.1478    7.7389   -0.9741 C   0  0  0  0  0  0  0  0  0  0  0  0
   -3.4830    7.9148   -2.2329 O   0  0  0  0  0  0  0  0  0  0  0  0
   -6.6581    7.2195    0.5323 C   0  0  2  0  0  0  0  0  0  0  0  0
   -5.6312    6.2322    0.3352 O   0  0  0  0  0  0  0  0  0  0  0  0
   -7.1729    7.0624    1.9510 C   0  0  2  0  0  0  0  0  0  0  0  0
   -6.0609    7.0020    2.8510 O   0  0  0  0  0  0  0  0  0  0  0  0
   -7.9587    5.7771    2.0903 C   0  0  1  0  0  0  0  0  0  0  0  0
   -8.6272    5.7864    3.3538 O   0  0  0  0  0  0  0  0  0  0  0  0
   -8.9673    5.6426    0.9653 C   0  0  2  0  0  0  0  0  0  0  0  0
   -9.5528    4.3495    1.0328 O   0  0  0  0  0  0  0  0  0  0  0  0
   -8.3233    5.8215   -0.4029 C   0  0  2  0  0  0  0  0  0  0  0  0
   -7.7127    7.1047   -0.4228 O   0  0  0  0  0  0  0  0  0  0  0  0
   -9.3540    5.7012   -1.5317 C   0  0  0  0  0  0  0  0  0  0  0  0
  -10.3791    6.7034   -1.4645 O   0  0  0  0  0  0  0  0  0  0  0  0
  1  2  1  0  0  0  0
  3  1  1  1  0  0  0
  3  9  1  0  0  0  0
  3  4  1  0  0  0  0
  4  5  1  6  0  0  0
  4  6  1  0  0  0  0
  6  7  1  1  0  0  0
  6  8  1  0  0  0  0
  8  9  1  0  0  0  0
  8 10  1  6  0  0  0
  8 13  1  0  0  0  0
 10 11  1  0  0  0  0
 12 13  1  6  0  0  0
 12 14  1  0  0  0  0
 12 21  1  0  0  0  0
 14 15  1  1  0  0  0
 14 16  1  0  0  0  0
 16 17  1  1  0  0  0
 16 18  1  0  0  0  0
 18 19  1  6  0  0  0
 18 20  1  0  0  0  0
 20 21  1  0  0  0  0
 20 22  1  6  0  0  0
 22 23  1  0  0  0  0
M  END
>  <CHROM.1>
-60.99276202,63.30311812,-170.21896719,-179.61081569,61.68139083,-6.47297329
5.76337765,-0.49416876,0.70614830,-0.15105878,-2.02936394

>  <Name>
ligand

>  <RI>
0

>  <Rbt.Current_Directory>
/home/itssahil/PROJECTS/Mol_Feturizer/New_Systems/rnas/4TS2

>  <Rbt.Executable>
rbdock ($Id: //depot/dev/client3/rdock/2013.1/src/exe/rbdock.cxx#4 $)

>  <Rbt.Library>
libRbt.so (2013.1, Build901 2013/11/27)

>  <Rbt.Parameter_File>
/export/apps/rDock/src/rDock_2013.1_src/data/scripts/dock_solv.prm

>  <Rbt.Receptor>
prm/blind_docking_20.prm

>  <SCORE>
-14.1077

>  <SCORE.INTER>
-7.00504

>  <SCORE.INTER.CONST>
1

>  <SCORE.INTER.POLAR>
0

>  <SCORE.INTER.ROT>
5

>  <SCORE.INTER.SOLV>
8.80794

>  <SCORE.INTER.VDW>
-14.5393

>  <SCORE.INTER.norm>
-0.304567

>  <SCORE.INTRA>
-7.10268

>  <SCORE.INTRA.DIHEDRAL>
-11.8841

>  <SCORE.INTRA.DIHEDRAL.0>
12.4853

>  <SCORE.INTRA.POLAR>
0

>  <SCORE.INTRA.POLAR.0>
0

>  <SCORE.INTRA.REPUL>
0

>  <SCORE.INTRA.REPUL.0>
0

>  <SCORE.INTRA.SOLV>
0.333978

>  <SCORE.INTRA.SOLV.lig_0>
-31.1706

>  <SCORE.INTRA.VDW>
-1.32764

>  <SCORE.INTRA.VDW.0>
-1.16895

>  <SCORE.INTRA.norm>
-0.308812

>  <SCORE.RESTR>
0

>  <SCORE.RESTR.CAVITY>
0

>  <SCORE.RESTR.norm>
0

>  <SCORE.SYSTEM>
0

>  <SCORE.SYSTEM.CONST>
0

>  <SCORE.SYSTEM.DIHEDRAL>
0

>  <SCORE.SYSTEM.SOLV>
0

>  <SCORE.SYSTEM.norm>
0

>  <SCORE.heavy>
23

>  <SCORE.norm>
-0.613379

>  <RMSD>
16.033

$$$$
ligand
 OpenBabel11021811513D
libRbt.so/2013.1/901 2013/11/27
 23 24  0  0  0  0  0  0  0  0999 V2000
   -6.6622    4.3417   -3.2312 C   0  0  0  0  0  0  0  0  0  0  0  0
   -6.2740    3.1385   -3.9219 O   0  0  0  0  0  0  0  0  0  0  0  0
   -5.4163    5.0217   -2.6820 C   0  0  2  0  0  0  0  0  0  0  0  0
   -4.6013    4.2003   -1.6947 C   0  0  1  0  0  0  0  0  0  0  0  0
   -3.7935    3.2636   -2.4104 O   0  0  0  0  0  0  0  0  0  0  0  0
   -3.8039    5.2803   -0.9714 C   0  0  2  0  0  0  0  0  0  0  0  0
   -3.2730    4.9875    0.3266 O   0  0  0  0  0  0  0  0  0  0  0  0
   -4.8281    6.3971   -0.8736 C   0  0  2  0  0  0  0  0  0  0  0  0
   -5.7409    6.2239   -1.9781 O   0  0  0  0  0  0  0  0  0  0  0  0
   -4.0697    7.7349   -0.9417 C   0  0  0  0  0  0  0  0  0  0  0  0
   -4.9538    8.8593   -1.0506 O   0  0  0  0  0  0  0  0  0  0  0  0
   -6.6220    7.2073    0.5240 C   0  0  2  0  0  0  0  0  0  0  0  0
   -5.5810    6.2324    0.3400 O   0  0  0  0  0  0  0  0  0  0  0  0
   -7.1429    7.0538    1.9408 C   0  0  2  0  0  0  0  0  0  0  0  0
   -6.0355    7.0148    2.8476 O   0  0  0  0  0  0  0  0  0  0  0  0
   -7.9124    5.7592    2.0851 C   0  0  1  0  0  0  0  0  0  0  0  0
   -8.5884    5.7689    3.3446 O   0  0  0  0  0  0  0  0  0  0  0  0
   -8.9126    5.6030    0.9554 C   0  0  2  0  0  0  0  0  0  0  0  0
   -9.4813    4.3028    1.0290 O   0  0  0  0  0  0  0  0  0  0  0  0
   -8.2630    5.7804   -0.4104 C   0  0  2  0  0  0  0  0  0  0  0  0
   -7.6693    7.0714   -0.4363 O   0  0  0  0  0  0  0  0  0  0  0  0
   -9.2854    5.6382   -1.5442 C   0  0  0  0  0  0  0  0  0  0  0  0
  -10.3377    6.6117   -1.4761 O   0  0  0  0  0  0  0  0  0  0  0  0
  1  2  1  0  0  0  0
  3  1  1  1  0  0  0
  3  9  1  0  0  0  0
  3  4  1  0  0  0  0
  4  5  1  6  0  0  0
  4  6  1  0  0  0  0
  6  7  1  1  0  0  0
  6  8  1  0  0  0  0
  8  9  1  0  0  0  0
  8 10  1  6  0  0  0
  8 13  1  0  0  0  0
 10 11  1  0  0  0  0
 12 13  1  6  0  0  0
 12 14  1  0  0  0  0
 12 21  1  0  0  0  0
 14 15  1  1  0  0  0
 14 16  1  0  0  0  0
 16 17  1  1  0  0  0
 16 18  1  0  0  0  0
 18 19  1  6  0  0  0
 18 20  1  0  0  0  0
 20 21  1  0  0  0  0
 20 22  1  6  0  0  0
 22 23  1  0  0  0  0
M  END
>  <CHROM.1>
-60.14278696,171.64294170,-169.91881081,-177.84596696,60.59942351,-6.49883575
5.79985822,-0.44325089,0.77536973,-0.14785405,-2.08502298

>  <Name>
ligand

>  <RI>
0

>  <Rbt.Current_Directory>
/home/itssahil/PROJECTS/Mol_Feturizer/New_Systems/rnas/4TS2

>  <Rbt.Executable>
rbdock ($Id: //depot/dev/client3/rdock/2013.1/src/exe/rbdock.cxx#4 $)

>  <Rbt.Library>
libRbt.so (2013.1, Build901 2013/11/27)

>  <Rbt.Parameter_File>
/export/apps/rDock/src/rDock_2013.1_src/data/scripts/dock_solv.prm

>  <Rbt.Receptor>
prm/blind_docking_20.prm

>  <SCORE>
-13.7708

>  <SCORE.INTER>
-6.84213

>  <SCORE.INTER.CONST>
1

>  <SCORE.INTER.POLAR>
0

>  <SCORE.INTER.ROT>
5

>  <SCORE.INTER.SOLV>
9.11782

>  <SCORE.INTER.VDW>
-14.534

>  <SCORE.INTER.norm>
-0.297484

>  <SCORE.INTRA>
-6.92867

>  <SCORE.INTRA.DIHEDRAL>
-11.7522

>  <SCORE.INTRA.DIHEDRAL.0>
12.4853

>  <SCORE.INTRA.POLAR>
0

>  <SCORE.INTRA.POLAR.0>
0

>  <SCORE.INTRA.REPUL>
0

>  <SCORE.INTRA.REPUL.0>
0

>  <SCORE.INTRA.SOLV>
0.513805

>  <SCORE.INTRA.SOLV.lig_0>
-31.1706

>  <SCORE.INTRA.VDW>
-1.30946

>  <SCORE.INTRA.VDW.0>
-1.16895

>  <SCORE.INTRA.norm>
-0.301246

>  <SCORE.RESTR>
0

>  <SCORE.RESTR.CAVITY>
0

>  <SCORE.RESTR.norm>
0

>  <SCORE.SYSTEM>
0

>  <SCORE.SYSTEM.CONST>
0

>  <SCORE.SYSTEM.DIHEDRAL>
0

>  <SCORE.SYSTEM.SOLV>
0

>  <SCORE.SYSTEM.norm>
0

>  <SCORE.heavy>
23

>  <SCORE.norm>
-0.59873

>  <RMSD>
16.054

$$$$
ligand
 OpenBabel11021811513D
libRbt.so/2013.1/901 2013/11/27
 23 24  0  0  0  0  0  0  0  0999 V2000
   -6.9414    7.4478   -1.6151 C   0  0  0  0  0  0  0  0  0  0  0  0
   -7.2321    7.8413   -0.2600 O   0  0  0  0  0  0  0  0  0  0  0  0
   -8.1389    6.6980   -2.1810 C   0  0  2  0  0  0  0  0  0  0  0  0
   -9.4774    7.4096   -2.0570 C   0  0  1  0  0  0  0  0  0  0  0  0
   -9.5879    8.3944   -3.0866 O   0  0  0  0  0  0  0  0  0  0  0  0
  -10.4616    6.2533   -2.1977 C   0  0  2  0  0  0  0  0  0  0  0  0
  -11.7881    6.4149   -1.6814 O   0  0  0  0  0  0  0  0  0  0  0  0
   -9.7412    5.1504   -1.4424 C   0  0  2  0  0  0  0  0  0  0  0  0
   -8.3299    5.4415   -1.5246 O   0  0  0  0  0  0  0  0  0  0  0  0
  -10.1054    3.8116   -2.1092 C   0  0  0  0  0  0  0  0  0  0  0  0
   -9.6385    3.7306   -3.4631 O   0  0  0  0  0  0  0  0  0  0  0  0
   -9.4846    4.2229    0.7715 C   0  0  2  0  0  0  0  0  0  0  0  0
  -10.1164    5.2148   -0.0560 O   0  0  0  0  0  0  0  0  0  0  0  0
  -10.4018    3.9656    1.9526 C   0  0  2  0  0  0  0  0  0  0  0  0
  -11.7346    3.7508    1.4752 O   0  0  0  0  0  0  0  0  0  0  0  0
  -10.4227    5.1624    2.8779 C   0  0  1  0  0  0  0  0  0  0  0  0
  -11.0909    4.7925    4.0863 O   0  0  0  0  0  0  0  0  0  0  0  0
   -9.0114    5.6280    3.1816 C   0  0  2  0  0  0  0  0  0  0  0  0
   -9.0819    6.8511    3.9015 O   0  0  0  0  0  0  0  0  0  0  0  0
   -8.1979    5.8485    1.9134 C   0  0  2  0  0  0  0  0  0  0  0  0
   -8.1816    4.6208    1.1977 O   0  0  0  0  0  0  0  0  0  0  0  0
   -6.7682    6.3018    2.2318 C   0  0  0  0  0  0  0  0  0  0  0  0
   -6.7170    7.5766    2.8890 O   0  0  0  0  0  0  0  0  0  0  0  0
  1  2  1  0  0  0  0
  3  1  1  1  0  0  0
  3  9  1  0  0  0  0
  3  4  1  0  0  0  0
  4  5  1  6  0  0  0
  4  6  1  0  0  0  0
  6  7  1  1  0  0  0
  6  8  1  0  0  0  0
  8  9  1  0  0  0  0
  8 10  1  6  0  0  0
  8 13  1  0  0  0  0
 10 11  1  0  0  0  0
 12 13  1  6  0  0  0
 12 14  1  0  0  0  0
 12 21  1  0  0  0  0
 14 15  1  6  0  0  0
 14 16  1  0  0  0  0
 16 17  1  1  0  0  0
 16 18  1  0  0  0  0
 18 19  1  6  0  0  0
 18 20  1  0  0  0  0
 20 21  1  0  0  0  0
 20 22  1  1  0  0  0
 22 23  1  0  0  0  0
M  END
>  <CHROM.1>
52.21985467,63.72707998,-153.36992461,-179.38661243,-63.82109590,-9.24840268
5.77592392,0.21800425,-1.61328952,0.72337437,1.70842523

>  <Name>
ligand

>  <RI>
0

>  <Rbt.Current_Directory>
/home/itssahil/PROJECTS/Mol_Feturizer/New_Systems/rnas/4TS2

>  <Rbt.Executable>
rbdock ($Id: //depot/dev/client3/rdock/2013.1/src/exe/rbdock.cxx#4 $)

>  <Rbt.Library>
libRbt.so (2013.1, Build901 2013/11/27)

>  <Rbt.Parameter_File>
/export/apps/rDock/src/rDock_2013.1_src/data/scripts/dock_solv.prm

>  <Rbt.Receptor>
prm/blind_docking_20.prm

>  <SCORE>
-10.7137

>  <SCORE.INTER>
-5.34219

>  <SCORE.INTER.CONST>
1

>  <SCORE.INTER.POLAR>
0

>  <SCORE.INTER.ROT>
5

>  <SCORE.INTER.SOLV>
7.2079

>  <SCORE.INTER.VDW>
-12.8974

>  <SCORE.INTER.norm>
-0.232269

>  <SCORE.INTRA>
-5.37147

>  <SCORE.INTRA.DIHEDRAL>
-9.13077

>  <SCORE.INTRA.DIHEDRAL.0>
12.4853

>  <SCORE.INTRA.POLAR>
0

>  <SCORE.INTRA.POLAR.0>
0

>  <SCORE.INTRA.REPUL>
0

>  <SCORE.INTRA.REPUL.0>
0

>  <SCORE.INTRA.SOLV>
1.17931

>  <SCORE.INTRA.SOLV.lig_0>
-31.1706

>  <SCORE.INTRA.VDW>
-1.39574

>  <SCORE.INTRA.VDW.0>
-1.16895

>  <SCORE.INTRA.norm>
-0.233542

>  <SCORE.RESTR>
0

>  <SCORE.RESTR.CAVITY>
0

>  <SCORE.RESTR.norm>
0

>  <SCORE.SYSTEM>
0

>  <SCORE.SYSTEM.CONST>
0

>  <SCORE.SYSTEM.DIHEDRAL>
0

>  <SCORE.SYSTEM.SOLV>
0

>  <SCORE.SYSTEM.norm>
0

>  <SCORE.heavy>
23

>  <SCORE.norm>
-0.465811

>  <RMSD>
16.129

$$$$
ligand
 OpenBabel11021811513D
libRbt.so/2013.1/901 2013/11/27
 23 24  0  0  0  0  0  0  0  0999 V2000
   -5.0305    3.4459   -3.0286 C   0  0  0  0  0  0  0  0  0  0  0  0
   -3.8979    2.7029   -2.5383 O   0  0  0  0  0  0  0  0  0  0  0  0
   -4.8213    4.9234   -2.7288 C   0  0  2  0  0  0  0  0  0  0  0  0
   -4.7169    5.2857   -1.2553 C   0  0  1  0  0  0  0  0  0  0  0  0
   -3.4002    4.9882   -0.7861 O   0  0  0  0  0  0  0  0  0  0  0  0
   -5.0457    6.7747   -1.2745 C   0  0  2  0  0  0  0  0  0  0  0  0
   -5.5086    7.3906   -0.0667 O   0  0  0  0  0  0  0  0  0  0  0  0
   -6.1315    6.8302   -2.3347 C   0  0  2  0  0  0  0  0  0  0  0  0
   -5.9016    5.7183   -3.2259 O   0  0  0  0  0  0  0  0  0  0  0  0
   -6.0192    8.1893   -3.0488 C   0  0  0  0  0  0  0  0  0  0  0  0
   -6.8929    8.2846   -4.1825 O   0  0  0  0  0  0  0  0  0  0  0  0
   -8.5135    6.5634   -2.6216 C   0  0  2  0  0  0  0  0  0  0  0  0
   -7.4072    6.6234   -1.7048 O   0  0  0  0  0  0  0  0  0  0  0  0
   -9.7773    6.8344   -1.8266 C   0  0  2  0  0  0  0  0  0  0  0  0
   -9.5841    8.0009   -1.0191 O   0  0  0  0  0  0  0  0  0  0  0  0
  -10.0838    5.6731   -0.9066 C   0  0  1  0  0  0  0  0  0  0  0  0
  -11.3950    5.8534   -0.3666 O   0  0  0  0  0  0  0  0  0  0  0  0
  -10.0041    4.3589   -1.6598 C   0  0  2  0  0  0  0  0  0  0  0  0
  -10.1208    3.2932   -0.7270 O   0  0  0  0  0  0  0  0  0  0  0  0
   -8.6893    4.2122   -2.4140 C   0  0  2  0  0  0  0  0  0  0  0  0
   -8.5841    5.3131   -3.3067 O   0  0  0  0  0  0  0  0  0  0  0  0
   -8.6262    2.8889   -3.1859 C   0  0  0  0  0  0  0  0  0  0  0  0
   -9.8360    2.5983   -3.9011 O   0  0  0  0  0  0  0  0  0  0  0  0
  1  2  1  0  0  0  0
  3  1  1  1  0  0  0
  3  9  1  0  0  0  0
  3  4  1  0  0  0  0
  4  5  1  6  0  0  0
  4  6  1  0  0  0  0
  6  7  1  1  0  0  0
  6  8  1  0  0  0  0
  8  9  1  0  0  0  0
  8 10  1  6  0  0  0
  8 13  1  0  0  0  0
 10 11  1  0  0  0  0
 12 13  1  1  0  0  0
 12 14  1  0  0  0  0
 12 21  1  0  0  0  0
 14 15  1  1  0  0  0
 14 16  1  0  0  0  0
 16 17  1  6  0  0  0
 16 18  1  0  0  0  0
 18 19  1  1  0  0  0
 18 20  1  0  0  0  0
 20 21  1  0  0  0  0
 20 22  1  6  0  0  0
 22 23  1  0  0  0  0
M  END
>  <CHROM.1>
-61.93668854,172.79478735,-160.44728910,-176.00140065,44.97969478,-7.39799611
5.50202855,-2.08945777,-0.04989777,-0.07218473,-2.94727911

>  <Name>
ligand

>  <RI>
0

>  <Rbt.Current_Directory>
/home/itssahil/PROJECTS/Mol_Feturizer/New_Systems/rnas/4TS2

>  <Rbt.Executable>
rbdock ($Id: //depot/dev/client3/rdock/2013.1/src/exe/rbdock.cxx#4 $)

>  <Rbt.Library>
libRbt.so (2013.1, Build901 2013/11/27)

>  <Rbt.Parameter_File>
/export/apps/rDock/src/rDock_2013.1_src/data/scripts/dock_solv.prm

>  <Rbt.Receptor>
prm/blind_docking_20.prm

>  <SCORE>
-11.3988

>  <SCORE.INTER>
-5.36443

>  <SCORE.INTER.CONST>
1

>  <SCORE.INTER.POLAR>
0

>  <SCORE.INTER.ROT>
5

>  <SCORE.INTER.SOLV>
8.84607

>  <SCORE.INTER.VDW>
-13.4583

>  <SCORE.INTER.norm>
-0.233236

>  <SCORE.INTRA>
-6.03505

>  <SCORE.INTRA.DIHEDRAL>
-9.7587

>  <SCORE.INTRA.DIHEDRAL.0>
12.4853

>  <SCORE.INTRA.POLAR>
0

>  <SCORE.INTRA.POLAR.0>
0

>  <SCORE.INTRA.REPUL>
0

>  <SCORE.INTRA.REPUL.0>
0

>  <SCORE.INTRA.SOLV>
0.490657

>  <SCORE.INTRA.SOLV.lig_0>
-31.1706

>  <SCORE.INTRA.VDW>
-1.40103

>  <SCORE.INTRA.VDW.0>
-1.16895

>  <SCORE.INTRA.norm>
-0.262394

>  <SCORE.RESTR>
0.000709224

>  <SCORE.RESTR.CAVITY>
0.000709224

>  <SCORE.RESTR.norm>
3.08358e-05

>  <SCORE.SYSTEM>
0

>  <SCORE.SYSTEM.CONST>
0

>  <SCORE.SYSTEM.DIHEDRAL>
0

>  <SCORE.SYSTEM.SOLV>
0

>  <SCORE.SYSTEM.norm>
0

>  <SCORE.heavy>
23

>  <SCORE.norm>
-0.495599

>  <RMSD>
16.186

$$$$
ligand
 OpenBabel11021811513D
libRbt.so/2013.1/901 2013/11/27
 23 24  0  0  0  0  0  0  0  0999 V2000
   -3.8560    3.8359   -2.5072 C   0  0  0  0  0  0  0  0  0  0  0  0
   -5.1778    3.2677   -2.5804 O   0  0  0  0  0  0  0  0  0  0  0  0
   -3.9398    5.2011   -1.8395 C   0  0  2  0  0  0  0  0  0  0  0  0
   -4.4764    5.2039   -0.4163 C   0  0  1  0  0  0  0  0  0  0  0  0
   -3.4375    4.8108    0.4828 O   0  0  0  0  0  0  0  0  0  0  0  0
   -4.9221    6.6529   -0.2521 C   0  0  2  0  0  0  0  0  0  0  0  0
   -5.8937    6.9619    0.7543 O   0  0  0  0  0  0  0  0  0  0  0  0
   -5.4878    6.9525   -1.6291 C   0  0  2  0  0  0  0  0  0  0  0  0
   -4.8042    6.0853   -2.5586 O   0  0  0  0  0  0  0  0  0  0  0  0
   -5.2388    8.4429   -1.9233 C   0  0  0  0  0  0  0  0  0  0  0  0
   -5.5965    8.8022   -3.2651 O   0  0  0  0  0  0  0  0  0  0  0  0
   -7.4983    6.7018   -2.9415 C   0  0  2  0  0  0  0  0  0  0  0  0
   -6.8801    6.5950   -1.6475 O   0  0  0  0  0  0  0  0  0  0  0  0
   -8.8640    7.3322   -2.7418 C   0  0  2  0  0  0  0  0  0  0  0  0
   -8.7292    8.4961   -1.9188 O   0  0  0  0  0  0  0  0  0  0  0  0
   -9.7953    6.3679   -2.0406 C   0  0  1  0  0  0  0  0  0  0  0  0
  -11.1225    6.8966   -2.0931 O   0  0  0  0  0  0  0  0  0  0  0  0
   -9.7489    5.0035   -2.7018 C   0  0  2  0  0  0  0  0  0  0  0  0
  -10.4944    4.0894   -1.9094 O   0  0  0  0  0  0  0  0  0  0  0  0
   -8.3237    4.4858   -2.8423 C   0  0  2  0  0  0  0  0  0  0  0  0
   -7.5957    5.4405   -3.6028 O   0  0  0  0  0  0  0  0  0  0  0  0
   -8.2866    3.1146   -3.5275 C   0  0  0  0  0  0  0  0  0  0  0  0
   -9.0119    2.1075   -2.8069 O   0  0  0  0  0  0  0  0  0  0  0  0
  1  2  1  0  0  0  0
  3  1  1  6  0  0  0
  3  9  1  0  0  0  0
  3  4  1  0  0  0  0
  4  5  1  1  0  0  0
  4  6  1  0  0  0  0
  6  7  1  1  0  0  0
  6  8  1  0  0  0  0
  8  9  1  0  0  0  0
  8 10  1  6  0  0  0
  8 13  1  0  0  0  0
 10 11  1  0  0  0  0
 12 13  1  1  0  0  0
 12 14  1  0  0  0  0
 12 21  1  0  0  0  0
 14 15  1  1  0  0  0
 14 16  1  0  0  0  0
 16 17  1  6  0  0  0
 16 18  1  0  0  0  0
 18 19  1  1  0  0  0
 18 20  1  0  0  0  0
 20 21  1  0  0  0  0
 20 22  1  6  0  0  0
 22 23  1  0  0  0  0
M  END
>  <CHROM.1>
60.81667445,173.27868493,-137.73014413,-173.85848899,-60.25351606,-6.93835478
5.76676500,-2.01919984,-0.14203354,0.24116323,-3.00220993

>  <Name>
ligand

>  <RI>
0

>  <Rbt.Current_Directory>
/home/itssahil/PROJECTS/Mol_Feturizer/New_Systems/rnas/4TS2

>  <Rbt.Executable>
rbdock ($Id: //depot/dev/client3/rdock/2013.1/src/exe/rbdock.cxx#4 $)

>  <Rbt.Library>
libRbt.so (2013.1, Build901 2013/11/27)

>  <Rbt.Parameter_File>
/export/apps/rDock/src/rDock_2013.1_src/data/scripts/dock_solv.prm

>  <Rbt.Receptor>
prm/blind_docking_40.prm

>  <SCORE>
-13.6197

>  <SCORE.INTER>
-9.53607

>  <SCORE.INTER.CONST>
1

>  <SCORE.INTER.POLAR>
0

>  <SCORE.INTER.ROT>
5

>  <SCORE.INTER.SOLV>
8.58627

>  <SCORE.INTER.VDW>
-16.1528

>  <SCORE.INTER.norm>
-0.414612

>  <SCORE.INTRA>
-4.08365

>  <SCORE.INTRA.DIHEDRAL>
-6.4952

>  <SCORE.INTRA.DIHEDRAL.0>
12.4853

>  <SCORE.INTRA.POLAR>
0

>  <SCORE.INTRA.POLAR.0>
0

>  <SCORE.INTRA.REPUL>
0

>  <SCORE.INTRA.REPUL.0>
0

>  <SCORE.INTRA.SOLV>
1.19578

>  <SCORE.INTRA.SOLV.lig_0>
-31.1706

>  <SCORE.INTRA.VDW>
-1.43394

>  <SCORE.INTRA.VDW.0>
-1.16895

>  <SCORE.INTRA.norm>
-0.17755

>  <SCORE.RESTR>
0

>  <SCORE.RESTR.CAVITY>
0

>  <SCORE.RESTR.norm>
0

>  <SCORE.SYSTEM>
0

>  <SCORE.SYSTEM.CONST>
0

>  <SCORE.SYSTEM.DIHEDRAL>
0

>  <SCORE.SYSTEM.SOLV>
0

>  <SCORE.SYSTEM.norm>
0

>  <SCORE.heavy>
23

>  <SCORE.norm>
-0.592162

>  <RMSD>
16.478

$$$$
ligand
 OpenBabel11021811513D
libRbt.so/2013.1/901 2013/11/27
 23 24  0  0  0  0  0  0  0  0999 V2000
   -3.4241    4.3881   -2.8252 C   0  0  0  0  0  0  0  0  0  0  0  0
   -2.2280    3.7548   -2.3316 O   0  0  0  0  0  0  0  0  0  0  0  0
   -3.7640    5.5712   -1.9300 C   0  0  2  0  0  0  0  0  0  0  0  0
   -4.2920    5.2181   -0.5480 C   0  0  1  0  0  0  0  0  0  0  0  0
   -3.1980    4.8690    0.3025 O   0  0  0  0  0  0  0  0  0  0  0  0
   -5.0030    6.5058   -0.1456 C   0  0  2  0  0  0  0  0  0  0  0  0
   -6.0157    6.4429    0.8657 O   0  0  0  0  0  0  0  0  0  0  0  0
   -5.6145    6.9383   -1.4665 C   0  0  2  0  0  0  0  0  0  0  0  0
   -4.7793    6.3946   -2.5107 O   0  0  0  0  0  0  0  0  0  0  0  0
   -5.6507    8.4772   -1.4839 C   0  0  0  0  0  0  0  0  0  0  0  0
   -4.3398    9.0554   -1.4156 O   0  0  0  0  0  0  0  0  0  0  0  0
   -7.5113    6.5000   -2.8939 C   0  0  2  0  0  0  0  0  0  0  0  0
   -6.9145    6.3382   -1.5956 O   0  0  0  0  0  0  0  0  0  0  0  0
   -8.8651    7.1553   -2.6930 C   0  0  2  0  0  0  0  0  0  0  0  0
   -8.7156    8.2893   -1.8317 O   0  0  0  0  0  0  0  0  0  0  0  0
   -9.8281    6.1913   -2.0356 C   0  0  1  0  0  0  0  0  0  0  0  0
  -11.1419    6.7521   -2.0895 O   0  0  0  0  0  0  0  0  0  0  0  0
   -9.8032    4.8477   -2.7391 C   0  0  2  0  0  0  0  0  0  0  0  0
  -10.5808    3.9267   -1.9864 O   0  0  0  0  0  0  0  0  0  0  0  0
   -8.3883    4.3016   -2.8765 C   0  0  2  0  0  0  0  0  0  0  0  0
   -7.6279    5.2627   -3.5961 O   0  0  0  0  0  0  0  0  0  0  0  0
   -8.3726    2.9521   -3.6042 C   0  0  0  0  0  0  0  0  0  0  0  0
   -9.1320    1.9403   -2.9266 O   0  0  0  0  0  0  0  0  0  0  0  0
  1  2  1  0  0  0  0
  3  1  1  6  0  0  0
  3  9  1  0  0  0  0
  3  4  1  0  0  0  0
  4  5  1  1  0  0  0
  4  6  1  0  0  0  0
  6  7  1  1  0  0  0
  6  8  1  0  0  0  0
  8  9  1  0  0  0  0
  8 10  1  6  0  0  0
  8 13  1  0  0  0  0
 10 11  1  0  0  0  0
 12 13  1  1  0  0  0
 12 14  1  0  0  0  0
 12 21  1  0  0  0  0
 14 15  1  1  0  0  0
 14 16  1  0  0  0  0
 16 17  1  6  0  0  0
 16 18  1  0  0  0  0
 18 19  1  1  0  0  0
 18 20  1  0  0  0  0
 20 21  1  0  0  0  0
 20 22  1  6  0  0  0
 22 23  1  0  0  0  0
M  END
>  <CHROM.1>
-71.85259584,62.22925998,-124.41817680,-170.76499934,-60.20345291,-6.74643070
5.73319536,-1.91765941,-0.19101917,0.17426420,-2.85933560

>  <Name>
ligand

>  <RI>
0

>  <Rbt.Current_Directory>
/home/itssahil/PROJECTS/Mol_Feturizer/New_Systems/rnas/4TS2

>  <Rbt.Executable>
rbdock ($Id: //depot/dev/client3/rdock/2013.1/src/exe/rbdock.cxx#4 $)

>  <Rbt.Library>
libRbt.so (2013.1, Build901 2013/11/27)

>  <Rbt.Parameter_File>
/export/apps/rDock/src/rDock_2013.1_src/data/scripts/dock_solv.prm

>  <Rbt.Receptor>
prm/blind_docking_40.prm

>  <SCORE>
-12.7451

>  <SCORE.INTER>
-9.74597

>  <SCORE.INTER.CONST>
1

>  <SCORE.INTER.POLAR>
0

>  <SCORE.INTER.ROT>
5

>  <SCORE.INTER.SOLV>
10.0108

>  <SCORE.INTER.VDW>
-16.7676

>  <SCORE.INTER.norm>
-0.423738

>  <SCORE.INTRA>
-2.99912

>  <SCORE.INTRA.DIHEDRAL>
-4.55827

>  <SCORE.INTRA.DIHEDRAL.0>
12.4853

>  <SCORE.INTRA.POLAR>
0

>  <SCORE.INTRA.POLAR.0>
0

>  <SCORE.INTRA.REPUL>
0

>  <SCORE.INTRA.REPUL.0>
0

>  <SCORE.INTRA.SOLV>
0.10931

>  <SCORE.INTRA.SOLV.lig_0>
-31.1706

>  <SCORE.INTRA.VDW>
-0.774639

>  <SCORE.INTRA.VDW.0>
-1.16895

>  <SCORE.INTRA.norm>
-0.130396

>  <SCORE.RESTR>
0

>  <SCORE.RESTR.CAVITY>
0

>  <SCORE.RESTR.norm>
0

>  <SCORE.SYSTEM>
0

>  <SCORE.SYSTEM.CONST>
0

>  <SCORE.SYSTEM.DIHEDRAL>
0

>  <SCORE.SYSTEM.SOLV>
0

>  <SCORE.SYSTEM.norm>
0

>  <SCORE.heavy>
23

>  <SCORE.norm>
-0.554134

>  <RMSD>
16.536

$$$$
ligand
 OpenBabel11021811513D
libRbt.so/2013.1/901 2013/11/27
 23 24  0  0  0  0  0  0  0  0999 V2000
   -3.7289    4.0525   -2.4946 C   0  0  0  0  0  0  0  0  0  0  0  0
   -5.0189    3.4375   -2.6764 O   0  0  0  0  0  0  0  0  0  0  0  0
   -3.9025    5.3458   -1.7112 C   0  0  2  0  0  0  0  0  0  0  0  0
   -4.5080    5.1965   -0.3239 C   0  0  1  0  0  0  0  0  0  0  0  0
   -3.4989    4.7606    0.5894 O   0  0  0  0  0  0  0  0  0  0  0  0
   -5.0216    6.6065   -0.0525 C   0  0  2  0  0  0  0  0  0  0  0  0
   -6.0535    6.7844    0.9251 O   0  0  0  0  0  0  0  0  0  0  0  0
   -5.5310    7.0113   -1.4246 C   0  0  2  0  0  0  0  0  0  0  0  0
   -4.7668    6.2601   -2.3916 O   0  0  0  0  0  0  0  0  0  0  0  0
   -5.3306    8.5307   -1.5688 C   0  0  0  0  0  0  0  0  0  0  0  0
   -3.9454    8.9032   -1.5512 O   0  0  0  0  0  0  0  0  0  0  0  0
   -7.4360    6.7256   -2.8796 C   0  0  2  0  0  0  0  0  0  0  0  0
   -6.9046    6.6054   -1.5488 O   0  0  0  0  0  0  0  0  0  0  0  0
   -8.8075    7.3645   -2.7651 C   0  0  2  0  0  0  0  0  0  0  0  0
   -8.7189    8.5217   -1.9266 O   0  0  0  0  0  0  0  0  0  0  0  0
   -9.7893    6.4022   -2.1334 C   0  0  1  0  0  0  0  0  0  0  0  0
  -11.1065    6.9409   -2.2688 O   0  0  0  0  0  0  0  0  0  0  0  0
   -9.7089    5.0421   -2.8001 C   0  0  2  0  0  0  0  0  0  0  0  0
  -10.5110    4.1281   -2.0649 O   0  0  0  0  0  0  0  0  0  0  0  0
   -8.2812    4.5150   -2.8509 C   0  0  2  0  0  0  0  0  0  0  0  0
   -7.4985    5.4696   -3.5551 O   0  0  0  0  0  0  0  0  0  0  0  0
   -8.2086    3.1483   -3.5422 C   0  0  0  0  0  0  0  0  0  0  0  0
   -8.9803    2.1397   -2.8736 O   0  0  0  0  0  0  0  0  0  0  0  0
  1  2  1  0  0  0  0
  3  1  1  6  0  0  0
  3  9  1  0  0  0  0
  3  4  1  0  0  0  0
  4  5  1  1  0  0  0
  4  6  1  0  0  0  0
  6  7  1  1  0  0  0
  6  8  1  0  0  0  0
  8  9  1  0  0  0  0
  8 10  1  6  0  0  0
  8 13  1  0  0  0  0
 10 11  1  0  0  0  0
 12 13  1  1  0  0  0
 12 14  1  0  0  0  0
 12 21  1  0  0  0  0
 14 15  1  1  0  0  0
 14 16  1  0  0  0  0
 16 17  1  6  0  0  0
 16 18  1  0  0  0  0
 18 19  1  1  0  0  0
 18 20  1  0  0  0  0
 20 21  1  0  0  0  0
 20 22  1  6  0  0  0
 22 23  1  0  0  0  0
M  END
>  <CHROM.1>
60.21490446,64.32873052,-135.01130838,-169.93814991,-60.58910709,-6.84741442
5.81183767,-1.90066109,-0.25836782,0.25665375,-2.91205529

>  <Name>
ligand

>  <RI>
0

>  <Rbt.Current_Directory>
/home/itssahil/PROJECTS/Mol_Feturizer/New_Systems/rnas/4TS2

>  <Rbt.Executable>
rbdock ($Id: //depot/dev/client3/rdock/2013.1/src/exe/rbdock.cxx#4 $)

>  <Rbt.Library>
libRbt.so (2013.1, Build901 2013/11/27)

>  <Rbt.Parameter_File>
/export/apps/rDock/src/rDock_2013.1_src/data/scripts/dock_solv.prm

>  <Rbt.Receptor>
prm/blind_docking_40.prm

>  <SCORE>
-13.6085

>  <SCORE.INTER>
-9.67031

>  <SCORE.INTER.CONST>
1

>  <SCORE.INTER.POLAR>
0

>  <SCORE.INTER.ROT>
5

>  <SCORE.INTER.SOLV>
8.80526

>  <SCORE.INTER.VDW>
-16.3153

>  <SCORE.INTER.norm>
-0.420448

>  <SCORE.INTRA>
-3.93815

>  <SCORE.INTRA.DIHEDRAL>
-5.87693

>  <SCORE.INTRA.DIHEDRAL.0>
12.4853

>  <SCORE.INTRA.POLAR>
0

>  <SCORE.INTRA.POLAR.0>
0

>  <SCORE.INTRA.REPUL>
0

>  <SCORE.INTRA.REPUL.0>
0

>  <SCORE.INTRA.SOLV>
0.85492

>  <SCORE.INTRA.SOLV.lig_0>
-31.1706

>  <SCORE.INTRA.VDW>
-1.42714

>  <SCORE.INTRA.VDW.0>
-1.16895

>  <SCORE.INTRA.norm>
-0.171224

>  <SCORE.RESTR>
0

>  <SCORE.RESTR.CAVITY>
0

>  <SCORE.RESTR.norm>
0

>  <SCORE.SYSTEM>
0

>  <SCORE.SYSTEM.CONST>
0

>  <SCORE.SYSTEM.DIHEDRAL>
0

>  <SCORE.SYSTEM.SOLV>
0

>  <SCORE.SYSTEM.norm>
0

>  <SCORE.heavy>
23

>  <SCORE.norm>
-0.591672

>  <RMSD>
16.545

$$$$
ligand
 OpenBabel11021811513D
libRbt.so/2013.1/901 2013/11/27
 23 24  0  0  0  0  0  0  0  0999 V2000
   -3.7743    3.9565   -2.4996 C   0  0  0  0  0  0  0  0  0  0  0  0
   -5.0906    3.3841   -2.6229 O   0  0  0  0  0  0  0  0  0  0  0  0
   -3.8774    5.2803   -1.7558 C   0  0  2  0  0  0  0  0  0  0  0  0
   -4.4488    5.1997   -0.3485 C   0  0  1  0  0  0  0  0  0  0  0  0
   -3.4314    4.7556    0.5515 O   0  0  0  0  0  0  0  0  0  0  0  0
   -4.9015    6.6365   -0.1111 C   0  0  2  0  0  0  0  0  0  0  0  0
   -5.8981    6.8855    0.8873 O   0  0  0  0  0  0  0  0  0  0  0  0
   -5.4338    7.0154   -1.4819 C   0  0  2  0  0  0  0  0  0  0  0  0
   -4.7257    6.2043   -2.4432 O   0  0  0  0  0  0  0  0  0  0  0  0
   -5.1808    8.5206   -1.6825 C   0  0  0  0  0  0  0  0  0  0  0  0
   -3.7841    8.8469   -1.6658 O   0  0  0  0  0  0  0  0  0  0  0  0
   -7.3982    6.7928   -2.8672 C   0  0  2  0  0  0  0  0  0  0  0  0
   -6.8245    6.6586   -1.5554 O   0  0  0  0  0  0  0  0  0  0  0  0
   -8.7640    7.4330   -2.7024 C   0  0  2  0  0  0  0  0  0  0  0  0
   -8.6460    8.5818   -1.8559 O   0  0  0  0  0  0  0  0  0  0  0  0
   -9.7270    6.4663   -2.0488 C   0  0  1  0  0  0  0  0  0  0  0  0
  -11.0467    7.0087   -2.1365 O   0  0  0  0  0  0  0  0  0  0  0  0
   -9.6710    5.1127   -2.7310 C   0  0  2  0  0  0  0  0  0  0  0  0
  -10.4509    4.1929   -1.9793 O   0  0  0  0  0  0  0  0  0  0  0  0
   -8.2467    4.5835   -2.8328 C   0  0  2  0  0  0  0  0  0  0  0  0
   -7.4851    5.5436   -3.5525 O   0  0  0  0  0  0  0  0  0  0  0  0
   -8.1993    3.2235   -3.5393 C   0  0  0  0  0  0  0  0  0  0  0  0
   -8.9581    2.2119   -2.8607 O   0  0  0  0  0  0  0  0  0  0  0  0
  1  2  1  0  0  0  0
  3  1  1  6  0  0  0
  3  9  1  0  0  0  0
  3  4  1  0  0  0  0
  4  5  1  1  0  0  0
  4  6  1  0  0  0  0
  6  7  1  1  0  0  0
  6  8  1  0  0  0  0
  8  9  1  0  0  0  0
  8 10  1  6  0  0  0
  8 13  1  0  0  0  0
 10 11  1  0  0  0  0
 12 13  1  1  0  0  0
 12 14  1  0  0  0  0
 12 21  1  0  0  0  0
 14 15  1  1  0  0  0
 14 16  1  0  0  0  0
 16 17  1  6  0  0  0
 16 18  1  0  0  0  0
 18 19  1  1  0  0  0
 18 20  1  0  0  0  0
 20 21  1  0  0  0  0
 20 22  1  6  0  0  0
 22 23  1  0  0  0  0
M  END
>  <CHROM.1>
60.07094587,62.19690550,-137.12049997,-171.65401823,-60.22196802,-6.79109241
5.83807742,-1.89772927,-0.23761119,0.24179359,-2.92075631

>  <Name>
ligand

>  <RI>
0

>  <Rbt.Current_Directory>
/home/itssahil/PROJECTS/Mol_Feturizer/New_Systems/rnas/4TS2

>  <Rbt.Executable>
rbdock ($Id: //depot/dev/client3/rdock/2013.1/src/exe/rbdock.cxx#4 $)

>  <Rbt.Library>
libRbt.so (2013.1, Build901 2013/11/27)

>  <Rbt.Parameter_File>
/export/apps/rDock/src/rDock_2013.1_src/data/scripts/dock_solv.prm

>  <Rbt.Receptor>
prm/blind_docking_20.prm

>  <SCORE>
-13.8441

>  <SCORE.INTER>
-9.70382

>  <SCORE.INTER.CONST>
1

>  <SCORE.INTER.POLAR>
0

>  <SCORE.INTER.ROT>
5

>  <SCORE.INTER.SOLV>
8.5087

>  <SCORE.INTER.VDW>
-16.2388

>  <SCORE.INTER.norm>
-0.421905

>  <SCORE.INTRA>
-4.14029

>  <SCORE.INTRA.DIHEDRAL>
-6.36077

>  <SCORE.INTRA.DIHEDRAL.0>
12.4853

>  <SCORE.INTRA.POLAR>
0

>  <SCORE.INTRA.POLAR.0>
0

>  <SCORE.INTRA.REPUL>
0

>  <SCORE.INTRA.REPUL.0>
0

>  <SCORE.INTRA.SOLV>
0.898643

>  <SCORE.INTRA.SOLV.lig_0>
-31.1706

>  <SCORE.INTRA.VDW>
-1.40922

>  <SCORE.INTRA.VDW.0>
-1.16895

>  <SCORE.INTRA.norm>
-0.180012

>  <SCORE.RESTR>
0

>  <SCORE.RESTR.CAVITY>
0

>  <SCORE.RESTR.norm>
0

>  <SCORE.SYSTEM>
0

>  <SCORE.SYSTEM.CONST>
0

>  <SCORE.SYSTEM.DIHEDRAL>
0

>  <SCORE.SYSTEM.SOLV>
0

>  <SCORE.SYSTEM.norm>
0

>  <SCORE.heavy>
23

>  <SCORE.norm>
-0.601918

>  <RMSD>
16.561

$$$$
ligand
 OpenBabel11021811513D
libRbt.so/2013.1/901 2013/11/27
 23 24  0  0  0  0  0  0  0  0999 V2000
   -4.8135    7.1798   -3.1322 C   0  0  0  0  0  0  0  0  0  0  0  0
   -4.0385    6.0631   -3.6095 O   0  0  0  0  0  0  0  0  0  0  0  0
   -6.2820    6.9351   -3.4484 C   0  0  2  0  0  0  0  0  0  0  0  0
   -7.2260    8.0784   -3.1087 C   0  0  1  0  0  0  0  0  0  0  0  0
   -7.1550    9.0721   -4.1332 O   0  0  0  0  0  0  0  0  0  0  0  0
   -8.5704    7.3628   -3.0320 C   0  0  2  0  0  0  0  0  0  0  0  0
   -9.6323    7.9754   -2.2909 O   0  0  0  0  0  0  0  0  0  0  0  0
   -8.1757    6.0479   -2.3831 C   0  0  2  0  0  0  0  0  0  0  0  0
   -6.7943    5.8107   -2.7276 O   0  0  0  0  0  0  0  0  0  0  0  0
   -9.1137    4.9563   -2.9293 C   0  0  0  0  0  0  0  0  0  0  0  0
  -10.4776    5.1602   -2.5346 O   0  0  0  0  0  0  0  0  0  0  0  0
   -7.7958    5.0427   -0.2214 C   0  0  2  0  0  0  0  0  0  0  0  0
   -8.2465    6.1947   -0.9547 O   0  0  0  0  0  0  0  0  0  0  0  0
   -8.5237    5.0385    1.1100 C   0  0  2  0  0  0  0  0  0  0  0  0
   -9.9236    5.2342    0.8814 O   0  0  0  0  0  0  0  0  0  0  0  0
   -8.0299    6.1676    1.9875 C   0  0  1  0  0  0  0  0  0  0  0  0
   -8.5518    5.9822    3.3054 O   0  0  0  0  0  0  0  0  0  0  0  0
   -6.5136    6.1926    2.0237 C   0  0  2  0  0  0  0  0  0  0  0  0
   -6.0952    7.3662    2.7071 O   0  0  0  0  0  0  0  0  0  0  0  0
   -5.9094    6.1942    0.6259 C   0  0  2  0  0  0  0  0  0  0  0  0
   -6.3795    5.0320   -0.0436 O   0  0  0  0  0  0  0  0  0  0  0  0
   -4.3769    6.2017    0.6737 C   0  0  0  0  0  0  0  0  0  0  0  0
   -3.7745    6.0793   -0.6231 O   0  0  0  0  0  0  0  0  0  0  0  0
  1  2  1  0  0  0  0
  3  1  1  1  0  0  0
  3  9  1  0  0  0  0
  3  4  1  0  0  0  0
  4  5  1  6  0  0  0
  4  6  1  0  0  0  0
  6  7  1  1  0  0  0
  6  8  1  0  0  0  0
  8  9  1  0  0  0  0
  8 10  1  6  0  0  0
  8 13  1  0  0  0  0
 10 11  1  0  0  0  0
 12 13  1  1  0  0  0
 12 14  1  0  0  0  0
 12 21  1  0  0  0  0
 14 15  1  6  0  0  0
 14 16  1  0  0  0  0
 16 17  1  1  0  0  0
 16 18  1  0  0  0  0
 18 19  1  6  0  0  0
 18 20  1  0  0  0  0
 20 21  1  0  0  0  0
 20 22  1  1  0  0  0
 22 23  1  0  0  0  0
M  END
>  <CHROM.1>
-175.22186404,-65.27175363,-152.55612727,-175.49459866,174.61346379,-7.23493029
6.32326041,-0.94983049,-1.45922103,0.11786041,1.77166847

>  <Name>
ligand

>  <RI>
0

>  <Rbt.Current_Directory>
/home/itssahil/PROJECTS/Mol_Feturizer/New_Systems/rnas/4TS2

>  <Rbt.Executable>
rbdock ($Id: //depot/dev/client3/rdock/2013.1/src/exe/rbdock.cxx#4 $)

>  <Rbt.Library>
libRbt.so (2013.1, Build901 2013/11/27)

>  <Rbt.Parameter_File>
/export/apps/rDock/src/rDock_2013.1_src/data/scripts/dock_solv.prm

>  <Rbt.Receptor>
prm/blind_docking_20.prm

>  <SCORE>
-11.934

>  <SCORE.INTER>
-6.07311

>  <SCORE.INTER.CONST>
1

>  <SCORE.INTER.POLAR>
0

>  <SCORE.INTER.ROT>
5

>  <SCORE.INTER.SOLV>
7.666

>  <SCORE.INTER.VDW>
-13.5374

>  <SCORE.INTER.norm>
-0.264048

>  <SCORE.INTRA>
-5.89052

>  <SCORE.INTRA.DIHEDRAL>
-9.03737

>  <SCORE.INTRA.DIHEDRAL.0>
12.4853

>  <SCORE.INTRA.POLAR>
0

>  <SCORE.INTRA.POLAR.0>
0

>  <SCORE.INTRA.REPUL>
0

>  <SCORE.INTRA.REPUL.0>
0

>  <SCORE.INTRA.SOLV>
0.747821

>  <SCORE.INTRA.SOLV.lig_0>
-31.1706

>  <SCORE.INTRA.VDW>
-1.74574

>  <SCORE.INTRA.VDW.0>
-1.16895

>  <SCORE.INTRA.norm>
-0.256109

>  <SCORE.RESTR>
0.0295929

>  <SCORE.RESTR.CAVITY>
0.0295929

>  <SCORE.RESTR.norm>
0.00128665

>  <SCORE.SYSTEM>
0

>  <SCORE.SYSTEM.CONST>
0

>  <SCORE.SYSTEM.DIHEDRAL>
0

>  <SCORE.SYSTEM.SOLV>
0

>  <SCORE.SYSTEM.norm>
0

>  <SCORE.heavy>
23

>  <SCORE.norm>
-0.518871

>  <RMSD>
16.589

$$$$
ligand
 OpenBabel11021811513D
libRbt.so/2013.1/901 2013/11/27
 23 24  0  0  0  0  0  0  0  0999 V2000
   -6.7119    8.4750    0.0474 C   0  0  0  0  0  0  0  0  0  0  0  0
   -7.3853    9.6710   -0.3902 O   0  0  0  0  0  0  0  0  0  0  0  0
   -7.5807    7.7653    1.0760 C   0  0  2  0  0  0  0  0  0  0  0  0
   -6.9834    6.5044    1.6817 C   0  0  1  0  0  0  0  0  0  0  0  0
   -6.0466    6.8648    2.6988 O   0  0  0  0  0  0  0  0  0  0  0  0
   -8.2244    5.7908    2.2074 C   0  0  2  0  0  0  0  0  0  0  0  0
   -8.1609    4.3768    2.4279 O   0  0  0  0  0  0  0  0  0  0  0  0
   -9.2353    6.1015    1.1177 C   0  0  2  0  0  0  0  0  0  0  0  0
   -8.8264    7.3461    0.5118 O   0  0  0  0  0  0  0  0  0  0  0  0
  -10.6220    6.1971    1.7793 C   0  0  0  0  0  0  0  0  0  0  0  0
  -11.6431    6.5937    0.8532 O   0  0  0  0  0  0  0  0  0  0  0  0
  -10.0187    5.3059   -1.0226 C   0  0  2  0  0  0  0  0  0  0  0  0
   -9.1575    5.0819    0.1071 O   0  0  0  0  0  0  0  0  0  0  0  0
  -10.0215    4.0344   -1.8507 C   0  0  2  0  0  0  0  0  0  0  0  0
  -10.2524    2.9132   -0.9904 O   0  0  0  0  0  0  0  0  0  0  0  0
   -8.6818    3.8388   -2.5259 C   0  0  1  0  0  0  0  0  0  0  0  0
   -8.8026    2.7810   -3.4799 O   0  0  0  0  0  0  0  0  0  0  0  0
   -8.2384    5.1159   -3.2137 C   0  0  2  0  0  0  0  0  0  0  0  0
   -6.9063    4.9428   -3.6774 O   0  0  0  0  0  0  0  0  0  0  0  0
   -8.2819    6.3143   -2.2752 C   0  0  2  0  0  0  0  0  0  0  0  0
   -9.6152    6.4344   -1.7979 O   0  0  0  0  0  0  0  0  0  0  0  0
   -7.8489    7.6027   -2.9847 C   0  0  0  0  0  0  0  0  0  0  0  0
   -6.4995    7.5493   -3.4705 O   0  0  0  0  0  0  0  0  0  0  0  0
  1  2  1  0  0  0  0
  3  1  1  6  0  0  0
  3  9  1  0  0  0  0
  3  4  1  0  0  0  0
  4  5  1  1  0  0  0
  4  6  1  0  0  0  0
  6  7  1  6  0  0  0
  6  8  1  0  0  0  0
  8  9  1  0  0  0  0
  8 10  1  1  0  0  0
  8 13  1  0  0  0  0
 10 11  1  0  0  0  0
 12 13  1  1  0  0  0
 12 14  1  0  0  0  0
 12 21  1  0  0  0  0
 14 15  1  1  0  0  0
 14 16  1  0  0  0  0
 16 17  1  6  0  0  0
 16 18  1  0  0  0  0
 18 19  1  1  0  0  0
 18 20  1  0  0  0  0
 20 21  1  0  0  0  0
 20 22  1  6  0  0  0
 22 23  1  0  0  0  0
M  END
>  <CHROM.1>
-177.67904581,175.36288293,-169.24275429,-176.66299107,-61.47995792,-8.50453616
5.98415769,-0.58415025,-1.35163033,-0.91455181,-1.91290557

>  <Name>
ligand

>  <RI>
0

>  <Rbt.Current_Directory>
/home/itssahil/PROJECTS/Mol_Feturizer/New_Systems/rnas/4TS2

>  <Rbt.Executable>
rbdock ($Id: //depot/dev/client3/rdock/2013.1/src/exe/rbdock.cxx#4 $)

>  <Rbt.Library>
libRbt.so (2013.1, Build901 2013/11/27)

>  <Rbt.Parameter_File>
/export/apps/rDock/src/rDock_2013.1_src/data/scripts/dock_solv.prm

>  <Rbt.Receptor>
prm/blind_docking_20.prm

>  <SCORE>
-13.032

>  <SCORE.INTER>
-6.21601

>  <SCORE.INTER.CONST>
1

>  <SCORE.INTER.POLAR>
0

>  <SCORE.INTER.ROT>
5

>  <SCORE.INTER.SOLV>
6.95081

>  <SCORE.INTER.VDW>
-13.3943

>  <SCORE.INTER.norm>
-0.270261

>  <SCORE.INTRA>
-6.81597

>  <SCORE.INTRA.DIHEDRAL>
-11.7844

>  <SCORE.INTRA.DIHEDRAL.0>
12.4853

>  <SCORE.INTRA.POLAR>
0

>  <SCORE.INTRA.POLAR.0>
0

>  <SCORE.INTRA.REPUL>
0

>  <SCORE.INTRA.REPUL.0>
0

>  <SCORE.INTRA.SOLV>
0.751486

>  <SCORE.INTRA.SOLV.lig_0>
-31.1706

>  <SCORE.INTRA.VDW>
-1.29952

>  <SCORE.INTRA.VDW.0>
-1.16895

>  <SCORE.INTRA.norm>
-0.296346

>  <SCORE.RESTR>
0

>  <SCORE.RESTR.CAVITY>
0

>  <SCORE.RESTR.norm>
0

>  <SCORE.SYSTEM>
0

>  <SCORE.SYSTEM.CONST>
0

>  <SCORE.SYSTEM.DIHEDRAL>
0

>  <SCORE.SYSTEM.SOLV>
0

>  <SCORE.SYSTEM.norm>
0

>  <SCORE.heavy>
23

>  <SCORE.norm>
-0.566608

>  <RMSD>
16.695

$$$$
ligand
 OpenBabel11021811513D
libRbt.so/2013.1/901 2013/11/27
 23 24  0  0  0  0  0  0  0  0999 V2000
   -6.6589    8.3974    0.0798 C   0  0  0  0  0  0  0  0  0  0  0  0
   -7.2581    9.6185   -0.3950 O   0  0  0  0  0  0  0  0  0  0  0  0
   -7.5989    7.7406    1.0805 C   0  0  2  0  0  0  0  0  0  0  0  0
   -7.0822    6.4643    1.7265 C   0  0  1  0  0  0  0  0  0  0  0  0
   -6.1729    6.7991    2.7770 O   0  0  0  0  0  0  0  0  0  0  0  0
   -8.3733    5.8122    2.2094 C   0  0  2  0  0  0  0  0  0  0  0  0
   -8.3802    4.4001    2.4504 O   0  0  0  0  0  0  0  0  0  0  0  0
   -9.3245    6.1499    1.0749 C   0  0  2  0  0  0  0  0  0  0  0  0
   -8.8376    7.3669    0.4706 O   0  0  0  0  0  0  0  0  0  0  0  0
  -10.7316    6.3144    1.6771 C   0  0  0  0  0  0  0  0  0  0  0  0
  -10.7914    7.3711    2.6454 O   0  0  0  0  0  0  0  0  0  0  0  0
  -10.0870    5.3363   -1.0662 C   0  0  2  0  0  0  0  0  0  0  0  0
   -9.2497    5.1133    0.0815 O   0  0  0  0  0  0  0  0  0  0  0  0
  -10.0808    4.0605   -1.8877 C   0  0  2  0  0  0  0  0  0  0  0  0
  -10.3352    2.9453   -1.0265 O   0  0  0  0  0  0  0  0  0  0  0  0
   -8.7291    3.8538   -2.5352 C   0  0  1  0  0  0  0  0  0  0  0  0
   -8.8371    2.7918   -3.4860 O   0  0  0  0  0  0  0  0  0  0  0  0
   -8.2647    5.1248   -3.2206 C   0  0  2  0  0  0  0  0  0  0  0  0
   -6.9247    4.9416   -3.6568 O   0  0  0  0  0  0  0  0  0  0  0  0
   -8.3199    6.3282   -2.2892 C   0  0  2  0  0  0  0  0  0  0  0  0
   -9.6616    6.4585   -1.8391 O   0  0  0  0  0  0  0  0  0  0  0  0
   -7.8653    7.6104   -2.9965 C   0  0  0  0  0  0  0  0  0  0  0  0
   -6.4925    7.5653   -3.4124 O   0  0  0  0  0  0  0  0  0  0  0  0
  1  2  1  0  0  0  0
  3  1  1  6  0  0  0
  3  9  1  0  0  0  0
  3  4  1  0  0  0  0
  4  5  1  1  0  0  0
  4  6  1  0  0  0  0
  6  7  1  6  0  0  0
  6  8  1  0  0  0  0
  8  9  1  0  0  0  0
  8 10  1  1  0  0  0
  8 13  1  0  0  0  0
 10 11  1  0  0  0  0
 12 13  1  1  0  0  0
 12 14  1  0  0  0  0
 12 21  1  0  0  0  0
 14 15  1  1  0  0  0
 14 16  1  0  0  0  0
 16 17  1  6  0  0  0
 16 18  1  0  0  0  0
 18 19  1  1  0  0  0
 18 20  1  0  0  0  0
 20 21  1  0  0  0  0
 20 22  1  6  0  0  0
 22 23  1  0  0  0  0
M  END
>  <CHROM.1>
-177.36045632,60.76379029,-170.24576414,-178.59131519,-63.59182993,-8.51349507
6.02894693,-0.50446617,-1.49970012,-0.93602541,-1.96868310

>  <Name>
ligand

>  <RI>
0

>  <Rbt.Current_Directory>
/home/itssahil/PROJECTS/Mol_Feturizer/New_Systems/rnas/4TS2

>  <Rbt.Executable>
rbdock ($Id: //depot/dev/client3/rdock/2013.1/src/exe/rbdock.cxx#4 $)

>  <Rbt.Library>
libRbt.so (2013.1, Build901 2013/11/27)

>  <Rbt.Parameter_File>
/export/apps/rDock/src/rDock_2013.1_src/data/scripts/dock_solv.prm

>  <Rbt.Receptor>
prm/blind_docking_40.prm

>  <SCORE>
-13.2356

>  <SCORE.INTER>
-6.16867

>  <SCORE.INTER.CONST>
1

>  <SCORE.INTER.POLAR>
0

>  <SCORE.INTER.ROT>
5

>  <SCORE.INTER.SOLV>
6.9516

>  <SCORE.INTER.VDW>
-13.363

>  <SCORE.INTER.norm>
-0.268203

>  <SCORE.INTRA>
-7.06697

>  <SCORE.INTRA.DIHEDRAL>
-11.887

>  <SCORE.INTRA.DIHEDRAL.0>
12.4853

>  <SCORE.INTRA.POLAR>
0

>  <SCORE.INTRA.POLAR.0>
0

>  <SCORE.INTRA.REPUL>
0

>  <SCORE.INTRA.REPUL.0>
0

>  <SCORE.INTRA.SOLV>
0.609

>  <SCORE.INTRA.SOLV.lig_0>
-31.1706

>  <SCORE.INTRA.VDW>
-1.42798

>  <SCORE.INTRA.VDW.0>
-1.16895

>  <SCORE.INTRA.norm>
-0.30726

>  <SCORE.RESTR>
0

>  <SCORE.RESTR.CAVITY>
0

>  <SCORE.RESTR.norm>
0

>  <SCORE.SYSTEM>
0

>  <SCORE.SYSTEM.CONST>
0

>  <SCORE.SYSTEM.DIHEDRAL>
0

>  <SCORE.SYSTEM.SOLV>
0

>  <SCORE.SYSTEM.norm>
0

>  <SCORE.heavy>
23

>  <SCORE.norm>
-0.575463

>  <RMSD>
16.751

$$$$
ligand
 OpenBabel11021811513D
libRbt.so/2013.1/901 2013/11/27
 23 24  0  0  0  0  0  0  0  0999 V2000
   -3.0851    6.1928   -4.1082 C   0  0  0  0  0  0  0  0  0  0  0  0
   -1.6987    6.5019   -3.8677 O   0  0  0  0  0  0  0  0  0  0  0  0
   -3.9268    7.4244   -3.8063 C   0  0  2  0  0  0  0  0  0  0  0  0
   -3.9487    7.8638   -2.3503 C   0  0  1  0  0  0  0  0  0  0  0  0
   -2.7533    8.5897   -2.0562 O   0  0  0  0  0  0  0  0  0  0  0  0
   -5.2161    8.7101   -2.2971 C   0  0  2  0  0  0  0  0  0  0  0  0
   -5.8463    8.9226   -1.0283 O   0  0  0  0  0  0  0  0  0  0  0  0
   -6.1410    7.9261   -3.2113 C   0  0  2  0  0  0  0  0  0  0  0  0
   -5.3006    7.2182   -4.1473 O   0  0  0  0  0  0  0  0  0  0  0  0
   -7.0763    8.9326   -3.9055 C   0  0  0  0  0  0  0  0  0  0  0  0
   -7.9810    9.5612   -2.9868 O   0  0  0  0  0  0  0  0  0  0  0  0
   -7.5171    5.9427   -3.2129 C   0  0  2  0  0  0  0  0  0  0  0  0
   -6.8428    6.9437   -2.4309 O   0  0  0  0  0  0  0  0  0  0  0  0
   -8.5866    5.3230   -2.3327 C   0  0  2  0  0  0  0  0  0  0  0  0
   -9.3421    6.3654   -1.7059 O   0  0  0  0  0  0  0  0  0  0  0  0
   -7.9557    4.4822   -1.2446 C   0  0  1  0  0  0  0  0  0  0  0  0
   -8.9834    3.7265   -0.5993 O   0  0  0  0  0  0  0  0  0  0  0  0
   -6.9090    3.5517   -1.8272 C   0  0  2  0  0  0  0  0  0  0  0  0
   -6.2220    2.9154   -0.7583 O   0  0  0  0  0  0  0  0  0  0  0  0
   -5.8985    4.2974   -2.6883 C   0  0  2  0  0  0  0  0  0  0  0  0
   -6.6204    4.9550   -3.7209 O   0  0  0  0  0  0  0  0  0  0  0  0
   -4.8557    3.3457   -3.2864 C   0  0  0  0  0  0  0  0  0  0  0  0
   -5.4068    2.4535   -4.2661 O   0  0  0  0  0  0  0  0  0  0  0  0
  1  2  1  0  0  0  0
  3  1  1  1  0  0  0
  3  9  1  0  0  0  0
  3  4  1  0  0  0  0
  4  5  1  6  0  0  0
  4  6  1  0  0  0  0
  6  7  1  1  0  0  0
  6  8  1  0  0  0  0
  8  9  1  0  0  0  0
  8 10  1  6  0  0  0
  8 13  1  0  0  0  0
 10 11  1  0  0  0  0
 12 13  1  1  0  0  0
 12 14  1  0  0  0  0
 12 21  1  0  0  0  0
 14 15  1  1  0  0  0
 14 16  1  0  0  0  0
 16 17  1  6  0  0  0
 16 18  1  0  0  0  0
 18 19  1  1  0  0  0
 18 20  1  0  0  0  0
 20 21  1  0  0  0  0
 20 22  1  6  0  0  0
 22 23  1  0  0  0  0
M  END
>  <CHROM.1>
-65.89162643,-67.04097292,-159.51622215,-166.63060728,68.25416570,-6.00391299
6.17629249,-2.67889823,-0.85885048,-0.31339194,3.12317009

>  <Name>
ligand

>  <RI>
0

>  <Rbt.Current_Directory>
/home/itssahil/PROJECTS/Mol_Feturizer/New_Systems/rnas/4TS2

>  <Rbt.Executable>
rbdock ($Id: //depot/dev/client3/rdock/2013.1/src/exe/rbdock.cxx#4 $)

>  <Rbt.Library>
libRbt.so (2013.1, Build901 2013/11/27)

>  <Rbt.Parameter_File>
/export/apps/rDock/src/rDock_2013.1_src/data/scripts/dock_solv.prm

>  <Rbt.Receptor>
prm/blind_docking_20.prm

>  <SCORE>
-11.4024

>  <SCORE.INTER>
-5.23153

>  <SCORE.INTER.CONST>
1

>  <SCORE.INTER.POLAR>
0

>  <SCORE.INTER.ROT>
5

>  <SCORE.INTER.SOLV>
7.79194

>  <SCORE.INTER.VDW>
-13.0183

>  <SCORE.INTER.norm>
-0.227458

>  <SCORE.INTRA>
-6.17083

>  <SCORE.INTRA.DIHEDRAL>
-9.39878

>  <SCORE.INTRA.DIHEDRAL.0>
12.4853

>  <SCORE.INTRA.POLAR>
0

>  <SCORE.INTRA.POLAR.0>
0

>  <SCORE.INTRA.REPUL>
0

>  <SCORE.INTRA.REPUL.0>
0

>  <SCORE.INTRA.SOLV>
0.593246

>  <SCORE.INTRA.SOLV.lig_0>
-31.1706

>  <SCORE.INTRA.VDW>
-1.76807

>  <SCORE.INTRA.VDW.0>
-1.16895

>  <SCORE.INTRA.norm>
-0.268297

>  <SCORE.RESTR>
0

>  <SCORE.RESTR.CAVITY>
0

>  <SCORE.RESTR.norm>
0

>  <SCORE.SYSTEM>
0

>  <SCORE.SYSTEM.CONST>
0

>  <SCORE.SYSTEM.DIHEDRAL>
0

>  <SCORE.SYSTEM.SOLV>
0

>  <SCORE.SYSTEM.norm>
0

>  <SCORE.heavy>
23

>  <SCORE.norm>
-0.495755

>  <RMSD>
16.914

$$$$
ligand
 OpenBabel11021811513D
libRbt.so/2013.1/901 2013/11/27
 23 24  0  0  0  0  0  0  0  0999 V2000
  -10.3597   -1.8176  -15.3444 C   0  0  0  0  0  0  0  0  0  0  0  0
  -10.3024   -0.6286  -16.1558 O   0  0  0  0  0  0  0  0  0  0  0  0
  -11.0724   -2.9146  -16.1224 C   0  0  2  0  0  0  0  0  0  0  0  0
  -11.3057   -4.2119  -15.3635 C   0  0  1  0  0  0  0  0  0  0  0  0
  -12.4390   -4.0624  -14.5060 O   0  0  0  0  0  0  0  0  0  0  0  0
  -11.5160   -5.2066  -16.5001 C   0  0  2  0  0  0  0  0  0  0  0  0
  -11.3042   -6.5995  -16.2407 O   0  0  0  0  0  0  0  0  0  0  0  0
  -10.5110   -4.7107  -17.5248 C   0  0  2  0  0  0  0  0  0  0  0  0
  -10.3336   -3.2984  -17.2856 O   0  0  0  0  0  0  0  0  0  0  0  0
  -11.0852   -5.0028  -18.9229 C   0  0  0  0  0  0  0  0  0  0  0  0
  -11.2002   -6.4086  -19.1837 O   0  0  0  0  0  0  0  0  0  0  0  0
   -8.1861   -4.9037  -18.1454 C   0  0  2  0  0  0  0  0  0  0  0  0
   -9.2471   -5.3524  -17.2847 O   0  0  0  0  0  0  0  0  0  0  0  0
   -7.0375   -5.8845  -17.9997 C   0  0  2  0  0  0  0  0  0  0  0  0
   -7.5400   -7.2194  -18.1252 O   0  0  0  0  0  0  0  0  0  0  0  0
   -6.3968   -5.7514  -16.6356 C   0  0  1  0  0  0  0  0  0  0  0  0
   -5.1816   -6.5041  -16.6276 O   0  0  0  0  0  0  0  0  0  0  0  0
   -6.1130   -4.2955  -16.3181 C   0  0  2  0  0  0  0  0  0  0  0  0
   -5.6812   -4.2013  -14.9676 O   0  0  0  0  0  0  0  0  0  0  0  0
   -7.3451   -3.4202  -16.5041 C   0  0  2  0  0  0  0  0  0  0  0  0
   -7.7751   -3.5689  -17.8505 O   0  0  0  0  0  0  0  0  0  0  0  0
   -7.0431   -1.9485  -16.1978 C   0  0  0  0  0  0  0  0  0  0  0  0
   -5.9998   -1.4067  -17.0210 O   0  0  0  0  0  0  0  0  0  0  0  0
  1  2  1  0  0  0  0
  3  1  1  1  0  0  0
  3  9  1  0  0  0  0
  3  4  1  0  0  0  0
  4  5  1  1  0  0  0
  4  6  1  0  0  0  0
  6  7  1  1  0  0  0
  6  8  1  0  0  0  0
  8  9  1  0  0  0  0
  8 10  1  6  0  0  0
  8 13  1  0  0  0  0
 10 11  1  0  0  0  0
 12 13  1  1  0  0  0
 12 14  1  0  0  0  0
 12 21  1  0  0  0  0
 14 15  1  1  0  0  0
 14 16  1  0  0  0  0
 16 17  1  6  0  0  0
 16 18  1  0  0  0  0
 18 19  1  1  0  0  0
 18 20  1  0  0  0  0
 20 21  1  0  0  0  0
 20 22  1  6  0  0  0
 22 23  1  0  0  0  0
M  END
>  <CHROM.1>
-175.75168245,-65.43176155,-166.78442436,-176.48650182,58.66888236,-8.90328359
-4.31998895,-16.81865356,-3.05345706,-0.01814628,-2.74930349

>  <Name>
ligand

>  <RI>
0

>  <Rbt.Current_Directory>
/home/itssahil/PROJECTS/Mol_Feturizer/New_Systems/rnas/4TS2

>  <Rbt.Executable>
rbdock ($Id: //depot/dev/client3/rdock/2013.1/src/exe/rbdock.cxx#4 $)

>  <Rbt.Library>
libRbt.so (2013.1, Build901 2013/11/27)

>  <Rbt.Parameter_File>
/export/apps/rDock/src/rDock_2013.1_src/data/scripts/dock_solv.prm

>  <Rbt.Receptor>
prm/blind_docking_40.prm

>  <SCORE>
-18.1318

>  <SCORE.INTER>
-10.9548

>  <SCORE.INTER.CONST>
1

>  <SCORE.INTER.POLAR>
0

>  <SCORE.INTER.ROT>
5

>  <SCORE.INTER.SOLV>
13.8951

>  <SCORE.INTER.VDW>
-18.8682

>  <SCORE.INTER.norm>
-0.476294

>  <SCORE.INTRA>
-7.17704

>  <SCORE.INTRA.DIHEDRAL>
-11.4457

>  <SCORE.INTRA.DIHEDRAL.0>
12.4853

>  <SCORE.INTRA.POLAR>
0

>  <SCORE.INTRA.POLAR.0>
0

>  <SCORE.INTRA.REPUL>
0

>  <SCORE.INTRA.REPUL.0>
0

>  <SCORE.INTRA.SOLV>
0.457121

>  <SCORE.INTRA.SOLV.lig_0>
-31.1706

>  <SCORE.INTRA.VDW>
-1.68276

>  <SCORE.INTRA.VDW.0>
-1.16895

>  <SCORE.INTRA.norm>
-0.312045

>  <SCORE.RESTR>
0

>  <SCORE.RESTR.CAVITY>
0

>  <SCORE.RESTR.norm>
0

>  <SCORE.SYSTEM>
0

>  <SCORE.SYSTEM.CONST>
0

>  <SCORE.SYSTEM.DIHEDRAL>
0

>  <SCORE.SYSTEM.SOLV>
0

>  <SCORE.SYSTEM.norm>
0

>  <SCORE.heavy>
23

>  <SCORE.norm>
-0.788339

>  <RMSD>
18.460

$$$$
ligand
 OpenBabel11021811513D
libRbt.so/2013.1/901 2013/11/27
 23 24  0  0  0  0  0  0  0  0999 V2000
   -6.9490   -7.0104  -18.6535 C   0  0  0  0  0  0  0  0  0  0  0  0
   -7.1203   -6.6017  -20.0243 O   0  0  0  0  0  0  0  0  0  0  0  0
   -6.1142   -5.9664  -17.9258 C   0  0  2  0  0  0  0  0  0  0  0  0
   -5.9759   -6.1666  -16.4244 C   0  0  1  0  0  0  0  0  0  0  0  0
   -4.9826   -7.1617  -16.1684 O   0  0  0  0  0  0  0  0  0  0  0  0
   -5.5869   -4.7685  -15.9560 C   0  0  2  0  0  0  0  0  0  0  0  0
   -5.8142   -4.4159  -14.5863 O   0  0  0  0  0  0  0  0  0  0  0  0
   -6.4380   -3.8985  -16.8641 C   0  0  2  0  0  0  0  0  0  0  0  0
   -6.6690   -4.6559  -18.0709 O   0  0  0  0  0  0  0  0  0  0  0  0
   -5.6610   -2.5959  -17.1270 C   0  0  0  0  0  0  0  0  0  0  0  0
   -6.2606   -1.8009  -18.1595 O   0  0  0  0  0  0  0  0  0  0  0  0
   -8.7077   -3.1133  -17.1083 C   0  0  2  0  0  0  0  0  0  0  0  0
   -7.7140   -3.6820  -16.2381 O   0  0  0  0  0  0  0  0  0  0  0  0
   -9.7711   -2.4798  -16.2305 C   0  0  2  0  0  0  0  0  0  0  0  0
   -9.1379   -1.6607  -15.2414 O   0  0  0  0  0  0  0  0  0  0  0  0
  -10.5709   -3.5457  -15.5142 C   0  0  1  0  0  0  0  0  0  0  0  0
  -11.7055   -2.9289  -14.9012 O   0  0  0  0  0  0  0  0  0  0  0  0
  -11.0205   -4.6202  -16.4859 C   0  0  2  0  0  0  0  0  0  0  0  0
  -11.6086   -5.6826  -15.7477 O   0  0  0  0  0  0  0  0  0  0  0  0
   -9.8603   -5.1713  -17.3039 C   0  0  2  0  0  0  0  0  0  0  0  0
   -9.2695   -4.0797  -17.9961 O   0  0  0  0  0  0  0  0  0  0  0  0
  -10.3280   -6.2438  -18.2949 C   0  0  0  0  0  0  0  0  0  0  0  0
  -11.2903   -5.7532  -19.2398 O   0  0  0  0  0  0  0  0  0  0  0  0
  1  2  1  0  0  0  0
  3  1  1  1  0  0  0
  3  9  1  0  0  0  0
  3  4  1  0  0  0  0
  4  5  1  6  0  0  0
  4  6  1  0  0  0  0
  6  7  1  1  0  0  0
  6  8  1  0  0  0  0
  8  9  1  0  0  0  0
  8 10  1  6  0  0  0
  8 13  1  0  0  0  0
 10 11  1  0  0  0  0
 12 13  1  1  0  0  0
 12 14  1  0  0  0  0
 12 21  1  0  0  0  0
 14 15  1  1  0  0  0
 14 16  1  0  0  0  0
 16 17  1  6  0  0  0
 16 18  1  0  0  0  0
 18 19  1  1  0  0  0
 18 20  1  0  0  0  0
 20 21  1  0  0  0  0
 20 22  1  6  0  0  0
 22 23  1  0  0  0  0
M  END
>  <CHROM.1>
173.19040110,169.63035129,-159.26848524,-167.64049895,60.24597366,-8.21084663
-4.51891414,-16.97537099,0.31724450,0.01670589,-2.51159083

>  <Name>
ligand

>  <RI>
0

>  <Rbt.Current_Directory>
/home/itssahil/PROJECTS/Mol_Feturizer/New_Systems/rnas/4TS2

>  <Rbt.Executable>
rbdock ($Id: //depot/dev/client3/rdock/2013.1/src/exe/rbdock.cxx#4 $)

>  <Rbt.Library>
libRbt.so (2013.1, Build901 2013/11/27)

>  <Rbt.Parameter_File>
/export/apps/rDock/src/rDock_2013.1_src/data/scripts/dock_solv.prm

>  <Rbt.Receptor>
prm/blind_docking_40.prm

>  <SCORE>
-14.7883

>  <SCORE.INTER>
-8.34533

>  <SCORE.INTER.CONST>
1

>  <SCORE.INTER.POLAR>
0

>  <SCORE.INTER.ROT>
5

>  <SCORE.INTER.SOLV>
14.2646

>  <SCORE.INTER.VDW>
-17.2517

>  <SCORE.INTER.norm>
-0.362841

>  <SCORE.INTRA>
-6.44297

>  <SCORE.INTRA.DIHEDRAL>
-9.49213

>  <SCORE.INTRA.DIHEDRAL.0>
12.4853

>  <SCORE.INTRA.POLAR>
0

>  <SCORE.INTRA.POLAR.0>
0

>  <SCORE.INTRA.REPUL>
0

>  <SCORE.INTRA.REPUL.0>
0

>  <SCORE.INTRA.SOLV>
0.422889

>  <SCORE.INTRA.SOLV.lig_0>
-31.1706

>  <SCORE.INTRA.VDW>
-1.90835

>  <SCORE.INTRA.VDW.0>
-1.16895

>  <SCORE.INTRA.norm>
-0.280129

>  <SCORE.RESTR>
0

>  <SCORE.RESTR.CAVITY>
0

>  <SCORE.RESTR.norm>
0

>  <SCORE.SYSTEM>
0

>  <SCORE.SYSTEM.CONST>
0

>  <SCORE.SYSTEM.DIHEDRAL>
0

>  <SCORE.SYSTEM.SOLV>
0

>  <SCORE.SYSTEM.norm>
0

>  <SCORE.heavy>
23

>  <SCORE.norm>
-0.64297

>  <RMSD>
18.730

$$$$
ligand
 OpenBabel11021811513D
libRbt.so/2013.1/901 2013/11/27
 23 24  0  0  0  0  0  0  0  0999 V2000
   -6.4544   -4.6123  -17.6744 C   0  0  0  0  0  0  0  0  0  0  0  0
   -5.8682   -5.3633  -16.5938 O   0  0  0  0  0  0  0  0  0  0  0  0
   -7.7697   -5.2649  -18.0752 C   0  0  2  0  0  0  0  0  0  0  0  0
   -8.5114   -4.5963  -19.2224 C   0  0  1  0  0  0  0  0  0  0  0  0
   -7.9204   -4.9901  -20.4625 O   0  0  0  0  0  0  0  0  0  0  0  0
   -9.9318   -5.1137  -19.0214 C   0  0  2  0  0  0  0  0  0  0  0  0
  -11.0183   -4.3745  -19.5918 O   0  0  0  0  0  0  0  0  0  0  0  0
  -10.0417   -5.1127  -17.5069 C   0  0  2  0  0  0  0  0  0  0  0  0
   -8.7031   -5.2741  -16.9914 O   0  0  0  0  0  0  0  0  0  0  0  0
  -10.9706   -6.2723  -17.1043 C   0  0  0  0  0  0  0  0  0  0  0  0
  -11.3351   -6.2243  -15.7177 O   0  0  0  0  0  0  0  0  0  0  0  0
  -10.3429   -3.5735  -15.6717 C   0  0  2  0  0  0  0  0  0  0  0  0
  -10.5192   -3.8269  -17.0763 O   0  0  0  0  0  0  0  0  0  0  0  0
  -11.2860   -2.4473  -15.2915 C   0  0  2  0  0  0  0  0  0  0  0  0
  -12.5916   -2.7335  -15.8050 O   0  0  0  0  0  0  0  0  0  0  0  0
  -10.8213   -1.1402  -15.8951 C   0  0  1  0  0  0  0  0  0  0  0  0
  -11.5823   -0.0762  -15.3188 O   0  0  0  0  0  0  0  0  0  0  0  0
   -9.3423   -0.9270  -15.6343 C   0  0  2  0  0  0  0  0  0  0  0  0
   -8.9122    0.2132  -16.3654 O   0  0  0  0  0  0  0  0  0  0  0  0
   -8.5088   -2.1284  -16.0593 C   0  0  2  0  0  0  0  0  0  0  0  0
   -8.9904   -3.2571  -15.3424 O   0  0  0  0  0  0  0  0  0  0  0  0
   -7.0180   -1.9098  -15.7753 C   0  0  0  0  0  0  0  0  0  0  0  0
   -6.3986   -1.0009  -16.6972 O   0  0  0  0  0  0  0  0  0  0  0  0
  1  2  1  0  0  0  0
  3  1  1  1  0  0  0
  3  9  1  0  0  0  0
  3  4  1  0  0  0  0
  4  5  1  6  0  0  0
  4  6  1  0  0  0  0
  6  7  1  6  0  0  0
  6  8  1  0  0  0  0
  8  9  1  0  0  0  0
  8 10  1  1  0  0  0
  8 13  1  0  0  0  0
 10 11  1  0  0  0  0
 12 13  1  6  0  0  0
 12 14  1  0  0  0  0
 12 21  1  0  0  0  0
 14 15  1  6  0  0  0
 14 16  1  0  0  0  0
 16 17  1  1  0  0  0
 16 18  1  0  0  0  0
 18 19  1  6  0  0  0
 18 20  1  0  0  0  0
 20 21  1  0  0  0  0
 20 22  1  1  0  0  0
 22 23  1  0  0  0  0
M  END
>  <CHROM.1>
-179.34516122,-169.70914455,-160.93819354,-164.76210534,-74.54657320,-9.33761621
-3.46862934,-16.90584412,-1.22705304,0.20101301,0.49761889

>  <Name>
ligand

>  <RI>
0

>  <Rbt.Current_Directory>
/home/itssahil/PROJECTS/Mol_Feturizer/New_Systems/rnas/4TS2

>  <Rbt.Executable>
rbdock ($Id: //depot/dev/client3/rdock/2013.1/src/exe/rbdock.cxx#4 $)

>  <Rbt.Library>
libRbt.so (2013.1, Build901 2013/11/27)

>  <Rbt.Parameter_File>
/export/apps/rDock/src/rDock_2013.1_src/data/scripts/dock_solv.prm

>  <Rbt.Receptor>
prm/blind_docking_60.prm

>  <SCORE>
-16.758

>  <SCORE.INTER>
-11.2922

>  <SCORE.INTER.CONST>
1

>  <SCORE.INTER.POLAR>
0

>  <SCORE.INTER.ROT>
5

>  <SCORE.INTER.SOLV>
17.4395

>  <SCORE.INTER.VDW>
-20.2746

>  <SCORE.INTER.norm>
-0.490963

>  <SCORE.INTRA>
-5.77394

>  <SCORE.INTRA.DIHEDRAL>
-8.73989

>  <SCORE.INTRA.DIHEDRAL.0>
12.4853

>  <SCORE.INTRA.POLAR>
0

>  <SCORE.INTRA.POLAR.0>
0

>  <SCORE.INTRA.REPUL>
0

>  <SCORE.INTRA.REPUL.0>
0

>  <SCORE.INTRA.SOLV>
0.594259

>  <SCORE.INTRA.SOLV.lig_0>
-31.1706

>  <SCORE.INTRA.VDW>
-1.70113

>  <SCORE.INTRA.VDW.0>
-1.16895

>  <SCORE.INTRA.norm>
-0.251041

>  <SCORE.RESTR>
0.30815

>  <SCORE.RESTR.CAVITY>
0.30815

>  <SCORE.RESTR.norm>
0.0133978

>  <SCORE.SYSTEM>
0

>  <SCORE.SYSTEM.CONST>
0

>  <SCORE.SYSTEM.DIHEDRAL>
0

>  <SCORE.SYSTEM.SOLV>
0

>  <SCORE.SYSTEM.norm>
0

>  <SCORE.heavy>
23

>  <SCORE.norm>
-0.728607

>  <RMSD>
19.072

$$$$
ligand
 OpenBabel11021811513D
libRbt.so/2013.1/901 2013/11/27
 23 24  0  0  0  0  0  0  0  0999 V2000
   -5.6577   -5.6291  -16.8336 C   0  0  0  0  0  0  0  0  0  0  0  0
   -5.5050   -6.8629  -16.1058 O   0  0  0  0  0  0  0  0  0  0  0  0
   -6.6637   -5.8375  -17.9565 C   0  0  2  0  0  0  0  0  0  0  0  0
   -6.7528   -4.7117  -18.9754 C   0  0  1  0  0  0  0  0  0  0  0  0
   -5.6713   -4.8247  -19.9025 O   0  0  0  0  0  0  0  0  0  0  0  0
   -8.1258   -4.9553  -19.5927 C   0  0  2  0  0  0  0  0  0  0  0  0
   -8.7850   -3.8668  -20.2506 O   0  0  0  0  0  0  0  0  0  0  0  0
   -8.9287   -5.3917  -18.3799 C   0  0  2  0  0  0  0  0  0  0  0  0
   -7.9940   -5.9795  -17.4503 O   0  0  0  0  0  0  0  0  0  0  0  0
   -9.9918   -6.3965  -18.8594 C   0  0  0  0  0  0  0  0  0  0  0  0
  -10.7959   -6.8969  -17.7820 O   0  0  0  0  0  0  0  0  0  0  0  0
   -9.4541   -4.2594  -16.3137 C   0  0  2  0  0  0  0  0  0  0  0  0
   -9.4906   -4.2275  -17.7509 O   0  0  0  0  0  0  0  0  0  0  0  0
  -10.5702   -3.3627  -15.8110 C   0  0  2  0  0  0  0  0  0  0  0  0
  -11.7822   -3.6889  -16.4999 O   0  0  0  0  0  0  0  0  0  0  0  0
  -10.2493   -1.9106  -16.0893 C   0  0  1  0  0  0  0  0  0  0  0  0
  -11.1911   -1.0937  -15.3898 O   0  0  0  0  0  0  0  0  0  0  0  0
   -8.8375   -1.5802  -15.6438 C   0  0  2  0  0  0  0  0  0  0  0  0
   -8.5183   -0.2671  -16.0835 O   0  0  0  0  0  0  0  0  0  0  0  0
   -7.8160   -2.5537  -16.2163 C   0  0  2  0  0  0  0  0  0  0  0  0
   -8.1866   -3.8590  -15.7934 O   0  0  0  0  0  0  0  0  0  0  0  0
   -6.3949   -2.2217  -15.7461 C   0  0  0  0  0  0  0  0  0  0  0  0
   -5.9204   -0.9608  -16.2408 O   0  0  0  0  0  0  0  0  0  0  0  0
  1  2  1  0  0  0  0
  3  1  1  1  0  0  0
  3  9  1  0  0  0  0
  3  4  1  0  0  0  0
  4  5  1  6  0  0  0
  4  6  1  0  0  0  0
  6  7  1  1  0  0  0
  6  8  1  0  0  0  0
  8  9  1  0  0  0  0
  8 10  1  6  0  0  0
  8 13  1  0  0  0  0
 10 11  1  0  0  0  0
 12 13  1  6  0  0  0
 12 14  1  0  0  0  0
 12 21  1  0  0  0  0
 14 15  1  6  0  0  0
 14 16  1  0  0  0  0
 16 17  1  1  0  0  0
 16 18  1  0  0  0  0
 18 19  1  6  0  0  0
 18 20  1  0  0  0  0
 20 21  1  0  0  0  0
 20 22  1  1  0  0  0
 22 23  1  0  0  0  0
M  END
>  <CHROM.1>
-169.28670068,178.85796620,-154.92111937,-139.73413628,-65.55499541,-8.40497142
-3.96366410,-17.19901294,-1.13369240,0.04127106,0.52963732

>  <Name>
ligand

>  <RI>
0

>  <Rbt.Current_Directory>
/home/itssahil/PROJECTS/Mol_Feturizer/New_Systems/rnas/4TS2

>  <Rbt.Executable>
rbdock ($Id: //depot/dev/client3/rdock/2013.1/src/exe/rbdock.cxx#4 $)

>  <Rbt.Library>
libRbt.so (2013.1, Build901 2013/11/27)

>  <Rbt.Parameter_File>
/export/apps/rDock/src/rDock_2013.1_src/data/scripts/dock_solv.prm

>  <Rbt.Receptor>
prm/blind_docking_40.prm

>  <SCORE>
-17.1586

>  <SCORE.INTER>
-14.0655

>  <SCORE.INTER.CONST>
1

>  <SCORE.INTER.POLAR>
0

>  <SCORE.INTER.ROT>
5

>  <SCORE.INTER.SOLV>
15.5255

>  <SCORE.INTER.VDW>
-21.4855

>  <SCORE.INTER.norm>
-0.611544

>  <SCORE.INTRA>
-3.09546

>  <SCORE.INTRA.DIHEDRAL>
-4.086

>  <SCORE.INTRA.DIHEDRAL.0>
12.4853

>  <SCORE.INTRA.POLAR>
0

>  <SCORE.INTRA.POLAR.0>
0

>  <SCORE.INTRA.REPUL>
0

>  <SCORE.INTRA.REPUL.0>
0

>  <SCORE.INTRA.SOLV>
0.272836

>  <SCORE.INTRA.SOLV.lig_0>
-31.1706

>  <SCORE.INTRA.VDW>
-1.18888

>  <SCORE.INTRA.VDW.0>
-1.16895

>  <SCORE.INTRA.norm>
-0.134585

>  <SCORE.RESTR>
0.00240834

>  <SCORE.RESTR.CAVITY>
0.00240834

>  <SCORE.RESTR.norm>
0.00010471

>  <SCORE.SYSTEM>
0

>  <SCORE.SYSTEM.CONST>
0

>  <SCORE.SYSTEM.DIHEDRAL>
0

>  <SCORE.SYSTEM.SOLV>
0

>  <SCORE.SYSTEM.norm>
0

>  <SCORE.heavy>
23

>  <SCORE.norm>
-0.746024

>  <RMSD>
19.089

$$$$
ligand
 OpenBabel11021811513D
libRbt.so/2013.1/901 2013/11/27
 23 24  0  0  0  0  0  0  0  0999 V2000
   -5.7943   -4.3097  -17.6678 C   0  0  0  0  0  0  0  0  0  0  0  0
   -5.2096   -5.0541  -16.5817 O   0  0  0  0  0  0  0  0  0  0  0  0
   -7.0032   -5.0695  -18.1949 C   0  0  2  0  0  0  0  0  0  0  0  0
   -7.7574   -4.3960  -19.3311 C   0  0  1  0  0  0  0  0  0  0  0  0
   -7.0622   -4.6193  -20.5595 O   0  0  0  0  0  0  0  0  0  0  0  0
   -9.1170   -5.0826  -19.2554 C   0  0  2  0  0  0  0  0  0  0  0  0
  -10.2509   -4.4245  -19.8328 O   0  0  0  0  0  0  0  0  0  0  0  0
   -9.3037   -5.2173  -17.7544 C   0  0  2  0  0  0  0  0  0  0  0  0
   -7.9837   -5.2706  -17.1729 O   0  0  0  0  0  0  0  0  0  0  0  0
  -10.1120   -6.5018  -17.4968 C   0  0  0  0  0  0  0  0  0  0  0  0
  -11.4585   -6.4067  -17.9823 O   0  0  0  0  0  0  0  0  0  0  0  0
   -9.8508   -3.8620  -15.8331 C   0  0  2  0  0  0  0  0  0  0  0  0
   -9.9479   -4.0319  -17.2578 O   0  0  0  0  0  0  0  0  0  0  0  0
  -10.9048   -2.8502  -15.4235 C   0  0  2  0  0  0  0  0  0  0  0  0
  -12.1583   -3.2115  -16.0138 O   0  0  0  0  0  0  0  0  0  0  0  0
  -10.5345   -1.4693  -15.9185 C   0  0  1  0  0  0  0  0  0  0  0  0
  -11.4095   -0.5171  -15.3093 O   0  0  0  0  0  0  0  0  0  0  0  0
   -9.0919   -1.1481  -15.5770 C   0  0  2  0  0  0  0  0  0  0  0  0
   -8.7362    0.0726  -16.2115 O   0  0  0  0  0  0  0  0  0  0  0  0
   -8.1386   -2.2411  -16.0411 C   0  0  2  0  0  0  0  0  0  0  0  0
   -8.5461   -3.4540  -15.4224 O   0  0  0  0  0  0  0  0  0  0  0  0
   -6.6856   -1.9152  -15.6756 C   0  0  0  0  0  0  0  0  0  0  0  0
   -6.1458   -0.8264  -16.4390 O   0  0  0  0  0  0  0  0  0  0  0  0
  1  2  1  0  0  0  0
  3  1  1  1  0  0  0
  3  9  1  0  0  0  0
  3  4  1  0  0  0  0
  4  5  1  6  0  0  0
  4  6  1  0  0  0  0
  6  7  1  1  0  0  0
  6  8  1  0  0  0  0
  8  9  1  0  0  0  0
  8 10  1  1  0  0  0
  8 13  1  0  0  0  0
 10 11  1  0  0  0  0
 12 13  1  6  0  0  0
 12 14  1  0  0  0  0
 12 21  1  0  0  0  0
 14 15  1  6  0  0  0
 14 16  1  0  0  0  0
 16 17  1  1  0  0  0
 16 18  1  0  0  0  0
 18 19  1  6  0  0  0
 18 20  1  0  0  0  0
 20 21  1  0  0  0  0
 20 22  1  1  0  0  0
 22 23  1  0  0  0  0
M  END
>  <CHROM.1>
178.63569617,-67.23555084,-162.83895922,-163.56883107,-70.13963370,-8.83705664
-3.54567112,-17.08918154,-1.24635508,0.13150591,0.60560966

>  <Name>
ligand

>  <RI>
0

>  <Rbt.Current_Directory>
/home/itssahil/PROJECTS/Mol_Feturizer/New_Systems/rnas/4TS2

>  <Rbt.Executable>
rbdock ($Id: //depot/dev/client3/rdock/2013.1/src/exe/rbdock.cxx#4 $)

>  <Rbt.Library>
libRbt.so (2013.1, Build901 2013/11/27)

>  <Rbt.Parameter_File>
/export/apps/rDock/src/rDock_2013.1_src/data/scripts/dock_solv.prm

>  <Rbt.Receptor>
prm/blind_docking_80.prm

>  <SCORE>
-15.7485

>  <SCORE.INTER>
-10.2657

>  <SCORE.INTER.CONST>
1

>  <SCORE.INTER.POLAR>
0

>  <SCORE.INTER.ROT>
5

>  <SCORE.INTER.SOLV>
15.9634

>  <SCORE.INTER.VDW>
-19.0982

>  <SCORE.INTER.norm>
-0.446333

>  <SCORE.INTRA>
-6.04572

>  <SCORE.INTRA.DIHEDRAL>
-9.53249

>  <SCORE.INTRA.DIHEDRAL.0>
12.4853

>  <SCORE.INTRA.POLAR>
0

>  <SCORE.INTRA.POLAR.0>
0

>  <SCORE.INTRA.REPUL>
0

>  <SCORE.INTRA.REPUL.0>
0

>  <SCORE.INTRA.SOLV>
0.693428

>  <SCORE.INTRA.SOLV.lig_0>
-31.1706

>  <SCORE.INTRA.VDW>
-1.62618

>  <SCORE.INTRA.VDW.0>
-1.16895

>  <SCORE.INTRA.norm>
-0.262857

>  <SCORE.RESTR>
0.562841

>  <SCORE.RESTR.CAVITY>
0.562841

>  <SCORE.RESTR.norm>
0.0244714

>  <SCORE.SYSTEM>
0

>  <SCORE.SYSTEM.CONST>
0

>  <SCORE.SYSTEM.DIHEDRAL>
0

>  <SCORE.SYSTEM.SOLV>
0

>  <SCORE.SYSTEM.norm>
0

>  <SCORE.heavy>
23

>  <SCORE.norm>
-0.684719

>  <RMSD>
19.147

$$$$
ligand
 OpenBabel11021811513D
libRbt.so/2013.1/901 2013/11/27
 23 24  0  0  0  0  0  0  0  0999 V2000
   -6.2611   -4.6314  -17.7548 C   0  0  0  0  0  0  0  0  0  0  0  0
   -5.3267   -4.6734  -18.8505 O   0  0  0  0  0  0  0  0  0  0  0  0
   -7.5699   -5.2715  -18.1949 C   0  0  2  0  0  0  0  0  0  0  0  0
   -8.3261   -4.5335  -19.2889 C   0  0  1  0  0  0  0  0  0  0  0  0
   -7.7366   -4.8310  -20.5563 O   0  0  0  0  0  0  0  0  0  0  0  0
   -9.7387   -5.0824  -19.1188 C   0  0  2  0  0  0  0  0  0  0  0  0
  -10.8375   -4.3192  -19.6309 O   0  0  0  0  0  0  0  0  0  0  0  0
   -9.8407   -5.1897  -17.6075 C   0  0  2  0  0  0  0  0  0  0  0  0
   -8.4975   -5.3693  -17.1105 O   0  0  0  0  0  0  0  0  0  0  0  0
  -10.7525   -6.3869  -17.2838 C   0  0  0  0  0  0  0  0  0  0  0  0
  -12.0850   -6.2101  -17.7848 O   0  0  0  0  0  0  0  0  0  0  0  0
   -9.9785   -3.7001  -15.7129 C   0  0  2  0  0  0  0  0  0  0  0  0
  -10.3324   -3.9438  -17.0852 O   0  0  0  0  0  0  0  0  0  0  0  0
  -10.9612   -2.6823  -15.1643 C   0  0  2  0  0  0  0  0  0  0  0  0
  -12.2936   -3.0893  -15.4946 O   0  0  0  0  0  0  0  0  0  0  0  0
  -10.7188   -1.3239  -15.7847 C   0  0  1  0  0  0  0  0  0  0  0  0
  -11.4875   -0.3531  -15.0704 O   0  0  0  0  0  0  0  0  0  0  0  0
   -9.2455   -0.9672  -15.7317 C   0  0  2  0  0  0  0  0  0  0  0  0
   -9.0396    0.2240  -16.4787 O   0  0  0  0  0  0  0  0  0  0  0  0
   -8.3700   -2.0702  -16.3113 C   0  0  2  0  0  0  0  0  0  0  0  0
   -8.6298   -3.2549  -15.5705 O   0  0  0  0  0  0  0  0  0  0  0  0
   -6.8822   -1.7073  -16.2368 C   0  0  0  0  0  0  0  0  0  0  0  0
   -6.3182   -1.9163  -14.9338 O   0  0  0  0  0  0  0  0  0  0  0  0
  1  2  1  0  0  0  0
  3  1  1  1  0  0  0
  3  9  1  0  0  0  0
  3  4  1  0  0  0  0
  4  5  1  6  0  0  0
  4  6  1  0  0  0  0
  6  7  1  1  0  0  0
  6  8  1  0  0  0  0
  8  9  1  0  0  0  0
  8 10  1  1  0  0  0
  8 13  1  0  0  0  0
 10 11  1  0  0  0  0
 12 13  1  6  0  0  0
 12 14  1  0  0  0  0
 12 21  1  0  0  0  0
 14 15  1  6  0  0  0
 14 16  1  0  0  0  0
 16 17  1  1  0  0  0
 16 18  1  0  0  0  0
 18 19  1  6  0  0  0
 18 20  1  0  0  0  0
 20 21  1  0  0  0  0
 20 22  1  1  0  0  0
 22 23  1  0  0  0  0
M  END
>  <CHROM.1>
-65.70576996,-62.28029314,-158.79938096,-156.03139476,79.35549321,-9.18481447
-3.52531094,-17.08138443,-1.23608922,0.18797471,0.65226346

>  <Name>
ligand

>  <RI>
0

>  <Rbt.Current_Directory>
/home/itssahil/PROJECTS/Mol_Feturizer/New_Systems/rnas/4TS2

>  <Rbt.Executable>
rbdock ($Id: //depot/dev/client3/rdock/2013.1/src/exe/rbdock.cxx#4 $)

>  <Rbt.Library>
libRbt.so (2013.1, Build901 2013/11/27)

>  <Rbt.Parameter_File>
/export/apps/rDock/src/rDock_2013.1_src/data/scripts/dock_solv.prm

>  <Rbt.Receptor>
prm/blind_docking_40.prm

>  <SCORE>
-17.1491

>  <SCORE.INTER>
-12.5442

>  <SCORE.INTER.CONST>
1

>  <SCORE.INTER.POLAR>
0

>  <SCORE.INTER.ROT>
5

>  <SCORE.INTER.SOLV>
16.6127

>  <SCORE.INTER.VDW>
-20.8337

>  <SCORE.INTER.norm>
-0.545399

>  <SCORE.INTRA>
-4.60494

>  <SCORE.INTRA.DIHEDRAL>
-6.87219

>  <SCORE.INTRA.DIHEDRAL.0>
12.4853

>  <SCORE.INTRA.POLAR>
0

>  <SCORE.INTRA.POLAR.0>
0

>  <SCORE.INTRA.REPUL>
0

>  <SCORE.INTRA.REPUL.0>
0

>  <SCORE.INTRA.SOLV>
0.655595

>  <SCORE.INTRA.SOLV.lig_0>
-31.1706

>  <SCORE.INTRA.VDW>
-1.49664

>  <SCORE.INTRA.VDW.0>
-1.16895

>  <SCORE.INTRA.norm>
-0.200215

>  <SCORE.RESTR>
0

>  <SCORE.RESTR.CAVITY>
0

>  <SCORE.RESTR.norm>
0

>  <SCORE.SYSTEM>
0

>  <SCORE.SYSTEM.CONST>
0

>  <SCORE.SYSTEM.DIHEDRAL>
0

>  <SCORE.SYSTEM.SOLV>
0

>  <SCORE.SYSTEM.norm>
0

>  <SCORE.heavy>
23

>  <SCORE.norm>
-0.745614

>  <RMSD>
19.167

$$$$
ligand
 OpenBabel11021811513D
libRbt.so/2013.1/901 2013/11/27
 23 24  0  0  0  0  0  0  0  0999 V2000
   -6.3497   -4.5748  -17.7465 C   0  0  0  0  0  0  0  0  0  0  0  0
   -5.4014   -4.6705  -18.8269 O   0  0  0  0  0  0  0  0  0  0  0  0
   -7.6519   -5.2393  -18.1699 C   0  0  2  0  0  0  0  0  0  0  0  0
   -8.4139   -4.5392  -19.2847 C   0  0  1  0  0  0  0  0  0  0  0  0
   -7.8200   -4.8661  -20.5427 O   0  0  0  0  0  0  0  0  0  0  0  0
   -9.8213   -5.0967  -19.1007 C   0  0  2  0  0  0  0  0  0  0  0  0
  -10.9268   -4.3585  -19.6347 O   0  0  0  0  0  0  0  0  0  0  0  0
   -9.9240   -5.1629  -17.5871 C   0  0  2  0  0  0  0  0  0  0  0  0
   -8.5798   -5.3159  -17.0840 O   0  0  0  0  0  0  0  0  0  0  0  0
  -10.8248   -6.3594  -17.2310 C   0  0  0  0  0  0  0  0  0  0  0  0
  -10.2912   -7.6045  -17.7027 O   0  0  0  0  0  0  0  0  0  0  0  0
  -10.2380   -3.7045  -15.6892 C   0  0  2  0  0  0  0  0  0  0  0  0
  -10.4282   -3.9078  -17.1000 O   0  0  0  0  0  0  0  0  0  0  0  0
  -11.1730   -2.5888  -15.2609 C   0  0  2  0  0  0  0  0  0  0  0  0
  -12.4844   -2.8517  -15.7720 O   0  0  0  0  0  0  0  0  0  0  0  0
  -10.7083   -1.2631  -15.8226 C   0  0  1  0  0  0  0  0  0  0  0  0
  -11.4596   -0.2170  -15.2024 O   0  0  0  0  0  0  0  0  0  0  0  0
   -9.2261   -1.0648  -15.5682 C   0  0  2  0  0  0  0  0  0  0  0  0
   -8.7980    0.0986  -16.2629 O   0  0  0  0  0  0  0  0  0  0  0  0
   -8.4016   -2.2538  -16.0428 C   0  0  2  0  0  0  0  0  0  0  0  0
   -8.8813   -3.4051  -15.3615 O   0  0  0  0  0  0  0  0  0  0  0  0
   -6.9073   -2.0511  -15.7652 C   0  0  0  0  0  0  0  0  0  0  0  0
   -6.3068   -1.0658  -16.6186 O   0  0  0  0  0  0  0  0  0  0  0  0
  1  2  1  0  0  0  0
  3  1  1  1  0  0  0
  3  9  1  0  0  0  0
  3  4  1  0  0  0  0
  4  5  1  6  0  0  0
  4  6  1  0  0  0  0
  6  7  1  1  0  0  0
  6  8  1  0  0  0  0
  8  9  1  0  0  0  0
  8 10  1  1  0  0  0
  8 13  1  0  0  0  0
 10 11  1  0  0  0  0
 12 13  1  6  0  0  0
 12 14  1  0  0  0  0
 12 21  1  0  0  0  0
 14 15  1  6  0  0  0
 14 16  1  0  0  0  0
 16 17  1  1  0  0  0
 16 18  1  0  0  0  0
 18 19  1  6  0  0  0
 18 20  1  0  0  0  0
 20 21  1  0  0  0  0
 20 22  1  1  0  0  0
 22 23  1  0  0  0  0
M  END
>  <CHROM.1>
-67.25742911,60.71544985,-162.69965830,-164.12361192,-71.75253494,-9.16609340
-3.56036423,-17.11776482,-1.27471132,0.27040980,0.55138354

>  <Name>
ligand

>  <RI>
0

>  <Rbt.Current_Directory>
/home/itssahil/PROJECTS/Mol_Feturizer/New_Systems/rnas/4TS2

>  <Rbt.Executable>
rbdock ($Id: //depot/dev/client3/rdock/2013.1/src/exe/rbdock.cxx#4 $)

>  <Rbt.Library>
libRbt.so (2013.1, Build901 2013/11/27)

>  <Rbt.Parameter_File>
/export/apps/rDock/src/rDock_2013.1_src/data/scripts/dock_solv.prm

>  <Rbt.Receptor>
prm/blind_docking_40.prm

>  <SCORE>
-17.5641

>  <SCORE.INTER>
-11.6948

>  <SCORE.INTER.CONST>
1

>  <SCORE.INTER.POLAR>
0

>  <SCORE.INTER.ROT>
5

>  <SCORE.INTER.SOLV>
16.5267

>  <SCORE.INTER.VDW>
-20.2388

>  <SCORE.INTER.norm>
-0.508472

>  <SCORE.INTRA>
-5.87383

>  <SCORE.INTRA.DIHEDRAL>
-9.40296

>  <SCORE.INTRA.DIHEDRAL.0>
12.4853

>  <SCORE.INTRA.POLAR>
0

>  <SCORE.INTRA.POLAR.0>
0

>  <SCORE.INTRA.REPUL>
0

>  <SCORE.INTRA.REPUL.0>
0

>  <SCORE.INTRA.SOLV>
0.531551

>  <SCORE.INTRA.SOLV.lig_0>
-31.1706

>  <SCORE.INTRA.VDW>
-1.43812

>  <SCORE.INTRA.VDW.0>
-1.16895

>  <SCORE.INTRA.norm>
-0.255384

>  <SCORE.RESTR>
0.00453757

>  <SCORE.RESTR.CAVITY>
0.00453757

>  <SCORE.RESTR.norm>
0.000197286

>  <SCORE.SYSTEM>
0

>  <SCORE.SYSTEM.CONST>
0

>  <SCORE.SYSTEM.DIHEDRAL>
0

>  <SCORE.SYSTEM.SOLV>
0

>  <SCORE.SYSTEM.norm>
0

>  <SCORE.heavy>
23

>  <SCORE.norm>
-0.763658

>  <RMSD>
19.203

$$$$
