@<TRIPOS>MOLECULE
4TS2_rdock.pdb
 716 801 0 0 0
SMALL
GASTEIGER

@<TRIPOS>ATOM
      1  P        -14.5990   10.4050    5.2130 P.3    20  G20         0.1280
      2  C5'      -12.1680   11.3270    5.5480 C.3    20  G20         0.1795
      3  O5'      -13.0330   10.1950    5.4340 O.3    20  G20        -0.3259
      4  C4'      -10.9680   11.0130    6.4130 C.3    20  G20         0.1772
      5  O4'      -11.3090   10.1550    7.5420 O.3    20  G20        -0.3307
      6  C3'       -9.7810   10.2700    5.8190 C.3    20  G20         0.1860
      7  O3'       -8.8990   11.0520    5.0260 O.3    20  G20        -0.3112
      8  C2'       -8.9920   10.0030    7.0900 C.3    20  G20         0.2309
      9  O2'       -8.3410   11.1800    7.5420 O.3    20  G20        -0.2156
     10  C1'      -10.1200    9.5770    8.0400 C.3    20  G20         0.2408
     11  N1        -7.7660    5.2640    9.0990 N.ar   20  G20        -0.1709
     12  C2        -7.3470    6.5580    9.2750 C.ar   20  G20         0.2606
     13  N2        -6.1160    6.7160    9.7860 N.pl3  20  G20        -0.0859
     14  N3        -8.0820    7.6160    8.9820 N.ar   20  G20        -0.1918
     15  C4        -9.2750    7.2660    8.4530 C.ar   20  G20         0.1723
     16  C5        -9.7850    6.0050    8.2360 C.ar   20  G20         0.1748
     17  C6        -9.0000    4.8820    8.5880 C.ar   20  G20         0.3023
     18  O6        -9.2690    3.6790    8.4640 O.2    20  G20        -0.2633
     19  N7       -11.0600    6.0780    7.6980 N.ar   20  G20        -0.2173
     20  C8       -11.2930    7.3590    7.5920 C.ar   20  G20         0.1817
     21  N9       -10.2530    8.1320    8.0350 N.ar   20  G20        -0.2693
     22  OP1      -14.8670   11.3190    4.0860 O.3    20  G20        -0.1955
     23  OP2      -14.9830    8.9580    5.2000 O.co2  20  G20        -0.7863
     24  P         -8.0320   10.3810    3.8480 P.3    21  U21         0.2141
     25  C5'       -5.9680   10.5000    5.4650 C.3    21  U21         0.1812
     26  O5'       -6.8220    9.6860    4.6290 O.3    21  U21        -0.3114
     27  C4'       -4.7040    9.7740    5.8810 C.3    21  U21         0.1773
     28  O4'       -4.9800    8.8370    6.9570 O.3    21  U21        -0.3307
     29  C3'       -4.0460    8.9080    4.8260 C.3    21  U21         0.1860
     30  O3'       -3.2830    9.7460    4.0030 O.3    21  U21        -0.3112
     31  C2'       -3.1780    8.0000    5.6750 C.3    21  U21         0.2309
     32  O2'       -2.0040    8.6320    6.1580 O.3    21  U21        -0.2156
     33  C1'       -4.1300    7.7050    6.8290 C.3    21  U21         0.2420
     34  N1        -4.9590    6.5270    6.5660 N.ar   21  U21        -0.2534
     35  C2        -4.3620    5.2810    6.6840 C.ar   21  U21         0.3546
     36  O2        -3.1870    5.1340    6.9750 O.2    21  U21        -0.2443
     37  N3        -5.1810    4.2190    6.3960 N.ar   21  U21        -0.1530
     38  C4        -6.5040    4.2720    6.0010 C.ar   21  U21         0.2846
     39  O4        -7.1190    3.2230    5.7860 O.2    21  U21        -0.2650
     40  C5        -7.0480    5.5940    5.9240 C.ar   21  U21         0.0814
     41  C6        -6.2660    6.6510    6.1690 C.ar   21  U21         0.0870
     42  OP1       -7.5250   11.5160    3.0290 O.2    21  U21        -0.5172
     43  OP2       -8.8270    9.2940    3.1980 O.co2  21  U21        -0.4373
     44  P         -2.9480    9.3050    2.5140 P.3    22  G22         0.2141
     45  C5'       -0.8370    7.9300    3.2310 C.3    22  G22         0.1812
     46  O5'       -2.1760    7.9340    2.7090 O.3    22  G22        -0.3114
     47  C4'       -0.3420    6.5050    3.2350 C.3    22  G22         0.1773
     48  O4'       -1.1700    5.7000    4.1240 O.3    22  G22        -0.3307
     49  C3'       -0.4970    5.7800    1.9160 C.3    22  G22         0.1860
     50  O3'        0.4490    6.2460    0.9700 O.3    22  G22        -0.3112
     51  C2'       -0.3870    4.3370    2.3710 C.3    22  G22         0.2309
     52  O2'        0.9630    4.0520    2.6770 O.3    22  G22        -0.2156
     53  C1'       -1.2450    4.3690    3.6400 C.3    22  G22         0.2408
     54  N1        -4.6980    0.6610    3.1750 N.ar   22  G22        -0.1709
     55  C2        -3.3390    0.5670    3.2800 C.ar   22  G22         0.2606
     56  N2        -2.8410   -0.6690    3.2450 N.pl3  22  G22        -0.0859
     57  N3        -2.5310    1.6060    3.3890 N.ar   22  G22        -0.1918
     58  C4        -3.2100    2.7700    3.3960 C.ar   22  G22         0.1723
     59  C5        -4.5730    2.9690    3.3040 C.ar   22  G22         0.1748
     60  C6        -5.4200    1.8450    3.1960 C.ar   22  G22         0.3023
     61  O6        -6.6500    1.8120    3.1140 O.2    22  G22        -0.2633
     62  N7        -4.8780    4.3200    3.3480 N.ar   22  G22        -0.2173
     63  C8        -3.7170    4.9110    3.4700 C.ar   22  G22         0.1817
     64  N9        -2.6610    4.0300    3.4890 N.ar   22  G22        -0.2693
     65  OP1       -2.1190   10.3890    1.9700 O.3    22  G22        -0.4373
     66  OP2       -4.1970    8.8930    1.8120 O.co2  22  G22        -0.5172
     67  P          0.1750    6.0360   -0.5850 P.3    23  A23         0.2141
     68  C5'        1.4280    3.7810   -0.6420 C.3    23  A23         0.1812
     69  O5'        0.1820    4.4490   -0.6820 O.3    23  A23        -0.3114
     70  C4'        1.2360    2.3000   -0.8080 C.3    23  A23         0.1773
     71  O4'        0.3770    1.7890    0.2450 O.3    23  A23        -0.3307
     72  C3'        0.5260    1.8650   -2.0750 C.3    23  A23         0.1860
     73  O3'        1.3820    2.0540   -3.1860 O.3    23  A23        -0.3112
     74  C2'        0.1240    0.4460   -1.6890 C.3    23  A23         0.2309
     75  O2'        1.2060   -0.4400   -1.8360 O.3    23  A23        -0.2156
     76  C1'       -0.2990    0.6350   -0.2210 C.3    23  A23         0.2408
     77  N1        -4.9190   -1.5960    0.0500 N.ar   23  A23        -0.2040
     78  C2        -3.6830   -2.0960   -0.0650 C.ar   23  A23         0.2016
     79  N3        -2.5150   -1.4550   -0.1250 N.ar   23  A23        -0.2048
     80  C4        -2.7020   -0.1290   -0.0460 C.ar   23  A23         0.1692
     81  C5        -3.9090    0.5320    0.0680 C.ar   23  A23         0.1518
     82  C6        -5.0640   -0.2550    0.1350 C.ar   23  A23         0.1919
     83  N6        -6.2900    0.2510    0.2630 N.pl3  23  A23        -0.1054
     84  N7        -3.7160    1.9020    0.1180 N.ar   23  A23        -0.2193
     85  C8        -2.4140    2.0370    0.0460 C.ar   23  A23         0.1816
     86  N9        -1.7390    0.8480   -0.0530 N.ar   23  A23        -0.2693
     87  OP1        1.3140    6.6080   -1.3330 O.2    23  A23        -0.5172
     88  OP2       -1.1920    6.5300   -0.9250 O.co2  23  A23        -0.4373
     89  P          0.8270    1.9070   -4.7140 P.3    24  A24         0.2141
     90  C5'        1.0590   -0.6540   -5.0920 C.3    24  A24         0.1812
     91  O5'        0.2250    0.4420   -4.7680 O.3    24  A24        -0.3114
     92  C4'        0.2070   -1.8860   -5.1820 C.3    24  A24         0.1773
     93  O4'       -0.6090   -1.9770   -3.9870 O.3    24  A24        -0.3307
     94  C3'       -0.8090   -1.8900   -6.3060 C.3    24  A24         0.1860
     95  O3'       -0.1990   -2.1970   -7.5530 O.3    24  A24        -0.3112
     96  C2'       -1.8230   -2.8980   -5.7940 C.3    24  A24         0.2309
     97  O2'       -1.4580   -4.2510   -5.9220 O.3    24  A24        -0.2156
     98  C1'       -1.8540   -2.5670   -4.3090 C.3    24  A24         0.2408
     99  N1        -6.7500   -1.8880   -2.9130 N.ar   24  A24        -0.2040
    100  C2        -6.0290   -2.9930   -3.1440 C.ar   24  A24         0.2016
    101  N3        -4.7500   -3.1060   -3.4940 N.ar   24  A24        -0.2048
    102  C4        -4.1890   -1.8930   -3.6230 C.ar   24  A24         0.1692
    103  C5        -4.8070   -0.6710   -3.4440 C.ar   24  A24         0.1518
    104  C6        -6.1500   -0.6860   -3.0580 C.ar   24  A24         0.1919
    105  N6        -6.8630    0.4210   -2.8410 N.pl3  24  A24        -0.1054
    106  N7        -3.9190    0.3680   -3.6780 N.ar   24  A24        -0.2193
    107  C8        -2.8000   -0.2400   -3.9830 C.ar   24  A24         0.1816
    108  N9        -2.8960   -1.6090   -3.9820 N.ar   24  A24        -0.2693
    109  OP1        2.0000    1.9970   -5.6430 O.2    24  A24        -0.5172
    110  OP2       -0.4180    2.7330   -4.9310 O.co2  24  A24        -0.4373
    111  P         -0.7170   -1.4440   -8.8910 P.3    25  G25         0.2141
    112  C5'       -1.9900   -3.5910   -9.6640 C.3    25  G25         0.1812
    113  O5'       -2.0770   -2.2190   -9.2130 O.3    25  G25        -0.3114
    114  C4'       -3.1420   -3.9580  -10.5690 C.3    25  G25         0.1773
    115  O4'       -4.3820   -3.4460   -9.9920 O.3    25  G25        -0.3307
    116  C3'       -3.0700   -3.3920  -11.9910 C.3    25  G25         0.1860
    117  O3'       -3.7190   -4.1130  -13.0410 O.3    25  G25        -0.3112
    118  C2'       -3.9710   -2.1770  -11.8690 C.3    25  G25         0.2309
    119  O2'       -4.5920   -1.7110  -13.0530 O.3    25  G25        -0.2156
    120  C1'       -5.0670   -2.7560  -10.9880 C.3    25  G25         0.2408
    121  N1        -9.5940   -1.9070   -8.8970 N.ar   25  G25        -0.1709
    122  C2        -8.9870   -3.1000   -9.2070 C.ar   25  G25         0.2606
    123  N2        -9.7030   -4.2090   -8.9660 N.pl3  25  G25        -0.0859
    124  N3        -7.7820   -3.1980   -9.7390 N.ar   25  G25        -0.1918
    125  C4        -7.2080   -1.9890   -9.9100 C.ar   25  G25         0.1723
    126  C5        -7.7080   -0.7460   -9.5950 C.ar   25  G25         0.1748
    127  C6        -9.0200   -0.6520   -9.0590 C.ar   25  G25         0.3023
    128  O6        -9.6650    0.3670   -8.7550 O.2    25  G25        -0.2633
    129  N7        -6.7940    0.2480   -9.9140 N.ar   25  G25        -0.2173
    130  C8        -5.7890   -0.3960  -10.4380 C.ar   25  G25         0.1817
    131  N9        -5.9530   -1.7590  -10.4120 N.ar   25  G25        -0.2693
    132  OP1        0.1660   -1.8260  -10.0270 O.2    25  G25        -0.5172
    133  OP2       -0.8250    0.0120   -8.5770 O.co2  25  G25        -0.4373
    134  P         -3.2080   -5.5400  -13.5530 P.3    26  G26         0.2141
    135  C5'       -4.9780   -7.0330  -12.2690 C.3    26  G26         0.1812
    136  O5'       -4.5480   -6.4090  -13.4980 O.3    26  G26        -0.3114
    137  C4'       -6.4550   -7.3770  -12.2760 C.3    26  G26         0.1773
    138  O4'       -7.2220   -6.2220  -11.8420 O.3    26  G26        -0.3307
    139  C3'       -7.0890   -7.8310  -13.5890 C.3    26  G26         0.1860
    140  O3'       -8.0370   -8.8650  -13.3160 O.3    26  G26        -0.3112
    141  C2'       -7.8540   -6.5940  -14.0380 C.3    26  G26         0.2309
    142  O2'       -8.9720   -6.8690  -14.8570 O.3    26  G26        -0.2156
    143  C1'       -8.3300   -6.0460  -12.6980 C.3    26  G26         0.2408
    144  N1       -12.0070   -2.6630  -11.7970 N.ar   26  G26        -0.1709
    145  C2       -12.0390   -4.0300  -11.6980 C.ar   26  G26         0.2606
    146  N2       -13.2060   -4.5610  -11.3010 N.pl3  26  G26        -0.0859
    147  N3       -11.0060   -4.8150  -11.9580 N.ar   26  G26        -0.1918
    148  C4        -9.9200   -4.1080  -12.3320 C.ar   26  G26         0.1723
    149  C5        -9.7800   -2.7420  -12.4490 C.ar   26  G26         0.1748
    150  C6       -10.8920   -1.9120  -12.1470 C.ar   26  G26         0.3023
    151  O6       -10.9680   -0.6730  -12.1760 O.2    26  G26        -0.2633
    152  N7        -8.4940   -2.4100  -12.8470 N.ar   26  G26        -0.2173
    153  C8        -7.8850   -3.5580  -12.9630 C.ar   26  G26         0.1817
    154  N9        -8.6990   -4.6310  -12.6840 N.ar   26  G26        -0.2693
    155  OP1       -2.2090   -6.0510  -12.5870 O.3    26  G26        -0.4373
    156  OP2       -2.8240   -5.4030  -14.9970 O.co2  26  G26        -0.5172
    157  P         -7.6980  -10.4210  -13.5920 P.3    27  A27         0.2141
    158  C5'       -7.0670  -10.4620  -11.1110 C.3    27  A27         0.1812
    159  O5'       -7.8050  -11.0840  -12.1510 O.3    27  A27        -0.3114
    160  C4'       -6.3870  -11.4340  -10.1980 C.3    27  A27         0.1773
    161  O4'       -5.4950  -12.3270  -10.9150 O.3    27  A27        -0.3307
    162  C3'       -5.5050  -10.7120   -9.1760 C.3    27  A27         0.1860
    163  O3'       -6.1450  -10.8860   -7.9240 O.3    27  A27        -0.3112
    164  C2'       -4.1200  -11.3460   -9.3590 C.3    27  A27         0.2309
    165  O2'       -3.4470  -11.5060   -8.1300 O.3    27  A27        -0.2156
    166  C1'       -4.4750  -12.6810  -10.0190 C.3    27  A27         0.2408
    167  N1        -2.1480  -13.8930  -14.5030 N.ar   27  A27        -0.2040
    168  C2        -3.2430  -13.1620  -14.2430 C.ar   27  A27         0.2016
    169  N3        -3.8050  -12.8770  -13.0670 N.ar   27  A27        -0.2048
    170  C4        -3.1110  -13.4400  -12.0610 C.ar   27  A27         0.1692
    171  C5        -1.9660  -14.2130  -12.1720 C.ar   27  A27         0.1518
    172  C6        -1.4740  -14.4440  -13.4650 C.ar   27  A27         0.1919
    173  N6        -0.3840  -15.1730  -13.7180 N.pl3  27  A27        -0.1054
    174  N7        -1.5310  -14.6320  -10.9240 N.ar   27  A27        -0.2193
    175  C8        -2.4000  -14.1050  -10.0960 C.ar   27  A27         0.1816
    176  N9        -3.3850  -13.3710  -10.7160 N.ar   27  A27        -0.2693
    177  OP1       -6.2740  -10.5200  -14.0590 O.3    27  A27        -0.4373
    178  OP2       -8.8170  -11.0010  -14.3790 O.co2  27  A27        -0.5172
    179  P         -6.2920   -9.6700   -6.8920 P.3    28  C28         0.2141
    180  C5'       -8.4560  -10.7730   -5.9320 C.3    28  C28         0.1812
    181  O5'       -7.8480   -9.6600   -6.5820 O.3    28  C28        -0.3114
    182  C4'       -9.9100  -10.4730   -5.6970 C.3    28  C28         0.1773
    183  O4'      -10.0300   -9.4050   -4.7240 O.3    28  C28        -0.3307
    184  C3'      -10.6850   -9.9420   -6.8870 C.3    28  C28         0.1860
    185  O3'      -11.0190  -11.0060   -7.7600 O.3    28  C28        -0.3112
    186  C2'      -11.8810   -9.3130   -6.1930 C.3    28  C28         0.2309
    187  O2'      -12.8540  -10.2490   -5.7910 O.3    28  C28        -0.2156
    188  C1'      -11.2250   -8.6810   -4.9620 C.3    28  C28         0.2420
    189  N1       -10.8890   -7.2510   -5.1400 N.ar   28  C28        -0.2535
    190  C2       -11.8570   -6.2780   -4.8400 C.ar   28  C28         0.3532
    191  O2       -12.9600   -6.6370   -4.4010 O.2    28  C28        -0.2443
    192  N3       -11.5580   -4.9700   -5.0210 N.ar   28  C28        -0.1739
    193  C4       -10.3630   -4.6200   -5.5040 C.ar   28  C28         0.1759
    194  N4       -10.1140   -3.3250   -5.6690 N.pl3  28  C28        -0.1070
    195  C5        -9.3710   -5.5870   -5.8390 C.ar   28  C28         0.0566
    196  C6        -9.6730   -6.8790   -5.6420 C.ar   28  C28         0.0850
    197  OP1       -5.9560   -8.3910   -7.5910 O.2    28  C28        -0.5172
    198  OP2       -5.6340  -10.0520   -5.6040 O.co2  28  C28        -0.4373
    199  P        -11.9870  -10.7780   -9.0340 P.3    29  G29         0.2141
    200  C5'      -14.0990   -9.2440   -9.1600 C.3    29  G29         0.1812
    201  O5'      -13.3000  -10.1430   -8.3990 O.3    29  G29        -0.3114
    202  C4'      -15.1940   -8.6740   -8.3020 C.3    29  G29         0.1773
    203  O4'      -14.6150   -7.9410   -7.1890 O.3    29  G29        -0.3307
    204  C3'      -16.0830   -7.6870   -9.0350 C.3    29  G29         0.1860
    205  O3'      -17.0450   -8.4950   -9.6860 O.3    29  G29        -0.3112
    206  C2'      -16.4860   -6.7040   -7.9330 C.3    29  G29         0.2309
    207  O2'      -17.5690   -6.9500   -7.0520 O.3    29  G29        -0.2156
    208  C1'      -15.2040   -6.6580   -7.1000 C.3    29  G29         0.2408
    209  N1       -14.3030   -1.7310   -7.8400 N.ar   29  G29        -0.1709
    210  C2       -15.4170   -2.3530   -7.3330 C.ar   29  G29         0.2606
    211  N2       -16.4330   -1.5550   -6.9800 N.pl3  29  G29        -0.0859
    212  N3       -15.5270   -3.6570   -7.1770 N.ar   29  G29        -0.1918
    213  C4       -14.4220   -4.3090   -7.5890 C.ar   29  G29         0.1723
    214  C5       -13.2550   -3.7870   -8.1040 C.ar   29  G29         0.1748
    215  C6       -13.1400   -2.3790   -8.2420 C.ar   29  G29         0.3023
    216  O6       -12.1710   -1.7140   -8.6460 O.2    29  G29        -0.2633
    217  N7       -12.3510   -4.7980   -8.3960 N.ar   29  G29        -0.2173
    218  C8       -12.9760   -5.8960   -8.0650 C.ar   29  G29         0.1817
    219  N9       -14.2350   -5.6690   -7.5640 N.ar   29  G29        -0.2693
    220  OP1      -12.3950  -12.1170   -9.5250 O.3    29  G29        -0.4373
    221  OP2      -11.3360   -9.8300   -9.9790 O.co2  29  G29        -0.5172
    222  P        -17.3930   -8.2310  -11.2230 P.3    30  G30         0.2141
    223  C5'      -19.4620   -6.8540  -10.5200 C.3    30  G30         0.1812
    224  O5'      -18.1640   -6.8450  -11.1460 O.3    30  G30        -0.3114
    225  C4'      -19.9510   -5.4660  -10.1580 C.3    30  G30         0.1773
    226  O4'      -19.0230   -4.8180   -9.2440 O.3    30  G30        -0.3307
    227  C3'      -20.1080   -4.4740  -11.2960 C.3    30  G30         0.1860
    228  O3'      -21.2820   -4.7970  -12.0300 O.3    30  G30        -0.3112
    229  C2'      -20.1020   -3.1620  -10.5260 C.3    30  G30         0.2309
    230  O2'      -21.2270   -2.8520   -9.7390 O.3    30  G30        -0.2156
    231  C1'      -18.9930   -3.4300   -9.5110 C.3    30  G30         0.2408
    232  N1       -15.9190    0.3570  -10.8360 N.ar   30  G30        -0.1709
    233  C2       -17.1820    0.3990  -10.3040 C.ar   30  G30         0.2606
    234  N2       -17.6910    1.6190  -10.0900 N.pl3  30  G30        -0.0859
    235  N3       -17.8910   -0.6740   -9.9980 N.ar   30  G30        -0.1918
    236  C4       -17.2160   -1.8120  -10.2490 C.ar   30  G30         0.1723
    237  C5       -15.9520   -1.9650  -10.7800 C.ar   30  G30         0.1748
    238  C6       -15.2030   -0.8060  -11.1040 C.ar   30  G30         0.3023
    239  O6       -14.0520   -0.7320  -11.5580 O.2    30  G30        -0.2633
    240  N7       -15.6190   -3.3080  -10.8780 N.ar   30  G30        -0.2173
    241  C8       -16.6790   -3.9350  -10.4430 C.ar   30  G30         0.1817
    242  N9       -17.6750   -3.0840  -10.0280 N.ar   30  G30        -0.2693
    243  OP1      -18.4740   -9.1640  -11.5980 O.3    30  G30        -0.4373
    244  OP2      -16.1290   -8.2170  -12.0230 O.co2  30  G30        -0.5172
    245  P        -21.3630   -4.5570  -13.6350 P.3    31  G31         0.2141
    246  C5'      -22.0160   -2.0870  -13.0280 C.3    31  G31         0.1812
    247  O5'      -21.1470   -2.9820  -13.7570 O.3    31  G31        -0.3114
    248  C4'      -21.5740   -0.6490  -13.1640 C.3    31  G31         0.1773
    249  O4'      -20.3360   -0.3910  -12.4340 O.3    31  G31        -0.3307
    250  C3'      -21.2670   -0.1890  -14.5740 C.3    31  G31         0.1860
    251  O3'      -22.4720    0.1420  -15.2320 O.3    31  G31        -0.3112
    252  C2'      -20.4330    1.0470  -14.3030 C.3    31  G31         0.2309
    253  O2'      -21.3220    2.0980  -13.9800 O.3    31  G31        -0.2156
    254  C1'      -19.5560    0.5620  -13.1450 C.3    31  G31         0.2408
    255  N1       -14.7380    1.1890  -14.6700 N.ar   31  G31        -0.1709
    256  C2       -15.6810    2.1350  -14.3570 C.ar   31  G31         0.2606
    257  N2       -15.2820    3.4080  -14.4490 N.pl3  31  G31        -0.0859
    258  N3       -16.9230    1.8540  -13.9920 N.ar   31  G31        -0.1918
    259  C4       -17.1360    0.5250  -13.9240 C.ar   31  G31         0.1723
    260  C5       -16.2660   -0.5020  -14.2250 C.ar   31  G31         0.1748
    261  C6       -14.9430   -0.1850  -14.6390 C.ar   31  G31         0.3023
    262  O6       -14.0180   -0.9550  -14.9500 O.2    31  G31        -0.2633
    263  N7       -16.8800   -1.7330  -14.0520 N.ar   31  G31        -0.2173
    264  C8       -18.0940   -1.4380  -13.6700 C.ar   31  G31         0.1817
    265  N9       -18.3140   -0.0870  -13.5650 N.ar   31  G31        -0.2693
    266  OP1      -22.7880   -4.7350  -14.0440 O.3    31  G31        -0.4373
    267  OP2      -20.2940   -5.3770  -14.3150 O.co2  31  G31        -0.5172
    268  P        -22.6050   -0.0330  -16.8220 P.3    32  U32         0.2141
    269  C5'      -21.8560    2.4420  -17.2000 C.3    32  U32         0.1812
    270  O5'      -21.5800    1.0490  -17.3790 O.3    32  U32        -0.3114
    271  C4'      -20.6460    3.2510  -17.5690 C.3    32  U32         0.1773
    272  O4'      -19.5490    2.9210  -16.6820 O.3    32  U32        -0.3307
    273  C3'      -20.0670    3.0050  -18.9490 C.3    32  U32         0.1860
    274  O3'      -20.8050    3.7330  -19.9090 O.3    32  U32        -0.3112
    275  C2'      -18.6560    3.5440  -18.7850 C.3    32  U32         0.2309
    276  O2'      -18.5700    4.9520  -18.8950 O.3    32  U32        -0.2156
    277  C1'      -18.3240    3.0550  -17.3780 C.3    32  U32         0.2420
    278  N1       -17.6650    1.7470  -17.4070 N.ar   32  U32        -0.2534
    279  C2       -16.3110    1.7470  -17.6430 C.ar   32  U32         0.3546
    280  O2       -15.6720    2.7740  -17.8030 O.2    32  U32        -0.2443
    281  N3       -15.7310    0.5020  -17.6780 N.ar   32  U32        -0.1530
    282  C4       -16.3570   -0.7140  -17.5090 C.ar   32  U32         0.2846
    283  O4       -15.6940   -1.7480  -17.5590 O.2    32  U32        -0.2650
    284  C5       -17.7590   -0.6300  -17.2590 C.ar   32  U32         0.0814
    285  C6       -18.3540    0.5670  -17.2240 C.ar   32  U32         0.0870
    286  OP1      -23.9840    0.3850  -17.1910 O.3    32  U32        -0.4373
    287  OP2      -22.0970   -1.3720  -17.2050 O.co2  32  U32        -0.5172
    288  P        -20.9080    3.2070  -21.4120 P.3    33  C33         0.2141
    289  C5'      -18.8730    4.6900  -22.0440 C.3    33  C33         0.1812
    290  O5'      -19.4220    3.3730  -21.9500 O.3    33  C33        -0.3114
    291  C4'      -17.3820    4.6190  -22.2360 C.3    33  C33         0.1773
    292  O4'      -16.7690    3.8840  -21.1500 O.3    33  C33        -0.3307
    293  C3'      -16.9260    3.8630  -23.4660 C.3    33  C33         0.1860
    294  O3'      -17.0790    4.6750  -24.6160 O.3    33  C33        -0.3112
    295  C2'      -15.4780    3.5690  -23.1150 C.3    33  C33         0.2309
    296  O2'      -14.6350    4.6700  -23.3190 O.3    33  C33        -0.2156
    297  C1'      -15.5930    3.2550  -21.6250 C.3    33  C33         0.2420
    298  N1       -15.6710    1.8040  -21.3780 N.ar   33  C33        -0.2535
    299  C2       -14.4900    1.0720  -21.4900 C.ar   33  C33         0.3532
    300  O2       -13.4430    1.6730  -21.7780 O.2    33  C33        -0.2443
    301  N3       -14.5150   -0.2670  -21.2820 N.ar   33  C33        -0.1739
    302  C4       -15.6650   -0.8730  -20.9740 C.ar   33  C33         0.1759
    303  N4       -15.6420   -2.1940  -20.7710 N.pl3  33  C33        -0.1070
    304  C5       -16.8900   -0.1500  -20.8660 C.ar   33  C33         0.0566
    305  C6       -16.8490    1.1740  -21.0780 C.ar   33  C33         0.0850
    306  OP1      -21.7300    4.1930  -22.1470 O.2    33  C33        -0.5172
    307  OP2      -21.2760    1.7530  -21.4060 O.co2  33  C33        -0.4373
    308  P        -17.4320    4.0310  -26.0560 P.3    34  C34         0.2141
    309  C5'      -14.9610    3.7460  -26.8020 C.3    34  C34         0.1813
    310  O5'      -16.1760    3.1100  -26.3900 O.3    34  C34        -0.3114
    311  C4'      -13.8170    2.7680  -26.9140 C.3    34  C34         0.1801
    312  O4'      -13.5930    2.0950  -25.6500 O.3    34  C34        -0.3306
    313  C3'      -13.9890    1.6120  -27.8830 C.3    34  C34         0.2161
    314  O3'      -13.8590    1.9860  -29.2400 O.3    34  C34        -0.2175
    315  C2'      -12.9010    0.6620  -27.4080 C.3    34  C34         0.2338
    316  O2'      -11.5790    1.0190  -27.7660 O.3    34  C34        -0.2155
    317  C1'      -13.0610    0.7990  -25.8980 C.3    34  C34         0.2421
    318  N1       -13.9790   -0.1940  -25.3350 N.ar   34  C34        -0.2535
    319  C2       -13.5160   -1.5000  -25.1580 C.ar   34  C34         0.3532
    320  O2       -12.3600   -1.7820  -25.5210 O.2    34  C34        -0.2443
    321  N3       -14.3400   -2.4250  -24.6100 N.ar   34  C34        -0.1739
    322  C4       -15.5750   -2.0790  -24.2330 C.ar   34  C34         0.1759
    323  N4       -16.3480   -3.0200  -23.6880 N.pl3  34  C34        -0.1070
    324  C5       -16.0620   -0.7490  -24.3800 C.ar   34  C34         0.0566
    325  C6       -15.2430    0.1510  -24.9420 C.ar   34  C34         0.0850
    326  OP1      -17.4640    5.1700  -27.0210 O.2    34  C34        -0.5172
    327  OP2      -18.6120    3.1270  -25.9040 O.co2  34  C34        -0.4373
    328  P         -4.1460   -7.1840  -24.9160 P.3    63  G63         0.1280
    329  C5'       -4.8130   -5.6340  -22.8530 C.3    63  G63         0.1795
    330  O5'       -4.9880   -6.8630  -23.5990 O.3    63  G63        -0.3259
    331  C4'       -5.7080   -4.5430  -23.4000 C.3    63  G63         0.1772
    332  O4'       -7.0670   -5.0140  -23.4580 O.3    63  G63        -0.3307
    333  C3'       -5.8660   -3.2790  -22.5680 C.3    63  G63         0.1860
    334  O3'       -4.7700   -2.3760  -22.6480 O.3    63  G63        -0.3112
    335  C2'       -7.1340   -2.6630  -23.1550 C.3    63  G63         0.2309
    336  O2'       -6.8920   -1.8100  -24.2530 O.3    63  G63        -0.2156
    337  C1'       -7.9040   -3.8980  -23.6280 C.3    63  G63         0.2408
    338  N1       -12.2020   -1.8080  -21.9790 N.ar   63  G63        -0.1709
    339  C2       -11.0810   -1.2100  -22.5070 C.ar   63  G63         0.2606
    340  N2       -11.1240    0.1230  -22.6440 N.pl3  63  G63        -0.0859
    341  N3       -10.0030   -1.8730  -22.8890 N.ar   63  G63        -0.1918
    342  C4       -10.1290   -3.2010  -22.6860 C.ar   63  G63         0.1723
    343  C5       -11.1970   -3.8960  -22.1580 C.ar   63  G63         0.1748
    344  C6       -12.3540   -3.1760  -21.7670 C.ar   63  G63         0.3023
    345  O6       -13.4100   -3.6140  -21.2910 O.2    63  G63        -0.2633
    346  N7       -10.9270   -5.2580  -22.1170 N.ar   63  G63        -0.2173
    347  C8        -9.7270   -5.3640  -22.6220 C.ar   63  G63         0.1817
    348  N9        -9.1800   -4.1500  -22.9700 N.ar   63  G63        -0.2693
    349  OP1       -4.7000   -8.4550  -25.4550 O.3    63  G63        -0.1955
    350  OP2       -4.0820   -5.9660  -25.7800 O.co2  63  G63        -0.7863
    351  P         -4.1990   -1.7030  -21.3110 P.3    64  A64         0.2141
    352  C5'       -5.4490    0.5700  -21.7060 C.3    64  A64         0.1812
    353  O5'       -5.3470   -0.6560  -20.9580 O.3    64  A64        -0.3114
    354  C4'       -6.1690    1.6370  -20.9130 C.3    64  A64         0.1773
    355  O4'       -7.5800    1.2950  -20.8550 O.3    64  A64        -0.3307
    356  C3'       -5.7150    1.8250  -19.4660 C.3    64  A64         0.1860
    357  O3'       -5.7340    3.2100  -19.1460 O.3    64  A64        -0.3112
    358  C2'       -6.7590    1.0250  -18.6980 C.3    64  A64         0.2309
    359  O2'       -6.9720    1.4100  -17.3630 O.3    64  A64        -0.2156
    360  C1'       -8.0050    1.3120  -19.5220 C.3    64  A64         0.2408
    361  N1       -12.9610    0.4340  -18.5280 N.ar   64  A64        -0.2040
    362  C2       -12.2570    1.5650  -18.6650 C.ar   64  A64         0.2016
    363  N3       -10.9640    1.7240  -18.9380 N.ar   64  A64        -0.2048
    364  C4       -10.3620    0.5330  -19.0920 C.ar   64  A64         0.1692
    365  C5       -10.9470   -0.7140  -18.9710 C.ar   64  A64         0.1518
    366  C6       -12.3190   -0.7480  -18.6690 C.ar   64  A64         0.1919
    367  N6       -13.0180   -1.8760  -18.5250 N.pl3  64  A64        -0.1054
    368  N7       -10.0060   -1.7180  -19.1570 N.ar   64  A64        -0.2193
    369  C8        -8.8900   -1.0640  -19.3810 C.ar   64  A64         0.1816
    370  N9        -9.0350    0.3000  -19.3570 N.ar   64  A64        -0.2693
    371  OP1       -2.9880   -0.9070  -21.6710 O.2    64  A64        -0.5172
    372  OP2       -4.1230   -2.7520  -20.2360 O.co2  64  A64        -0.4373
    373  P         -4.3530    4.0190  -18.8980 P.3    65  G65         0.2141
    374  C5'       -4.4160    3.6910  -16.2860 C.3    65  G65         0.1812
    375  O5'       -4.5190    4.5760  -17.4140 O.3    65  G65        -0.3114
    376  C4'       -4.3100    4.4860  -15.0080 C.3    65  G65         0.1773
    377  O4'       -5.5250    5.2480  -14.8260 O.3    65  G65        -0.3307
    378  C3'       -4.2140    3.6450  -13.7480 C.3    65  G65         0.1860
    379  O3'       -2.8860    3.2190  -13.5130 O.3    65  G65        -0.3112
    380  C2'       -4.7350    4.6020  -12.6840 C.3    65  G65         0.2309
    381  O2'       -3.7660    5.5400  -12.2660 O.3    65  G65        -0.2156
    382  C1'       -5.8270    5.3410  -13.4500 C.3    65  G65         0.2408
    383  N1        -9.0830    1.4020  -12.9330 N.ar   65  G65        -0.1709
    384  C2        -7.7580    1.3750  -13.2680 C.ar   65  G65         0.2606
    385  N2        -7.2290    0.1550  -13.4450 N.pl3  65  G65        -0.0859
    386  N3        -7.0020    2.4580  -13.4020 N.ar   65  G65        -0.1918
    387  C4        -7.6930    3.5900  -13.1620 C.ar   65  G65         0.1723
    388  C5        -9.0240    3.7240  -12.8280 C.ar   65  G65         0.1748
    389  C6        -9.8160    2.5520  -12.6720 C.ar   65  G65         0.3023
    390  O6       -11.0130    2.4600  -12.3590 O.2    65  G65        -0.2633
    391  N7        -9.3580    5.0610  -12.6640 N.ar   65  G65        -0.2173
    392  C8        -8.2440    5.7050  -12.8860 C.ar   65  G65         0.1817
    393  N9        -7.1940    4.8770  -13.2010 N.ar   65  G65        -0.2693
    394  OP1       -4.3230    5.2320  -19.7720 O.2    65  G65        -0.5172
    395  OP2       -3.2290    3.0470  -18.9280 O.co2  65  G65        -0.4373
    396  P         -2.6080    1.7270  -12.9900 P.3    66  U66         0.2141
    397  C5'       -2.2270    2.5690  -10.5600 C.3    66  U66         0.1812
    398  O5'       -3.0250    1.8010  -11.4580 O.3    66  U66        -0.3114
    399  C4'       -3.1250    3.2470   -9.5900 C.3    66  U66         0.1773
    400  O4'       -4.1710    2.3130   -9.1890 O.3    66  U66        -0.3307
    401  C3'       -2.4560    3.6680   -8.2950 C.3    66  U66         0.1860
    402  O3'       -2.8620    4.9940   -8.0060 O.3    66  U66        -0.3112
    403  C2'       -2.9500    2.6260   -7.3010 C.3    66  U66         0.2309
    404  O2'       -2.9800    3.0810   -5.9730 O.3    66  U66        -0.2156
    405  C1'       -4.3630    2.4310   -7.8000 C.3    66  U66         0.2420
    406  N1        -5.0350    1.2260   -7.3160 N.ar   66  U66        -0.2534
    407  C2        -6.2690    1.3530   -6.7010 C.ar   66  U66         0.3546
    408  O2        -6.8210    2.4350   -6.5250 O.2    66  U66        -0.2443
    409  N3        -6.8490    0.1650   -6.3320 N.ar   66  U66        -0.1530
    410  C4        -6.3360   -1.1020   -6.5090 C.ar   66  U66         0.2846
    411  O4        -6.9600   -2.0770   -6.0870 O.2    66  U66        -0.2650
    412  C5        -5.0680   -1.1420   -7.1640 C.ar   66  U66         0.0814
    413  C6        -4.4770   -0.0060   -7.5370 C.ar   66  U66         0.0870
    414  OP1       -1.1540    1.5140  -13.0210 O.3    66  U66        -0.4373
    415  OP2       -3.5290    0.7960  -13.6840 O.co2  66  U66        -0.5172
    416  P         -1.9160    6.1320   -8.5240 P.3    67  A67         0.2141
    417  C5'       -2.7220    8.3170   -7.2960 C.3    67  A67         0.1812
    418  O5'       -2.7770    7.4660   -8.4420 O.3    67  A67        -0.3114
    419  C4'       -3.1630    9.7150   -7.6620 C.3    67  A67         0.1773
    420  O4'       -2.1370   10.2830   -8.5150 O.3    67  A67        -0.3307
    421  C3'       -4.4860    9.8330   -8.4280 C.3    67  A67         0.1860
    422  O3'       -5.2400   10.9940   -8.1320 O.3    67  A67        -0.3112
    423  C2'       -4.0500    9.9280   -9.8890 C.3    67  A67         0.2309
    424  O2'       -4.9040   10.6950  -10.7300 O.3    67  A67        -0.2156
    425  C1'       -2.6870   10.6170   -9.7680 C.3    67  A67         0.2408
    426  N1         1.3330   11.8800  -12.7540 N.ar   67  A67        -0.2040
    427  C2         0.6450   12.5840  -11.8320 C.ar   67  A67         0.2016
    428  N3        -0.4100   12.2120  -11.1020 N.ar   67  A67        -0.2048
    429  C4        -0.7280   10.9290  -11.3520 C.ar   67  A67         0.1692
    430  C5        -0.1180   10.0860  -12.2620 C.ar   67  A67         0.1518
    431  C6         0.9630   10.6030  -12.9930 C.ar   67  A67         0.1919
    432  N6         1.6180    9.9090  -13.9250 N.pl3  67  A67        -0.1054
    433  N7        -0.7710    8.8630  -12.3090 N.ar   67  A67        -0.2193
    434  C8        -1.7070    8.9710  -11.3990 C.ar   67  A67         0.1816
    435  N9        -1.7410   10.1930  -10.7850 N.ar   67  A67        -0.2693
    436  OP1       -1.6410    5.7990   -9.9360 O.2    67  A67        -0.5172
    437  OP2       -0.7860    6.2680   -7.5360 O.co2  67  A67        -0.4373
    438  P         -5.8530   11.2060   -6.6960 P.3    68  G68         0.2141
    439  C5'       -8.1560   10.9810   -7.7910 C.3    68  G68         0.1812
    440  O5'       -7.2390   10.4630   -6.8530 O.3    68  G68        -0.3114
    441  C4'       -8.0510   10.1400   -8.9940 C.3    68  G68         0.1773
    442  O4'       -8.5590    8.8420   -8.6750 O.3    68  G68        -0.3307
    443  C3'       -8.9180   10.5610  -10.1660 C.3    68  G68         0.1860
    444  O3'       -8.0960   11.4590  -10.8840 O.3    68  G68        -0.3112
    445  C2'       -9.1980    9.2460  -10.9080 C.3    68  G68         0.2309
    446  O2'       -8.3250    9.1930  -12.0050 O.3    68  G68        -0.2156
    447  C1'       -8.7790    8.1660   -9.8970 C.3    68  G68         0.2408
    448  N1        -9.6180    3.1520   -9.4000 N.ar   68  G68        -0.1709
    449  C2        -8.4370    3.8100   -9.6260 C.ar   68  G68         0.2606
    450  N2        -7.3430    3.0330   -9.7110 N.pl3  68  G68        -0.0859
    451  N3        -8.3250    5.1330   -9.7130 N.ar   68  G68        -0.1918
    452  C4        -9.5160    5.7470   -9.5810 C.ar   68  G68         0.1723
    453  C5       -10.7570    5.1770   -9.3750 C.ar   68  G68         0.1748
    454  C6       -10.8570    3.7670   -9.2570 C.ar   68  G68         0.3023
    455  O6       -11.8670    3.0790   -9.0550 O.2    68  G68        -0.2633
    456  N7       -11.7420    6.1520   -9.3110 N.ar   68  G68        -0.2173
    457  C8       -11.0980    7.2770   -9.4830 C.ar   68  G68         0.1817
    458  N9        -9.7480    7.1010   -9.6820 N.ar   68  G68        -0.2693
    459  OP1       -6.1000   12.6700   -6.4980 O.2    68  G68        -0.5172
    460  OP2       -5.1000   10.3990   -5.6930 O.co2  68  G68        -0.4373
    461  P         -8.6940   12.7650  -11.5630 P.3    69  A69         0.2141
    462  C5'      -10.5580   13.0760  -13.3680 C.3    69  A69         0.1812
    463  O5'       -9.6780   12.1660  -12.6650 O.3    69  A69        -0.3114
    464  C4'      -11.3450   12.3380  -14.4260 C.3    69  A69         0.1773
    465  O4'      -10.4180   11.8070  -15.4100 O.3    69  A69        -0.3307
    466  C3'      -12.1720   11.1450  -13.9360 C.3    69  A69         0.1860
    467  O3'      -13.3710   10.9010  -14.6450 O.3    69  A69        -0.3112
    468  C2'      -11.2500    9.9600  -14.1920 C.3    69  A69         0.2309
    469  O2'      -11.9410    8.7500  -14.4470 O.3    69  A69        -0.2156
    470  C1'      -10.5450   10.3970  -15.4750 C.3    69  A69         0.2408
    471  N1        -7.4200    7.3750  -18.2620 N.ar   69  A69        -0.2040
    472  C2        -8.7240    7.6520  -18.3760 C.ar   69  A69         0.2016
    473  N3        -9.4870    8.4410  -17.6190 N.ar   69  A69        -0.2048
    474  C4        -8.7700    8.9710  -16.6150 C.ar   69  A69         0.1692
    475  C5        -7.4230    8.7820  -16.3720 C.ar   69  A69         0.1518
    476  C6        -6.7270    7.9440  -17.2520 C.ar   69  A69         0.1919
    477  N6        -5.4320    7.6500  -17.1190 N.pl3  69  A69        -0.1054
    478  N7        -7.0160    9.5150  -15.2710 N.ar   69  A69        -0.2193
    479  C8        -8.1070   10.1210  -14.8740 C.ar   69  A69         0.1816
    480  N9        -9.2070    9.8340  -15.6410 N.ar   69  A69        -0.2693
    481  OP1       -7.6160   13.4100  -12.3590 O.2    69  A69        -0.5172
    482  OP2       -9.3740   13.5570  -10.5120 O.co2  69  A69        -0.4373
    483  P        -14.6660   11.8120  -14.3810 P.3    70  G70         0.2141
    484  C5'      -15.5840    9.8410  -13.0060 C.3    70  G70         0.1812
    485  O5'      -15.2470   11.2320  -13.0150 O.3    70  G70        -0.3114
    486  C4'      -16.6210    9.4960  -11.9610 C.3    70  G70         0.1773
    487  O4'      -16.7820    8.0470  -12.0000 O.3    70  G70        -0.3307
    488  C3'      -16.2550    9.8280  -10.5210 C.3    70  G70         0.1860
    489  O3'      -17.3530   10.3520   -9.8490 O.3    70  G70        -0.3112
    490  C2'      -15.8240    8.4800   -9.9420 C.3    70  G70         0.2309
    491  O2'      -15.8940    8.2350   -8.5420 O.3    70  G70        -0.2156
    492  C1'      -16.7550    7.5400  -10.6900 C.3    70  G70         0.2408
    493  N1       -13.0570    4.3840  -12.1350 N.ar   70  G70        -0.1709
    494  C2       -13.0990    5.7580  -12.1810 C.ar   70  G70         0.2606
    495  N2       -12.0240    6.3730  -12.6970 N.pl3  70  G70        -0.0859
    496  N3       -14.1250    6.4800  -11.7630 N.ar   70  G70        -0.1918
    497  C4       -15.1240    5.7090  -11.2870 C.ar   70  G70         0.1723
    498  C5       -15.1770    4.3350  -11.1840 C.ar   70  G70         0.1748
    499  C6       -14.0720    3.5700  -11.6410 C.ar   70  G70         0.3023
    500  O6       -13.9250    2.3390  -11.6230 O.2    70  G70        -0.2633
    501  N7       -16.3730    3.9300  -10.6090 N.ar   70  G70        -0.2173
    502  C8       -17.0230    5.0440  -10.4020 C.ar   70  G70         0.1817
    503  N9       -16.3080    6.1590  -10.7610 N.ar   70  G70        -0.2693
    504  OP1      -15.6210   11.4850  -15.4750 O.2    70  G70        -0.5172
    505  OP2      -14.2770   13.2430  -14.1290 O.co2  70  G70        -0.4373
    506  P        -17.5500   11.9480   -9.8060 P.3    71  U71         0.2141
    507  C5'      -18.9780   11.2690   -7.7250 C.3    71  U71         0.1812
    508  O5'      -18.8280   12.1130   -8.8700 O.3    71  U71        -0.3114
    509  C4'      -20.3460   10.6270   -7.6970 C.3    71  U71         0.1773
    510  O4'      -21.3580   11.6500   -7.6220 O.3    71  U71        -0.3307
    511  C3'      -20.7370    9.7240   -8.8550 C.3    71  U71         0.1860
    512  O3'      -21.4160    8.6560   -8.2360 O.3    71  U71        -0.3112
    513  C2'      -21.6350   10.6110   -9.7130 C.3    71  U71         0.2309
    514  O2'      -22.6960    9.9500  -10.3750 O.3    71  U71        -0.2156
    515  C1'      -22.2950   11.4840   -8.6620 C.3    71  U71         0.2420
    516  N1       -22.6880   12.8260   -9.0980 N.ar   71  U71        -0.2534
    517  C2       -24.0310   13.1170   -9.1320 C.ar   71  U71         0.3546
    518  O2       -24.8920   12.2700   -8.9630 O.2    71  U71        -0.2443
    519  N3       -24.3280   14.4210   -9.4390 N.ar   71  U71        -0.1530
    520  C4       -23.4350   15.4400   -9.6820 C.ar   71  U71         0.2846
    521  O4       -23.8530   16.5680   -9.9320 O.2    71  U71        -0.2650
    522  C5       -22.0690   15.0730   -9.5410 C.ar   71  U71         0.0814
    523  C6       -21.7520   13.8170   -9.2310 C.ar   71  U71         0.0870
    524  OP1      -17.7660   12.4220  -11.2170 O.2    71  U71        -0.5172
    525  OP2      -16.5300   12.5760   -8.8790 O.co2  71  U71        -0.4373
    526  P        -21.4450    7.2320   -8.9240 P.3    72  G72         0.2141
    527  C5'      -19.6060    6.8990   -7.1310 C.3    72  G72         0.1812
    528  O5'      -20.7230    6.3160   -7.8460 O.3    72  G72        -0.3114
    529  C4'      -19.2440    6.0880   -5.9110 C.3    72  G72         0.1773
    530  O4'      -19.2170    4.6840   -6.2510 O.3    72  G72        -0.3307
    531  C3'      -17.8560    6.2940   -5.3480 C.3    72  G72         0.1860
    532  O3'      -17.6960    7.4150   -4.4940 O.3    72  G72        -0.3112
    533  C2'      -17.7160    5.0560   -4.4760 C.3    72  G72         0.2309
    534  O2'      -18.4370    5.3060   -3.2970 O.3    72  G72        -0.2156
    535  C1'      -18.4760    3.9990   -5.2810 C.3    72  G72         0.2408
    536  N1       -14.4380    3.3230   -8.2650 N.ar   72  G72        -0.1709
    537  C2       -14.9840    4.4830   -7.7910 C.ar   72  G72         0.2606
    538  N2       -14.3870    5.6170   -8.1810 N.pl3  72  G72        -0.0859
    539  N3       -16.0530    4.5360   -7.0160 N.ar   72  G72        -0.1918
    540  C4       -16.5520    3.3130   -6.7610 C.ar   72  G72         0.1723
    541  C5       -16.0730    2.0890   -7.1710 C.ar   72  G72         0.1748
    542  C6       -14.9280    2.0490   -8.0110 C.ar   72  G72         0.3023
    543  O6       -14.3530    1.0590   -8.4920 O.2    72  G72        -0.2633
    544  N7       -16.8560    1.0590   -6.6640 N.ar   72  G72        -0.2173
    545  C8       -17.7630    1.6670   -5.9500 C.ar   72  G72         0.1817
    546  N9       -17.6350    3.0350   -5.9670 N.ar   72  G72        -0.2693
    547  OP1      -20.6030    7.3060  -10.1500 O.2    72  G72        -0.5172
    548  OP2      -22.8880    6.7980   -9.0270 O.co2  72  G72        -0.4373
    549  P        -16.6550    8.5720   -4.8960 P.3    73  U73         0.2141
    550  C5'      -14.5940    7.1460   -4.1270 C.3    73  U73         0.1812
    551  O5'      -15.3490    7.7350   -5.2130 O.3    73  U73        -0.3114
    552  C4'      -13.9210    5.9140   -4.6560 C.3    73  U73         0.1773
    553  O4'      -12.8090    6.2780   -5.4900 O.3    73  U73        -0.3307
    554  C3'      -13.2620    4.9390   -3.7130 C.3    73  U73         0.1860
    555  O3'      -14.2260    4.1090   -3.0910 O.3    73  U73        -0.3112
    556  C2'      -12.4570    4.0900   -4.7020 C.3    73  U73         0.2309
    557  O2'      -13.1390    3.0930   -5.4440 O.3    73  U73        -0.2156
    558  C1'      -12.1260    5.0940   -5.8130 C.3    73  U73         0.2420
    559  N1       -10.6960    5.3820   -5.9570 N.ar   73  U73        -0.2534
    560  C2        -9.8670    4.3170   -6.2440 C.ar   73  U73         0.3546
    561  O2       -10.2840    3.1760   -6.4000 O.2    73  U73        -0.2443
    562  N3        -8.5390    4.6430   -6.3850 N.ar   73  U73        -0.1530
    563  C4        -7.9760    5.8990   -6.2960 C.ar   73  U73         0.2846
    564  O4        -6.7600    6.0300   -6.4300 O.2    73  U73        -0.2650
    565  C5        -8.9030    6.9460   -5.9940 C.ar   73  U73         0.0814
    566  C6       -10.1970    6.6570   -5.8250 C.ar   73  U73         0.0870
    567  OP1      -16.3400    9.3900   -3.7010 O.3    73  U73        -0.4373
    568  OP2      -17.1660    9.2650   -6.1070 O.co2  73  U73        -0.5172
    569  P        -14.3560    4.0350   -1.5120 P.3    74  G74         0.2141
    570  C5'      -16.7270    2.9820   -1.0550 C.3    74  G74         0.1812
    571  O5'      -15.3180    2.7890   -1.3190 O.3    74  G74        -0.3114
    572  C4'      -17.4590    1.6710   -1.2290 C.3    74  G74         0.1773
    573  O4'      -17.5110    1.3680   -2.6410 O.3    74  G74        -0.3307
    574  C3'      -16.7910    0.4700   -0.5890 C.3    74  G74         0.1860
    575  O3'      -17.2520    0.3460    0.7520 O.3    74  G74        -0.3112
    576  C2'      -17.2200   -0.6620   -1.5020 C.3    74  G74         0.2309
    577  O2'      -18.5240   -1.1140   -1.2360 O.3    74  G74        -0.2156
    578  C1'      -17.2040    0.0160   -2.8640 C.3    74  G74         0.2408
    579  N1       -13.4630   -2.9510   -4.5730 N.ar   74  G74        -0.1709
    580  C2       -14.6470   -3.3090   -3.9820 C.ar   74  G74         0.2606
    581  N2       -14.8450   -4.6270   -3.8090 N.pl3  74  G74        -0.0859
    582  N3       -15.5650   -2.4410   -3.5860 N.ar   74  G74        -0.1918
    583  C4       -15.1920   -1.1690   -3.8330 C.ar   74  G74         0.1723
    584  C5       -14.0470   -0.7150   -4.4490 C.ar   74  G74         0.1748
    585  C6       -13.0700   -1.6470   -4.8480 C.ar   74  G74         0.3023
    586  O6       -12.0050   -1.4360   -5.4320 O.2    74  G74        -0.2633
    587  N7       -14.0590    0.6680   -4.5550 N.ar   74  G74        -0.2173
    588  C8       -15.1690    1.0270   -3.9650 C.ar   74  G74         0.1817
    589  N9       -15.9180   -0.0400   -3.5350 N.ar   74  G74        -0.2693
    590  OP1      -14.9950    5.2810   -1.0400 O.2    74  G74        -0.5172
    591  OP2      -13.0550    3.5920   -0.9320 O.co2  74  G74        -0.4373
    592  P        -16.3030   -0.2790    1.8820 P.3    75  A75         0.2141
    593  C5'      -16.8710   -2.6210    0.9010 C.3    75  A75         0.1812
    594  O5'      -15.8620   -1.6680    1.2380 O.3    75  A75        -0.3114
    595  C4'      -16.3670   -4.0370    1.0260 C.3    75  A75         0.1773
    596  O4'      -15.9590   -4.5190   -0.2760 O.3    75  A75        -0.3307
    597  C3'      -15.1790   -4.2930    1.9390 C.3    75  A75         0.1860
    598  O3'      -15.7080   -4.6380    3.1950 O.3    75  A75        -0.3112
    599  C2'      -14.5530   -5.5250    1.3100 C.3    75  A75         0.2309
    600  O2'      -15.1810   -6.7140    1.7310 O.3    75  A75        -0.2156
    601  C1'      -14.7450   -5.2190   -0.1730 C.3    75  A75         0.2408
    602  N1       -10.0690   -5.0510   -2.2830 N.ar   75  A75        -0.2040
    603  C2       -10.8400   -6.0690   -1.8820 C.ar   75  A75         0.2016
    604  N3       -12.0520   -6.0420   -1.3340 N.ar   75  A75        -0.2048
    605  C4       -12.4890   -4.7770   -1.2150 C.ar   75  A75         0.1692
    606  C5       -11.8160   -3.6290   -1.5860 C.ar   75  A75         0.1518
    607  C6       -10.5380   -3.7930   -2.1480 C.ar   75  A75         0.1919
    608  N6        -9.7710   -2.7790   -2.5560 N.pl3  75  A75        -0.1054
    609  N7       -12.5860   -2.5030   -1.3240 N.ar   75  A75        -0.2193
    610  C8       -13.6870   -2.9890   -0.8010 C.ar   75  A75         0.1816
    611  N9       -13.6990   -4.3600   -0.7170 N.ar   75  A75        -0.2693
    612  OP1      -17.1540   -0.5990    3.0430 O.3    75  A75        -0.4373
    613  OP2      -15.1060    0.5900    2.0550 O.co2  75  A75        -0.5172
    614  P        -14.7690   -4.6450    4.4520 P.3    76  G76         0.2141
    615  C5'      -13.3490   -6.8170    4.1830 C.3    76  G76         0.1812
    616  O5'      -13.4970   -5.4240    3.8960 O.3    76  G76        -0.3114
    617  C4'      -12.0450   -7.3600    3.6490 C.3    76  G76         0.1773
    618  O4'      -11.9010   -7.0460    2.2330 O.3    76  G76        -0.3307
    619  C3'      -10.7640   -6.8460    4.2820 C.3    76  G76         0.1860
    620  O3'      -10.4270   -7.5570    5.4620 O.3    76  G76        -0.3112
    621  C2'       -9.7650   -7.1730    3.1860 C.3    76  G76         0.2309
    622  O2'       -9.5490   -8.5530    3.0440 O.3    76  G76        -0.2156
    623  C1'      -10.5400   -6.7520    1.9400 C.3    76  G76         0.2408
    624  N1        -7.4740   -2.9680    0.4480 N.ar   76  G76        -0.1709
    625  C2        -7.2100   -4.3110    0.5410 C.ar   76  G76         0.2606
    626  N2        -5.9670   -4.6950    0.2020 N.pl3  76  G76        -0.0859
    627  N3        -8.1000   -5.2150    0.9240 N.ar   76  G76        -0.1918
    628  C4        -9.2880   -4.6540    1.2300 C.ar   76  G76         0.1723
    629  C5        -9.6440   -3.3240    1.1900 C.ar   76  G76         0.1748
    630  C6        -8.6890   -2.3710    0.7600 C.ar   76  G76         0.3023
    631  O6        -8.8270   -1.1500    0.6320 O.2    76  G76        -0.2633
    632  N7       -10.9650   -3.1560    1.5780 N.ar   76  G76        -0.2173
    633  C8       -11.3750   -4.3610    1.8660 C.ar   76  G76         0.1817
    634  N9       -10.4130   -5.3200    1.6620 N.ar   76  G76        -0.2693
    635  OP1      -15.4280   -5.5000    5.4790 O.3    76  G76        -0.4373
    636  OP2      -14.4920   -3.2240    4.7850 O.co2  76  G76        -0.5172
    637  P         -9.9870   -6.7920    6.8000 P.3    77  C77         0.2141
    638  C5'       -7.7250   -7.4650    5.6660 C.3    77  C77         0.1812
    639  O5'       -8.4260   -6.6040    6.5820 O.3    77  C77        -0.3114
    640  C4'       -6.3000   -6.9920    5.4320 C.3    77  C77         0.1773
    641  O4'       -6.1900   -6.3640    4.1140 O.3    77  C77        -0.3307
    642  C3'       -5.7250   -5.9740    6.4150 C.3    77  C77         0.1860
    643  O3'       -5.1520   -6.5910    7.5620 O.3    77  C77        -0.3112
    644  C2'       -4.6740   -5.2770    5.5610 C.3    77  C77         0.2309
    645  O2'       -3.4960   -6.0410    5.4680 O.3    77  C77        -0.2156
    646  C1'       -5.3820   -5.2020    4.2030 C.3    77  C77         0.2420
    647  N1        -6.2400   -4.0030    4.0760 N.ar   77  C77        -0.2535
    648  C2        -5.6860   -2.8200    3.5730 C.ar   77  C77         0.3532
    649  O2        -4.5070   -2.8220    3.1880 O.2    77  C77        -0.2443
    650  N3        -6.4510   -1.7090    3.5020 N.ar   77  C77        -0.1739
    651  C4        -7.7080   -1.7400    3.9390 C.ar   77  C77         0.1759
    652  N4        -8.4250   -0.6220    3.8490 N.pl3  77  C77        -0.1070
    653  C5        -8.2990   -2.9290    4.4520 C.ar   77  C77         0.0566
    654  C6        -7.5310   -4.0210    4.5200 C.ar   77  C77         0.0850
    655  OP1      -10.0610   -7.7640    7.9090 O.3    77  C77        -0.4373
    656  OP2      -10.7490   -5.5070    6.9130 O.co2  77  C77        -0.5172
    657  P         -5.2060   -5.8570    8.9930 P.3    78  U78         0.2141
    658  C5'       -3.0120   -4.5500    8.3780 C.3    78  U78         0.1812
    659  O5'       -4.4170   -4.5070    8.7190 O.3    78  U78        -0.3114
    660  C4'       -2.5290   -3.1480    8.1060 C.3    78  U78         0.1773
    661  O4'       -3.2450   -2.5990    6.9640 O.3    78  U78        -0.3307
    662  C3'       -2.8230   -2.1650    9.2230 C.3    78  U78         0.1860
    663  O3'       -1.8500   -2.3460   10.2610 O.3    78  U78        -0.3112
    664  C2'       -2.7830   -0.8350    8.4800 C.3    78  U78         0.2309
    665  O2'       -1.4790   -0.3210    8.3440 O.3    78  U78        -0.2156
    666  C1'       -3.3970   -1.2010    7.1220 C.3    78  U78         0.2420
    667  N1        -4.8270   -0.8620    7.0320 N.ar   78  U78        -0.2534
    668  C2        -5.1680    0.4730    6.8980 C.ar   78  U78         0.3546
    669  O2        -4.3420    1.3620    6.7840 O.2    78  U78        -0.2443
    670  N3        -6.5150    0.7230    6.8770 N.ar   78  U78        -0.1530
    671  C4        -7.5370   -0.1950    6.9750 C.ar   78  U78         0.2846
    672  O4        -8.7060    0.1900    6.9070 O.2    78  U78        -0.2650
    673  C5        -7.1090   -1.5460    7.1090 C.ar   78  U78         0.0814
    674  C6        -5.8000   -1.8300    7.1260 C.ar   78  U78         0.0870
    675  OP1       -4.3260   -6.6100    9.9260 O.3    78  U78        -0.4373
    676  OP2       -6.6330   -5.6150    9.3750 O.co2  78  U78        -0.5172
    677  P         -2.2660   -2.3160   11.8400 P.3    79  C79         0.2141
    678  C5'       -1.1810    0.0280   12.0670 C.3    79  C79         0.1812
    679  O5'       -2.3490   -0.7660   12.1870 O.3    79  C79        -0.3114
    680  C4'       -1.5340    1.4510   11.7700 C.3    79  C79         0.1773
    681  O4'       -2.2860    1.5300   10.5350 O.3    79  C79        -0.3307
    682  C3'       -2.4410    2.1240   12.7660 C.3    79  C79         0.1860
    683  O3'       -1.7200    2.4600   13.9240 O.3    79  C79        -0.3112
    684  C2'       -2.9300    3.3150   11.9490 C.3    79  C79         0.2309
    685  O2'       -2.0520    4.4180   11.8190 O.3    79  C79        -0.2156
    686  C1'       -3.1280    2.6750   10.5720 C.3    79  C79         0.2420
    687  N1        -4.5210    2.2560   10.3230 N.ar   79  C79        -0.2535
    688  C2        -5.4600    3.2140    9.9270 C.ar   79  C79         0.3532
    689  O2        -5.1000    4.3940    9.7980 O.2    79  C79        -0.2443
    690  N3        -6.7380    2.8320    9.6980 N.ar   79  C79        -0.1739
    691  C4        -7.0840    1.5530    9.8290 C.ar   79  C79         0.1759
    692  N4        -8.3450    1.2230    9.5820 N.pl3  79  C79        -0.1070
    693  C5        -6.1450    0.5540   10.2090 C.ar   79  C79         0.0566
    694  C6        -4.8890    0.9470   10.4550 C.ar   79  C79         0.0850
    695  OP1       -1.1420   -2.9010   12.5930 O.3    79  C79        -0.4373
    696  OP2       -3.6480   -2.8420   12.0150 O.co2  79  C79        -0.5172
    697  P         -2.5030    2.9150   15.2610 P.3    80  C80         0.2141
    698  C5'       -2.3870    5.5280   14.8670 C.3    80  C80         0.1813
    699  O5'       -3.1510    4.3170   14.8630 O.3    80  C80        -0.3114
    700  C4'       -3.2750    6.7060   14.5570 C.3    80  C80         0.1801
    701  O4'       -3.9040    6.5320   13.2560 O.3    80  C80        -0.3306
    702  C3'       -4.4410    6.8810   15.5020 C.3    80  C80         0.2161
    703  O3'       -4.0130    7.5310   16.6780 O.3    80  C80        -0.2175
    704  C2'       -5.4240    7.6960   14.6670 C.3    80  C80         0.2338
    705  O2'       -5.1460    9.0710   14.6820 O.3    80  C80        -0.2155
    706  C1'       -5.2000    7.1220   13.2700 C.3    80  C80         0.2421
    707  N1        -6.1900    6.0860   12.9300 N.ar   80  C80        -0.2535
    708  C2        -7.4490    6.4850   12.4890 C.ar   80  C80         0.3532
    709  O2        -7.6800    7.6970   12.3640 O.2    80  C80        -0.2443
    710  N3        -8.3690    5.5470   12.1790 N.ar   80  C80        -0.1739
    711  C4        -8.0620    4.2540   12.2820 C.ar   80  C80         0.1759
    712  N4        -8.9960    3.3570   11.9510 N.pl3  80  C80        -0.1070
    713  C5        -6.7840    3.8200   12.7300 C.ar   80  C80         0.0566
    714  C6        -5.8890    4.7600   13.0450 C.ar   80  C80         0.0850
    715  OP1       -1.4840    3.1370   16.3430 O.3    80  C80        -0.4373
    716  OP2       -3.6390    1.9690   15.5030 O.co2  80  C80        -0.5172
@<TRIPOS>BOND
     1   314   313    1
     2   313   315    1
     3   313   311    1
     4   316   315    1
     5   315   317    1
     6   326   308    2
     7   311   309    1
     8   311   312    1
     9   309   310    1
    10   310   308    1
    11   308   327    1
    12   308   294    1
    13   317   312    1
    14   317   318    1
    15   350   328    1
    16   320   319    2
    17   349   328    1
    18   318   319   ar
    19   318   325   ar
    20   319   321   ar
    21   325   324   ar
    22   328   330    1
    23   294   293    1
    24   321   322   ar
    25   324   322   ar
    26   336   335    1
    27   322   323    1
    28   337   332    1
    29   337   335    1
    30   337   348    1
    31   330   329    1
    32   293   295    1
    33   293   291    1
    34   332   331    1
    35   331   329    1
    36   331   333    1
    37   296   295    1
    38   335   333    1
    39   295   297    1
    40   348   342   ar
    41   348   347   ar
    42   341   342   ar
    43   341   339   ar
    44   342   343   ar
    45   334   333    1
    46   334   351    1
    47   340   339    1
    48   347   346   ar
    49   339   338   ar
    50   291   289    1
    51   291   292    1
    52   343   346   ar
    53   343   344   ar
    54   306   288    2
    55   289   290    1
    56   338   344   ar
    57   290   288    1
    58   300   299    2
    59   344   345    2
    60   352   353    1
    61   352   354    1
    62   371   351    2
    63   297   298    1
    64   297   292    1
    65   299   298   ar
    66   299   301   ar
    67   288   307    1
    68   288   274    1
    69   298   305   ar
    70   351   353    1
    71   351   372    1
    72   301   302   ar
    73   305   304   ar
    74   302   304   ar
    75   302   303    1
    76   354   355    1
    77   354   356    1
    78   355   360    1
    79   274   273    1
    80   394   373    2
    81   360   370    1
    82   360   358    1
    83   356   357    1
    84   356   358    1
    85   369   370   ar
    86   369   368   ar
    87   370   364   ar
    88   368   365   ar
    89   357   373    1
    90   364   365   ar
    91   364   363   ar
    92   365   366   ar
    93   273   275    1
    94   273   271    1
    95   363   362   ar
    96   395   373    1
    97   373   375    1
    98   276   275    1
    99   275   277    1
   100   358   359    1
   101   366   361   ar
   102   366   367    1
   103   362   361   ar
   104   472   471   ar
   105   472   473   ar
   106   471   476   ar
   107   280   279    2
   108   281   279   ar
   109   281   282   ar
   110   279   278   ar
   111   473   474   ar
   112   271   269    1
   113   271   272    1
   114   283   282    2
   115   282   284   ar
   116   375   374    1
   117   278   277    1
   118   278   285   ar
   119   270   269    1
   120   270   268    1
   121   277   272    1
   122   284   285   ar
   123   476   477    1
   124   476   475   ar
   125   287   268    2
   126   286   268    1
   127   268   251    1
   128   474   475   ar
   129   474   480   ar
   130   475   478   ar
   131   374   376    1
   132   480   470    1
   133   480   479   ar
   134   470   465    1
   135   470   468    1
   136   504   483    2
   137   465   464    1
   138   478   479   ar
   139   251   250    1
   140   376   377    1
   141   376   378    1
   142   156   134    2
   143   262   261    2
   144   142   141    1
   145   377   382    1
   146   255   261   ar
   147   255   256   ar
   148   467   483    1
   149   467   466    1
   150   261   260   ar
   151   250   252    1
   152   250   248    1
   153   167   168   ar
   154   167   172   ar
   155   257   256    1
   156   469   468    1
   157   464   466    1
   158   464   462    1
   159   483   505    1
   160   483   485    1
   161   178   157    2
   162   256   258   ar
   163   267   245    2
   164   252   253    1
   165   252   254    1
   166   168   169   ar
   167   260   263   ar
   168   260   259   ar
   169   468   466    1
   170   177   157    1
   171   263   264   ar
   172   266   245    1
   173   141   139    1
   174   141   143    1
   175   258   259   ar
   176   432   431    1
   177   259   265   ar
   178   247   245    1
   179   247   246    1
   180   378   379    1
   181   378   380    1
   182   173   172    1
   183   415   396    2
   184   264   265   ar
   185   245   228    1
   186   157   140    1
   187   157   159    1
   188   139   140    1
   189   139   137    1
   190   265   254    1
   191   134   136    1
   192   134   117    1
   193   134   155    1
   194   379   396    1
   195   136   135    1
   196   172   171   ar
   197   382   393    1
   198   382   380    1
   199   385   384    1
   200   386   384   ar
   201   386   387   ar
   202   462   463    1
   203   384   383   ar
   204   393   387   ar
   205   393   392   ar
   206   248   246    1
   207   248   249    1
   208   387   388   ar
   209   254   249    1
   210   169   170   ar
   211   119   118    1
   212   117   116    1
   213   414   396    1
   214   485   484    1
   215   484   486    1
   216   431   426   ar
   217   431   430   ar
   218   396   398    1
   219   153   152   ar
   220   153   154   ar
   221   383   389   ar
   222   392   391   ar
   223   152   149   ar
   224   388   389   ar
   225   388   391   ar
   226   426   427   ar
   227   143   154    1
   228   143   138    1
   229   495   494    1
   230   380   381    1
   231   154   148   ar
   232   389   390    2
   233   463   461    1
   234   149   148   ar
   235   149   150   ar
   236   481   461    2
   237   148   147   ar
   238   433   430   ar
   239   433   434   ar
   240   137   135    1
   241   137   138    1
   242   430   429   ar
   243   494   493   ar
   244   494   496   ar
   245   151   150    2
   246   171   170   ar
   247   171   174   ar
   248   159   158    1
   249   150   144   ar
   250   493   499   ar
   251   170   176   ar
   252   228   227    1
   253   244   222    2
   254   446   445    1
   255   487   486    1
   256   487   492    1
   257   116   118    1
   258   116   114    1
   259   486   488    1
   260   147   145   ar
   261   118   120    1
   262   427   428   ar
   263   144   145   ar
   264   496   497   ar
   265   145   146    1
   266   499   500    2
   267   499   498   ar
   268   243   222    1
   269   461   444    1
   270   461   482    1
   271   239   238    2
   272   398   397    1
   273   434   435   ar
   274   429   428   ar
   275   429   435   ar
   276   227   229    1
   277   227   225    1
   278   497   498   ar
   279   497   503   ar
   280   222   224    1
   281   222   205    1
   282   524   506    2
   283   498   501   ar
   284   224   223    1
   285   158   160    1
   286   238   232   ar
   287   238   237   ar
   288   120   131    1
   289   120   115    1
   290   174   175   ar
   291   161   160    1
   292   161   166    1
   293   445   443    1
   294   445   447    1
   295   444   443    1
   296   240   237   ar
   297   240   241   ar
   298   232   233   ar
   299   435   425    1
   300   237   236   ar
   301   503   492    1
   302   503   502   ar
   303   424   423    1
   304   176   175   ar
   305   176   166    1
   306   492   490    1
   307   501   502   ar
   308   114   115    1
   309   114   112    1
   310   397   399    1
   311   229   230    1
   312   229   231    1
   313   488   490    1
   314   488   489    1
   315   223   225    1
   316   241   242   ar
   317   130   131   ar
   318   130   129   ar
   319   131   125   ar
   320   514   513    1
   321   233   234    1
   322   233   235   ar
   323   236   242   ar
   324   236   235   ar
   325   160   162    1
   326   443   441    1
   327   225   226    1
   328   547   526    2
   329   242   231    1
   330   132   111    2
   331   166   164    1
   332   221   199    2
   333   490   491    1
   334   436   416    2
   335   521   520    2
   336   129   126   ar
   337   125   124   ar
   338   125   126   ar
   339   447   458    1
   340   447   442    1
   341   423   425    1
   342   423   421    1
   343   489   506    1
   344   506   525    1
   345   506   508    1
   346   425   420    1
   347   124   122   ar
   348   513   511    1
   349   513   515    1
   350   451   449   ar
   351   451   452   ar
   352   450   449    1
   353   205   204    1
   354   520   522   ar
   355   520   519   ar
   356   458   452   ar
   357   458   457   ar
   358   112   113    1
   359   449   448   ar
   360   126   127   ar
   361   399   400    1
   362   399   401    1
   363   452   453   ar
   364   522   523   ar
   365   220   199    1
   366   231   226    1
   367   457   456   ar
   368   519   517   ar
   369   448   454   ar
   370   453   456   ar
   371   453   454   ar
   372   164   162    1
   373   164   165    1
   374   454   455    2
   375   523   516   ar
   376   113   111    1
   377   122   123    1
   378   122   121   ar
   379   400   405    1
   380   162   163    1
   381   200   201    1
   382   200   202    1
   383   517   516   ar
   384   517   518    2
   385   516   515    1
   386   127   121   ar
   387   127   128    2
   388   204   202    1
   389   204   206    1
   390   199   201    1
   391   199   185    1
   392   548   526    1
   393   441   442    1
   394   441   439    1
   395   526   512    1
   396   526   528    1
   397   111   133    1
   398   111    95    1
   399   508   507    1
   400   511   512    1
   401   511   509    1
   402   515   510    1
   403   216   215    2
   404   416   418    1
   405   416   402    1
   406   416   437    1
   407   420   419    1
   408   543   542    2
   409   418   417    1
   410   421   422    1
   411   421   419    1
   412   217   214   ar
   413   217   218   ar
   414   202   203    1
   415   401   402    1
   416   401   403    1
   417   536   542   ar
   418   536   537   ar
   419   215   214   ar
   420   215   209   ar
   421   538   537    1
   422   422   438    1
   423   214   213   ar
   424   218   219   ar
   425   542   541   ar
   426   206   208    1
   427   206   207    1
   428   163   179    1
   429   528   527    1
   430   209   210   ar
   431   405   406    1
   432   405   403    1
   433   439   440    1
   434   537   539   ar
   435   185   184    1
   436   507   509    1
   437   509   510    1
   438   419   417    1
   439   197   179    2
   440   213   219   ar
   441   213   212   ar
   442   219   208    1
   443    95    94    1
   444   413   406   ar
   445   413   412   ar
   446   210   212   ar
   447   210   211    1
   448   406   407   ar
   449   403   404    1
   450   203   208    1
   451   541   540   ar
   452   541   544   ar
   453   412   410   ar
   454   527   529    1
   455   539   540   ar
   456   179   181    1
   457   179   198    1
   458   184   186    1
   459   184   182    1
   460   440   438    1
   461   540   546   ar
   462   407   408    2
   463   407   409   ar
   464   438   459    2
   465   438   460    1
   466   544   545   ar
   467   181   180    1
   468   410   409   ar
   469   410   411    2
   470   564   563    2
   471   561   560    2
   472   562   563   ar
   473   562   560   ar
   474    94    96    1
   475    94    92    1
   476   563   565   ar
   477   530   529    1
   478   530   535    1
   479   560   559   ar
   480   186   187    1
   481   186   188    1
   482   568   549    2
   483   565   566   ar
   484   546   545   ar
   485   546   535    1
   486   559   566   ar
   487   559   558    1
   488   180   182    1
   489    97    96    1
   490   529   531    1
   491   195   196   ar
   492   195   193   ar
   493   558   553    1
   494   558   556    1
   495    96    98    1
   496   182   183    1
   497   194   193    1
   498   109    89    2
   499   196   189   ar
   500   193   192   ar
   501   553   552    1
   502   557   556    1
   503   586   585    2
   504   531   532    1
   505   531   533    1
   506   535   533    1
   507   551   549    1
   508   551   550    1
   509    92    90    1
   510    92    93    1
   511   189   188    1
   512   189   190   ar
   513    90    91    1
   514   192   190   ar
   515   188   183    1
   516   110    89    1
   517   549   532    1
   518   549   567    1
   519   585   579   ar
   520   585   584   ar
   521   190   191    2
   522    91    89    1
   523    89    73    1
   524   556   554    1
   525   552   550    1
   526   552   554    1
   527   579   580   ar
   528   587   584   ar
   529   587   588   ar
   530   533   534    1
   531   584   583   ar
   532    98    93    1
   533    98   108    1
   534   107   108   ar
   535   107   106   ar
   536   580   581    1
   537   580   582   ar
   538   108   102   ar
   539   588   589   ar
   540   583   582   ar
   541   583   589   ar
   542   554   555    1
   543   106   103   ar
   544   102   101   ar
   545   102   103   ar
   546   589   578    1
   547   101   100   ar
   548   103   104   ar
   549    73    72    1
   550   100    99   ar
   551   555   569    1
   552   104    99   ar
   553   104   105    1
   554   578   573    1
   555   578   576    1
   556   573   572    1
   557   608   607    1
   558   602   607   ar
   559   602   603   ar
   560   607   606   ar
   561    72    74    1
   562    72    70    1
   563   603   604   ar
   564    75    74    1
   565    74    76    1
   566   606   609   ar
   567   606   605   ar
   568   569   571    1
   569   569   590    2
   570   569   591    1
   571   576   577    1
   572   576   574    1
   573   604   605   ar
   574    87    67    2
   575   609   610   ar
   576   571   570    1
   577   572   570    1
   578   572   574    1
   579   605   611   ar
   580    88    67    1
   581    70    68    1
   582    70    71    1
   583   610   611   ar
   584   611   601    1
   585    69    68    1
   586    69    67    1
   587   574   575    1
   588    67    50    1
   589   596   601    1
   590   596   595    1
   591    76    86    1
   592    76    71    1
   593   601   599    1
   594    79    78   ar
   595    79    80   ar
   596    78    77   ar
   597    86    80   ar
   598    86    85   ar
   599    80    81   ar
   600    85    84   ar
   601    77    82   ar
   602    81    84   ar
   603    81    82   ar
   604    82    83    1
   605   626   625    1
   606   624   625   ar
   607   624   630   ar
   608   625   627   ar
   609   631   630    2
   610   575   592    1
   611   630   629   ar
   612   593   595    1
   613   593   594    1
   614   627   628   ar
   615    50    49    1
   616   595   597    1
   617   629   628   ar
   618   629   632   ar
   619   628   634   ar
   620   594   592    1
   621   599   600    1
   622   599   597    1
   623   632   633   ar
   624   634   633   ar
   625   634   623    1
   626    66    44    2
   627   592   613    2
   628   592   612    1
   629    49    51    1
   630    49    47    1
   631   597   598    1
   632   623   618    1
   633   623   621    1
   634    65    44    1
   635   618   617    1
   636    51    52    1
   637    51    53    1
   638    44    46    1
   639    44    30    1
   640    46    45    1
   641    42    24    2
   642   622   621    1
   643    61    60    2
   644    54    60   ar
   645    54    55   ar
   646   621   619    1
   647   649   648    2
   648   598   614    1
   649    60    59   ar
   650    43    24    1
   651    45    47    1
   652    47    48    1
   653    56    55    1
   654    55    57   ar
   655    59    62   ar
   656    59    58   ar
   657    62    63   ar
   658    57    58   ar
   659    58    64   ar
   660    63    64   ar
   661    64    53    1
   662   650   648   ar
   663   650   651   ar
   664   648   647   ar
   665    53    48    1
   666   617   615    1
   667   617   619    1
   668    24    26    1
   669    24     7    1
   670   652   651    1
   671   616   615    1
   672   616   614    1
   673   651   653   ar
   674    30    29    1
   675   647   646    1
   676   647   654   ar
   677    22     1    1
   678   641   646    1
   679   641   640    1
   680   646   644    1
   681   619   620    1
   682   614   636    2
   683   614   635    1
   684   653   654   ar
   685    26    25    1
   686    29    31    1
   687    29    27    1
   688     7     6    1
   689    23     1    1
   690     1     3    1
   691   640   638    1
   692   640   642    1
   693     3     2    1
   694   620   637    1
   695    25    27    1
   696   645   644    1
   697     2     4    1
   698   644   642    1
   699   638   639    1
   700    31    32    1
   701    31    33    1
   702    39    38    2
   703     6     4    1
   704     6     8    1
   705    27    28    1
   706    40    38   ar
   707    40    41   ar
   708    38    37   ar
   709    41    34   ar
   710    37    35   ar
   711     4     5    1
   712   642   643    1
   713    34    35   ar
   714    34    33    1
   715   639   637    1
   716    35    36    2
   717   669   668    2
   718   637   656    2
   719   637   655    1
   720    33    28    1
   721   670   668   ar
   722   670   671   ar
   723   668   667   ar
   724   672   671    2
   725   661   666    1
   726   661   660    1
   727   671   673   ar
   728   667   666    1
   729   667   674   ar
   730     8     9    1
   731     8    10    1
   732   673   674   ar
   733   666   664    1
   734     5    10    1
   735   643   657    1
   736    20    19   ar
   737    20    21   ar
   738    19    16   ar
   739    21    10    1
   740    21    15   ar
   741   660   658    1
   742   660   662    1
   743    16    15   ar
   744    16    17   ar
   745   665   664    1
   746   658   659    1
   747    15    14   ar
   748    18    17    2
   749   664   662    1
   750    17    11   ar
   751   659   657    1
   752    14    12   ar
   753   657   676    2
   754   657   675    1
   755    11    12   ar
   756   662   663    1
   757    12    13    1
   758   692   691    1
   759   690   691   ar
   760   690   688   ar
   761   689   688    2
   762   691   693   ar
   763   688   687   ar
   764   693   694   ar
   765   663   677    1
   766   687   694   ar
   767   687   686    1
   768   681   686    1
   769   681   680    1
   770   686   684    1
   771   680   678    1
   772   680   682    1
   773   685   684    1
   774   677   696    2
   775   677   679    1
   776   677   695    1
   777   684   682    1
   778   712   711    1
   779   678   679    1
   780   710   711   ar
   781   710   708   ar
   782   711   713   ar
   783   709   708    2
   784   708   707   ar
   785   713   714   ar
   786   682   683    1
   787   707   714   ar
   788   707   706    1
   789   701   706    1
   790   701   700    1
   791   706   704    1
   792   683   697    1
   793   700   698    1
   794   700   702    1
   795   704   705    1
   796   704   702    1
   797   699   698    1
   798   699   697    1
   799   697   716    2
   800   697   715    1
   801   702   703    1
