1o9m_lig
 OpenBabel02221317003D

 37 38  0  0  1  0  0  0  0  0999 V2000
   -4.7350   14.1370    5.3170 C   0  0  2  0  0  0  0  0  0  0  0  0
   -5.5620   15.2130    4.7780 O   0  0  0  0  0  0  0  0  0  0  0  0
   -3.2620   14.4330    4.8510 C   0  0  2  0  0  0  0  0  0  0  0  0
   -2.7820   15.7440    5.3220 N   0  0  0  0  0  0  0  0  0  0  0  0
   -3.1920   14.3450    3.2790 C   0  0  1  0  0  0  0  0  0  0  0  0
   -1.8600   14.6090    2.8300 O   0  0  0  0  0  0  0  0  0  0  0  0
   -3.6910   12.9260    2.8490 C   0  0  2  0  0  0  0  0  0  0  0  0
   -3.6850   12.7410    1.4240 O   0  0  0  0  0  0  0  0  0  0  0  0
   -5.1220   12.6660    3.3810 C   0  0  2  0  0  0  0  0  0  0  0  0
   -5.1770   12.8350    4.8050 O   0  0  0  0  0  0  0  0  0  0  0  0
   -5.6050   11.2830    3.0280 C   0  0  0  0  0  0  0  0  0  0  0  0
   -6.8730   11.0820    3.5190 N   0  0  0  0  0  0  0  0  0  0  0  0
   -8.9070   17.6430    6.0920 C   0  0  1  0  0  0  0  0  0  0  0  0
  -10.2010   18.0180    6.7280 N   0  0  0  0  0  0  0  0  0  0  0  0
   -7.9830   17.0700    7.1580 C   0  0  2  0  0  0  0  0  0  0  0  0
   -7.8320   18.0330    8.1580 O   0  0  0  0  0  0  0  0  0  0  0  0
   -6.6040   16.6790    6.5390 C   0  0  1  0  0  0  0  0  0  0  0  0
   -5.7350   16.1110    7.5660 O   0  0  0  0  0  0  0  0  0  0  0  0
   -6.8200   15.5990    5.4020 C   0  0  1  0  0  0  0  0  0  0  0  0
   -7.7270   16.1670    4.3210 C   0  0  1  0  0  0  0  0  0  0  0  0
   -7.9000   15.1650    3.2800 N   0  0  0  0  0  0  0  0  0  0  0  0
   -9.0910   16.5740    4.9400 C   0  0  0  0  0  0  0  0  0  0  0  0
   -8.1940   19.0800    9.0850 C   0  0  0  0  0  0  0  0  0  0  0  0
   -7.1080   19.2190   10.1270 C   0  0  0  0  0  0  0  0  0  0  0  0
   -6.2420   20.4020    9.9440 N   0  0  0  0  0  0  0  0  0  0  0  0
   -5.0490   21.2620    9.7720 C   0  0  0  0  0  0  0  0  0  0  0  0
   -4.3910   20.9630   11.1250 C   0  0  0  0  0  0  0  0  0  0  0  0
   -3.7200   19.5770   11.1560 C   0  0  0  0  0  0  0  0  0  0  0  0
   -2.5460   19.5570   12.1300 C   0  0  0  0  0  0  0  0  0  0  0  0
   -1.9360   18.2350   12.1510 N   0  0  0  0  0  0  0  0  0  0  0  0
  -14.2690   22.2620    8.2780 N   0  0  0  0  0  0  0  0  0  0  0  0
  -10.6370   19.7000    6.3710 C   0  0  0  0  0  0  0  0  0  0  0  0
  -10.1910   20.4980    5.7980 O   0  0  0  0  0  0  0  0  0  0  0  0
  -11.8510   19.4570    7.2340 C   0  0  2  0  0  0  0  0  0  0  0  0
  -12.6760   18.5130    6.6770 O   0  0  0  0  0  0  0  0  0  0  0  0
  -12.6370   20.7630    7.2690 C   0  0  0  0  0  0  0  0  0  0  0  0
  -13.6440   20.9390    8.4200 C   0  0  0  0  0  0  0  0  0  0  0  0
  1  2  1  6  0  0  0
  1  3  1  0  0  0  0
  3  4  1  6  0  0  0
  3  5  1  0  0  0  0
  5  6  1  1  0  0  0
  5  7  1  0  0  0  0
  7  8  1  6  0  0  0
  9  7  1  0  0  0  0
  9 10  1  0  0  0  0
  9 11  1  1  0  0  0
 10  1  1  0  0  0  0
 11 12  1  0  0  0  0
 13 14  1  1  0  0  0
 13 15  1  0  0  0  0
 13 22  1  0  0  0  0
 14 32  1  0  0  0  0
 15 16  1  6  0  0  0
 15 17  1  0  0  0  0
 16 23  1  0  0  0  0
 17 18  1  1  0  0  0
 17 19  1  0  0  0  0
 19  2  1  6  0  0  0
 19 20  1  0  0  0  0
 20 21  1  1  0  0  0
 20 22  1  0  0  0  0
 23 24  1  0  0  0  0
 24 25  1  0  0  0  0
 25 26  1  0  0  0  0
 26 27  1  0  0  0  0
 27 28  1  0  0  0  0
 28 29  1  0  0  0  0
 29 30  1  0  0  0  0
 31 37  1  0  0  0  0
 32 33  2  0  0  0  0
 34 32  1  6  0  0  0
 34 35  1  0  0  0  0
 34 36  1  0  0  0  0
 36 37  1  0  0  0  0
M  END
$$$$
