1o9m_lig
 OpenBabel11021811403D
libRbt.so/2013.1/901 2013/11/27
 37 38  0  0  0  0  0  0  0  0999 V2000
   -4.9167   14.0711    5.4543 C   0  0  2  0  0  0  0  0  0  0  0  0
   -5.7527   15.0765    4.8044 O   0  0  0  0  0  0  0  0  0  0  0  0
   -3.4320   14.4009    5.0526 C   0  0  2  0  0  0  0  0  0  0  0  0
   -3.0315   15.7571    5.4664 N   0  0  0  0  0  0  0  0  0  0  0  0
   -3.2682   14.2215    3.4954 C   0  0  1  0  0  0  0  0  0  0  0  0
   -1.9239   14.5144    3.1048 O   0  0  0  0  0  0  0  0  0  0  0  0
   -3.6858   12.7592    3.1281 C   0  0  2  0  0  0  0  0  0  0  0  0
   -3.5906   12.4892    1.7199 O   0  0  0  0  0  0  0  0  0  0  0  0
   -5.1338   12.4711    3.5957 C   0  0  2  0  0  0  0  0  0  0  0  0
   -5.2773   12.7230    5.0011 O   0  0  0  0  0  0  0  0  0  0  0  0
   -5.5413   11.0501    3.3038 C   0  0  0  0  0  0  0  0  0  0  0  0
   -6.9076   10.9212    3.3816 N   0  0  0  0  0  0  0  0  0  0  0  0
   -9.1727   17.4883    5.9479 C   0  0  1  0  0  0  0  0  0  0  0  0
  -10.5131   17.8506    6.4878 N   0  0  0  0  0  0  0  0  0  0  0  0
   -8.3519   16.8476    7.0587 C   0  0  2  0  0  0  0  0  0  0  0  0
   -8.2782   17.7560    8.1168 O   0  0  0  0  0  0  0  0  0  0  0  0
   -6.9284   16.4671    6.5422 C   0  0  1  0  0  0  0  0  0  0  0  0
   -6.1589   15.8342    7.6098 O   0  0  0  0  0  0  0  0  0  0  0  0
   -7.0561   15.4498    5.3361 C   0  0  1  0  0  0  0  0  0  0  0  0
   -7.8588   16.0861    4.2115 C   0  0  1  0  0  0  0  0  0  0  0  0
   -7.9512   15.1412    3.1088 N   0  0  0  0  0  0  0  0  0  0  0  0
   -9.2671   16.4823    4.7302 C   0  0  0  0  0  0  0  0  0  0  0  0
   -8.2058   19.0285    8.7967 C   0  0  0  0  0  0  0  0  0  0  0  0
   -7.3637   18.8792   10.0429 C   0  0  0  0  0  0  0  0  0  0  0  0
   -6.0544   19.5603    9.9733 N   0  0  0  0  0  0  0  0  0  0  0  0
   -4.7940   20.1416    9.4575 C   0  0  0  0  0  0  0  0  0  0  0  0
   -4.0766   20.2894   10.8053 C   0  0  0  0  0  0  0  0  0  0  0  0
   -3.4260   18.9728   11.2696 C   0  0  0  0  0  0  0  0  0  0  0  0
   -2.4752   19.2125   12.4383 C   0  0  0  0  0  0  0  0  0  0  0  0
   -1.7269   17.9982   12.7314 N   0  0  0  0  0  0  0  0  0  0  0  0
  -14.9225   20.4768    7.8978 N   0  0  0  0  0  0  0  0  0  0  0  0
  -11.0959   19.3814    5.8068 C   0  0  0  0  0  0  0  0  0  0  0  0
  -10.7116   20.0936    5.0932 O   0  0  0  0  0  0  0  0  0  0  0  0
  -12.3046   19.1918    6.6903 C   0  0  2  0  0  0  0  0  0  0  0  0
  -13.4301   18.9430    5.9464 O   0  0  0  0  0  0  0  0  0  0  0  0
  -12.5371   20.5151    7.4111 C   0  0  0  0  0  0  0  0  0  0  0  0
  -13.5955   20.5226    8.5289 C   0  0  0  0  0  0  0  0  0  0  0  0
  1  2  1  6  0  0  0
  1  3  1  0  0  0  0
  3  4  1  6  0  0  0
  3  5  1  0  0  0  0
  5  6  1  1  0  0  0
  5  7  1  0  0  0  0
  7  8  1  6  0  0  0
  9  7  1  0  0  0  0
  9 10  1  0  0  0  0
  9 11  1  1  0  0  0
 10  1  1  0  0  0  0
 11 12  1  0  0  0  0
 13 14  1  1  0  0  0
 13 15  1  0  0  0  0
 13 22  1  0  0  0  0
 14 32  1  0  0  0  0
 15 16  1  1  0  0  0
 15 17  1  0  0  0  0
 16 23  1  0  0  0  0
 17 18  1  1  0  0  0
 17 19  1  0  0  0  0
 19  2  1  6  0  0  0
 19 20  1  0  0  0  0
 20 21  1  6  0  0  0
 20 22  1  0  0  0  0
 23 24  1  0  0  0  0
 24 25  1  0  0  0  0
 25 26  1  0  0  0  0
 26 27  1  0  0  0  0
 27 28  1  0  0  0  0
 28 29  1  0  0  0  0
 29 30  1  0  0  0  0
 31 37  1  0  0  0  0
 32 33  2  0  0  0  0
 34 32  1  6  0  0  0
 34 35  1  0  0  0  0
 34 36  1  0  0  0  0
 36 37  1  0  0  0  0
M  END
>  <CHROM.1>
-154.40312592,-163.52974370,142.86653955,-33.53997340,-145.97137023,79.94040394
109.92666445,-30.54137035,-164.83042328,81.82472126,167.62978984,-171.66181390
-111.88535381,-171.44247681,-74.12376873,-7.03642370,16.72513940,6.46577756
0.79398077,0.32162849,-2.27983241

>  <Name>
1o9m_lig

>  <RI>
0

>  <Rbt.Current_Directory>
/home/itssahil/PROJECTS/Mol_Feturizer/New_Systems/rnas/1o9m

>  <Rbt.Executable>
rbdock ($Id: //depot/dev/client3/rdock/2013.1/src/exe/rbdock.cxx#4 $)

>  <Rbt.Library>
libRbt.so (2013.1, Build901 2013/11/27)

>  <Rbt.Parameter_File>
/export/apps/rDock/src/rDock_2013.1_src/data/scripts/dock_solv.prm

>  <Rbt.Receptor>
prm/pocket_docking_2.prm

>  <SCORE>
-9.22447

>  <SCORE.INTER>
-10.5173

>  <SCORE.INTER.CONST>
1

>  <SCORE.INTER.POLAR>
-0.959166

>  <SCORE.INTER.ROT>
15

>  <SCORE.INTER.SOLV>
17.3992

>  <SCORE.INTER.VDW>
-23.2141

>  <SCORE.INTER.norm>
-0.284252

>  <SCORE.INTRA>
1.29087

>  <SCORE.INTRA.DIHEDRAL>
3.67405

>  <SCORE.INTRA.DIHEDRAL.0>
21.5987

>  <SCORE.INTRA.POLAR>
0

>  <SCORE.INTRA.POLAR.0>
0

>  <SCORE.INTRA.REPUL>
0

>  <SCORE.INTRA.REPUL.0>
0

>  <SCORE.INTRA.SOLV>
0.759055

>  <SCORE.INTRA.SOLV.lig_0>
-108.715

>  <SCORE.INTRA.VDW>
-0.925683

>  <SCORE.INTRA.VDW.0>
-3.9485

>  <SCORE.INTRA.norm>
0.0348883

>  <SCORE.RESTR>
0.0019752

>  <SCORE.RESTR.CAVITY>
0.0019752

>  <SCORE.RESTR.norm>
5.33839e-05

>  <SCORE.SYSTEM>
0

>  <SCORE.SYSTEM.CONST>
0

>  <SCORE.SYSTEM.DIHEDRAL>
0

>  <SCORE.SYSTEM.SOLV>
0

>  <SCORE.SYSTEM.norm>
0

>  <SCORE.heavy>
37

>  <SCORE.norm>
-0.24931

>  <RMSD>
0.617

$$$$
1o9m_lig
 OpenBabel11021811403D
libRbt.so/2013.1/901 2013/11/27
 37 38  0  0  0  0  0  0  0  0999 V2000
   -4.8275   13.9104    5.3938 C   0  0  2  0  0  0  0  0  0  0  0  0
   -5.6910   14.8780    4.7227 O   0  0  0  0  0  0  0  0  0  0  0  0
   -3.3491   14.3108    5.0353 C   0  0  2  0  0  0  0  0  0  0  0  0
   -3.0246   15.6827    5.4636 N   0  0  0  0  0  0  0  0  0  0  0  0
   -3.1330   14.1450    3.4830 C   0  0  1  0  0  0  0  0  0  0  0  0
   -1.7934   14.5020    3.1316 O   0  0  0  0  0  0  0  0  0  0  0  0
   -3.4709   12.6662    3.1005 C   0  0  2  0  0  0  0  0  0  0  0  0
   -3.3232   12.4061    1.6950 O   0  0  0  0  0  0  0  0  0  0  0  0
   -4.9165   12.3088    3.5259 C   0  0  2  0  0  0  0  0  0  0  0  0
   -5.1115   12.5486    4.9273 O   0  0  0  0  0  0  0  0  0  0  0  0
   -5.2484   10.8714    3.2191 C   0  0  0  0  0  0  0  0  0  0  0  0
   -6.6081   10.6760    3.2680 N   0  0  0  0  0  0  0  0  0  0  0  0
   -8.8897   17.4658    6.0980 C   0  0  1  0  0  0  0  0  0  0  0  0
  -10.1880   17.8940    6.6902 N   0  0  0  0  0  0  0  0  0  0  0  0
   -8.1036   16.6895    7.1458 C   0  0  2  0  0  0  0  0  0  0  0  0
   -7.9405   17.5159    8.2597 O   0  0  0  0  0  0  0  0  0  0  0  0
   -6.7236   16.2352    6.5740 C   0  0  1  0  0  0  0  0  0  0  0  0
   -5.9887   15.4737    7.5802 O   0  0  0  0  0  0  0  0  0  0  0  0
   -6.9516   15.3148    5.3065 C   0  0  1  0  0  0  0  0  0  0  0  0
   -7.7202   16.0861    4.2444 C   0  0  1  0  0  0  0  0  0  0  0  0
   -7.9056   15.2279    3.0839 N   0  0  0  0  0  0  0  0  0  0  0  0
   -9.0838   16.5548    4.8190 C   0  0  0  0  0  0  0  0  0  0  0  0
   -8.2991   18.3950    9.3483 C   0  0  0  0  0  0  0  0  0  0  0  0
   -7.0438   18.8368   10.0649 C   0  0  0  0  0  0  0  0  0  0  0  0
   -6.2465   19.8379    9.3267 N   0  0  0  0  0  0  0  0  0  0  0  0
   -5.3814   20.9983    9.0143 C   0  0  0  0  0  0  0  0  0  0  0  0
   -4.4227   20.8580   10.2035 C   0  0  0  0  0  0  0  0  0  0  0  0
   -3.4058   19.7185   10.0042 C   0  0  0  0  0  0  0  0  0  0  0  0
   -2.4199   19.6529   11.1666 C   0  0  0  0  0  0  0  0  0  0  0  0
   -1.4565   18.5837   10.9456 N   0  0  0  0  0  0  0  0  0  0  0  0
  -14.6988   20.3395    7.8646 N   0  0  0  0  0  0  0  0  0  0  0  0
  -10.6121   19.5455    6.2008 C   0  0  0  0  0  0  0  0  0  0  0  0
  -10.1565   20.2952    5.5728 O   0  0  0  0  0  0  0  0  0  0  0  0
  -11.8357   19.3746    7.0675 C   0  0  2  0  0  0  0  0  0  0  0  0
  -12.8378   18.7269    6.3906 O   0  0  0  0  0  0  0  0  0  0  0  0
  -12.3516   20.7738    7.3846 C   0  0  0  0  0  0  0  0  0  0  0  0
  -13.4622   20.8827    8.4450 C   0  0  0  0  0  0  0  0  0  0  0  0
  1  2  1  6  0  0  0
  1  3  1  0  0  0  0
  3  4  1  6  0  0  0
  3  5  1  0  0  0  0
  5  6  1  1  0  0  0
  5  7  1  0  0  0  0
  7  8  1  6  0  0  0
  9  7  1  0  0  0  0
  9 10  1  0  0  0  0
  9 11  1  1  0  0  0
 10  1  1  0  0  0  0
 11 12  1  0  0  0  0
 13 14  1  1  0  0  0
 13 15  1  0  0  0  0
 13 22  1  0  0  0  0
 14 32  1  0  0  0  0
 15 16  1  1  0  0  0
 15 17  1  0  0  0  0
 16 23  1  0  0  0  0
 17 18  1  1  0  0  0
 17 19  1  0  0  0  0
 19  2  1  6  0  0  0
 19 20  1  0  0  0  0
 20 21  1  6  0  0  0
 20 22  1  0  0  0  0
 23 24  1  0  0  0  0
 24 25  1  0  0  0  0
 25 26  1  0  0  0  0
 26 27  1  0  0  0  0
 27 28  1  0  0  0  0
 28 29  1  0  0  0  0
 29 30  1  0  0  0  0
 31 37  1  0  0  0  0
 32 33  2  0  0  0  0
 34 32  1  6  0  0  0
 34 35  1  0  0  0  0
 34 36  1  0  0  0  0
 36 37  1  0  0  0  0
M  END
>  <CHROM.1>
-146.46959250,-164.00199957,139.50095883,53.15243301,-177.81885171,70.54391334
74.31587513,143.33988157,39.25809046,76.37001621,176.90792046,-179.07843527
-83.61565311,-170.32116023,-70.99697741,-6.86999974,16.75227216,6.36513348
0.87436583,0.24005323,-2.38346747

>  <Name>
1o9m_lig

>  <RI>
0

>  <Rbt.Current_Directory>
/home/itssahil/PROJECTS/Mol_Feturizer/New_Systems/rnas/1o9m

>  <Rbt.Executable>
rbdock ($Id: //depot/dev/client3/rdock/2013.1/src/exe/rbdock.cxx#4 $)

>  <Rbt.Library>
libRbt.so (2013.1, Build901 2013/11/27)

>  <Rbt.Parameter_File>
/export/apps/rDock/src/rDock_2013.1_src/data/scripts/dock_solv.prm

>  <Rbt.Receptor>
prm/pocket_docking_2.prm

>  <SCORE>
-14.5657

>  <SCORE.INTER>
-10.0385

>  <SCORE.INTER.CONST>
1

>  <SCORE.INTER.POLAR>
-0.959166

>  <SCORE.INTER.ROT>
15

>  <SCORE.INTER.SOLV>
16.9777

>  <SCORE.INTER.VDW>
-22.7543

>  <SCORE.INTER.norm>
-0.271311

>  <SCORE.INTRA>
-4.63571

>  <SCORE.INTRA.DIHEDRAL>
-9.92057

>  <SCORE.INTRA.DIHEDRAL.0>
21.5987

>  <SCORE.INTRA.POLAR>
0

>  <SCORE.INTRA.POLAR.0>
0

>  <SCORE.INTRA.REPUL>
0

>  <SCORE.INTRA.REPUL.0>
0

>  <SCORE.INTRA.SOLV>
1.09282

>  <SCORE.INTRA.SOLV.lig_0>
-108.715

>  <SCORE.INTRA.VDW>
-0.221829

>  <SCORE.INTRA.VDW.0>
-3.9485

>  <SCORE.INTRA.norm>
-0.125289

>  <SCORE.RESTR>
0.108529

>  <SCORE.RESTR.CAVITY>
0.108529

>  <SCORE.RESTR.norm>
0.00293322

>  <SCORE.SYSTEM>
0

>  <SCORE.SYSTEM.CONST>
0

>  <SCORE.SYSTEM.DIHEDRAL>
0

>  <SCORE.SYSTEM.SOLV>
0

>  <SCORE.SYSTEM.norm>
0

>  <SCORE.heavy>
37

>  <SCORE.norm>
-0.393667

>  <RMSD>
0.638

$$$$
1o9m_lig
 OpenBabel11021811403D
libRbt.so/2013.1/901 2013/11/27
 37 38  0  0  0  0  0  0  0  0999 V2000
   -4.8372   13.8459    5.3376 C   0  0  2  0  0  0  0  0  0  0  0  0
   -5.7076   14.8262    4.6945 O   0  0  0  0  0  0  0  0  0  0  0  0
   -3.3623   14.2581    4.9782 C   0  0  2  0  0  0  0  0  0  0  0  0
   -3.0381   15.6208    5.4351 N   0  0  0  0  0  0  0  0  0  0  0  0
   -3.1565   14.1279    3.4211 C   0  0  1  0  0  0  0  0  0  0  0  0
   -1.8202   14.4961    3.0686 O   0  0  0  0  0  0  0  0  0  0  0  0
   -3.4935   12.6572    3.0076 C   0  0  2  0  0  0  0  0  0  0  0  0
   -3.3549   12.4292    1.5956 O   0  0  0  0  0  0  0  0  0  0  0  0
   -4.9353   12.2867    3.4348 C   0  0  2  0  0  0  0  0  0  0  0  0
   -5.1211   12.4943    4.8425 O   0  0  0  0  0  0  0  0  0  0  0  0
   -5.2659   10.8557    3.0979 C   0  0  0  0  0  0  0  0  0  0  0  0
   -6.6066   10.6195    3.2881 N   0  0  0  0  0  0  0  0  0  0  0  0
   -8.9034   17.3414    6.2047 C   0  0  1  0  0  0  0  0  0  0  0  0
  -10.2076   17.7394    6.8050 N   0  0  0  0  0  0  0  0  0  0  0  0
   -8.1444   16.4799    7.2048 C   0  0  2  0  0  0  0  0  0  0  0  0
   -7.9928   17.2188    8.3800 O   0  0  0  0  0  0  0  0  0  0  0  0
   -6.7591   16.0534    6.6243 C   0  0  1  0  0  0  0  0  0  0  0  0
   -6.0504   15.2102    7.5831 O   0  0  0  0  0  0  0  0  0  0  0  0
   -6.9739   15.2330    5.2877 C   0  0  1  0  0  0  0  0  0  0  0  0
   -7.7152   16.0904    4.2733 C   0  0  1  0  0  0  0  0  0  0  0  0
   -7.8886   15.3235    3.0488 N   0  0  0  0  0  0  0  0  0  0  0  0
   -9.0840   16.5308    4.8579 C   0  0  0  0  0  0  0  0  0  0  0  0
   -8.3644   17.9964    9.5392 C   0  0  0  0  0  0  0  0  0  0  0  0
   -7.1193   18.3558   10.3170 C   0  0  0  0  0  0  0  0  0  0  0  0
   -6.1428   19.1625    9.5563 N   0  0  0  0  0  0  0  0  0  0  0  0
   -5.4628   20.3038    8.9025 C   0  0  0  0  0  0  0  0  0  0  0  0
   -4.8020   20.8877   10.1576 C   0  0  0  0  0  0  0  0  0  0  0  0
   -3.3520   20.4000   10.3364 C   0  0  0  0  0  0  0  0  0  0  0  0
   -3.3079   18.9026   10.6247 C   0  0  0  0  0  0  0  0  0  0  0  0
   -1.9402   18.4865   10.9010 N   0  0  0  0  0  0  0  0  0  0  0  0
  -14.6472   21.8114    7.5786 N   0  0  0  0  0  0  0  0  0  0  0  0
  -10.8660   19.1901    6.0249 C   0  0  0  0  0  0  0  0  0  0  0  0
  -10.5476   19.8340    5.2199 O   0  0  0  0  0  0  0  0  0  0  0  0
  -12.0039   19.0738    7.0094 C   0  0  2  0  0  0  0  0  0  0  0  0
  -12.8264   18.0213    6.6965 O   0  0  0  0  0  0  0  0  0  0  0  0
  -12.8394   20.3416    6.8712 C   0  0  0  0  0  0  0  0  0  0  0  0
  -13.9828   20.5359    7.8835 C   0  0  0  0  0  0  0  0  0  0  0  0
  1  2  1  6  0  0  0
  1  3  1  0  0  0  0
  3  4  1  6  0  0  0
  3  5  1  0  0  0  0
  5  6  1  1  0  0  0
  5  7  1  0  0  0  0
  7  8  1  6  0  0  0
  9  7  1  0  0  0  0
  9 10  1  0  0  0  0
  9 11  1  1  0  0  0
 10  1  1  0  0  0  0
 11 12  1  0  0  0  0
 13 14  1  1  0  0  0
 13 15  1  0  0  0  0
 13 22  1  0  0  0  0
 14 32  1  0  0  0  0
 15 16  1  1  0  0  0
 15 17  1  0  0  0  0
 16 23  1  0  0  0  0
 17 18  1  1  0  0  0
 17 19  1  0  0  0  0
 19  2  1  6  0  0  0
 19 20  1  0  0  0  0
 20 21  1  6  0  0  0
 20 22  1  0  0  0  0
 23 24  1  0  0  0  0
 24 25  1  0  0  0  0
 25 26  1  0  0  0  0
 26 27  1  0  0  0  0
 27 28  1  0  0  0  0
 28 29  1  0  0  0  0
 29 30  1  0  0  0  0
 31 37  1  0  0  0  0
 32 33  2  0  0  0  0
 34 32  1  6  0  0  0
 34 35  1  0  0  0  0
 34 36  1  0  0  0  0
 36 37  1  0  0  0  0
M  END
>  <CHROM.1>
-147.32485928,-170.32812941,158.31204407,56.01204998,179.24793609,67.67371236
60.51789182,78.63148871,80.09528744,95.48243993,-66.55726084,-175.22946899
-72.52646409,-173.53558434,179.65949456,-6.97808877,16.61053069,6.32031193
0.83341223,0.26126844,-2.35448883

>  <Name>
1o9m_lig

>  <RI>
0

>  <Rbt.Current_Directory>
/home/itssahil/PROJECTS/Mol_Feturizer/New_Systems/rnas/1o9m

>  <Rbt.Executable>
rbdock ($Id: //depot/dev/client3/rdock/2013.1/src/exe/rbdock.cxx#4 $)

>  <Rbt.Library>
libRbt.so (2013.1, Build901 2013/11/27)

>  <Rbt.Parameter_File>
/export/apps/rDock/src/rDock_2013.1_src/data/scripts/dock_solv.prm

>  <Rbt.Receptor>
prm/pocket_docking_2.prm

>  <SCORE>
-14.2726

>  <SCORE.INTER>
-9.31266

>  <SCORE.INTER.CONST>
1

>  <SCORE.INTER.POLAR>
-0.959166

>  <SCORE.INTER.ROT>
15

>  <SCORE.INTER.SOLV>
17.1962

>  <SCORE.INTER.VDW>
-22.3433

>  <SCORE.INTER.norm>
-0.251693

>  <SCORE.INTRA>
-5.04249

>  <SCORE.INTRA.DIHEDRAL>
-11.0273

>  <SCORE.INTRA.DIHEDRAL.0>
21.5987

>  <SCORE.INTRA.POLAR>
0

>  <SCORE.INTRA.POLAR.0>
0

>  <SCORE.INTRA.REPUL>
0

>  <SCORE.INTRA.REPUL.0>
0

>  <SCORE.INTRA.SOLV>
-0.014507

>  <SCORE.INTRA.SOLV.lig_0>
-108.715

>  <SCORE.INTRA.VDW>
0.478397

>  <SCORE.INTRA.VDW.0>
-3.9485

>  <SCORE.INTRA.norm>
-0.136283

>  <SCORE.RESTR>
0.0825169

>  <SCORE.RESTR.CAVITY>
0.0825169

>  <SCORE.RESTR.norm>
0.00223019

>  <SCORE.SYSTEM>
0

>  <SCORE.SYSTEM.CONST>
0

>  <SCORE.SYSTEM.DIHEDRAL>
0

>  <SCORE.SYSTEM.SOLV>
0

>  <SCORE.SYSTEM.norm>
0

>  <SCORE.heavy>
37

>  <SCORE.norm>
-0.385747

>  <RMSD>
0.764

$$$$
1o9m_lig
 OpenBabel11021811403D
libRbt.so/2013.1/901 2013/11/27
 37 38  0  0  0  0  0  0  0  0999 V2000
   -4.5917   14.2296    4.9817 C   0  0  2  0  0  0  0  0  0  0  0  0
   -5.5634   15.1138    4.3442 O   0  0  0  0  0  0  0  0  0  0  0  0
   -3.2498   14.3906    4.1769 C   0  0  2  0  0  0  0  0  0  0  0  0
   -2.7649   15.7820    4.1758 N   0  0  0  0  0  0  0  0  0  0  0  0
   -3.4679   13.8746    2.7038 C   0  0  1  0  0  0  0  0  0  0  0  0
   -2.2594   14.0092    1.9510 O   0  0  0  0  0  0  0  0  0  0  0  0
   -3.9578   12.3906    2.7763 C   0  0  2  0  0  0  0  0  0  0  0  0
   -4.2060   11.8215    1.4804 O   0  0  0  0  0  0  0  0  0  0  0  0
   -5.2483   12.2824    3.6255 C   0  0  2  0  0  0  0  0  0  0  0  0
   -5.0474   12.8357    4.9343 O   0  0  0  0  0  0  0  0  0  0  0  0
   -5.7101   10.8542    3.7578 C   0  0  0  0  0  0  0  0  0  0  0  0
   -6.1552   10.3837    2.5455 N   0  0  0  0  0  0  0  0  0  0  0  0
   -9.0313   17.4161    5.5661 C   0  0  1  0  0  0  0  0  0  0  0  0
  -10.3173   17.7639    6.2330 N   0  0  0  0  0  0  0  0  0  0  0  0
   -8.0061   17.0555    6.6326 C   0  0  2  0  0  0  0  0  0  0  0  0
   -7.8861   18.1446    7.4984 O   0  0  0  0  0  0  0  0  0  0  0  0
   -6.6333   16.7008    5.9790 C   0  0  1  0  0  0  0  0  0  0  0  0
   -5.6653   16.3359    7.0098 O   0  0  0  0  0  0  0  0  0  0  0  0
   -6.8152   15.4737    4.9956 C   0  0  1  0  0  0  0  0  0  0  0  0
   -7.8238   15.8289    3.9138 C   0  0  1  0  0  0  0  0  0  0  0  0
   -7.9646   14.6944    3.0134 N   0  0  0  0  0  0  0  0  0  0  0  0
   -9.1831   16.2006    4.5645 C   0  0  0  0  0  0  0  0  0  0  0  0
   -7.6077   19.4928    7.9359 C   0  0  0  0  0  0  0  0  0  0  0  0
   -7.9365   19.6164    9.4060 C   0  0  0  0  0  0  0  0  0  0  0  0
   -6.9078   20.3210   10.1987 N   0  0  0  0  0  0  0  0  0  0  0  0
   -5.6030   20.7412   10.7585 C   0  0  0  0  0  0  0  0  0  0  0  0
   -5.2140   19.3974   11.3877 C   0  0  0  0  0  0  0  0  0  0  0  0
   -3.8675   19.4677   12.1322 C   0  0  0  0  0  0  0  0  0  0  0  0
   -2.7090   19.6465   11.1558 C   0  0  0  0  0  0  0  0  0  0  0  0
   -1.4416   19.4257   11.8378 N   0  0  0  0  0  0  0  0  0  0  0  0
  -14.1599   21.9127    8.3881 N   0  0  0  0  0  0  0  0  0  0  0  0
  -10.7716   19.4514    5.9284 C   0  0  0  0  0  0  0  0  0  0  0  0
  -10.3410   20.2679    5.3699 O   0  0  0  0  0  0  0  0  0  0  0  0
  -11.9693   19.1760    6.8043 C   0  0  2  0  0  0  0  0  0  0  0  0
  -12.9349   18.4805    6.1217 O   0  0  0  0  0  0  0  0  0  0  0  0
  -12.5732   20.5286    7.1654 C   0  0  0  0  0  0  0  0  0  0  0  0
  -13.6541   20.5382    8.2615 C   0  0  0  0  0  0  0  0  0  0  0  0
  1  2  1  6  0  0  0
  1  3  1  0  0  0  0
  3  4  1  6  0  0  0
  3  5  1  0  0  0  0
  5  6  1  6  0  0  0
  5  7  1  0  0  0  0
  7  8  1  6  0  0  0
  9  7  1  0  0  0  0
  9 10  1  0  0  0  0
  9 11  1  1  0  0  0
 10  1  1  0  0  0  0
 11 12  1  0  0  0  0
 13 14  1  1  0  0  0
 13 15  1  0  0  0  0
 13 22  1  0  0  0  0
 14 32  1  0  0  0  0
 15 16  1  1  0  0  0
 15 17  1  0  0  0  0
 16 23  1  0  0  0  0
 17 18  1  1  0  0  0
 17 19  1  0  0  0  0
 19  2  1  6  0  0  0
 19 20  1  0  0  0  0
 20 21  1  6  0  0  0
 20 22  1  0  0  0  0
 23 24  1  0  0  0  0
 24 25  1  0  0  0  0
 25 26  1  0  0  0  0
 26 27  1  0  0  0  0
 27 28  1  0  0  0  0
 28 29  1  0  0  0  0
 29 30  1  0  0  0  0
 31 37  1  0  0  0  0
 32 33  2  0  0  0  0
 34 32  1  6  0  0  0
 34 35  1  0  0  0  0
 34 36  1  0  0  0  0
 36 37  1  0  0  0  0
M  END
>  <CHROM.1>
-165.08902246,-68.60671643,116.98991361,-61.21319570,177.64910613,84.66486357
134.79883117,-47.19298464,-61.60440264,-178.20604712,-68.98970940,-167.91526105
-78.13181414,-169.11425220,-176.27171716,-6.99588867,16.80457768,6.19911228
-1.00588558,-0.30451002,0.83271727

>  <Name>
1o9m_lig

>  <RI>
0

>  <Rbt.Current_Directory>
/home/itssahil/PROJECTS/Mol_Feturizer/New_Systems/rnas/1o9m

>  <Rbt.Executable>
rbdock ($Id: //depot/dev/client3/rdock/2013.1/src/exe/rbdock.cxx#4 $)

>  <Rbt.Library>
libRbt.so (2013.1, Build901 2013/11/27)

>  <Rbt.Parameter_File>
/export/apps/rDock/src/rDock_2013.1_src/data/scripts/dock_solv.prm

>  <Rbt.Receptor>
prm/pocket_docking_2.prm

>  <SCORE>
-16.869

>  <SCORE.INTER>
-12.5366

>  <SCORE.INTER.CONST>
1

>  <SCORE.INTER.POLAR>
-0.959166

>  <SCORE.INTER.ROT>
15

>  <SCORE.INTER.SOLV>
18.505

>  <SCORE.INTER.VDW>
-24.9288

>  <SCORE.INTER.norm>
-0.338827

>  <SCORE.INTRA>
-4.50821

>  <SCORE.INTRA.DIHEDRAL>
-9.24105

>  <SCORE.INTRA.DIHEDRAL.0>
21.5987

>  <SCORE.INTRA.POLAR>
0

>  <SCORE.INTRA.POLAR.0>
0

>  <SCORE.INTRA.REPUL>
0

>  <SCORE.INTRA.REPUL.0>
0

>  <SCORE.INTRA.SOLV>
0.118286

>  <SCORE.INTRA.SOLV.lig_0>
-108.715

>  <SCORE.INTRA.VDW>
0.0531682

>  <SCORE.INTRA.VDW.0>
-3.9485

>  <SCORE.INTRA.norm>
-0.121844

>  <SCORE.RESTR>
0.175855

>  <SCORE.RESTR.CAVITY>
0.175855

>  <SCORE.RESTR.norm>
0.00475284

>  <SCORE.SYSTEM>
0

>  <SCORE.SYSTEM.CONST>
0

>  <SCORE.SYSTEM.DIHEDRAL>
0

>  <SCORE.SYSTEM.SOLV>
0

>  <SCORE.SYSTEM.norm>
0

>  <SCORE.heavy>
37

>  <SCORE.norm>
-0.455918

>  <RMSD>
0.828

$$$$
1o9m_lig
 OpenBabel11021811403D
libRbt.so/2013.1/901 2013/11/27
 37 38  0  0  0  0  0  0  0  0999 V2000
   -4.7130   14.0527    5.0056 C   0  0  2  0  0  0  0  0  0  0  0  0
   -5.6512   14.9683    4.3626 O   0  0  0  0  0  0  0  0  0  0  0  0
   -3.3405   14.2247    4.2565 C   0  0  2  0  0  0  0  0  0  0  0  0
   -2.8418   15.6097    4.3193 N   0  0  0  0  0  0  0  0  0  0  0  0
   -3.5091   13.7597    2.7601 C   0  0  1  0  0  0  0  0  0  0  0  0
   -2.2721   13.9049    2.0571 O   0  0  0  0  0  0  0  0  0  0  0  0
   -4.0165   12.2798    2.7653 C   0  0  2  0  0  0  0  0  0  0  0  0
   -4.2223   11.7562    1.4430 O   0  0  0  0  0  0  0  0  0  0  0  0
   -5.3387   12.1586    3.5625 C   0  0  2  0  0  0  0  0  0  0  0  0
   -5.1809   12.6665    4.8954 O   0  0  0  0  0  0  0  0  0  0  0  0
   -5.8197   10.7322    3.6304 C   0  0  0  0  0  0  0  0  0  0  0  0
   -6.2955   10.3316    2.4046 N   0  0  0  0  0  0  0  0  0  0  0  0
   -8.9959   17.3889    5.6949 C   0  0  1  0  0  0  0  0  0  0  0  0
  -10.2854   17.7610    6.3415 N   0  0  0  0  0  0  0  0  0  0  0  0
   -8.0581   16.8276    6.7551 C   0  0  2  0  0  0  0  0  0  0  0  0
   -7.9022   17.7978    7.7474 O   0  0  0  0  0  0  0  0  0  0  0  0
   -6.6833   16.4400    6.1247 C   0  0  1  0  0  0  0  0  0  0  0  0
   -5.8010   15.8832    7.1464 O   0  0  0  0  0  0  0  0  0  0  0  0
   -6.9050   15.3516    4.9968 C   0  0  1  0  0  0  0  0  0  0  0  0
   -7.8258   15.9079    3.9214 C   0  0  1  0  0  0  0  0  0  0  0  0
   -8.0039   14.8984    2.8886 N   0  0  0  0  0  0  0  0  0  0  0  0
   -9.1857   16.3116    4.5516 C   0  0  0  0  0  0  0  0  0  0  0  0
   -7.3681   18.4514    8.9196 C   0  0  0  0  0  0  0  0  0  0  0  0
   -5.9446   18.8791    8.6453 C   0  0  0  0  0  0  0  0  0  0  0  0
   -5.3227   19.6498    9.7417 N   0  0  0  0  0  0  0  0  0  0  0  0
   -4.5959   20.7011   10.4894 C   0  0  0  0  0  0  0  0  0  0  0  0
   -4.7699   20.1047   11.8919 C   0  0  0  0  0  0  0  0  0  0  0  0
   -3.8191   18.9201   12.1463 C   0  0  0  0  0  0  0  0  0  0  0  0
   -2.4083   19.4066   12.4628 C   0  0  0  0  0  0  0  0  0  0  0  0
   -1.5214   18.2700   12.6674 N   0  0  0  0  0  0  0  0  0  0  0  0
  -14.6094   20.4960    7.5411 N   0  0  0  0  0  0  0  0  0  0  0  0
  -10.4691   19.5215    6.4587 C   0  0  0  0  0  0  0  0  0  0  0  0
   -9.8740   20.3715    6.1631 O   0  0  0  0  0  0  0  0  0  0  0  0
  -11.7793   19.2323    7.1497 C   0  0  2  0  0  0  0  0  0  0  0  0
  -12.7670   18.9445    6.2421 O   0  0  0  0  0  0  0  0  0  0  0  0
  -12.1958   20.5144    7.8619 C   0  0  0  0  0  0  0  0  0  0  0  0
  -13.5615   20.5041    8.5722 C   0  0  0  0  0  0  0  0  0  0  0  0
  1  2  1  6  0  0  0
  1  3  1  0  0  0  0
  3  4  1  6  0  0  0
  3  5  1  0  0  0  0
  5  6  1  6  0  0  0
  5  7  1  0  0  0  0
  7  8  1  6  0  0  0
  9  7  1  0  0  0  0
  9 10  1  0  0  0  0
  9 11  1  1  0  0  0
 10  1  1  0  0  0  0
 11 12  1  0  0  0  0
 13 14  1  1  0  0  0
 13 15  1  0  0  0  0
 13 22  1  0  0  0  0
 14 32  1  0  0  0  0
 15 16  1  1  0  0  0
 15 17  1  0  0  0  0
 16 23  1  0  0  0  0
 17 18  1  1  0  0  0
 17 19  1  0  0  0  0
 19  2  1  6  0  0  0
 19 20  1  0  0  0  0
 20 21  1  6  0  0  0
 20 22  1  0  0  0  0
 23 24  1  0  0  0  0
 24 25  1  0  0  0  0
 25 26  1  0  0  0  0
 26 27  1  0  0  0  0
 27 28  1  0  0  0  0
 28 29  1  0  0  0  0
 29 30  1  0  0  0  0
 31 37  1  0  0  0  0
 32 33  2  0  0  0  0
 34 32  1  6  0  0  0
 34 35  1  0  0  0  0
 34 36  1  0  0  0  0
 36 37  1  0  0  0  0
M  END
>  <CHROM.1>
-163.26457763,-72.04208850,107.53617635,-170.30346099,66.90742179,77.73473415
175.75359573,-130.49300223,178.09645596,76.82234579,78.23162779,-178.63005999
-80.59735907,176.09278274,-70.92386173,-6.85065171,16.61397621,6.33162381
-1.05781989,-0.32408906,0.85911164

>  <Name>
1o9m_lig

>  <RI>
0

>  <Rbt.Current_Directory>
/home/itssahil/PROJECTS/Mol_Feturizer/New_Systems/rnas/1o9m

>  <Rbt.Executable>
rbdock ($Id: //depot/dev/client3/rdock/2013.1/src/exe/rbdock.cxx#4 $)

>  <Rbt.Library>
libRbt.so (2013.1, Build901 2013/11/27)

>  <Rbt.Parameter_File>
/export/apps/rDock/src/rDock_2013.1_src/data/scripts/dock_solv.prm

>  <Rbt.Receptor>
prm/pocket_docking_2.prm

>  <SCORE>
-17.5031

>  <SCORE.INTER>
-13.0785

>  <SCORE.INTER.CONST>
1

>  <SCORE.INTER.POLAR>
-0.959166

>  <SCORE.INTER.ROT>
15

>  <SCORE.INTER.SOLV>
15.8017

>  <SCORE.INTER.VDW>
-24.389

>  <SCORE.INTER.norm>
-0.353473

>  <SCORE.INTRA>
-4.61886

>  <SCORE.INTRA.DIHEDRAL>
-11.5204

>  <SCORE.INTRA.DIHEDRAL.0>
21.5987

>  <SCORE.INTRA.POLAR>
0

>  <SCORE.INTRA.POLAR.0>
0

>  <SCORE.INTRA.REPUL>
0

>  <SCORE.INTRA.REPUL.0>
0

>  <SCORE.INTRA.SOLV>
2.15476

>  <SCORE.INTRA.SOLV.lig_0>
-108.715

>  <SCORE.INTRA.VDW>
0.0639728

>  <SCORE.INTRA.VDW.0>
-3.9485

>  <SCORE.INTRA.norm>
-0.124834

>  <SCORE.RESTR>
0.194235

>  <SCORE.RESTR.CAVITY>
0.194235

>  <SCORE.RESTR.norm>
0.00524959

>  <SCORE.SYSTEM>
0

>  <SCORE.SYSTEM.CONST>
0

>  <SCORE.SYSTEM.DIHEDRAL>
0

>  <SCORE.SYSTEM.SOLV>
0

>  <SCORE.SYSTEM.norm>
0

>  <SCORE.heavy>
37

>  <SCORE.norm>
-0.473057

>  <RMSD>
0.857

$$$$
1o9m_lig
 OpenBabel11021811403D
libRbt.so/2013.1/901 2013/11/27
 37 38  0  0  0  0  0  0  0  0999 V2000
   -4.9634   14.0199    5.4269 C   0  0  2  0  0  0  0  0  0  0  0  0
   -5.7865   15.0214    4.7549 O   0  0  0  0  0  0  0  0  0  0  0  0
   -3.4694   14.3638    5.0745 C   0  0  2  0  0  0  0  0  0  0  0  0
   -3.0938   15.7213    5.5069 N   0  0  0  0  0  0  0  0  0  0  0  0
   -3.2542   14.1930    3.5226 C   0  0  1  0  0  0  0  0  0  0  0  0
   -1.9006   14.4988    3.1767 O   0  0  0  0  0  0  0  0  0  0  0  0
   -3.6475   12.7291    3.1356 C   0  0  2  0  0  0  0  0  0  0  0  0
   -3.5049   12.4664    1.7301 O   0  0  0  0  0  0  0  0  0  0  0  0
   -5.1073   12.4268    3.5552 C   0  0  2  0  0  0  0  0  0  0  0  0
   -5.2979   12.6710    4.9565 O   0  0  0  0  0  0  0  0  0  0  0  0
   -5.4932   11.0038    3.2441 C   0  0  0  0  0  0  0  0  0  0  0  0
   -6.8568   10.8518    3.3262 N   0  0  0  0  0  0  0  0  0  0  0  0
   -9.1949   17.4353    5.9281 C   0  0  1  0  0  0  0  0  0  0  0  0
  -10.5507   17.7931    6.4315 N   0  0  0  0  0  0  0  0  0  0  0  0
   -8.4477   16.6825    7.0205 C   0  0  2  0  0  0  0  0  0  0  0  0
   -8.4032   17.5000    8.1519 O   0  0  0  0  0  0  0  0  0  0  0  0
   -7.0107   16.3022    6.5429 C   0  0  1  0  0  0  0  0  0  0  0  0
   -6.3123   15.5623    7.5905 O   0  0  0  0  0  0  0  0  0  0  0  0
   -7.1046   15.3898    5.2528 C   0  0  1  0  0  0  0  0  0  0  0  0
   -7.8332   16.1386    4.1472 C   0  0  1  0  0  0  0  0  0  0  0  0
   -7.8951   15.2889    2.9675 N   0  0  0  0  0  0  0  0  0  0  0  0
   -9.2547   16.5340    4.6289 C   0  0  0  0  0  0  0  0  0  0  0  0
   -8.0847   18.6430    8.9757 C   0  0  0  0  0  0  0  0  0  0  0  0
   -6.5829   18.7797    9.0775 C   0  0  0  0  0  0  0  0  0  0  0  0
   -6.1329   19.8081   10.0380 N   0  0  0  0  0  0  0  0  0  0  0  0
   -5.4621   20.9902   10.6257 C   0  0  0  0  0  0  0  0  0  0  0  0
   -4.2276   20.9920    9.7151 C   0  0  0  0  0  0  0  0  0  0  0  0
   -3.3537   19.7389    9.9112 C   0  0  0  0  0  0  0  0  0  0  0  0
   -2.6590   19.7611   11.2692 C   0  0  0  0  0  0  0  0  0  0  0  0
   -1.7021   18.6673   11.3594 N   0  0  0  0  0  0  0  0  0  0  0  0
  -14.0196   19.6002    8.8872 N   0  0  0  0  0  0  0  0  0  0  0  0
  -11.2467   19.1455    5.5186 C   0  0  0  0  0  0  0  0  0  0  0  0
  -10.9215   19.7516    4.6874 O   0  0  0  0  0  0  0  0  0  0  0  0
  -12.4285   19.0271    6.4496 C   0  0  2  0  0  0  0  0  0  0  0  0
  -13.5648   18.6720    5.7678 O   0  0  0  0  0  0  0  0  0  0  0  0
  -12.6774   20.4162    7.0267 C   0  0  0  0  0  0  0  0  0  0  0  0
  -13.9785   20.6157    7.8250 C   0  0  0  0  0  0  0  0  0  0  0  0
  1  2  1  6  0  0  0
  1  3  1  0  0  0  0
  3  4  1  6  0  0  0
  3  5  1  0  0  0  0
  5  6  1  1  0  0  0
  5  7  1  0  0  0  0
  7  8  1  6  0  0  0
  9  7  1  0  0  0  0
  9 10  1  0  0  0  0
  9 11  1  1  0  0  0
 10  1  1  0  0  0  0
 11 12  1  0  0  0  0
 13 14  1  1  0  0  0
 13 15  1  0  0  0  0
 13 22  1  0  0  0  0
 14 32  1  0  0  0  0
 15 16  1  1  0  0  0
 15 17  1  0  0  0  0
 16 23  1  0  0  0  0
 17 18  1  1  0  0  0
 17 19  1  0  0  0  0
 19  2  1  6  0  0  0
 19 20  1  0  0  0  0
 20 21  1  6  0  0  0
 20 22  1  0  0  0  0
 23 24  1  0  0  0  0
 24 25  1  0  0  0  0
 25 26  1  0  0  0  0
 26 27  1  0  0  0  0
 27 28  1  0  0  0  0
 28 29  1  0  0  0  0
 29 30  1  0  0  0  0
 31 37  1  0  0  0  0
 32 33  2  0  0  0  0
 34 32  1  6  0  0  0
 34 35  1  0  0  0  0
 34 36  1  0  0  0  0
 36 37  1  0  0  0  0
M  END
>  <CHROM.1>
-153.86263260,-165.76006287,158.68418001,-62.22107042,-60.62335850,74.70214362
-172.42686405,-124.68823292,-30.01282954,-64.74698913,-69.74857930,-172.26785988
-116.08546855,169.95414428,54.63967399,-7.05635795,16.72631459,6.29504246
0.82309735,0.24913119,-2.35942258

>  <Name>
1o9m_lig

>  <RI>
0

>  <Rbt.Current_Directory>
/home/itssahil/PROJECTS/Mol_Feturizer/New_Systems/rnas/1o9m

>  <Rbt.Executable>
rbdock ($Id: //depot/dev/client3/rdock/2013.1/src/exe/rbdock.cxx#4 $)

>  <Rbt.Library>
libRbt.so (2013.1, Build901 2013/11/27)

>  <Rbt.Parameter_File>
/export/apps/rDock/src/rDock_2013.1_src/data/scripts/dock_solv.prm

>  <Rbt.Receptor>
prm/pocket_docking_2.prm

>  <SCORE>
-13.4959

>  <SCORE.INTER>
-9.31453

>  <SCORE.INTER.CONST>
1

>  <SCORE.INTER.POLAR>
-1.23884

>  <SCORE.INTER.ROT>
15

>  <SCORE.INTER.SOLV>
21.5206

>  <SCORE.INTER.VDW>
-22.8538

>  <SCORE.INTER.norm>
-0.251744

>  <SCORE.INTRA>
-4.26142

>  <SCORE.INTRA.DIHEDRAL>
-11.0911

>  <SCORE.INTRA.DIHEDRAL.0>
21.5987

>  <SCORE.INTRA.POLAR>
0

>  <SCORE.INTRA.POLAR.0>
0

>  <SCORE.INTRA.REPUL>
0

>  <SCORE.INTRA.REPUL.0>
0

>  <SCORE.INTRA.SOLV>
0.869687

>  <SCORE.INTRA.SOLV.lig_0>
-108.715

>  <SCORE.INTRA.VDW>
0.849302

>  <SCORE.INTRA.VDW.0>
-3.9485

>  <SCORE.INTRA.norm>
-0.115173

>  <SCORE.RESTR>
0.0800445

>  <SCORE.RESTR.CAVITY>
0.0800445

>  <SCORE.RESTR.norm>
0.00216336

>  <SCORE.SYSTEM>
0

>  <SCORE.SYSTEM.CONST>
0

>  <SCORE.SYSTEM.DIHEDRAL>
0

>  <SCORE.SYSTEM.SOLV>
0

>  <SCORE.SYSTEM.norm>
0

>  <SCORE.heavy>
37

>  <SCORE.norm>
-0.364754

>  <RMSD>
0.860

$$$$
1o9m_lig
 OpenBabel11021811403D
libRbt.so/2013.1/901 2013/11/27
 37 38  0  0  0  0  0  0  0  0999 V2000
   -5.1110   13.8129    5.2168 C   0  0  2  0  0  0  0  0  0  0  0  0
   -5.8212   14.9723    4.6840 O   0  0  0  0  0  0  0  0  0  0  0  0
   -3.5765   14.1291    5.0766 C   0  0  2  0  0  0  0  0  0  0  0  0
   -3.1918   15.3530    5.8011 N   0  0  0  0  0  0  0  0  0  0  0  0
   -3.2131   14.2482    3.5476 C   0  0  1  0  0  0  0  0  0  0  0  0
   -1.8203   14.5342    3.3935 O   0  0  0  0  0  0  0  0  0  0  0  0
   -3.6242   12.9124    2.8449 C   0  0  2  0  0  0  0  0  0  0  0  0
   -3.3514   12.9176    1.4340 O   0  0  0  0  0  0  0  0  0  0  0  0
   -5.1299   12.6220    3.0620 C   0  0  2  0  0  0  0  0  0  0  0  0
   -5.4506   12.6023    4.4606 O   0  0  0  0  0  0  0  0  0  0  0  0
   -5.5396   11.3112    2.4420 C   0  0  0  0  0  0  0  0  0  0  0  0
   -5.3331   10.2806    3.3277 N   0  0  0  0  0  0  0  0  0  0  0  0
   -8.3242   17.9153    6.6573 C   0  0  1  0  0  0  0  0  0  0  0  0
   -9.4904   18.5119    7.3670 N   0  0  0  0  0  0  0  0  0  0  0  0
   -7.7641   16.7784    7.5012 C   0  0  2  0  0  0  0  0  0  0  0  0
   -7.4242   17.2991    8.7516 O   0  0  0  0  0  0  0  0  0  0  0  0
   -6.5253   16.1333    6.8035 C   0  0  1  0  0  0  0  0  0  0  0  0
   -6.0107   15.0311    7.6114 O   0  0  0  0  0  0  0  0  0  0  0  0
   -6.9485   15.5699    5.3860 C   0  0  1  0  0  0  0  0  0  0  0  0
   -7.4926   16.7007    4.5264 C   0  0  1  0  0  0  0  0  0  0  0  0
   -7.8612   16.1645    3.2247 N   0  0  0  0  0  0  0  0  0  0  0  0
   -8.7122   17.3550    5.2292 C   0  0  0  0  0  0  0  0  0  0  0  0
   -7.5511   18.0581    9.9741 C   0  0  0  0  0  0  0  0  0  0  0  0
   -7.6155   19.5309    9.6405 C   0  0  0  0  0  0  0  0  0  0  0  0
   -6.6178   20.3564   10.3519 N   0  0  0  0  0  0  0  0  0  0  0  0
   -5.3633   20.8063   10.9971 C   0  0  0  0  0  0  0  0  0  0  0  0
   -4.9461   19.4532   11.5869 C   0  0  0  0  0  0  0  0  0  0  0  0
   -3.6166   19.5365   12.3601 C   0  0  0  0  0  0  0  0  0  0  0  0
   -2.4287   19.5969   11.4047 C   0  0  0  0  0  0  0  0  0  0  0  0
   -2.4364   18.4380   10.5232 N   0  0  0  0  0  0  0  0  0  0  0  0
  -14.3401   22.1928    7.4849 N   0  0  0  0  0  0  0  0  0  0  0  0
  -10.4628   19.5239    6.2821 C   0  0  0  0  0  0  0  0  0  0  0  0
  -10.4093   19.7931    5.2387 O   0  0  0  0  0  0  0  0  0  0  0  0
  -11.3243   19.8046    7.4891 C   0  0  2  0  0  0  0  0  0  0  0  0
  -11.9591   18.6681    7.9219 O   0  0  0  0  0  0  0  0  0  0  0  0
  -12.4130   20.7728    7.0395 C   0  0  0  0  0  0  0  0  0  0  0  0
  -13.3183   21.3610    8.1369 C   0  0  0  0  0  0  0  0  0  0  0  0
  1  2  1  6  0  0  0
  1  3  1  0  0  0  0
  3  4  1  1  0  0  0
  3  5  1  0  0  0  0
  5  6  1  1  0  0  0
  5  7  1  0  0  0  0
  7  8  1  6  0  0  0
  9  7  1  0  0  0  0
  9 10  1  0  0  0  0
  9 11  1  1  0  0  0
 10  1  1  0  0  0  0
 11 12  1  0  0  0  0
 13 14  1  1  0  0  0
 13 15  1  0  0  0  0
 13 22  1  0  0  0  0
 14 32  1  0  0  0  0
 15 16  1  1  0  0  0
 15 17  1  0  0  0  0
 16 23  1  0  0  0  0
 17 18  1  1  0  0  0
 17 19  1  0  0  0  0
 19  2  1  6  0  0  0
 19 20  1  0  0  0  0
 20 21  1  6  0  0  0
 20 22  1  0  0  0  0
 23 24  1  0  0  0  0
 24 25  1  0  0  0  0
 25 26  1  0  0  0  0
 26 27  1  0  0  0  0
 27 28  1  0  0  0  0
 28 29  1  0  0  0  0
 29 30  1  0  0  0  0
 31 37  1  0  0  0  0
 32 33  2  0  0  0  0
 34 32  1  6  0  0  0
 34 35  1  0  0  0  0
 34 36  1  0  0  0  0
 36 37  1  0  0  0  0
M  END
>  <CHROM.1>
-134.04423991,87.15525231,-164.42349237,45.28042398,-63.69975388,62.11913465
-126.04908095,36.30712326,-35.55880842,179.70382221,-76.54890184,-57.16177970
-65.43089144,-172.23292377,-176.52323892,-6.81347770,16.87697620,6.60957957
0.95939760,0.37078838,-2.26166620

>  <Name>
1o9m_lig

>  <RI>
0

>  <Rbt.Current_Directory>
/home/itssahil/PROJECTS/Mol_Feturizer/New_Systems/rnas/1o9m

>  <Rbt.Executable>
rbdock ($Id: //depot/dev/client3/rdock/2013.1/src/exe/rbdock.cxx#4 $)

>  <Rbt.Library>
libRbt.so (2013.1, Build901 2013/11/27)

>  <Rbt.Parameter_File>
/export/apps/rDock/src/rDock_2013.1_src/data/scripts/dock_solv.prm

>  <Rbt.Receptor>
prm/pocket_docking_2.prm

>  <SCORE>
-12.7221

>  <SCORE.INTER>
-13.9239

>  <SCORE.INTER.CONST>
1

>  <SCORE.INTER.POLAR>
-1.81944

>  <SCORE.INTER.ROT>
15

>  <SCORE.INTER.SOLV>
19.3093

>  <SCORE.INTER.VDW>
-23.2542

>  <SCORE.INTER.norm>
-0.376322

>  <SCORE.INTRA>
1.07875

>  <SCORE.INTRA.DIHEDRAL>
-3.38348

>  <SCORE.INTRA.DIHEDRAL.0>
21.5987

>  <SCORE.INTRA.POLAR>
0

>  <SCORE.INTRA.POLAR.0>
0

>  <SCORE.INTRA.REPUL>
0

>  <SCORE.INTRA.REPUL.0>
0

>  <SCORE.INTRA.SOLV>
1.88448

>  <SCORE.INTRA.SOLV.lig_0>
-108.715

>  <SCORE.INTRA.VDW>
1.82825

>  <SCORE.INTRA.VDW.0>
-3.9485

>  <SCORE.INTRA.norm>
0.0291555

>  <SCORE.RESTR>
0.123081

>  <SCORE.RESTR.CAVITY>
0.123081

>  <SCORE.RESTR.norm>
0.00332651

>  <SCORE.SYSTEM>
0

>  <SCORE.SYSTEM.CONST>
0

>  <SCORE.SYSTEM.DIHEDRAL>
0

>  <SCORE.SYSTEM.SOLV>
0

>  <SCORE.SYSTEM.norm>
0

>  <SCORE.heavy>
37

>  <SCORE.norm>
-0.34384

>  <RMSD>
0.898

$$$$
1o9m_lig
 OpenBabel11021811403D
libRbt.so/2013.1/901 2013/11/27
 37 38  0  0  0  0  0  0  0  0999 V2000
   -4.6746   14.1382    5.7273 C   0  0  2  0  0  0  0  0  0  0  0  0
   -5.3392   15.3323    5.2129 O   0  0  0  0  0  0  0  0  0  0  0  0
   -3.1695   14.2408    5.2816 C   0  0  2  0  0  0  0  0  0  0  0  0
   -2.5192   15.4597    5.7937 N   0  0  0  0  0  0  0  0  0  0  0  0
   -3.0938   14.1869    3.7083 C   0  0  1  0  0  0  0  0  0  0  0  0
   -1.7330   14.2768    3.2776 O   0  0  0  0  0  0  0  0  0  0  0  0
   -3.7784   12.8626    3.2340 C   0  0  2  0  0  0  0  0  0  0  0  0
   -3.7811   12.7174    1.8044 O   0  0  0  0  0  0  0  0  0  0  0  0
   -5.2377   12.7880    3.7470 C   0  0  2  0  0  0  0  0  0  0  0  0
   -5.2856   12.9241    5.1748 O   0  0  0  0  0  0  0  0  0  0  0  0
   -5.9023   11.4950    3.3508 C   0  0  0  0  0  0  0  0  0  0  0  0
   -5.3397   10.4423    4.0324 N   0  0  0  0  0  0  0  0  0  0  0  0
   -8.3855   18.0223    6.7310 C   0  0  1  0  0  0  0  0  0  0  0  0
   -9.6803   18.4959    7.2955 N   0  0  0  0  0  0  0  0  0  0  0  0
   -7.7520   17.0419    7.7088 C   0  0  2  0  0  0  0  0  0  0  0  0
   -7.5983   17.6956    8.9332 O   0  0  0  0  0  0  0  0  0  0  0  0
   -6.3799   16.5318    7.1659 C   0  0  1  0  0  0  0  0  0  0  0  0
   -5.7930   15.5765    8.1014 O   0  0  0  0  0  0  0  0  0  0  0  0
   -6.5953   15.8118    5.7726 C   0  0  1  0  0  0  0  0  0  0  0  0
   -7.2107   16.7874    4.7810 C   0  0  1  0  0  0  0  0  0  0  0  0
   -7.3860   16.1106    3.5048 N   0  0  0  0  0  0  0  0  0  0  0  0
   -8.5655   17.3097    5.3297 C   0  0  0  0  0  0  0  0  0  0  0  0
   -7.0952   18.6441    9.8996 C   0  0  0  0  0  0  0  0  0  0  0  0
   -7.2273   20.0419    9.3398 C   0  0  0  0  0  0  0  0  0  0  0  0
   -6.5396   21.0796   10.1355 N   0  0  0  0  0  0  0  0  0  0  0  0
   -5.5301   22.0538   10.6091 C   0  0  0  0  0  0  0  0  0  0  0  0
   -4.3275   21.1017   10.6269 C   0  0  0  0  0  0  0  0  0  0  0  0
   -4.4165   20.0674   11.7646 C   0  0  0  0  0  0  0  0  0  0  0  0
   -3.2509   19.0849   11.7059 C   0  0  0  0  0  0  0  0  0  0  0  0
   -3.3676   18.1058   12.7773 N   0  0  0  0  0  0  0  0  0  0  0  0
  -13.5661   21.8143    8.0339 N   0  0  0  0  0  0  0  0  0  0  0  0
  -10.6901   19.2596    6.0530 C   0  0  0  0  0  0  0  0  0  0  0  0
  -10.5867   19.4468    4.9955 O   0  0  0  0  0  0  0  0  0  0  0  0
  -11.6822   19.5080    7.1629 C   0  0  2  0  0  0  0  0  0  0  0  0
  -12.0057   18.3426    7.8105 O   0  0  0  0  0  0  0  0  0  0  0  0
  -12.9610   20.0168    6.5070 C   0  0  0  0  0  0  0  0  0  0  0  0
  -14.0554   20.5601    7.4435 C   0  0  0  0  0  0  0  0  0  0  0  0
  1  2  1  6  0  0  0
  1  3  1  0  0  0  0
  3  4  1  6  0  0  0
  3  5  1  0  0  0  0
  5  6  1  1  0  0  0
  5  7  1  0  0  0  0
  7  8  1  6  0  0  0
  9  7  1  0  0  0  0
  9 10  1  0  0  0  0
  9 11  1  1  0  0  0
 10  1  1  0  0  0  0
 11 12  1  0  0  0  0
 13 14  1  1  0  0  0
 13 15  1  0  0  0  0
 13 22  1  0  0  0  0
 14 32  1  0  0  0  0
 15 16  1  1  0  0  0
 15 17  1  0  0  0  0
 16 23  1  0  0  0  0
 17 18  1  1  0  0  0
 17 19  1  0  0  0  0
 19  2  1  6  0  0  0
 19 20  1  0  0  0  0
 20 21  1  6  0  0  0
 20 22  1  0  0  0  0
 23 24  1  0  0  0  0
 24 25  1  0  0  0  0
 25 26  1  0  0  0  0
 26 27  1  0  0  0  0
 27 28  1  0  0  0  0
 28 29  1  0  0  0  0
 29 30  1  0  0  0  0
 31 37  1  0  0  0  0
 32 33  2  0  0  0  0
 34 32  1  6  0  0  0
 34 35  1  0  0  0  0
 34 36  1  0  0  0  0
 36 37  1  0  0  0  0
M  END
>  <CHROM.1>
-159.50543382,68.98481015,-163.76074894,-66.92990138,52.45632719,75.68931911
-170.15879444,98.36182103,-51.76988974,-71.27654559,176.63402196,-179.13469866
-54.74560303,-170.41359724,68.79070471,-6.81381392,16.99375644,6.76630806
-0.94322194,-0.34836658,0.83622900

>  <Name>
1o9m_lig

>  <RI>
0

>  <Rbt.Current_Directory>
/home/itssahil/PROJECTS/Mol_Feturizer/New_Systems/rnas/1o9m

>  <Rbt.Executable>
rbdock ($Id: //depot/dev/client3/rdock/2013.1/src/exe/rbdock.cxx#4 $)

>  <Rbt.Library>
libRbt.so (2013.1, Build901 2013/11/27)

>  <Rbt.Parameter_File>
/export/apps/rDock/src/rDock_2013.1_src/data/scripts/dock_solv.prm

>  <Rbt.Receptor>
prm/pocket_docking_2.prm

>  <SCORE>
-18.9055

>  <SCORE.INTER>
-14.4215

>  <SCORE.INTER.CONST>
1

>  <SCORE.INTER.POLAR>
-1.83542

>  <SCORE.INTER.ROT>
15

>  <SCORE.INTER.SOLV>
21.8759

>  <SCORE.INTER.VDW>
-24.3882

>  <SCORE.INTER.norm>
-0.389771

>  <SCORE.INTRA>
-4.73107

>  <SCORE.INTRA.DIHEDRAL>
-14.2501

>  <SCORE.INTRA.DIHEDRAL.0>
21.5987

>  <SCORE.INTRA.POLAR>
0

>  <SCORE.INTRA.POLAR.0>
0

>  <SCORE.INTRA.REPUL>
0

>  <SCORE.INTRA.REPUL.0>
0

>  <SCORE.INTRA.SOLV>
1.51566

>  <SCORE.INTRA.SOLV.lig_0>
-108.715

>  <SCORE.INTRA.VDW>
1.63616

>  <SCORE.INTRA.VDW.0>
-3.9485

>  <SCORE.INTRA.norm>
-0.127867

>  <SCORE.RESTR>
0.247126

>  <SCORE.RESTR.CAVITY>
0.247126

>  <SCORE.RESTR.norm>
0.00667908

>  <SCORE.SYSTEM>
0

>  <SCORE.SYSTEM.CONST>
0

>  <SCORE.SYSTEM.DIHEDRAL>
0

>  <SCORE.SYSTEM.SOLV>
0

>  <SCORE.SYSTEM.norm>
0

>  <SCORE.heavy>
37

>  <SCORE.norm>
-0.510959

>  <RMSD>
0.901

$$$$
1o9m_lig
 OpenBabel11021811403D
libRbt.so/2013.1/901 2013/11/27
 37 38  0  0  0  0  0  0  0  0999 V2000
   -4.8129   14.1458    5.4756 C   0  0  2  0  0  0  0  0  0  0  0  0
   -5.7135   15.0888    4.8183 O   0  0  0  0  0  0  0  0  0  0  0  0
   -3.3641   14.4871    4.9666 C   0  0  2  0  0  0  0  0  0  0  0  0
   -2.9787   15.8755    5.2744 N   0  0  0  0  0  0  0  0  0  0  0  0
   -3.2865   14.2171    3.4159 C   0  0  1  0  0  0  0  0  0  0  0  0
   -1.9761   14.5188    2.9286 O   0  0  0  0  0  0  0  0  0  0  0  0
   -3.6832   12.7253    3.1619 C   0  0  2  0  0  0  0  0  0  0  0  0
   -3.6627   12.3723    1.7691 O   0  0  0  0  0  0  0  0  0  0  0  0
   -5.0927   12.4305    3.7317 C   0  0  2  0  0  0  0  0  0  0  0  0
   -5.1610   12.7641    5.1258 O   0  0  0  0  0  0  0  0  0  0  0  0
   -5.4761   10.9847    3.5498 C   0  0  0  0  0  0  0  0  0  0  0  0
   -5.7820   10.7355    2.2331 N   0  0  0  0  0  0  0  0  0  0  0  0
   -9.0054   17.5265    6.2471 C   0  0  1  0  0  0  0  0  0  0  0  0
  -10.3204   17.8934    6.8436 N   0  0  0  0  0  0  0  0  0  0  0  0
   -8.1982   16.7482    7.2773 C   0  0  2  0  0  0  0  0  0  0  0  0
   -8.0689   17.5480    8.4148 O   0  0  0  0  0  0  0  0  0  0  0  0
   -6.8008   16.3574    6.7010 C   0  0  1  0  0  0  0  0  0  0  0  0
   -6.0452   15.5933    7.6897 O   0  0  0  0  0  0  0  0  0  0  0  0
   -6.9911   15.4658    5.4069 C   0  0  1  0  0  0  0  0  0  0  0  0
   -7.7805   16.2401    4.3624 C   0  0  1  0  0  0  0  0  0  0  0  0
   -7.9309   15.4091    3.1773 N   0  0  0  0  0  0  0  0  0  0  0  0
   -9.1621   16.6457    4.9420 C   0  0  0  0  0  0  0  0  0  0  0  0
   -7.7910   18.7196    9.2127 C   0  0  0  0  0  0  0  0  0  0  0  0
   -7.2568   18.2888   10.5594 C   0  0  0  0  0  0  0  0  0  0  0  0
   -6.0814   19.0576   11.0180 N   0  0  0  0  0  0  0  0  0  0  0  0
   -5.0072   20.0731   11.1020 C   0  0  0  0  0  0  0  0  0  0  0  0
   -3.9903   19.2241   11.8754 C   0  0  0  0  0  0  0  0  0  0  0  0
   -2.5356   19.6005   11.5369 C   0  0  0  0  0  0  0  0  0  0  0  0
   -1.5510   18.8198   12.4020 C   0  0  0  0  0  0  0  0  0  0  0  0
   -1.5624   17.4128   12.0271 N   0  0  0  0  0  0  0  0  0  0  0  0
  -14.4695   21.2319    7.1185 N   0  0  0  0  0  0  0  0  0  0  0  0
  -11.1460   19.1348    5.8824 C   0  0  0  0  0  0  0  0  0  0  0  0
  -10.9214   19.6688    4.9722 O   0  0  0  0  0  0  0  0  0  0  0  0
  -12.2313   19.0726    6.9293 C   0  0  2  0  0  0  0  0  0  0  0  0
  -13.4683   18.9255    6.3548 O   0  0  0  0  0  0  0  0  0  0  0  0
  -12.2347   20.4199    7.6430 C   0  0  0  0  0  0  0  0  0  0  0  0
  -13.0414   21.5542    6.9853 C   0  0  0  0  0  0  0  0  0  0  0  0
  1  2  1  6  0  0  0
  1  3  1  0  0  0  0
  3  4  1  6  0  0  0
  3  5  1  0  0  0  0
  5  6  1  1  0  0  0
  5  7  1  0  0  0  0
  7  8  1  6  0  0  0
  9  7  1  0  0  0  0
  9 10  1  0  0  0  0
  9 11  1  1  0  0  0
 10  1  1  0  0  0  0
 11 12  1  0  0  0  0
 13 14  1  1  0  0  0
 13 15  1  0  0  0  0
 13 22  1  0  0  0  0
 14 32  1  0  0  0  0
 15 16  1  1  0  0  0
 15 17  1  0  0  0  0
 16 23  1  0  0  0  0
 17 18  1  1  0  0  0
 17 19  1  0  0  0  0
 19  2  1  6  0  0  0
 19 20  1  0  0  0  0
 20 21  1  6  0  0  0
 20 22  1  0  0  0  0
 23 24  1  0  0  0  0
 24 25  1  0  0  0  0
 25 26  1  0  0  0  0
 26 27  1  0  0  0  0
 27 28  1  0  0  0  0
 28 29  1  0  0  0  0
 29 30  1  0  0  0  0
 31 37  1  0  0  0  0
 32 33  2  0  0  0  0
 34 32  1  6  0  0  0
 34 35  1  0  0  0  0
 34 36  1  0  0  0  0
 36 37  1  0  0  0  0
M  END
>  <CHROM.1>
-154.13738699,-73.77713326,165.53806669,-49.08320995,-147.61646763,69.73372222
135.24762113,6.89721070,-153.37340752,149.59473368,175.41469332,69.23790361
-129.94599622,84.54949616,70.10038077,-6.87253305,16.66640381,6.56224805
0.78702511,0.37595456,-2.23552665

>  <Name>
1o9m_lig

>  <RI>
0

>  <Rbt.Current_Directory>
/home/itssahil/PROJECTS/Mol_Feturizer/New_Systems/rnas/1o9m

>  <Rbt.Executable>
rbdock ($Id: //depot/dev/client3/rdock/2013.1/src/exe/rbdock.cxx#4 $)

>  <Rbt.Library>
libRbt.so (2013.1, Build901 2013/11/27)

>  <Rbt.Parameter_File>
/export/apps/rDock/src/rDock_2013.1_src/data/scripts/dock_solv.prm

>  <Rbt.Receptor>
prm/pocket_docking_2.prm

>  <SCORE>
-9.10805

>  <SCORE.INTER>
-11.562

>  <SCORE.INTER.CONST>
1

>  <SCORE.INTER.POLAR>
-0.959166

>  <SCORE.INTER.ROT>
15

>  <SCORE.INTER.SOLV>
14.5453

>  <SCORE.INTER.VDW>
-22.9592

>  <SCORE.INTER.norm>
-0.312486

>  <SCORE.INTRA>
2.44495

>  <SCORE.INTRA.DIHEDRAL>
1.32139

>  <SCORE.INTRA.DIHEDRAL.0>
21.5987

>  <SCORE.INTRA.POLAR>
0

>  <SCORE.INTRA.POLAR.0>
0

>  <SCORE.INTRA.REPUL>
0

>  <SCORE.INTRA.REPUL.0>
0

>  <SCORE.INTRA.SOLV>
2.31892

>  <SCORE.INTRA.SOLV.lig_0>
-108.715

>  <SCORE.INTRA.VDW>
0.624789

>  <SCORE.INTRA.VDW.0>
-3.9485

>  <SCORE.INTRA.norm>
0.0660797

>  <SCORE.RESTR>
0.00899047

>  <SCORE.RESTR.CAVITY>
0.00899047

>  <SCORE.RESTR.norm>
0.000242986

>  <SCORE.SYSTEM>
0

>  <SCORE.SYSTEM.CONST>
0

>  <SCORE.SYSTEM.DIHEDRAL>
0

>  <SCORE.SYSTEM.SOLV>
0

>  <SCORE.SYSTEM.norm>
0

>  <SCORE.heavy>
37

>  <SCORE.norm>
-0.246163

>  <RMSD>
0.908

$$$$
1o9m_lig
 OpenBabel11021811403D
libRbt.so/2013.1/901 2013/11/27
 37 38  0  0  0  0  0  0  0  0999 V2000
   -4.9094   14.1797    5.5046 C   0  0  2  0  0  0  0  0  0  0  0  0
   -5.6726   15.2672    4.8987 O   0  0  0  0  0  0  0  0  0  0  0  0
   -3.4074   14.4113    5.0985 C   0  0  2  0  0  0  0  0  0  0  0  0
   -2.9026   15.7183    5.5545 N   0  0  0  0  0  0  0  0  0  0  0  0
   -3.2702   14.2749    3.5344 C   0  0  1  0  0  0  0  0  0  0  0  0
   -1.9109   14.4798    3.1397 O   0  0  0  0  0  0  0  0  0  0  0  0
   -3.7996   12.8619    3.1215 C   0  0  2  0  0  0  0  0  0  0  0  0
   -3.7364   12.6351    1.7039 O   0  0  0  0  0  0  0  0  0  0  0  0
   -5.2614   12.6668    3.5944 C   0  0  2  0  0  0  0  0  0  0  0  0
   -5.3740   12.8792    5.0092 O   0  0  0  0  0  0  0  0  0  0  0  0
   -5.7770   11.2914    3.2581 C   0  0  0  0  0  0  0  0  0  0  0  0
   -5.2095   10.3543    4.0883 N   0  0  0  0  0  0  0  0  0  0  0  0
   -9.1974   17.5676    5.9496 C   0  0  1  0  0  0  0  0  0  0  0  0
  -10.5864   17.8797    6.3886 N   0  0  0  0  0  0  0  0  0  0  0  0
   -8.4907   16.8029    7.0606 C   0  0  2  0  0  0  0  0  0  0  0  0
   -8.5267   17.5898    8.2137 O   0  0  0  0  0  0  0  0  0  0  0  0
   -7.0214   16.4695    6.6512 C   0  0  1  0  0  0  0  0  0  0  0  0
   -6.3615   15.7176    7.7150 O   0  0  0  0  0  0  0  0  0  0  0  0
   -7.0240   15.5909    5.3344 C   0  0  1  0  0  0  0  0  0  0  0  0
   -7.7111   16.3525    4.2112 C   0  0  1  0  0  0  0  0  0  0  0  0
   -7.6892   15.5343    3.0081 N   0  0  0  0  0  0  0  0  0  0  0  0
   -9.1657   16.7012    4.6260 C   0  0  0  0  0  0  0  0  0  0  0  0
   -8.3549   17.9553    9.6006 C   0  0  0  0  0  0  0  0  0  0  0  0
   -6.8870   17.8875    9.9545 C   0  0  0  0  0  0  0  0  0  0  0  0
   -6.0911   19.0277    9.4549 N   0  0  0  0  0  0  0  0  0  0  0  0
   -5.0331   20.0542    9.3157 C   0  0  0  0  0  0  0  0  0  0  0  0
   -4.9365   20.4430   10.7963 C   0  0  0  0  0  0  0  0  0  0  0  0
   -4.3153   19.3259   11.6556 C   0  0  0  0  0  0  0  0  0  0  0  0
   -2.8185   19.1973   11.3904 C   0  0  0  0  0  0  0  0  0  0  0  0
   -2.2624   18.1075   12.1801 N   0  0  0  0  0  0  0  0  0  0  0  0
  -14.1781   19.4960    8.7313 N   0  0  0  0  0  0  0  0  0  0  0  0
  -11.2490   19.2701    5.5085 C   0  0  0  0  0  0  0  0  0  0  0  0
  -10.8850   19.9245    4.7318 O   0  0  0  0  0  0  0  0  0  0  0  0
  -12.4821   19.0859    6.3588 C   0  0  2  0  0  0  0  0  0  0  0  0
  -13.5590   18.7079    5.5976 O   0  0  0  0  0  0  0  0  0  0  0  0
  -12.8185   20.4500    6.9509 C   0  0  0  0  0  0  0  0  0  0  0  0
  -14.1450   20.5658    7.7236 C   0  0  0  0  0  0  0  0  0  0  0  0
  1  2  1  6  0  0  0
  1  3  1  0  0  0  0
  3  4  1  6  0  0  0
  3  5  1  0  0  0  0
  5  6  1  1  0  0  0
  5  7  1  0  0  0  0
  7  8  1  6  0  0  0
  9  7  1  0  0  0  0
  9 10  1  0  0  0  0
  9 11  1  1  0  0  0
 10  1  1  0  0  0  0
 11 12  1  0  0  0  0
 13 14  1  1  0  0  0
 13 15  1  0  0  0  0
 13 22  1  0  0  0  0
 14 32  1  0  0  0  0
 15 16  1  1  0  0  0
 15 17  1  0  0  0  0
 16 23  1  0  0  0  0
 17 18  1  1  0  0  0
 17 19  1  0  0  0  0
 19  2  1  6  0  0  0
 19 20  1  0  0  0  0
 20 21  1  6  0  0  0
 20 22  1  0  0  0  0
 23 24  1  0  0  0  0
 24 25  1  0  0  0  0
 25 26  1  0  0  0  0
 26 27  1  0  0  0  0
 27 28  1  0  0  0  0
 28 29  1  0  0  0  0
 29 30  1  0  0  0  0
 31 37  1  0  0  0  0
 32 33  2  0  0  0  0
 34 32  1  6  0  0  0
 34 35  1  0  0  0  0
 34 36  1  0  0  0  0
 36 37  1  0  0  0  0
M  END
>  <CHROM.1>
-163.46913615,73.51243275,157.01411283,173.54051710,61.37261391,80.68668807
76.57723382,153.71432219,-43.59128524,69.80922231,72.17845317,-178.13861747
-113.98673050,172.64506153,52.22541629,-7.10036645,16.66024109,6.41364777
0.73234095,0.32989141,-2.25108912

>  <Name>
1o9m_lig

>  <RI>
0

>  <Rbt.Current_Directory>
/home/itssahil/PROJECTS/Mol_Feturizer/New_Systems/rnas/1o9m

>  <Rbt.Executable>
rbdock ($Id: //depot/dev/client3/rdock/2013.1/src/exe/rbdock.cxx#4 $)

>  <Rbt.Library>
libRbt.so (2013.1, Build901 2013/11/27)

>  <Rbt.Parameter_File>
/export/apps/rDock/src/rDock_2013.1_src/data/scripts/dock_solv.prm

>  <Rbt.Receptor>
prm/pocket_docking_2.prm

>  <SCORE>
-11.4724

>  <SCORE.INTER>
-7.34429

>  <SCORE.INTER.CONST>
1

>  <SCORE.INTER.POLAR>
-1.2857

>  <SCORE.INTER.ROT>
15

>  <SCORE.INTER.SOLV>
23.9028

>  <SCORE.INTER.VDW>
-22.1781

>  <SCORE.INTER.norm>
-0.198494

>  <SCORE.INTRA>
-4.13476

>  <SCORE.INTRA.DIHEDRAL>
-11.775

>  <SCORE.INTRA.DIHEDRAL.0>
21.5987

>  <SCORE.INTRA.POLAR>
0

>  <SCORE.INTRA.POLAR.0>
0

>  <SCORE.INTRA.REPUL>
0

>  <SCORE.INTRA.REPUL.0>
0

>  <SCORE.INTRA.SOLV>
2.8802

>  <SCORE.INTRA.SOLV.lig_0>
-108.715

>  <SCORE.INTRA.VDW>
0.312636

>  <SCORE.INTRA.VDW.0>
-3.9485

>  <SCORE.INTRA.norm>
-0.11175

>  <SCORE.RESTR>
0.00667327

>  <SCORE.RESTR.CAVITY>
0.00667327

>  <SCORE.RESTR.norm>
0.000180359

>  <SCORE.SYSTEM>
0

>  <SCORE.SYSTEM.CONST>
0

>  <SCORE.SYSTEM.DIHEDRAL>
0

>  <SCORE.SYSTEM.SOLV>
0

>  <SCORE.SYSTEM.norm>
0

>  <SCORE.heavy>
37

>  <SCORE.norm>
-0.310064

>  <RMSD>
0.932

$$$$
1o9m_lig
 OpenBabel11021811403D
libRbt.so/2013.1/901 2013/11/27
 37 38  0  0  0  0  0  0  0  0999 V2000
   -4.7844   14.2353    5.6133 C   0  0  2  0  0  0  0  0  0  0  0  0
   -5.6215   15.2419    4.9665 O   0  0  0  0  0  0  0  0  0  0  0  0
   -3.3118   14.5054    5.1305 C   0  0  2  0  0  0  0  0  0  0  0  0
   -2.8533   15.8627    5.4746 N   0  0  0  0  0  0  0  0  0  0  0  0
   -3.2281   14.2657    3.5751 C   0  0  1  0  0  0  0  0  0  0  0  0
   -1.8962   14.5035    3.1113 O   0  0  0  0  0  0  0  0  0  0  0  0
   -3.7045   12.8046    3.2822 C   0  0  2  0  0  0  0  0  0  0  0  0
   -3.6846   12.4818    1.8821 O   0  0  0  0  0  0  0  0  0  0  0  0
   -5.1361   12.5774    3.8275 C   0  0  2  0  0  0  0  0  0  0  0  0
   -5.2047   12.8835    5.2278 O   0  0  0  0  0  0  0  0  0  0  0  0
   -5.5975   11.1599    3.6078 C   0  0  0  0  0  0  0  0  0  0  0  0
   -5.7105   10.8991    2.2630 N   0  0  0  0  0  0  0  0  0  0  0  0
   -8.9952   17.6286    6.2863 C   0  0  1  0  0  0  0  0  0  0  0  0
  -10.3451   17.9746    6.8132 N   0  0  0  0  0  0  0  0  0  0  0  0
   -8.2558   16.8044    7.3315 C   0  0  2  0  0  0  0  0  0  0  0  0
   -8.1982   17.5546    8.5079 O   0  0  0  0  0  0  0  0  0  0  0  0
   -6.8249   16.4334    6.8288 C   0  0  1  0  0  0  0  0  0  0  0  0
   -6.1343   15.6252    7.8299 O   0  0  0  0  0  0  0  0  0  0  0  0
   -6.9336   15.5982    5.4884 C   0  0  1  0  0  0  0  0  0  0  0  0
   -7.6543   16.4190    4.4299 C   0  0  1  0  0  0  0  0  0  0  0  0
   -7.7299   15.6396    3.2033 N   0  0  0  0  0  0  0  0  0  0  0  0
   -9.0696   16.8046    4.9375 C   0  0  0  0  0  0  0  0  0  0  0  0
   -7.7998   18.6028    9.4185 C   0  0  0  0  0  0  0  0  0  0  0  0
   -6.3533   18.4004    9.8075 C   0  0  0  0  0  0  0  0  0  0  0  0
   -5.8329   19.4128   10.7494 N   0  0  0  0  0  0  0  0  0  0  0  0
   -4.9287   20.1776   11.6382 C   0  0  0  0  0  0  0  0  0  0  0  0
   -3.6175   19.5012   11.2184 C   0  0  0  0  0  0  0  0  0  0  0  0
   -3.5966   18.0003   11.5632 C   0  0  0  0  0  0  0  0  0  0  0  0
   -2.5295   17.6920   12.6091 C   0  0  0  0  0  0  0  0  0  0  0  0
   -1.3591   18.5305   12.3916 N   0  0  0  0  0  0  0  0  0  0  0  0
  -14.8399   20.4209    7.8618 N   0  0  0  0  0  0  0  0  0  0  0  0
  -11.1542   19.1756    5.7888 C   0  0  0  0  0  0  0  0  0  0  0  0
  -10.9000   19.6967    4.8789 O   0  0  0  0  0  0  0  0  0  0  0  0
  -12.2855   19.1074    6.7853 C   0  0  2  0  0  0  0  0  0  0  0  0
  -13.4679   18.7767    6.1733 O   0  0  0  0  0  0  0  0  0  0  0  0
  -12.4608   20.5121    7.3517 C   0  0  0  0  0  0  0  0  0  0  0  0
  -13.5214   20.6914    8.4530 C   0  0  0  0  0  0  0  0  0  0  0  0
  1  2  1  6  0  0  0
  1  3  1  0  0  0  0
  3  4  1  6  0  0  0
  3  5  1  0  0  0  0
  5  6  1  1  0  0  0
  5  7  1  0  0  0  0
  7  8  1  6  0  0  0
  9  7  1  0  0  0  0
  9 10  1  0  0  0  0
  9 11  1  1  0  0  0
 10  1  1  0  0  0  0
 11 12  1  0  0  0  0
 13 14  1  1  0  0  0
 13 15  1  0  0  0  0
 13 22  1  0  0  0  0
 14 32  1  0  0  0  0
 15 16  1  1  0  0  0
 15 17  1  0  0  0  0
 16 23  1  0  0  0  0
 17 18  1  1  0  0  0
 17 19  1  0  0  0  0
 19  2  1  6  0  0  0
 19 20  1  0  0  0  0
 20 21  1  6  0  0  0
 20 22  1  0  0  0  0
 23 24  1  0  0  0  0
 24 25  1  0  0  0  0
 25 26  1  0  0  0  0
 26 27  1  0  0  0  0
 27 28  1  0  0  0  0
 28 29  1  0  0  0  0
 29 30  1  0  0  0  0
 31 37  1  0  0  0  0
 32 33  2  0  0  0  0
 34 32  1  6  0  0  0
 34 35  1  0  0  0  0
 34 36  1  0  0  0  0
 36 37  1  0  0  0  0
M  END
>  <CHROM.1>
-159.25370834,-64.97379147,169.58515480,-70.87757459,-69.00624798,71.85946689
-179.60187606,-178.73876939,10.68505936,-63.44486243,-114.84251484,-36.17777059
-123.48268897,-177.08128977,-65.22762076,-6.89839204,16.65531359,6.64813257
0.74006372,0.35758734,-2.20656276

>  <Name>
1o9m_lig

>  <RI>
0

>  <Rbt.Current_Directory>
/home/itssahil/PROJECTS/Mol_Feturizer/New_Systems/rnas/1o9m

>  <Rbt.Executable>
rbdock ($Id: //depot/dev/client3/rdock/2013.1/src/exe/rbdock.cxx#4 $)

>  <Rbt.Library>
libRbt.so (2013.1, Build901 2013/11/27)

>  <Rbt.Parameter_File>
/export/apps/rDock/src/rDock_2013.1_src/data/scripts/dock_solv.prm

>  <Rbt.Receptor>
prm/pocket_docking_2.prm

>  <SCORE>
-9.91003

>  <SCORE.INTER>
-10.2812

>  <SCORE.INTER.CONST>
1

>  <SCORE.INTER.POLAR>
-0.943895

>  <SCORE.INTER.ROT>
15

>  <SCORE.INTER.SOLV>
14.4122

>  <SCORE.INTER.VDW>
-22.1119

>  <SCORE.INTER.norm>
-0.277871

>  <SCORE.INTRA>
0.319206

>  <SCORE.INTRA.DIHEDRAL>
-6.22491

>  <SCORE.INTRA.DIHEDRAL.0>
21.5987

>  <SCORE.INTRA.POLAR>
0

>  <SCORE.INTRA.POLAR.0>
0

>  <SCORE.INTRA.REPUL>
0

>  <SCORE.INTRA.REPUL.0>
0

>  <SCORE.INTRA.SOLV>
3.10817

>  <SCORE.INTRA.SOLV.lig_0>
-108.715

>  <SCORE.INTRA.VDW>
1.87758

>  <SCORE.INTRA.VDW.0>
-3.9485

>  <SCORE.INTRA.norm>
0.00862718

>  <SCORE.RESTR>
0.0519962

>  <SCORE.RESTR.CAVITY>
0.0519962

>  <SCORE.RESTR.norm>
0.0014053

>  <SCORE.SYSTEM>
0

>  <SCORE.SYSTEM.CONST>
0

>  <SCORE.SYSTEM.DIHEDRAL>
0

>  <SCORE.SYSTEM.SOLV>
0

>  <SCORE.SYSTEM.norm>
0

>  <SCORE.heavy>
37

>  <SCORE.norm>
-0.267839

>  <RMSD>
0.941

$$$$
1o9m_lig
 OpenBabel11021811403D
libRbt.so/2013.1/901 2013/11/27
 37 38  0  0  0  0  0  0  0  0999 V2000
   -4.9396   14.1079    5.6702 C   0  0  2  0  0  0  0  0  0  0  0  0
   -5.6877   15.2162    5.0835 O   0  0  0  0  0  0  0  0  0  0  0  0
   -3.4289   14.3484    5.3036 C   0  0  2  0  0  0  0  0  0  0  0  0
   -2.9314   15.6389    5.8118 N   0  0  0  0  0  0  0  0  0  0  0  0
   -3.2588   14.2619    3.7392 C   0  0  1  0  0  0  0  0  0  0  0  0
   -1.8911   14.4758    3.3801 O   0  0  0  0  0  0  0  0  0  0  0  0
   -3.7821   12.8641    3.2701 C   0  0  2  0  0  0  0  0  0  0  0  0
   -3.6892   12.6827    1.8476 O   0  0  0  0  0  0  0  0  0  0  0  0
   -5.2539   12.6578    3.7055 C   0  0  2  0  0  0  0  0  0  0  0  0
   -5.3961   12.8251    5.1236 O   0  0  0  0  0  0  0  0  0  0  0  0
   -5.7649   11.2952    3.3145 C   0  0  0  0  0  0  0  0  0  0  0  0
   -6.0593   11.2645    1.9722 N   0  0  0  0  0  0  0  0  0  0  0  0
   -8.4482   18.0456    6.8709 C   0  0  1  0  0  0  0  0  0  0  0  0
   -9.6782   18.5860    7.5147 N   0  0  0  0  0  0  0  0  0  0  0  0
   -7.8578   16.9657    7.7675 C   0  0  2  0  0  0  0  0  0  0  0  0
   -7.6051   17.5359    9.0169 O   0  0  0  0  0  0  0  0  0  0  0  0
   -6.5529   16.3817    7.1399 C   0  0  1  0  0  0  0  0  0  0  0  0
   -6.0085   15.3327    7.9977 O   0  0  0  0  0  0  0  0  0  0  0  0
   -6.8788   15.7597    5.7212 C   0  0  1  0  0  0  0  0  0  0  0  0
   -7.4521   16.8342    4.8098 C   0  0  1  0  0  0  0  0  0  0  0  0
   -7.7302   16.2456    3.5084 N   0  0  0  0  0  0  0  0  0  0  0  0
   -8.7386   17.4287    5.4430 C   0  0  0  0  0  0  0  0  0  0  0  0
   -6.9661   18.3595   10.0170 C   0  0  0  0  0  0  0  0  0  0  0  0
   -6.1746   19.4497    9.3318 C   0  0  0  0  0  0  0  0  0  0  0  0
   -5.4947   20.3774   10.2591 N   0  0  0  0  0  0  0  0  0  0  0  0
   -4.8231   20.9330   11.4561 C   0  0  0  0  0  0  0  0  0  0  0  0
   -3.5921   20.0180   11.4366 C   0  0  0  0  0  0  0  0  0  0  0  0
   -3.9055   18.6039   11.9605 C   0  0  0  0  0  0  0  0  0  0  0  0
   -2.6247   17.8090   12.1954 C   0  0  0  0  0  0  0  0  0  0  0  0
   -1.9520   17.5587   10.9286 N   0  0  0  0  0  0  0  0  0  0  0  0
  -14.7783   21.9027    7.3364 N   0  0  0  0  0  0  0  0  0  0  0  0
  -10.5673   19.6599    6.4179 C   0  0  0  0  0  0  0  0  0  0  0  0
  -10.4284   19.9972    5.4025 O   0  0  0  0  0  0  0  0  0  0  0  0
  -11.5323   19.8547    7.5618 C   0  0  2  0  0  0  0  0  0  0  0  0
  -12.1179   18.6686    7.9256 O   0  0  0  0  0  0  0  0  0  0  0  0
  -12.6486   20.7579    7.0494 C   0  0  0  0  0  0  0  0  0  0  0  0
  -13.7310   21.1707    8.0633 C   0  0  0  0  0  0  0  0  0  0  0  0
  1  2  1  6  0  0  0
  1  3  1  0  0  0  0
  3  4  1  6  0  0  0
  3  5  1  0  0  0  0
  5  6  1  1  0  0  0
  5  7  1  0  0  0  0
  7  8  1  6  0  0  0
  9  7  1  0  0  0  0
  9 10  1  0  0  0  0
  9 11  1  1  0  0  0
 10  1  1  0  0  0  0
 11 12  1  0  0  0  0
 13 14  1  1  0  0  0
 13 15  1  0  0  0  0
 13 22  1  0  0  0  0
 14 32  1  0  0  0  0
 15 16  1  1  0  0  0
 15 17  1  0  0  0  0
 16 23  1  0  0  0  0
 17 18  1  1  0  0  0
 17 19  1  0  0  0  0
 19  2  1  6  0  0  0
 19 20  1  0  0  0  0
 20 21  1  6  0  0  0
 20 22  1  0  0  0  0
 23 24  1  0  0  0  0
 24 25  1  0  0  0  0
 25 26  1  0  0  0  0
 26 27  1  0  0  0  0
 27 28  1  0  0  0  0
 28 29  1  0  0  0  0
 29 30  1  0  0  0  0
 31 37  1  0  0  0  0
 32 33  2  0  0  0  0
 34 32  1  6  0  0  0
 34 35  1  0  0  0  0
 34 36  1  0  0  0  0
 36 37  1  0  0  0  0
M  END
>  <CHROM.1>
-146.71254459,-77.00081244,-170.85295241,-71.04960706,18.97460009,62.67240702
178.82375871,27.73235943,63.28211823,-76.68990769,-168.54633227,-66.04574172
-61.19524232,-176.81197318,-173.68497240,-6.75682187,16.89936594,6.78783983
0.86447276,0.38439561,-2.25014180

>  <Name>
1o9m_lig

>  <RI>
0

>  <Rbt.Current_Directory>
/home/itssahil/PROJECTS/Mol_Feturizer/New_Systems/rnas/1o9m

>  <Rbt.Executable>
rbdock ($Id: //depot/dev/client3/rdock/2013.1/src/exe/rbdock.cxx#4 $)

>  <Rbt.Library>
libRbt.so (2013.1, Build901 2013/11/27)

>  <Rbt.Parameter_File>
/export/apps/rDock/src/rDock_2013.1_src/data/scripts/dock_solv.prm

>  <Rbt.Receptor>
prm/pocket_docking_2.prm

>  <SCORE>
-14.874

>  <SCORE.INTER>
-13.0895

>  <SCORE.INTER.CONST>
1

>  <SCORE.INTER.POLAR>
-1.72365

>  <SCORE.INTER.ROT>
15

>  <SCORE.INTER.SOLV>
11.6698

>  <SCORE.INTER.VDW>
-20.4708

>  <SCORE.INTER.norm>
-0.35377

>  <SCORE.INTRA>
-1.80875

>  <SCORE.INTRA.DIHEDRAL>
-6.80934

>  <SCORE.INTRA.DIHEDRAL.0>
21.5987

>  <SCORE.INTRA.POLAR>
0

>  <SCORE.INTRA.POLAR.0>
0

>  <SCORE.INTRA.REPUL>
0

>  <SCORE.INTRA.REPUL.0>
0

>  <SCORE.INTRA.SOLV>
0.68763

>  <SCORE.INTRA.SOLV.lig_0>
-108.715

>  <SCORE.INTRA.VDW>
1.2521

>  <SCORE.INTRA.VDW.0>
-3.9485

>  <SCORE.INTRA.norm>
-0.0488852

>  <SCORE.RESTR>
0.0242662

>  <SCORE.RESTR.CAVITY>
0.0242662

>  <SCORE.RESTR.norm>
0.000655843

>  <SCORE.SYSTEM>
0

>  <SCORE.SYSTEM.CONST>
0

>  <SCORE.SYSTEM.DIHEDRAL>
0

>  <SCORE.SYSTEM.SOLV>
0

>  <SCORE.SYSTEM.norm>
0

>  <SCORE.heavy>
37

>  <SCORE.norm>
-0.402

>  <RMSD>
0.959

$$$$
1o9m_lig
 OpenBabel11021811403D
libRbt.so/2013.1/901 2013/11/27
 37 38  0  0  0  0  0  0  0  0999 V2000
   -4.4637   13.9805    5.5724 C   0  0  2  0  0  0  0  0  0  0  0  0
   -5.2366   15.0854    5.0120 O   0  0  0  0  0  0  0  0  0  0  0  0
   -2.9491   14.3315    5.3328 C   0  0  2  0  0  0  0  0  0  0  0  0
   -2.5667   15.6069    5.9639 N   0  0  0  0  0  0  0  0  0  0  0  0
   -2.6688   14.3700    3.7824 C   0  0  1  0  0  0  0  0  0  0  0  0
   -1.2955   14.6860    3.5381 O   0  0  0  0  0  0  0  0  0  0  0  0
   -3.0729   12.9835    3.1809 C   0  0  2  0  0  0  0  0  0  0  0  0
   -2.8733   12.9128    1.7596 O   0  0  0  0  0  0  0  0  0  0  0  0
   -4.5555   12.6636    3.4941 C   0  0  2  0  0  0  0  0  0  0  0  0
   -4.8032   12.7179    4.9066 O   0  0  0  0  0  0  0  0  0  0  0  0
   -4.9548   11.3071    2.9737 C   0  0  0  0  0  0  0  0  0  0  0  0
   -6.3155   11.1404    3.0743 N   0  0  0  0  0  0  0  0  0  0  0  0
   -8.1263   17.8891    6.6274 C   0  0  1  0  0  0  0  0  0  0  0  0
   -9.3483   18.4062    7.3047 N   0  0  0  0  0  0  0  0  0  0  0  0
   -7.3468   17.0265    7.6106 C   0  0  2  0  0  0  0  0  0  0  0  0
   -7.0518   17.8096    8.7286 O   0  0  0  0  0  0  0  0  0  0  0  0
   -6.0445   16.4762    6.9482 C   0  0  1  0  0  0  0  0  0  0  0  0
   -5.3172   15.6334    7.8933 O   0  0  0  0  0  0  0  0  0  0  0  0
   -6.4209   15.6083    5.6790 C   0  0  1  0  0  0  0  0  0  0  0  0
   -7.1842   16.4649    4.6802 C   0  0  1  0  0  0  0  0  0  0  0  0
   -7.5068   15.6529    3.5164 N   0  0  0  0  0  0  0  0  0  0  0  0
   -8.4689   17.0280    5.3448 C   0  0  0  0  0  0  0  0  0  0  0  0
   -7.2552   18.7518    9.8045 C   0  0  0  0  0  0  0  0  0  0  0  0
   -5.9383   19.0004   10.5034 C   0  0  0  0  0  0  0  0  0  0  0  0
   -5.6716   20.4224   10.8030 N   0  0  0  0  0  0  0  0  0  0  0  0
   -4.9978   21.6708   11.2271 C   0  0  0  0  0  0  0  0  0  0  0  0
   -3.6952   21.4708   10.4421 C   0  0  0  0  0  0  0  0  0  0  0  0
   -2.8513   20.3070   10.9951 C   0  0  0  0  0  0  0  0  0  0  0  0
   -1.5048   20.2186   10.2835 C   0  0  0  0  0  0  0  0  0  0  0  0
   -0.7527   19.0735   10.7767 N   0  0  0  0  0  0  0  0  0  0  0  0
  -14.4582   21.7189    7.2695 N   0  0  0  0  0  0  0  0  0  0  0  0
  -10.3715   19.3263    6.1853 C   0  0  0  0  0  0  0  0  0  0  0  0
  -10.3169   19.5837    5.1390 O   0  0  0  0  0  0  0  0  0  0  0  0
  -11.2762   19.5586    7.3707 C   0  0  2  0  0  0  0  0  0  0  0  0
  -11.8784   18.3932    7.7723 O   0  0  0  0  0  0  0  0  0  0  0  0
  -12.3887   20.4899    6.9018 C   0  0  0  0  0  0  0  0  0  0  0  0
  -13.4616   20.8700    7.9383 C   0  0  0  0  0  0  0  0  0  0  0  0
  1  2  1  6  0  0  0
  1  3  1  0  0  0  0
  3  4  1  6  0  0  0
  3  5  1  0  0  0  0
  5  6  1  1  0  0  0
  5  7  1  0  0  0  0
  7  8  1  6  0  0  0
  9  7  1  0  0  0  0
  9 10  1  0  0  0  0
  9 11  1  1  0  0  0
 10  1  1  0  0  0  0
 11 12  1  0  0  0  0
 13 14  1  1  0  0  0
 13 15  1  0  0  0  0
 13 22  1  0  0  0  0
 14 32  1  0  0  0  0
 15 16  1  1  0  0  0
 15 17  1  0  0  0  0
 16 23  1  0  0  0  0
 17 18  1  1  0  0  0
 17 19  1  0  0  0  0
 19  2  1  6  0  0  0
 19 20  1  0  0  0  0
 20 21  1  6  0  0  0
 20 22  1  0  0  0  0
 23 24  1  0  0  0  0
 24 25  1  0  0  0  0
 25 26  1  0  0  0  0
 26 27  1  0  0  0  0
 27 28  1  0  0  0  0
 28 29  1  0  0  0  0
 29 30  1  0  0  0  0
 31 37  1  0  0  0  0
 32 33  2  0  0  0  0
 34 32  1  6  0  0  0
 34 35  1  0  0  0  0
 34 36  1  0  0  0  0
 36 37  1  0  0  0  0
M  END
>  <CHROM.1>
-139.90672238,-170.41358371,-175.86720411,44.10285302,-174.09197691,74.28406984
135.89271195,-172.97024530,49.02189648,-68.62555874,-174.49966280,-177.23148603
-68.09465343,179.37033144,-177.65956380,-6.34962123,17.03043216,6.65232205
0.90722876,0.24761430,-2.36688222

>  <Name>
1o9m_lig

>  <RI>
0

>  <Rbt.Current_Directory>
/home/itssahil/PROJECTS/Mol_Feturizer/New_Systems/rnas/1o9m

>  <Rbt.Executable>
rbdock ($Id: //depot/dev/client3/rdock/2013.1/src/exe/rbdock.cxx#4 $)

>  <Rbt.Library>
libRbt.so (2013.1, Build901 2013/11/27)

>  <Rbt.Parameter_File>
/export/apps/rDock/src/rDock_2013.1_src/data/scripts/dock_solv.prm

>  <Rbt.Receptor>
prm/pocket_docking_3.prm

>  <SCORE>
-18.6478

>  <SCORE.INTER>
-15.7217

>  <SCORE.INTER.CONST>
1

>  <SCORE.INTER.POLAR>
-1.83095

>  <SCORE.INTER.ROT>
15

>  <SCORE.INTER.SOLV>
14.4123

>  <SCORE.INTER.VDW>
-22.7821

>  <SCORE.INTER.norm>
-0.42491

>  <SCORE.INTRA>
-2.92609

>  <SCORE.INTRA.DIHEDRAL>
-7.48218

>  <SCORE.INTRA.DIHEDRAL.0>
21.5987

>  <SCORE.INTRA.POLAR>
0

>  <SCORE.INTRA.POLAR.0>
0

>  <SCORE.INTRA.REPUL>
0

>  <SCORE.INTRA.REPUL.0>
0

>  <SCORE.INTRA.SOLV>
-0.422016

>  <SCORE.INTRA.SOLV.lig_0>
-108.715

>  <SCORE.INTRA.VDW>
1.026

>  <SCORE.INTRA.VDW.0>
-3.9485

>  <SCORE.INTRA.norm>
-0.0790836

>  <SCORE.RESTR>
0

>  <SCORE.RESTR.CAVITY>
0

>  <SCORE.RESTR.norm>
0

>  <SCORE.SYSTEM>
0

>  <SCORE.SYSTEM.CONST>
0

>  <SCORE.SYSTEM.DIHEDRAL>
0

>  <SCORE.SYSTEM.SOLV>
0

>  <SCORE.SYSTEM.norm>
0

>  <SCORE.heavy>
37

>  <SCORE.norm>
-0.503994

>  <RMSD>
0.979

$$$$
1o9m_lig
 OpenBabel11021811403D
libRbt.so/2013.1/901 2013/11/27
 37 38  0  0  0  0  0  0  0  0999 V2000
   -5.1369   14.1559    5.5167 C   0  0  2  0  0  0  0  0  0  0  0  0
   -6.0182   15.1324    4.8828 O   0  0  0  0  0  0  0  0  0  0  0  0
   -3.6850   14.7575    5.4479 C   0  0  2  0  0  0  0  0  0  0  0  0
   -3.5902   16.0619    6.1266 N   0  0  0  0  0  0  0  0  0  0  0  0
   -3.2502   14.8812    3.9381 C   0  0  1  0  0  0  0  0  0  0  0  0
   -1.9305   15.4251    3.8489 O   0  0  0  0  0  0  0  0  0  0  0  0
   -3.3510   13.4630    3.2856 C   0  0  2  0  0  0  0  0  0  0  0  0
   -2.9910   13.4624    1.8945 O   0  0  0  0  0  0  0  0  0  0  0  0
   -4.7846   12.8955    3.4314 C   0  0  2  0  0  0  0  0  0  0  0  0
   -5.1880   12.8721    4.8083 O   0  0  0  0  0  0  0  0  0  0  0  0
   -4.8944   11.5054    2.8601 C   0  0  0  0  0  0  0  0  0  0  0  0
   -6.2045   11.0899    2.8678 N   0  0  0  0  0  0  0  0  0  0  0  0
   -8.9363   17.9161    6.4818 C   0  0  1  0  0  0  0  0  0  0  0  0
  -10.1576   18.4249    7.1666 N   0  0  0  0  0  0  0  0  0  0  0  0
   -8.1260   17.0897    7.4713 C   0  0  2  0  0  0  0  0  0  0  0  0
   -7.8293   17.9022    8.5676 O   0  0  0  0  0  0  0  0  0  0  0  0
   -6.8235   16.5496    6.8009 C   0  0  1  0  0  0  0  0  0  0  0  0
   -6.0664   15.7412    7.7527 O   0  0  0  0  0  0  0  0  0  0  0  0
   -7.2022   15.6475    5.5564 C   0  0  1  0  0  0  0  0  0  0  0  0
   -7.9964   16.4679    4.5514 C   0  0  1  0  0  0  0  0  0  0  0  0
   -8.3208   15.6250    3.4103 N   0  0  0  0  0  0  0  0  0  0  0  0
   -9.2815   17.0212    5.2233 C   0  0  0  0  0  0  0  0  0  0  0  0
   -7.3848   19.0644    9.3013 C   0  0  0  0  0  0  0  0  0  0  0  0
   -5.9876   19.4296    8.8554 C   0  0  0  0  0  0  0  0  0  0  0  0
   -5.0796   19.8060    9.9585 N   0  0  0  0  0  0  0  0  0  0  0  0
   -3.8562   20.1116   10.7347 C   0  0  0  0  0  0  0  0  0  0  0  0
   -4.2989   19.4808   12.0610 C   0  0  0  0  0  0  0  0  0  0  0  0
   -3.1220   19.2752   13.0330 C   0  0  0  0  0  0  0  0  0  0  0  0
   -2.2887   18.0602   12.6371 C   0  0  0  0  0  0  0  0  0  0  0  0
   -1.5840   18.3219   11.3900 N   0  0  0  0  0  0  0  0  0  0  0  0
  -13.6815   21.8613    8.5232 N   0  0  0  0  0  0  0  0  0  0  0  0
  -11.2261   19.2805    6.0384 C   0  0  0  0  0  0  0  0  0  0  0  0
  -11.1989   19.5037    4.9832 O   0  0  0  0  0  0  0  0  0  0  0  0
  -12.1131   19.5298    7.2337 C   0  0  2  0  0  0  0  0  0  0  0  0
  -12.5464   18.3510    7.7857 O   0  0  0  0  0  0  0  0  0  0  0  0
  -13.3512   20.2573    6.7213 C   0  0  0  0  0  0  0  0  0  0  0  0
  -14.3407   20.7779    7.7795 C   0  0  0  0  0  0  0  0  0  0  0  0
  1  2  1  6  0  0  0
  1  3  1  0  0  0  0
  3  4  1  6  0  0  0
  3  5  1  0  0  0  0
  5  6  1  1  0  0  0
  5  7  1  0  0  0  0
  7  8  1  6  0  0  0
  9  7  1  0  0  0  0
  9 10  1  0  0  0  0
  9 11  1  1  0  0  0
 10  1  1  0  0  0  0
 11 12  1  0  0  0  0
 13 14  1  1  0  0  0
 13 15  1  0  0  0  0
 13 22  1  0  0  0  0
 14 32  1  0  0  0  0
 15 16  1  1  0  0  0
 15 17  1  0  0  0  0
 16 23  1  0  0  0  0
 17 18  1  1  0  0  0
 17 19  1  0  0  0  0
 19  2  1  6  0  0  0
 19 20  1  0  0  0  0
 20 21  1  6  0  0  0
 20 22  1  0  0  0  0
 23 24  1  0  0  0  0
 24 25  1  0  0  0  0
 25 26  1  0  0  0  0
 26 27  1  0  0  0  0
 27 28  1  0  0  0  0
 28 29  1  0  0  0  0
 29 30  1  0  0  0  0
 31 37  1  0  0  0  0
 32 33  2  0  0  0  0
 34 32  1  6  0  0  0
 34 35  1  0  0  0  0
 34 36  1  0  0  0  0
 36 37  1  0  0  0  0
M  END
>  <CHROM.1>
-126.63297530,-173.25774096,-175.02292948,-48.19912987,-53.89232094,67.68813354
-137.83727478,164.05838144,-141.95233316,164.84652094,-77.19356979,68.69599828
-60.71708790,-172.84667309,67.67911505,-6.84684362,16.94024264,6.72277809
0.74368716,0.33015431,-2.23187971

>  <Name>
1o9m_lig

>  <RI>
0

>  <Rbt.Current_Directory>
/home/itssahil/PROJECTS/Mol_Feturizer/New_Systems/rnas/1o9m

>  <Rbt.Executable>
rbdock ($Id: //depot/dev/client3/rdock/2013.1/src/exe/rbdock.cxx#4 $)

>  <Rbt.Library>
libRbt.so (2013.1, Build901 2013/11/27)

>  <Rbt.Parameter_File>
/export/apps/rDock/src/rDock_2013.1_src/data/scripts/dock_solv.prm

>  <Rbt.Receptor>
prm/pocket_docking_2.prm

>  <SCORE>
-9.88301

>  <SCORE.INTER>
-10.5822

>  <SCORE.INTER.CONST>
1

>  <SCORE.INTER.POLAR>
-1.42813

>  <SCORE.INTER.ROT>
15

>  <SCORE.INTER.SOLV>
15.5831

>  <SCORE.INTER.VDW>
-21.0887

>  <SCORE.INTER.norm>
-0.286006

>  <SCORE.INTRA>
0.518201

>  <SCORE.INTRA.DIHEDRAL>
-4.34829

>  <SCORE.INTRA.DIHEDRAL.0>
21.5987

>  <SCORE.INTRA.POLAR>
0

>  <SCORE.INTRA.POLAR.0>
0

>  <SCORE.INTRA.REPUL>
0

>  <SCORE.INTRA.REPUL.0>
0

>  <SCORE.INTRA.SOLV>
3.22192

>  <SCORE.INTRA.SOLV.lig_0>
-108.715

>  <SCORE.INTRA.VDW>
1.08139

>  <SCORE.INTRA.VDW.0>
-3.9485

>  <SCORE.INTRA.norm>
0.0140054

>  <SCORE.RESTR>
0.180998

>  <SCORE.RESTR.CAVITY>
0.180998

>  <SCORE.RESTR.norm>
0.00489183

>  <SCORE.SYSTEM>
0

>  <SCORE.SYSTEM.CONST>
0

>  <SCORE.SYSTEM.DIHEDRAL>
0

>  <SCORE.SYSTEM.SOLV>
0

>  <SCORE.SYSTEM.norm>
0

>  <SCORE.heavy>
37

>  <SCORE.norm>
-0.267108

>  <RMSD>
1.004

$$$$
1o9m_lig
 OpenBabel11021811403D
libRbt.so/2013.1/901 2013/11/27
 37 38  0  0  0  0  0  0  0  0999 V2000
   -4.9655   14.1303    5.4533 C   0  0  2  0  0  0  0  0  0  0  0  0
   -5.8313   15.1248    4.8259 O   0  0  0  0  0  0  0  0  0  0  0  0
   -3.5031   14.4437    4.9656 C   0  0  2  0  0  0  0  0  0  0  0  0
   -3.0762   15.8070    5.3263 N   0  0  0  0  0  0  0  0  0  0  0  0
   -3.4233   14.2282    3.4064 C   0  0  1  0  0  0  0  0  0  0  0  0
   -2.1007   14.5056    2.9382 O   0  0  0  0  0  0  0  0  0  0  0  0
   -3.8652   12.7600    3.0955 C   0  0  2  0  0  0  0  0  0  0  0  0
   -3.8461   12.4576    1.6909 O   0  0  0  0  0  0  0  0  0  0  0  0
   -5.2872   12.4896    3.6460 C   0  0  2  0  0  0  0  0  0  0  0  0
   -5.3546   12.7741    5.0510 O   0  0  0  0  0  0  0  0  0  0  0  0
   -5.7148   11.0643    3.4089 C   0  0  0  0  0  0  0  0  0  0  0  0
   -6.1536   10.9080    2.1157 N   0  0  0  0  0  0  0  0  0  0  0  0
   -8.8061   17.8803    6.3681 C   0  0  1  0  0  0  0  0  0  0  0  0
  -10.0376   18.3780    7.0428 N   0  0  0  0  0  0  0  0  0  0  0  0
   -7.9786   17.0919    7.3741 C   0  0  2  0  0  0  0  0  0  0  0  0
   -7.6985   17.9333    8.4529 O   0  0  0  0  0  0  0  0  0  0  0  0
   -6.6653   16.5650    6.7144 C   0  0  1  0  0  0  0  0  0  0  0  0
   -5.8914   15.7927    7.6824 O   0  0  0  0  0  0  0  0  0  0  0  0
   -7.0255   15.6293    5.4894 C   0  0  1  0  0  0  0  0  0  0  0  0
   -7.8368   16.4117    4.4678 C   0  0  1  0  0  0  0  0  0  0  0  0
   -8.1440   15.5385    3.3450 N   0  0  0  0  0  0  0  0  0  0  0  0
   -9.1330   16.9523    5.1289 C   0  0  0  0  0  0  0  0  0  0  0  0
   -6.9833   18.4851    9.5801 C   0  0  0  0  0  0  0  0  0  0  0  0
   -5.9039   19.4158    9.0769 C   0  0  0  0  0  0  0  0  0  0  0  0
   -4.9487   19.8522   10.1161 N   0  0  0  0  0  0  0  0  0  0  0  0
   -3.7351   20.3741   10.7848 C   0  0  0  0  0  0  0  0  0  0  0  0
   -4.0270   19.8229   12.1862 C   0  0  0  0  0  0  0  0  0  0  0  0
   -2.7748   19.2210   12.8510 C   0  0  0  0  0  0  0  0  0  0  0  0
   -2.3641   17.9188   12.1706 C   0  0  0  0  0  0  0  0  0  0  0  0
   -1.0862   17.4607   12.6973 N   0  0  0  0  0  0  0  0  0  0  0  0
  -14.6061   19.5210    8.4758 N   0  0  0  0  0  0  0  0  0  0  0  0
  -11.0627   19.2996    5.9265 C   0  0  0  0  0  0  0  0  0  0  0  0
  -11.0040   19.5687    4.8833 O   0  0  0  0  0  0  0  0  0  0  0  0
  -11.9775   19.5102    7.1082 C   0  0  2  0  0  0  0  0  0  0  0  0
  -12.3727   18.3135    7.6504 O   0  0  0  0  0  0  0  0  0  0  0  0
  -13.2350   20.1900    6.5782 C   0  0  0  0  0  0  0  0  0  0  0  0
  -14.2614   20.6668    7.6218 C   0  0  0  0  0  0  0  0  0  0  0  0
  1  2  1  6  0  0  0
  1  3  1  0  0  0  0
  3  4  1  6  0  0  0
  3  5  1  0  0  0  0
  5  6  1  1  0  0  0
  5  7  1  0  0  0  0
  7  8  1  6  0  0  0
  9  7  1  0  0  0  0
  9 10  1  0  0  0  0
  9 11  1  1  0  0  0
 10  1  1  0  0  0  0
 11 12  1  0  0  0  0
 13 14  1  1  0  0  0
 13 15  1  0  0  0  0
 13 22  1  0  0  0  0
 14 32  1  0  0  0  0
 15 16  1  1  0  0  0
 15 17  1  0  0  0  0
 16 23  1  0  0  0  0
 17 18  1  1  0  0  0
 17 19  1  0  0  0  0
 19  2  1  6  0  0  0
 19 20  1  0  0  0  0
 20 21  1  6  0  0  0
 20 22  1  0  0  0  0
 23 24  1  0  0  0  0
 24 25  1  0  0  0  0
 25 26  1  0  0  0  0
 26 27  1  0  0  0  0
 27 28  1  0  0  0  0
 28 29  1  0  0  0  0
 29 30  1  0  0  0  0
 31 37  1  0  0  0  0
 32 33  2  0  0  0  0
 34 32  1  6  0  0  0
 34 35  1  0  0  0  0
 34 36  1  0  0  0  0
 36 37  1  0  0  0  0
M  END
>  <CHROM.1>
-147.24135887,-80.12800279,-179.57414804,-150.71842654,81.63610878,70.77667909
-169.49884103,159.48532583,-162.12272352,137.31759642,-70.44921988,172.60960790
-56.73019977,-172.90544649,-54.23957269,-6.81813869,16.70301569,6.63437872
0.84416080,0.33229363,-2.23853715

>  <Name>
1o9m_lig

>  <RI>
0

>  <Rbt.Current_Directory>
/home/itssahil/PROJECTS/Mol_Feturizer/New_Systems/rnas/1o9m

>  <Rbt.Executable>
rbdock ($Id: //depot/dev/client3/rdock/2013.1/src/exe/rbdock.cxx#4 $)

>  <Rbt.Library>
libRbt.so (2013.1, Build901 2013/11/27)

>  <Rbt.Parameter_File>
/export/apps/rDock/src/rDock_2013.1_src/data/scripts/dock_solv.prm

>  <Rbt.Receptor>
prm/pocket_docking_2.prm

>  <SCORE>
-9.74512

>  <SCORE.INTER>
-11.6046

>  <SCORE.INTER.CONST>
1

>  <SCORE.INTER.POLAR>
-1.52972

>  <SCORE.INTER.ROT>
15

>  <SCORE.INTER.SOLV>
16.419

>  <SCORE.INTER.VDW>
-21.7104

>  <SCORE.INTER.norm>
-0.313638

>  <SCORE.INTRA>
1.22556

>  <SCORE.INTRA.DIHEDRAL>
-2.8207

>  <SCORE.INTRA.DIHEDRAL.0>
21.5987

>  <SCORE.INTRA.POLAR>
0

>  <SCORE.INTRA.POLAR.0>
0

>  <SCORE.INTRA.REPUL>
0

>  <SCORE.INTRA.REPUL.0>
0

>  <SCORE.INTRA.SOLV>
2.18022

>  <SCORE.INTRA.SOLV.lig_0>
-108.715

>  <SCORE.INTRA.VDW>
1.5458

>  <SCORE.INTRA.VDW.0>
-3.9485

>  <SCORE.INTRA.norm>
0.0331233

>  <SCORE.RESTR>
0.63391

>  <SCORE.RESTR.CAVITY>
0.63391

>  <SCORE.RESTR.norm>
0.0171327

>  <SCORE.SYSTEM>
0

>  <SCORE.SYSTEM.CONST>
0

>  <SCORE.SYSTEM.DIHEDRAL>
0

>  <SCORE.SYSTEM.SOLV>
0

>  <SCORE.SYSTEM.norm>
0

>  <SCORE.heavy>
37

>  <SCORE.norm>
-0.263382

>  <RMSD>
1.039

$$$$
1o9m_lig
 OpenBabel11021811403D
libRbt.so/2013.1/901 2013/11/27
 37 38  0  0  0  0  0  0  0  0999 V2000
   -4.7655   14.0153    5.1837 C   0  0  2  0  0  0  0  0  0  0  0  0
   -5.6741   14.9563    4.5348 O   0  0  0  0  0  0  0  0  0  0  0  0
   -3.3646   14.2026    4.4932 C   0  0  2  0  0  0  0  0  0  0  0  0
   -2.8621   15.5820    4.6188 N   0  0  0  0  0  0  0  0  0  0  0  0
   -3.4781   13.7860    2.9774 C   0  0  1  0  0  0  0  0  0  0  0  0
   -2.2145   13.9461    2.3269 O   0  0  0  0  0  0  0  0  0  0  0  0
   -3.9923   12.3098    2.9164 C   0  0  2  0  0  0  0  0  0  0  0  0
   -4.1499   11.8294    1.5713 O   0  0  0  0  0  0  0  0  0  0  0  0
   -5.3445   12.1714    3.6585 C   0  0  2  0  0  0  0  0  0  0  0  0
   -5.2353   12.6360    5.0118 O   0  0  0  0  0  0  0  0  0  0  0  0
   -5.8345   10.7464    3.6627 C   0  0  0  0  0  0  0  0  0  0  0  0
   -6.1305   10.3411    2.3831 N   0  0  0  0  0  0  0  0  0  0  0  0
   -9.2204   17.1341    5.7601 C   0  0  1  0  0  0  0  0  0  0  0  0
  -10.5813   17.4016    6.3042 N   0  0  0  0  0  0  0  0  0  0  0  0
   -8.3757   16.4829    6.8468 C   0  0  2  0  0  0  0  0  0  0  0  0
   -8.3558   17.3419    7.9476 O   0  0  0  0  0  0  0  0  0  0  0  0
   -6.9312   16.2003    6.3260 C   0  0  1  0  0  0  0  0  0  0  0  0
   -6.1378   15.5564    7.3693 O   0  0  0  0  0  0  0  0  0  0  0  0
   -6.9985   15.2371    5.0716 C   0  0  1  0  0  0  0  0  0  0  0  0
   -7.8248   15.8854    3.9712 C   0  0  1  0  0  0  0  0  0  0  0  0
   -7.8612   14.9912    2.8237 N   0  0  0  0  0  0  0  0  0  0  0  0
   -9.2550   16.1843    4.4950 C   0  0  0  0  0  0  0  0  0  0  0  0
   -8.1607   18.5566    8.7046 C   0  0  0  0  0  0  0  0  0  0  0  0
   -6.7085   18.9673    8.6202 C   0  0  0  0  0  0  0  0  0  0  0  0
   -6.4016   20.2464    9.2929 N   0  0  0  0  0  0  0  0  0  0  0  0
   -5.8246   21.2503   10.2158 C   0  0  0  0  0  0  0  0  0  0  0  0
   -5.2243   20.2676   11.2292 C   0  0  0  0  0  0  0  0  0  0  0  0
   -3.9745   19.5530   10.6819 C   0  0  0  0  0  0  0  0  0  0  0  0
   -3.3932   18.5940   11.7162 C   0  0  0  0  0  0  0  0  0  0  0  0
   -2.8318   19.3422   12.8321 N   0  0  0  0  0  0  0  0  0  0  0  0
  -14.1493   19.5714    8.8667 N   0  0  0  0  0  0  0  0  0  0  0  0
  -11.2727   18.8867    5.6236 C   0  0  0  0  0  0  0  0  0  0  0  0
  -10.9420   19.6233    4.9080 O   0  0  0  0  0  0  0  0  0  0  0  0
  -12.4622   18.6135    6.5114 C   0  0  2  0  0  0  0  0  0  0  0  0
  -13.3182   17.7115    5.9320 O   0  0  0  0  0  0  0  0  0  0  0  0
  -13.2275   19.9258    6.6412 C   0  0  0  0  0  0  0  0  0  0  0  0
  -14.5169   19.8997    7.4817 C   0  0  0  0  0  0  0  0  0  0  0  0
  1  2  1  6  0  0  0
  1  3  1  0  0  0  0
  3  4  1  6  0  0  0
  3  5  1  0  0  0  0
  5  6  1  1  0  0  0
  5  7  1  0  0  0  0
  7  8  1  6  0  0  0
  9  7  1  0  0  0  0
  9 10  1  0  0  0  0
  9 11  1  1  0  0  0
 10  1  1  0  0  0  0
 11 12  1  0  0  0  0
 13 14  1  1  0  0  0
 13 15  1  0  0  0  0
 13 22  1  0  0  0  0
 14 32  1  0  0  0  0
 15 16  1  1  0  0  0
 15 17  1  0  0  0  0
 16 23  1  0  0  0  0
 17 18  1  1  0  0  0
 17 19  1  0  0  0  0
 19  2  1  6  0  0  0
 19 20  1  0  0  0  0
 20 21  1  6  0  0  0
 20 22  1  0  0  0  0
 23 24  1  0  0  0  0
 24 25  1  0  0  0  0
 25 26  1  0  0  0  0
 26 27  1  0  0  0  0
 27 28  1  0  0  0  0
 28 29  1  0  0  0  0
 29 30  1  0  0  0  0
 31 37  1  0  0  0  0
 32 33  2  0  0  0  0
 34 32  1  6  0  0  0
 34 35  1  0  0  0  0
 34 36  1  0  0  0  0
 36 37  1  0  0  0  0
M  END
>  <CHROM.1>
-168.78233448,-65.62130148,145.96837308,-55.01936515,-60.17569284,76.70248941
176.54316310,118.63010432,-13.33358806,72.93228064,179.43755662,-68.47591441
-82.59445923,178.59922975,63.60194813,-7.20676090,16.47393263,6.19526245
-0.94503302,-0.26901030,0.83497072

>  <Name>
1o9m_lig

>  <RI>
0

>  <Rbt.Current_Directory>
/home/itssahil/PROJECTS/Mol_Feturizer/New_Systems/rnas/1o9m

>  <Rbt.Executable>
rbdock ($Id: //depot/dev/client3/rdock/2013.1/src/exe/rbdock.cxx#4 $)

>  <Rbt.Library>
libRbt.so (2013.1, Build901 2013/11/27)

>  <Rbt.Parameter_File>
/export/apps/rDock/src/rDock_2013.1_src/data/scripts/dock_solv.prm

>  <Rbt.Receptor>
prm/pocket_docking_2.prm

>  <SCORE>
-17.7644

>  <SCORE.INTER>
-12.247

>  <SCORE.INTER.CONST>
1

>  <SCORE.INTER.POLAR>
-1.23338

>  <SCORE.INTER.ROT>
15

>  <SCORE.INTER.SOLV>
23.3718

>  <SCORE.INTER.VDW>
-25.444

>  <SCORE.INTER.norm>
-0.331001

>  <SCORE.INTRA>
-5.75429

>  <SCORE.INTRA.DIHEDRAL>
-14.3395

>  <SCORE.INTRA.DIHEDRAL.0>
21.5987

>  <SCORE.INTRA.POLAR>
0

>  <SCORE.INTRA.POLAR.0>
0

>  <SCORE.INTRA.REPUL>
0

>  <SCORE.INTRA.REPUL.0>
0

>  <SCORE.INTRA.SOLV>
1.82183

>  <SCORE.INTRA.SOLV.lig_0>
-108.715

>  <SCORE.INTRA.VDW>
0.504561

>  <SCORE.INTRA.VDW.0>
-3.9485

>  <SCORE.INTRA.norm>
-0.155521

>  <SCORE.RESTR>
0.236915

>  <SCORE.RESTR.CAVITY>
0.236915

>  <SCORE.RESTR.norm>
0.00640311

>  <SCORE.SYSTEM>
0

>  <SCORE.SYSTEM.CONST>
0

>  <SCORE.SYSTEM.DIHEDRAL>
0

>  <SCORE.SYSTEM.SOLV>
0

>  <SCORE.SYSTEM.norm>
0

>  <SCORE.heavy>
37

>  <SCORE.norm>
-0.480119

>  <RMSD>
1.047

$$$$
1o9m_lig
 OpenBabel11021811403D
libRbt.so/2013.1/901 2013/11/27
 37 38  0  0  0  0  0  0  0  0999 V2000
   -4.8205   13.8813    5.2672 C   0  0  2  0  0  0  0  0  0  0  0  0
   -5.6827   14.8737    4.6316 O   0  0  0  0  0  0  0  0  0  0  0  0
   -3.3429   14.2754    4.8984 C   0  0  2  0  0  0  0  0  0  0  0  0
   -2.9984   15.6331    5.3554 N   0  0  0  0  0  0  0  0  0  0  0  0
   -3.1494   14.1453    3.3398 C   0  0  1  0  0  0  0  0  0  0  0  0
   -1.8109   14.4972    2.9789 O   0  0  0  0  0  0  0  0  0  0  0  0
   -3.5079   12.6798    2.9262 C   0  0  2  0  0  0  0  0  0  0  0  0
   -3.3817   12.4526    1.5129 O   0  0  0  0  0  0  0  0  0  0  0  0
   -4.9513   12.3268    3.3625 C   0  0  2  0  0  0  0  0  0  0  0  0
   -5.1249   12.5343    4.7718 O   0  0  0  0  0  0  0  0  0  0  0  0
   -5.3023   10.9007    3.0255 C   0  0  0  0  0  0  0  0  0  0  0  0
   -6.6311   10.6637    3.2848 N   0  0  0  0  0  0  0  0  0  0  0  0
   -9.1654   17.1454    5.8688 C   0  0  1  0  0  0  0  0  0  0  0  0
  -10.5249   17.4473    6.3981 N   0  0  0  0  0  0  0  0  0  0  0  0
   -8.3665   16.4260    6.9471 C   0  0  2  0  0  0  0  0  0  0  0  0
   -8.3343   17.2464    8.0768 O   0  0  0  0  0  0  0  0  0  0  0  0
   -6.9244   16.1051    6.4421 C   0  0  1  0  0  0  0  0  0  0  0  0
   -6.1758   15.3964    7.4764 O   0  0  0  0  0  0  0  0  0  0  0  0
   -7.0052   15.1877    5.1546 C   0  0  1  0  0  0  0  0  0  0  0  0
   -7.7854   15.9039    4.0628 C   0  0  1  0  0  0  0  0  0  0  0  0
   -7.8347   15.0506    2.8851 N   0  0  0  0  0  0  0  0  0  0  0  0
   -9.2127   16.2405    4.5717 C   0  0  0  0  0  0  0  0  0  0  0  0
   -8.8253   18.0306    9.1860 C   0  0  0  0  0  0  0  0  0  0  0  0
   -7.6545   18.5102   10.0129 C   0  0  0  0  0  0  0  0  0  0  0  0
   -6.9685   19.6960    9.4594 N   0  0  0  0  0  0  0  0  0  0  0  0
   -6.5793   21.0976    9.1830 C   0  0  0  0  0  0  0  0  0  0  0  0
   -6.0749   21.4454   10.5892 C   0  0  0  0  0  0  0  0  0  0  0  0
   -4.5882   21.8480   10.5949 C   0  0  0  0  0  0  0  0  0  0  0  0
   -3.6959   20.6580   10.2557 C   0  0  0  0  0  0  0  0  0  0  0  0
   -3.6481   19.7324   11.3788 N   0  0  0  0  0  0  0  0  0  0  0  0
  -13.4190   22.3006    7.7889 N   0  0  0  0  0  0  0  0  0  0  0  0
  -11.0539   19.0769    5.9385 C   0  0  0  0  0  0  0  0  0  0  0  0
  -10.6267   19.8830    5.3626 O   0  0  0  0  0  0  0  0  0  0  0  0
  -12.3057   18.7778    6.7267 C   0  0  2  0  0  0  0  0  0  0  0  0
  -13.3819   18.5882    5.8974 O   0  0  0  0  0  0  0  0  0  0  0  0
  -12.6075   20.0160    7.5636 C   0  0  0  0  0  0  0  0  0  0  0  0
  -13.0168   21.2891    6.8009 C   0  0  0  0  0  0  0  0  0  0  0  0
  1  2  1  6  0  0  0
  1  3  1  0  0  0  0
  3  4  1  6  0  0  0
  3  5  1  0  0  0  0
  5  6  1  1  0  0  0
  5  7  1  0  0  0  0
  7  8  1  6  0  0  0
  9  7  1  0  0  0  0
  9 10  1  0  0  0  0
  9 11  1  1  0  0  0
 10  1  1  0  0  0  0
 11 12  1  0  0  0  0
 13 14  1  1  0  0  0
 13 15  1  0  0  0  0
 13 22  1  0  0  0  0
 14 32  1  0  0  0  0
 15 16  1  1  0  0  0
 15 17  1  0  0  0  0
 16 23  1  0  0  0  0
 17 18  1  1  0  0  0
 17 19  1  0  0  0  0
 19  2  1  6  0  0  0
 19 20  1  0  0  0  0
 20 21  1  6  0  0  0
 20 22  1  0  0  0  0
 23 24  1  0  0  0  0
 24 25  1  0  0  0  0
 25 26  1  0  0  0  0
 26 27  1  0  0  0  0
 27 28  1  0  0  0  0
 28 29  1  0  0  0  0
 29 30  1  0  0  0  0
 31 37  1  0  0  0  0
 32 33  2  0  0  0  0
 34 32  1  6  0  0  0
 34 35  1  0  0  0  0
 34 36  1  0  0  0  0
 36 37  1  0  0  0  0
M  END
>  <CHROM.1>
-154.22446663,-173.18695788,138.12166270,58.92481959,174.55233525,76.42120578
80.34645012,92.50892435,64.21544192,119.46034642,-67.86150050,-73.06659128
-108.11041105,67.01793120,173.13038528,-7.19075152,16.80175683,6.20829878
-0.97550894,-0.24880283,0.74620849

>  <Name>
1o9m_lig

>  <RI>
0

>  <Rbt.Current_Directory>
/home/itssahil/PROJECTS/Mol_Feturizer/New_Systems/rnas/1o9m

>  <Rbt.Executable>
rbdock ($Id: //depot/dev/client3/rdock/2013.1/src/exe/rbdock.cxx#4 $)

>  <Rbt.Library>
libRbt.so (2013.1, Build901 2013/11/27)

>  <Rbt.Parameter_File>
/export/apps/rDock/src/rDock_2013.1_src/data/scripts/dock_solv.prm

>  <Rbt.Receptor>
prm/pocket_docking_2.prm

>  <SCORE>
-14.8566

>  <SCORE.INTER>
-13.4214

>  <SCORE.INTER.CONST>
1

>  <SCORE.INTER.POLAR>
-0.959166

>  <SCORE.INTER.ROT>
15

>  <SCORE.INTER.SOLV>
19.4256

>  <SCORE.INTER.VDW>
-25.8256

>  <SCORE.INTER.norm>
-0.36274

>  <SCORE.INTRA>
-1.64202

>  <SCORE.INTRA.DIHEDRAL>
-5.21683

>  <SCORE.INTRA.DIHEDRAL.0>
21.5987

>  <SCORE.INTRA.POLAR>
0

>  <SCORE.INTRA.POLAR.0>
0

>  <SCORE.INTRA.REPUL>
0

>  <SCORE.INTRA.REPUL.0>
0

>  <SCORE.INTRA.SOLV>
1.69104

>  <SCORE.INTRA.SOLV.lig_0>
-108.715

>  <SCORE.INTRA.VDW>
0.120877

>  <SCORE.INTRA.VDW.0>
-3.9485

>  <SCORE.INTRA.norm>
-0.044379

>  <SCORE.RESTR>
0.206758

>  <SCORE.RESTR.CAVITY>
0.206758

>  <SCORE.RESTR.norm>
0.00558805

>  <SCORE.SYSTEM>
0

>  <SCORE.SYSTEM.CONST>
0

>  <SCORE.SYSTEM.DIHEDRAL>
0

>  <SCORE.SYSTEM.SOLV>
0

>  <SCORE.SYSTEM.norm>
0

>  <SCORE.heavy>
37

>  <SCORE.norm>
-0.401531

>  <RMSD>
1.063

$$$$
1o9m_lig
 OpenBabel11021811403D
libRbt.so/2013.1/901 2013/11/27
 37 38  0  0  0  0  0  0  0  0999 V2000
   -4.7124   14.1454    5.0044 C   0  0  2  0  0  0  0  0  0  0  0  0
   -5.6988   14.9892    4.3356 O   0  0  0  0  0  0  0  0  0  0  0  0
   -3.3556   14.3541    4.2361 C   0  0  2  0  0  0  0  0  0  0  0  0
   -2.9241   15.7629    4.2411 N   0  0  0  0  0  0  0  0  0  0  0  0
   -3.5129   13.8238    2.7604 C   0  0  1  0  0  0  0  0  0  0  0  0
   -2.2899   14.0011    2.0405 O   0  0  0  0  0  0  0  0  0  0  0  0
   -3.9479   12.3225    2.8271 C   0  0  2  0  0  0  0  0  0  0  0  0
   -4.1382   11.7389    1.5279 O   0  0  0  0  0  0  0  0  0  0  0  0
   -5.2565   12.1688    3.6409 C   0  0  2  0  0  0  0  0  0  0  0  0
   -5.1133   12.7350    4.9518 O   0  0  0  0  0  0  0  0  0  0  0  0
   -5.6673   10.7246    3.7680 C   0  0  0  0  0  0  0  0  0  0  0  0
   -6.1239   10.2517    2.5609 N   0  0  0  0  0  0  0  0  0  0  0  0
   -9.3904   16.9548    5.4883 C   0  0  1  0  0  0  0  0  0  0  0  0
  -10.7547   17.1519    6.0534 N   0  0  0  0  0  0  0  0  0  0  0  0
   -8.4627   16.4784    6.5977 C   0  0  2  0  0  0  0  0  0  0  0  0
   -8.4898   17.4309    7.6186 O   0  0  0  0  0  0  0  0  0  0  0  0
   -7.0132   16.2756    6.0542 C   0  0  1  0  0  0  0  0  0  0  0  0
   -6.1384   15.7982    7.1216 O   0  0  0  0  0  0  0  0  0  0  0  0
   -7.0281   15.2020    4.8911 C   0  0  1  0  0  0  0  0  0  0  0  0
   -7.9375   15.6758    3.7676 C   0  0  1  0  0  0  0  0  0  0  0  0
   -7.9250   14.6828    2.7039 N   0  0  0  0  0  0  0  0  0  0  0  0
   -9.3742   15.8964    4.3122 C   0  0  0  0  0  0  0  0  0  0  0  0
   -8.4175   18.7259    8.2544 C   0  0  0  0  0  0  0  0  0  0  0  0
   -7.7933   18.5741    9.6225 C   0  0  0  0  0  0  0  0  0  0  0  0
   -6.8795   19.6734    9.9959 N   0  0  0  0  0  0  0  0  0  0  0  0
   -5.9098   20.5082   10.7411 C   0  0  0  0  0  0  0  0  0  0  0  0
   -4.8686   19.4139   11.0082 C   0  0  0  0  0  0  0  0  0  0  0  0
   -3.7563   19.8849   11.9637 C   0  0  0  0  0  0  0  0  0  0  0  0
   -2.7043   18.7977   12.1601 C   0  0  0  0  0  0  0  0  0  0  0  0
   -3.3335   17.5722   12.6319 N   0  0  0  0  0  0  0  0  0  0  0  0
  -12.4510   21.5159    7.5279 N   0  0  0  0  0  0  0  0  0  0  0  0
  -11.4591   18.6929    5.5281 C   0  0  0  0  0  0  0  0  0  0  0  0
  -11.1342   19.5026    4.8934 O   0  0  0  0  0  0  0  0  0  0  0  0
  -12.6474   18.3183    6.3797 C   0  0  2  0  0  0  0  0  0  0  0  0
  -13.4227   17.3700    5.7618 O   0  0  0  0  0  0  0  0  0  0  0  0
  -13.5071   19.5703    6.5141 C   0  0  0  0  0  0  0  0  0  0  0  0
  -13.3497   20.3872    7.8094 C   0  0  0  0  0  0  0  0  0  0  0  0
  1  2  1  6  0  0  0
  1  3  1  0  0  0  0
  3  4  1  6  0  0  0
  3  5  1  0  0  0  0
  5  6  1  6  0  0  0
  5  7  1  0  0  0  0
  7  8  1  6  0  0  0
  9  7  1  0  0  0  0
  9 10  1  0  0  0  0
  9 11  1  1  0  0  0
 10  1  1  0  0  0  0
 11 12  1  0  0  0  0
 13 14  1  1  0  0  0
 13 15  1  0  0  0  0
 13 22  1  0  0  0  0
 14 32  1  0  0  0  0
 15 16  1  1  0  0  0
 15 17  1  0  0  0  0
 16 23  1  0  0  0  0
 17 18  1  1  0  0  0
 17 19  1  0  0  0  0
 19  2  1  6  0  0  0
 19 20  1  0  0  0  0
 20 21  1  6  0  0  0
 20 22  1  0  0  0  0
 23 24  1  0  0  0  0
 24 25  1  0  0  0  0
 25 26  1  0  0  0  0
 26 27  1  0  0  0  0
 27 28  1  0  0  0  0
 28 29  1  0  0  0  0
 29 30  1  0  0  0  0
 31 37  1  0  0  0  0
 32 33  2  0  0  0  0
 34 32  1  6  0  0  0
 34 35  1  0  0  0  0
 34 36  1  0  0  0  0
 36 37  1  0  0  0  0
M  END
>  <CHROM.1>
-170.96785095,-71.63263458,133.95507845,-51.15442260,-144.60109389,79.33831593
141.53376871,-176.92775287,51.21641400,-172.00913367,-177.44837927,-55.83522300
-76.48671344,-98.86010117,98.76445317,-7.20370893,16.39788213,6.13495918
-0.96904258,-0.33859860,0.88853463

>  <Name>
1o9m_lig

>  <RI>
0

>  <Rbt.Current_Directory>
/home/itssahil/PROJECTS/Mol_Feturizer/New_Systems/rnas/1o9m

>  <Rbt.Executable>
rbdock ($Id: //depot/dev/client3/rdock/2013.1/src/exe/rbdock.cxx#4 $)

>  <Rbt.Library>
libRbt.so (2013.1, Build901 2013/11/27)

>  <Rbt.Parameter_File>
/export/apps/rDock/src/rDock_2013.1_src/data/scripts/dock_solv.prm

>  <Rbt.Receptor>
prm/pocket_docking_2.prm

>  <SCORE>
-10.896

>  <SCORE.INTER>
-11.9281

>  <SCORE.INTER.CONST>
1

>  <SCORE.INTER.POLAR>
-0.959166

>  <SCORE.INTER.ROT>
15

>  <SCORE.INTER.SOLV>
20.6332

>  <SCORE.INTER.VDW>
-25.2326

>  <SCORE.INTER.norm>
-0.32238

>  <SCORE.INTRA>
0.827405

>  <SCORE.INTRA.DIHEDRAL>
0.00786023

>  <SCORE.INTRA.DIHEDRAL.0>
21.5987

>  <SCORE.INTRA.POLAR>
0

>  <SCORE.INTRA.POLAR.0>
0

>  <SCORE.INTRA.REPUL>
0

>  <SCORE.INTRA.REPUL.0>
0

>  <SCORE.INTRA.SOLV>
1.85835

>  <SCORE.INTRA.SOLV.lig_0>
-108.715

>  <SCORE.INTRA.VDW>
-0.105698

>  <SCORE.INTRA.VDW.0>
-3.9485

>  <SCORE.INTRA.norm>
0.0223623

>  <SCORE.RESTR>
0.204664

>  <SCORE.RESTR.CAVITY>
0.204664

>  <SCORE.RESTR.norm>
0.00553145

>  <SCORE.SYSTEM>
0

>  <SCORE.SYSTEM.CONST>
0

>  <SCORE.SYSTEM.DIHEDRAL>
0

>  <SCORE.SYSTEM.SOLV>
0

>  <SCORE.SYSTEM.norm>
0

>  <SCORE.heavy>
37

>  <SCORE.norm>
-0.294487

>  <RMSD>
1.129

$$$$
1o9m_lig
 OpenBabel11021811403D
libRbt.so/2013.1/901 2013/11/27
 37 38  0  0  0  0  0  0  0  0999 V2000
   -4.7009   14.2190    5.6017 C   0  0  2  0  0  0  0  0  0  0  0  0
   -5.5438   15.2392    4.9844 O   0  0  0  0  0  0  0  0  0  0  0  0
   -3.2374   14.4818    5.0883 C   0  0  2  0  0  0  0  0  0  0  0  0
   -2.7596   15.8316    5.4358 N   0  0  0  0  0  0  0  0  0  0  0  0
   -3.1910   14.2576    3.5290 C   0  0  1  0  0  0  0  0  0  0  0  0
   -1.8680   14.4892    3.0376 O   0  0  0  0  0  0  0  0  0  0  0  0
   -3.6864   12.8037    3.2320 C   0  0  2  0  0  0  0  0  0  0  0  0
   -3.7010   12.4954    1.8286 O   0  0  0  0  0  0  0  0  0  0  0  0
   -5.1072   12.5828    3.8074 C   0  0  2  0  0  0  0  0  0  0  0  0
   -5.1415   12.8748    5.2120 O   0  0  0  0  0  0  0  0  0  0  0  0
   -5.5856   11.1715    3.5837 C   0  0  0  0  0  0  0  0  0  0  0  0
   -5.8090   10.9512    2.2455 N   0  0  0  0  0  0  0  0  0  0  0  0
   -9.0476   17.4805    6.2176 C   0  0  1  0  0  0  0  0  0  0  0  0
  -10.4176   17.7693    6.7266 N   0  0  0  0  0  0  0  0  0  0  0  0
   -8.2740   16.7248    7.2895 C   0  0  2  0  0  0  0  0  0  0  0  0
   -8.2645   17.5086    8.4452 O   0  0  0  0  0  0  0  0  0  0  0  0
   -6.8219   16.4159    6.8059 C   0  0  1  0  0  0  0  0  0  0  0  0
   -6.0975   15.6725    7.8331 O   0  0  0  0  0  0  0  0  0  0  0  0
   -6.8766   15.5402    5.4883 C   0  0  1  0  0  0  0  0  0  0  0  0
   -7.6313   16.2931    4.4033 C   0  0  1  0  0  0  0  0  0  0  0  0
   -7.6568   15.4779    3.1981 N   0  0  0  0  0  0  0  0  0  0  0  0
   -9.0686   16.6175    4.8915 C   0  0  0  0  0  0  0  0  0  0  0  0
   -7.9723   17.8999    9.8046 C   0  0  0  0  0  0  0  0  0  0  0  0
   -6.5175   18.2971    9.9060 C   0  0  0  0  0  0  0  0  0  0  0  0
   -6.1248   19.3928    8.9959 N   0  0  0  0  0  0  0  0  0  0  0  0
   -5.4343   20.5721    8.4260 C   0  0  0  0  0  0  0  0  0  0  0  0
   -6.0531   21.6303    9.3481 C   0  0  0  0  0  0  0  0  0  0  0  0
   -5.1086   22.0297   10.4973 C   0  0  0  0  0  0  0  0  0  0  0  0
   -4.9727   20.9005   11.5140 C   0  0  0  0  0  0  0  0  0  0  0  0
   -3.9009   19.9977   11.1185 N   0  0  0  0  0  0  0  0  0  0  0  0
  -14.6318   21.7741    8.1103 N   0  0  0  0  0  0  0  0  0  0  0  0
  -11.0993   19.2214    5.9694 C   0  0  0  0  0  0  0  0  0  0  0  0
  -10.7575   19.9263    5.2276 O   0  0  0  0  0  0  0  0  0  0  0  0
  -12.3031   18.9856    6.8485 C   0  0  2  0  0  0  0  0  0  0  0  0
  -13.2193   18.1736    6.2295 O   0  0  0  0  0  0  0  0  0  0  0  0
  -12.9773   20.3386    7.0470 C   0  0  0  0  0  0  0  0  0  0  0  0
  -14.0258   20.4361    8.1700 C   0  0  0  0  0  0  0  0  0  0  0  0
  1  2  1  6  0  0  0
  1  3  1  0  0  0  0
  3  4  1  6  0  0  0
  3  5  1  0  0  0  0
  5  6  1  1  0  0  0
  5  7  1  0  0  0  0
  7  8  1  6  0  0  0
  9  7  1  0  0  0  0
  9 10  1  0  0  0  0
  9 11  1  1  0  0  0
 10  1  1  0  0  0  0
 11 12  1  0  0  0  0
 13 14  1  1  0  0  0
 13 15  1  0  0  0  0
 13 22  1  0  0  0  0
 14 32  1  0  0  0  0
 15 16  1  1  0  0  0
 15 17  1  0  0  0  0
 16 23  1  0  0  0  0
 17 18  1  1  0  0  0
 17 19  1  0  0  0  0
 19  2  1  6  0  0  0
 19 20  1  0  0  0  0
 20 21  1  6  0  0  0
 20 22  1  0  0  0  0
 23 24  1  0  0  0  0
 24 25  1  0  0  0  0
 25 26  1  0  0  0  0
 26 27  1  0  0  0  0
 27 28  1  0  0  0  0
 28 29  1  0  0  0  0
 29 30  1  0  0  0  0
 31 37  1  0  0  0  0
 32 33  2  0  0  0  0
 34 32  1  6  0  0  0
 34 35  1  0  0  0  0
 34 36  1  0  0  0  0
 36 37  1  0  0  0  0
M  END
>  <CHROM.1>
-163.29467170,-68.61903144,152.86390093,-179.31564510,73.46229709,76.79184100
57.75115647,150.03759598,-72.87735758,99.79036931,-70.87915942,87.66734905
-89.38621919,-165.71809557,-174.99886486,-7.16771060,16.92026261,6.37431369
-0.90720784,-0.22577251,0.75829596

>  <Name>
1o9m_lig

>  <RI>
0

>  <Rbt.Current_Directory>
/home/itssahil/PROJECTS/Mol_Feturizer/New_Systems/rnas/1o9m

>  <Rbt.Executable>
rbdock ($Id: //depot/dev/client3/rdock/2013.1/src/exe/rbdock.cxx#4 $)

>  <Rbt.Library>
libRbt.so (2013.1, Build901 2013/11/27)

>  <Rbt.Parameter_File>
/export/apps/rDock/src/rDock_2013.1_src/data/scripts/dock_solv.prm

>  <Rbt.Receptor>
prm/pocket_docking_2.prm

>  <SCORE>
-15.6577

>  <SCORE.INTER>
-13.8196

>  <SCORE.INTER.CONST>
1

>  <SCORE.INTER.POLAR>
-0.959166

>  <SCORE.INTER.ROT>
15

>  <SCORE.INTER.SOLV>
14.4431

>  <SCORE.INTER.VDW>
-24.4302

>  <SCORE.INTER.norm>
-0.373503

>  <SCORE.INTRA>
-1.8786

>  <SCORE.INTRA.DIHEDRAL>
-7.397

>  <SCORE.INTRA.DIHEDRAL.0>
21.5987

>  <SCORE.INTRA.POLAR>
0

>  <SCORE.INTRA.POLAR.0>
0

>  <SCORE.INTRA.REPUL>
0

>  <SCORE.INTRA.REPUL.0>
0

>  <SCORE.INTRA.SOLV>
4.64775

>  <SCORE.INTRA.SOLV.lig_0>
-108.715

>  <SCORE.INTRA.VDW>
-0.503974

>  <SCORE.INTRA.VDW.0>
-3.9485

>  <SCORE.INTRA.norm>
-0.0507729

>  <SCORE.RESTR>
0.0405072

>  <SCORE.RESTR.CAVITY>
0.0405072

>  <SCORE.RESTR.norm>
0.00109479

>  <SCORE.SYSTEM>
0

>  <SCORE.SYSTEM.CONST>
0

>  <SCORE.SYSTEM.DIHEDRAL>
0

>  <SCORE.SYSTEM.SOLV>
0

>  <SCORE.SYSTEM.norm>
0

>  <SCORE.heavy>
37

>  <SCORE.norm>
-0.423181

>  <RMSD>
1.143

$$$$
1o9m_lig
 OpenBabel11021811403D
libRbt.so/2013.1/901 2013/11/27
 37 38  0  0  0  0  0  0  0  0999 V2000
   -4.3566   13.9127    5.7118 C   0  0  2  0  0  0  0  0  0  0  0  0
   -5.1023   15.0592    5.2001 O   0  0  0  0  0  0  0  0  0  0  0  0
   -2.8469   14.1679    5.3510 C   0  0  2  0  0  0  0  0  0  0  0  0
   -2.3393   15.4217    5.9353 N   0  0  0  0  0  0  0  0  0  0  0  0
   -2.6871   14.1781    3.7832 C   0  0  1  0  0  0  0  0  0  0  0  0
   -1.3204   14.4070    3.4292 O   0  0  0  0  0  0  0  0  0  0  0  0
   -3.2209   12.8149    3.2315 C   0  0  2  0  0  0  0  0  0  0  0  0
   -3.1378   12.7219    1.7999 O   0  0  0  0  0  0  0  0  0  0  0  0
   -4.6911   12.5893    3.6628 C   0  0  2  0  0  0  0  0  0  0  0  0
   -4.8236   12.6688    5.0895 O   0  0  0  0  0  0  0  0  0  0  0  0
   -5.2119   11.2564    3.1911 C   0  0  0  0  0  0  0  0  0  0  0  0
   -6.5292   11.1050    3.5533 N   0  0  0  0  0  0  0  0  0  0  0  0
   -7.8138   17.8710    7.0873 C   0  0  1  0  0  0  0  0  0  0  0  0
   -9.0137   18.4000    7.7946 N   0  0  0  0  0  0  0  0  0  0  0  0
   -7.1408   16.8302    7.9718 C   0  0  2  0  0  0  0  0  0  0  0  0
   -6.8236   17.4402    9.1873 O   0  0  0  0  0  0  0  0  0  0  0  0
   -5.8641   16.2600    7.2771 C   0  0  1  0  0  0  0  0  0  0  0  0
   -5.2401   15.2479    8.1249 O   0  0  0  0  0  0  0  0  0  0  0  0
   -6.2638   15.5920    5.8987 C   0  0  1  0  0  0  0  0  0  0  0  0
   -6.9206   16.6274    4.9986 C   0  0  1  0  0  0  0  0  0  0  0  0
   -7.2660   15.9970    3.7333 N   0  0  0  0  0  0  0  0  0  0  0  0
   -8.1788   17.2086    5.6974 C   0  0  0  0  0  0  0  0  0  0  0  0
   -7.0226   18.1398   10.4353 C   0  0  0  0  0  0  0  0  0  0  0  0
   -7.4344   19.5650   10.1463 C   0  0  0  0  0  0  0  0  0  0  0  0
   -6.3067   20.5164   10.0675 N   0  0  0  0  0  0  0  0  0  0  0  0
   -5.1353   21.3463   10.4300 C   0  0  0  0  0  0  0  0  0  0  0  0
   -4.2321   20.2101   10.9264 C   0  0  0  0  0  0  0  0  0  0  0  0
   -4.5997   19.7494   12.3493 C   0  0  0  0  0  0  0  0  0  0  0  0
   -3.5701   18.7620   12.8900 C   0  0  0  0  0  0  0  0  0  0  0  0
   -3.5625   17.5529   12.0787 N   0  0  0  0  0  0  0  0  0  0  0  0
  -13.3196   22.3292    6.6592 N   0  0  0  0  0  0  0  0  0  0  0  0
   -9.8383   19.6430    6.8346 C   0  0  0  0  0  0  0  0  0  0  0  0
   -9.6778   20.0888    5.8653 O   0  0  0  0  0  0  0  0  0  0  0  0
  -10.7942   19.7557    7.9969 C   0  0  2  0  0  0  0  0  0  0  0  0
  -11.6974   18.7231    7.9998 O   0  0  0  0  0  0  0  0  0  0  0  0
  -11.5924   21.0381    7.7900 C   0  0  0  0  0  0  0  0  0  0  0  0
  -12.5714   21.0650    6.6023 C   0  0  0  0  0  0  0  0  0  0  0  0
  1  2  1  6  0  0  0
  1  3  1  0  0  0  0
  3  4  1  6  0  0  0
  3  5  1  0  0  0  0
  5  6  1  1  0  0  0
  5  7  1  0  0  0  0
  7  8  1  6  0  0  0
  9  7  1  0  0  0  0
  9 10  1  0  0  0  0
  9 11  1  1  0  0  0
 10  1  1  0  0  0  0
 11 12  1  0  0  0  0
 13 14  1  1  0  0  0
 13 15  1  0  0  0  0
 13 22  1  0  0  0  0
 14 32  1  0  0  0  0
 15 16  1  1  0  0  0
 15 17  1  0  0  0  0
 16 23  1  0  0  0  0
 17 18  1  1  0  0  0
 17 19  1  0  0  0  0
 19  2  1  6  0  0  0
 19 20  1  0  0  0  0
 20 21  1  6  0  0  0
 20 22  1  0  0  0  0
 23 24  1  0  0  0  0
 24 25  1  0  0  0  0
 25 26  1  0  0  0  0
 26 27  1  0  0  0  0
 27 28  1  0  0  0  0
 28 29  1  0  0  0  0
 29 30  1  0  0  0  0
 31 37  1  0  0  0  0
 32 33  2  0  0  0  0
 34 32  1  6  0  0  0
 34 35  1  0  0  0  0
 34 36  1  0  0  0  0
 36 37  1  0  0  0  0
M  END
>  <CHROM.1>
-144.91598436,-178.12762685,179.01459581,59.11119863,-68.85912295,67.83698246
-91.72382994,-63.84671778,56.41572117,-78.69656882,-172.04216444,-63.48266964
-77.75973537,67.89288934,174.84114825,-6.42509746,16.91126563,6.93284273
-0.95584587,-0.44814873,0.91227475

>  <Name>
1o9m_lig

>  <RI>
0

>  <Rbt.Current_Directory>
/home/itssahil/PROJECTS/Mol_Feturizer/New_Systems/rnas/1o9m

>  <Rbt.Executable>
rbdock ($Id: //depot/dev/client3/rdock/2013.1/src/exe/rbdock.cxx#4 $)

>  <Rbt.Library>
libRbt.so (2013.1, Build901 2013/11/27)

>  <Rbt.Parameter_File>
/export/apps/rDock/src/rDock_2013.1_src/data/scripts/dock_solv.prm

>  <Rbt.Receptor>
prm/pocket_docking_3.prm

>  <SCORE>
-22.1105

>  <SCORE.INTER>
-17.9681

>  <SCORE.INTER.CONST>
1

>  <SCORE.INTER.POLAR>
-1.88547

>  <SCORE.INTER.ROT>
15

>  <SCORE.INTER.SOLV>
16.8354

>  <SCORE.INTER.VDW>
-24.9056

>  <SCORE.INTER.norm>
-0.485623

>  <SCORE.INTRA>
-4.14247

>  <SCORE.INTRA.DIHEDRAL>
-10.4597

>  <SCORE.INTRA.DIHEDRAL.0>
21.5987

>  <SCORE.INTRA.POLAR>
0

>  <SCORE.INTRA.POLAR.0>
0

>  <SCORE.INTRA.REPUL>
0

>  <SCORE.INTRA.REPUL.0>
0

>  <SCORE.INTRA.SOLV>
1.76093

>  <SCORE.INTRA.SOLV.lig_0>
-108.715

>  <SCORE.INTRA.VDW>
0.206922

>  <SCORE.INTRA.VDW.0>
-3.9485

>  <SCORE.INTRA.norm>
-0.111959

>  <SCORE.RESTR>
0

>  <SCORE.RESTR.CAVITY>
0

>  <SCORE.RESTR.norm>
0

>  <SCORE.SYSTEM>
0

>  <SCORE.SYSTEM.CONST>
0

>  <SCORE.SYSTEM.DIHEDRAL>
0

>  <SCORE.SYSTEM.SOLV>
0

>  <SCORE.SYSTEM.norm>
0

>  <SCORE.heavy>
37

>  <SCORE.norm>
-0.597582

>  <RMSD>
1.156

$$$$
1o9m_lig
 OpenBabel11021811403D
libRbt.so/2013.1/901 2013/11/27
 37 38  0  0  0  0  0  0  0  0999 V2000
   -4.5086   14.2244    5.1563 C   0  0  2  0  0  0  0  0  0  0  0  0
   -5.4634   15.1713    4.5869 O   0  0  0  0  0  0  0  0  0  0  0  0
   -3.1906   14.3586    4.3083 C   0  0  2  0  0  0  0  0  0  0  0  0
   -2.6464   15.7275    4.3380 N   0  0  0  0  0  0  0  0  0  0  0  0
   -3.4832   13.9065    2.8272 C   0  0  1  0  0  0  0  0  0  0  0  0
   -2.2976   14.0178    2.0351 O   0  0  0  0  0  0  0  0  0  0  0  0
   -4.0338   12.4426    2.8657 C   0  0  2  0  0  0  0  0  0  0  0  0
   -4.3524   11.9322    1.5608 O   0  0  0  0  0  0  0  0  0  0  0  0
   -5.2966   12.3575    3.7581 C   0  0  2  0  0  0  0  0  0  0  0  0
   -5.0255   12.8536    5.0770 O   0  0  0  0  0  0  0  0  0  0  0  0
   -5.8147   10.9460    3.8573 C   0  0  0  0  0  0  0  0  0  0  0  0
   -6.2515   10.5119    2.6285 N   0  0  0  0  0  0  0  0  0  0  0  0
   -8.4803   17.8734    6.1417 C   0  0  1  0  0  0  0  0  0  0  0  0
   -9.6444   18.3697    6.9279 N   0  0  0  0  0  0  0  0  0  0  0  0
   -7.4164   17.3658    7.1056 C   0  0  2  0  0  0  0  0  0  0  0  0
   -7.0786   18.4148    7.9634 O   0  0  0  0  0  0  0  0  0  0  0  0
   -6.1662   16.8514    6.3246 C   0  0  1  0  0  0  0  0  0  0  0  0
   -5.1627   16.3475    7.2581 O   0  0  0  0  0  0  0  0  0  0  0  0
   -6.5935   15.6756    5.3546 C   0  0  1  0  0  0  0  0  0  0  0  0
   -7.6431   16.1759    4.3739 C   0  0  1  0  0  0  0  0  0  0  0  0
   -8.0104   15.0852    3.4833 N   0  0  0  0  0  0  0  0  0  0  0  0
   -8.8781   16.7056    5.1509 C   0  0  0  0  0  0  0  0  0  0  0  0
   -6.5903   19.7083    8.3817 C   0  0  0  0  0  0  0  0  0  0  0  0
   -7.0417   19.9755    9.7992 C   0  0  0  0  0  0  0  0  0  0  0  0
   -6.3006   19.2118   10.8241 N   0  0  0  0  0  0  0  0  0  0  0  0
   -5.3936   18.8666   11.9425 C   0  0  0  0  0  0  0  0  0  0  0  0
   -4.0725   18.9880   11.1725 C   0  0  0  0  0  0  0  0  0  0  0  0
   -2.8541   18.6164   12.0383 C   0  0  0  0  0  0  0  0  0  0  0  0
   -1.5503   18.8566   11.2833 C   0  0  0  0  0  0  0  0  0  0  0  0
   -0.4152   18.4749   12.1116 N   0  0  0  0  0  0  0  0  0  0  0  0
  -14.1104   19.6081    8.7655 N   0  0  0  0  0  0  0  0  0  0  0  0
  -10.8162   19.2091    5.8940 C   0  0  0  0  0  0  0  0  0  0  0  0
  -10.8825   19.4293    4.8399 O   0  0  0  0  0  0  0  0  0  0  0  0
  -11.6001   19.4514    7.1607 C   0  0  2  0  0  0  0  0  0  0  0  0
  -12.0064   18.2700    7.7276 O   0  0  0  0  0  0  0  0  0  0  0  0
  -12.8637   20.2053    6.7611 C   0  0  0  0  0  0  0  0  0  0  0  0
  -13.7452   20.7416    7.9035 C   0  0  0  0  0  0  0  0  0  0  0  0
  1  2  1  6  0  0  0
  1  3  1  0  0  0  0
  3  4  1  6  0  0  0
  3  5  1  0  0  0  0
  5  6  1  6  0  0  0
  5  7  1  0  0  0  0
  7  8  1  6  0  0  0
  9  7  1  0  0  0  0
  9 10  1  0  0  0  0
  9 11  1  1  0  0  0
 10  1  1  0  0  0  0
 11 12  1  0  0  0  0
 13 14  1  1  0  0  0
 13 15  1  0  0  0  0
 13 22  1  0  0  0  0
 14 32  1  0  0  0  0
 15 16  1  1  0  0  0
 15 17  1  0  0  0  0
 16 23  1  0  0  0  0
 17 18  1  1  0  0  0
 17 19  1  0  0  0  0
 19  2  1  6  0  0  0
 19 20  1  0  0  0  0
 20 21  1  6  0  0  0
 20 22  1  0  0  0  0
 23 24  1  0  0  0  0
 24 25  1  0  0  0  0
 25 26  1  0  0  0  0
 26 27  1  0  0  0  0
 27 28  1  0  0  0  0
 28 29  1  0  0  0  0
 29 30  1  0  0  0  0
 31 37  1  0  0  0  0
 32 33  2  0  0  0  0
 34 32  1  6  0  0  0
 34 35  1  0  0  0  0
 34 36  1  0  0  0  0
 36 37  1  0  0  0  0
M  END
>  <CHROM.1>
-158.00168957,-65.12564255,171.05990408,-61.24667886,164.96618107,80.60041498
74.71690253,109.73441738,-74.61154971,-177.14516815,-175.31898456,-178.93210398
-62.63781900,-171.92648032,-56.45760967,-6.68335797,16.66220303,6.47011610
-0.94237466,-0.31204937,0.88847095

>  <Name>
1o9m_lig

>  <RI>
0

>  <Rbt.Current_Directory>
/home/itssahil/PROJECTS/Mol_Feturizer/New_Systems/rnas/1o9m

>  <Rbt.Executable>
rbdock ($Id: //depot/dev/client3/rdock/2013.1/src/exe/rbdock.cxx#4 $)

>  <Rbt.Library>
libRbt.so (2013.1, Build901 2013/11/27)

>  <Rbt.Parameter_File>
/export/apps/rDock/src/rDock_2013.1_src/data/scripts/dock_solv.prm

>  <Rbt.Receptor>
prm/pocket_docking_2.prm

>  <SCORE>
-15.8206

>  <SCORE.INTER>
-12.1157

>  <SCORE.INTER.CONST>
1

>  <SCORE.INTER.POLAR>
-2.08683

>  <SCORE.INTER.ROT>
15

>  <SCORE.INTER.SOLV>
19.0079

>  <SCORE.INTER.VDW>
-21.057

>  <SCORE.INTER.norm>
-0.327452

>  <SCORE.INTRA>
-4.84613

>  <SCORE.INTRA.DIHEDRAL>
-13.0578

>  <SCORE.INTRA.DIHEDRAL.0>
21.5987

>  <SCORE.INTRA.POLAR>
0

>  <SCORE.INTRA.POLAR.0>
0

>  <SCORE.INTRA.REPUL>
0.00747447

>  <SCORE.INTRA.REPUL.0>
0

>  <SCORE.INTRA.SOLV>
2.06048

>  <SCORE.INTRA.SOLV.lig_0>
-108.715

>  <SCORE.INTRA.VDW>
0.615168

>  <SCORE.INTRA.VDW.0>
-3.9485

>  <SCORE.INTRA.norm>
-0.130976

>  <SCORE.RESTR>
1.14129

>  <SCORE.RESTR.CAVITY>
1.14129

>  <SCORE.RESTR.norm>
0.0308457

>  <SCORE.SYSTEM>
0

>  <SCORE.SYSTEM.CONST>
0

>  <SCORE.SYSTEM.DIHEDRAL>
0

>  <SCORE.SYSTEM.SOLV>
0

>  <SCORE.SYSTEM.norm>
0

>  <SCORE.heavy>
37

>  <SCORE.norm>
-0.427583

>  <RMSD>
1.174

$$$$
1o9m_lig
 OpenBabel11021811403D
libRbt.so/2013.1/901 2013/11/27
 37 38  0  0  0  0  0  0  0  0999 V2000
   -4.8518   14.1455    5.4938 C   0  0  2  0  0  0  0  0  0  0  0  0
   -5.6195   15.2217    4.8736 O   0  0  0  0  0  0  0  0  0  0  0  0
   -3.3517   14.3739    5.0788 C   0  0  2  0  0  0  0  0  0  0  0  0
   -2.8483   15.6890    5.5124 N   0  0  0  0  0  0  0  0  0  0  0  0
   -3.2198   14.2132    3.5166 C   0  0  1  0  0  0  0  0  0  0  0  0
   -1.8623   14.4148    3.1139 O   0  0  0  0  0  0  0  0  0  0  0  0
   -3.7475   12.7927    3.1278 C   0  0  2  0  0  0  0  0  0  0  0  0
   -3.6888   12.5438    1.7138 O   0  0  0  0  0  0  0  0  0  0  0  0
   -5.2072   12.6019    3.6090 C   0  0  2  0  0  0  0  0  0  0  0  0
   -5.3153   12.8364    5.0206 O   0  0  0  0  0  0  0  0  0  0  0  0
   -5.7209   11.2203    3.2962 C   0  0  0  0  0  0  0  0  0  0  0  0
   -7.0930   11.1940    3.3736 N   0  0  0  0  0  0  0  0  0  0  0  0
   -8.5007   17.9333    6.6531 C   0  0  1  0  0  0  0  0  0  0  0  0
   -9.7718   18.4324    7.2486 N   0  0  0  0  0  0  0  0  0  0  0  0
   -7.9654   16.7989    7.5162 C   0  0  2  0  0  0  0  0  0  0  0  0
   -7.7962   17.2890    8.8129 O   0  0  0  0  0  0  0  0  0  0  0  0
   -6.6204   16.2553    6.9390 C   0  0  1  0  0  0  0  0  0  0  0  0
   -6.1286   15.1542    7.7625 O   0  0  0  0  0  0  0  0  0  0  0  0
   -6.8515   15.7242    5.4658 C   0  0  1  0  0  0  0  0  0  0  0  0
   -7.3687   16.8542    4.5887 C   0  0  1  0  0  0  0  0  0  0  0  0
   -7.5598   16.3490    3.2374 N   0  0  0  0  0  0  0  0  0  0  0  0
   -8.6957   17.4079    5.1734 C   0  0  0  0  0  0  0  0  0  0  0  0
   -7.2649   18.0901    9.8911 C   0  0  0  0  0  0  0  0  0  0  0  0
   -7.4889   19.5524    9.5812 C   0  0  0  0  0  0  0  0  0  0  0  0
   -6.5191   20.4626   10.2247 N   0  0  0  0  0  0  0  0  0  0  0  0
   -5.9219   21.6408   10.8936 C   0  0  0  0  0  0  0  0  0  0  0  0
   -4.5170   21.0612   11.1016 C   0  0  0  0  0  0  0  0  0  0  0  0
   -4.5121   19.8778   12.0875 C   0  0  0  0  0  0  0  0  0  0  0  0
   -3.1241   19.2528   12.1882 C   0  0  0  0  0  0  0  0  0  0  0  0
   -3.1781   18.0421   12.9954 N   0  0  0  0  0  0  0  0  0  0  0  0
  -14.9039   19.4920    4.9856 N   0  0  0  0  0  0  0  0  0  0  0  0
  -10.7805   19.2471    6.0380 C   0  0  0  0  0  0  0  0  0  0  0  0
  -10.6897   19.4509    4.9824 O   0  0  0  0  0  0  0  0  0  0  0  0
  -11.7462   19.5024    7.1693 C   0  0  2  0  0  0  0  0  0  0  0  0
  -11.9835   18.3583    7.8881 O   0  0  0  0  0  0  0  0  0  0  0  0
  -13.0725   19.9071    6.5355 C   0  0  0  0  0  0  0  0  0  0  0  0
  -13.8040   18.8355    5.7071 C   0  0  0  0  0  0  0  0  0  0  0  0
  1  2  1  6  0  0  0
  1  3  1  0  0  0  0
  3  4  1  6  0  0  0
  3  5  1  0  0  0  0
  5  6  1  1  0  0  0
  5  7  1  0  0  0  0
  7  8  1  6  0  0  0
  9  7  1  0  0  0  0
  9 10  1  0  0  0  0
  9 11  1  1  0  0  0
 10  1  1  0  0  0  0
 11 12  1  0  0  0  0
 13 14  1  1  0  0  0
 13 15  1  0  0  0  0
 13 22  1  0  0  0  0
 14 32  1  0  0  0  0
 15 16  1  1  0  0  0
 15 17  1  0  0  0  0
 16 23  1  0  0  0  0
 17 18  1  1  0  0  0
 17 19  1  0  0  0  0
 19  2  1  6  0  0  0
 19 20  1  0  0  0  0
 20 21  1  6  0  0  0
 20 22  1  0  0  0  0
 23 24  1  0  0  0  0
 24 25  1  0  0  0  0
 25 26  1  0  0  0  0
 26 27  1  0  0  0  0
 27 28  1  0  0  0  0
 28 29  1  0  0  0  0
 29 30  1  0  0  0  0
 31 37  1  0  0  0  0
 32 33  2  0  0  0  0
 34 32  1  6  0  0  0
 34 35  1  0  0  0  0
 34 36  1  0  0  0  0
 36 37  1  0  0  0  0
M  END
>  <CHROM.1>
-151.26671413,-162.79719859,-156.99738327,-64.64822941,59.09029739,57.87471251
-153.86203071,-144.42983695,176.18487847,-66.18490132,175.45568444,-173.11136619
-48.43655709,65.92090015,-169.36426429,-6.99671853,16.79885366,6.57384598
-0.97199596,-0.34986680,0.88325010

>  <Name>
1o9m_lig

>  <RI>
0

>  <Rbt.Current_Directory>
/home/itssahil/PROJECTS/Mol_Feturizer/New_Systems/rnas/1o9m

>  <Rbt.Executable>
rbdock ($Id: //depot/dev/client3/rdock/2013.1/src/exe/rbdock.cxx#4 $)

>  <Rbt.Library>
libRbt.so (2013.1, Build901 2013/11/27)

>  <Rbt.Parameter_File>
/export/apps/rDock/src/rDock_2013.1_src/data/scripts/dock_solv.prm

>  <Rbt.Receptor>
prm/pocket_docking_2.prm

>  <SCORE>
-17.7988

>  <SCORE.INTER>
-16.6952

>  <SCORE.INTER.CONST>
1

>  <SCORE.INTER.POLAR>
-1.84731

>  <SCORE.INTER.ROT>
15

>  <SCORE.INTER.SOLV>
19.0269

>  <SCORE.INTER.VDW>
-24.9147

>  <SCORE.INTER.norm>
-0.451222

>  <SCORE.INTRA>
-2.3238

>  <SCORE.INTRA.DIHEDRAL>
-11.6855

>  <SCORE.INTRA.DIHEDRAL.0>
21.5987

>  <SCORE.INTRA.POLAR>
0

>  <SCORE.INTRA.POLAR.0>
0

>  <SCORE.INTRA.REPUL>
0

>  <SCORE.INTRA.REPUL.0>
0

>  <SCORE.INTRA.SOLV>
-0.491797

>  <SCORE.INTRA.SOLV.lig_0>
-108.715

>  <SCORE.INTRA.VDW>
3.76486

>  <SCORE.INTRA.VDW.0>
-3.9485

>  <SCORE.INTRA.norm>
-0.0628055

>  <SCORE.RESTR>
1.22024

>  <SCORE.RESTR.CAVITY>
1.22024

>  <SCORE.RESTR.norm>
0.0329795

>  <SCORE.SYSTEM>
0

>  <SCORE.SYSTEM.CONST>
0

>  <SCORE.SYSTEM.DIHEDRAL>
0

>  <SCORE.SYSTEM.SOLV>
0

>  <SCORE.SYSTEM.norm>
0

>  <SCORE.heavy>
37

>  <SCORE.norm>
-0.481048

>  <RMSD>
1.209

$$$$
1o9m_lig
 OpenBabel11021811403D
libRbt.so/2013.1/901 2013/11/27
 37 38  0  0  0  0  0  0  0  0999 V2000
   -5.3808   14.1401    5.5815 C   0  0  2  0  0  0  0  0  0  0  0  0
   -5.9595   15.2438    4.8206 O   0  0  0  0  0  0  0  0  0  0  0  0
   -3.8210   14.2529    5.4113 C   0  0  2  0  0  0  0  0  0  0  0  0
   -3.3007   15.5451    5.8914 N   0  0  0  0  0  0  0  0  0  0  0  0
   -3.4514   14.0311    3.8953 C   0  0  1  0  0  0  0  0  0  0  0  0
   -2.0359   14.1272    3.7146 O   0  0  0  0  0  0  0  0  0  0  0  0
   -4.0103   12.6369    3.4579 C   0  0  2  0  0  0  0  0  0  0  0  0
   -3.7429   12.3370    2.0782 O   0  0  0  0  0  0  0  0  0  0  0  0
   -5.5382   12.5611    3.6991 C   0  0  2  0  0  0  0  0  0  0  0  0
   -5.8549   12.8498    5.0686 O   0  0  0  0  0  0  0  0  0  0  0  0
   -6.0928   11.2073    3.3379 C   0  0  0  0  0  0  0  0  0  0  0  0
   -6.0327   11.0158    1.9782 N   0  0  0  0  0  0  0  0  0  0  0  0
   -8.3791   18.6604    5.9575 C   0  0  1  0  0  0  0  0  0  0  0  0
   -9.5288   19.4502    6.4811 N   0  0  0  0  0  0  0  0  0  0  0  0
   -7.8548   17.7601    7.0679 C   0  0  2  0  0  0  0  0  0  0  0  0
   -7.5025   18.5717    8.1483 O   0  0  0  0  0  0  0  0  0  0  0  0
   -6.6339   16.9245    6.5688 C   0  0  1  0  0  0  0  0  0  0  0  0
   -6.1540   16.0497    7.6352 O   0  0  0  0  0  0  0  0  0  0  0  0
   -7.0703   16.0315    5.3368 C   0  0  1  0  0  0  0  0  0  0  0  0
   -7.5788   16.9216    4.2130 C   0  0  1  0  0  0  0  0  0  0  0  0
   -7.9600   16.0828    3.0866 N   0  0  0  0  0  0  0  0  0  0  0  0
   -8.7801   17.7668    4.7148 C   0  0  0  0  0  0  0  0  0  0  0  0
   -7.0110   18.9320    9.4580 C   0  0  0  0  0  0  0  0  0  0  0  0
   -7.0159   20.4373    9.5942 C   0  0  0  0  0  0  0  0  0  0  0  0
   -5.9756   20.9660   10.5004 N   0  0  0  0  0  0  0  0  0  0  0  0
   -4.9433   21.0606   11.5577 C   0  0  0  0  0  0  0  0  0  0  0  0
   -4.1584   19.7968   11.1835 C   0  0  0  0  0  0  0  0  0  0  0  0
   -2.8722   19.6388   12.0159 C   0  0  0  0  0  0  0  0  0  0  0  0
   -2.0141   18.4931   11.4883 C   0  0  0  0  0  0  0  0  0  0  0  0
   -2.6014   17.2145   11.8633 N   0  0  0  0  0  0  0  0  0  0  0  0
  -15.0906   20.5005    7.9990 N   0  0  0  0  0  0  0  0  0  0  0  0
  -11.0347   18.5139    6.4352 C   0  0  0  0  0  0  0  0  0  0  0  0
  -11.3020   17.5144    6.1295 O   0  0  0  0  0  0  0  0  0  0  0  0
  -11.6974   19.7532    6.9855 C   0  0  2  0  0  0  0  0  0  0  0  0
  -11.4996   19.8635    8.3386 O   0  0  0  0  0  0  0  0  0  0  0  0
  -13.1976   19.5839    6.7723 C   0  0  0  0  0  0  0  0  0  0  0  0
  -14.0763   20.8295    6.9871 C   0  0  0  0  0  0  0  0  0  0  0  0
  1  2  1  6  0  0  0
  1  3  1  0  0  0  0
  3  4  1  6  0  0  0
  3  5  1  0  0  0  0
  5  6  1  1  0  0  0
  5  7  1  0  0  0  0
  7  8  1  6  0  0  0
  9  7  1  0  0  0  0
  9 10  1  0  0  0  0
  9 11  1  1  0  0  0
 10  1  1  0  0  0  0
 11 12  1  0  0  0  0
 13 14  1  1  0  0  0
 13 15  1  0  0  0  0
 13 22  1  0  0  0  0
 14 32  1  0  0  0  0
 15 16  1  1  0  0  0
 15 17  1  0  0  0  0
 16 23  1  0  0  0  0
 17 18  1  1  0  0  0
 17 19  1  0  0  0  0
 19  2  1  6  0  0  0
 19 20  1  0  0  0  0
 20 21  1  6  0  0  0
 20 22  1  0  0  0  0
 23 24  1  0  0  0  0
 24 25  1  0  0  0  0
 25 26  1  0  0  0  0
 26 27  1  0  0  0  0
 27 28  1  0  0  0  0
 28 29  1  0  0  0  0
 29 30  1  0  0  0  0
 31 37  1  0  0  0  0
 32 33  2  0  0  0  0
 34 32  1  1  0  0  0
 34 35  1  0  0  0  0
 34 36  1  0  0  0  0
 36 37  1  0  0  0  0
M  END
>  <CHROM.1>
-138.11831346,-68.57380772,-82.22252712,-179.36039044,176.43256457,68.95555911
-150.55273693,-19.59689343,46.94922665,174.03608222,-171.76250623,-74.70094103
-79.78066066,-167.96276981,-123.46947775,-6.93810968,16.93746403,6.63617509
0.93846694,0.33779218,-2.30501621

>  <Name>
1o9m_lig

>  <RI>
0

>  <Rbt.Current_Directory>
/home/itssahil/PROJECTS/Mol_Feturizer/New_Systems/rnas/1o9m

>  <Rbt.Executable>
rbdock ($Id: //depot/dev/client3/rdock/2013.1/src/exe/rbdock.cxx#4 $)

>  <Rbt.Library>
libRbt.so (2013.1, Build901 2013/11/27)

>  <Rbt.Parameter_File>
/export/apps/rDock/src/rDock_2013.1_src/data/scripts/dock_solv.prm

>  <Rbt.Receptor>
prm/pocket_docking_2.prm

>  <SCORE>
-8.47718

>  <SCORE.INTER>
-8.68586

>  <SCORE.INTER.CONST>
1

>  <SCORE.INTER.POLAR>
-0.986107

>  <SCORE.INTER.ROT>
15

>  <SCORE.INTER.SOLV>
13.4519

>  <SCORE.INTER.VDW>
-20.5875

>  <SCORE.INTER.norm>
-0.234753

>  <SCORE.INTRA>
0.10135

>  <SCORE.INTRA.DIHEDRAL>
-2.87227

>  <SCORE.INTRA.DIHEDRAL.0>
21.5987

>  <SCORE.INTRA.POLAR>
0

>  <SCORE.INTRA.POLAR.0>
0

>  <SCORE.INTRA.REPUL>
0

>  <SCORE.INTRA.REPUL.0>
0

>  <SCORE.INTRA.SOLV>
1.64809

>  <SCORE.INTRA.SOLV.lig_0>
-108.715

>  <SCORE.INTRA.VDW>
0.713441

>  <SCORE.INTRA.VDW.0>
-3.9485

>  <SCORE.INTRA.norm>
0.00273918

>  <SCORE.RESTR>
0.107332

>  <SCORE.RESTR.CAVITY>
0.107332

>  <SCORE.RESTR.norm>
0.00290087

>  <SCORE.SYSTEM>
0

>  <SCORE.SYSTEM.CONST>
0

>  <SCORE.SYSTEM.DIHEDRAL>
0

>  <SCORE.SYSTEM.SOLV>
0

>  <SCORE.SYSTEM.norm>
0

>  <SCORE.heavy>
37

>  <SCORE.norm>
-0.229113

>  <RMSD>
1.239

$$$$
1o9m_lig
 OpenBabel11021811403D
libRbt.so/2013.1/901 2013/11/27
 37 38  0  0  0  0  0  0  0  0999 V2000
   -4.6755   14.0006    4.7571 C   0  0  2  0  0  0  0  0  0  0  0  0
   -5.5394   15.0399    4.2042 O   0  0  0  0  0  0  0  0  0  0  0  0
   -3.3590   14.0130    3.8961 C   0  0  2  0  0  0  0  0  0  0  0  0
   -2.6844   15.3225    3.9294 N   0  0  0  0  0  0  0  0  0  0  0  0
   -3.7087   13.6029    2.4151 C   0  0  1  0  0  0  0  0  0  0  0  0
   -2.5258   13.6050    1.6113 O   0  0  0  0  0  0  0  0  0  0  0  0
   -4.3982   12.1990    2.4495 C   0  0  2  0  0  0  0  0  0  0  0  0
   -4.7777   11.7321    1.1445 O   0  0  0  0  0  0  0  0  0  0  0  0
   -5.6545   12.2297    3.3545 C   0  0  2  0  0  0  0  0  0  0  0  0
   -5.3235   12.6869    4.6739 O   0  0  0  0  0  0  0  0  0  0  0  0
   -6.3060   10.8743    3.4496 C   0  0  0  0  0  0  0  0  0  0  0  0
   -5.4461    9.9726    4.0300 N   0  0  0  0  0  0  0  0  0  0  0  0
   -8.9398   17.4189    5.4685 C   0  0  1  0  0  0  0  0  0  0  0  0
  -10.2265   17.7851    6.1241 N   0  0  0  0  0  0  0  0  0  0  0  0
   -7.9564   16.9610    6.5370 C   0  0  2  0  0  0  0  0  0  0  0  0
   -7.8134   17.9978    7.4615 O   0  0  0  0  0  0  0  0  0  0  0  0
   -6.5835   16.5835    5.8963 C   0  0  1  0  0  0  0  0  0  0  0  0
   -5.6566   16.1255    6.9276 O   0  0  0  0  0  0  0  0  0  0  0  0
   -6.7911   15.4177    4.8458 C   0  0  1  0  0  0  0  0  0  0  0  0
   -7.7578   15.8703    3.7620 C   0  0  1  0  0  0  0  0  0  0  0  0
   -7.9225   14.7908    2.8002 N   0  0  0  0  0  0  0  0  0  0  0  0
   -9.1164   16.2643    4.4010 C   0  0  0  0  0  0  0  0  0  0  0  0
   -8.1529   18.8969    8.5398 C   0  0  0  0  0  0  0  0  0  0  0  0
   -8.0482   18.1586    9.8546 C   0  0  0  0  0  0  0  0  0  0  0  0
   -6.7680   18.3637   10.5631 N   0  0  0  0  0  0  0  0  0  0  0  0
   -5.7739   18.6856   11.6122 C   0  0  0  0  0  0  0  0  0  0  0  0
   -4.5246   18.6413   10.7232 C   0  0  0  0  0  0  0  0  0  0  0  0
   -3.7750   19.9866   10.6994 C   0  0  0  0  0  0  0  0  0  0  0  0
   -2.3919   19.8335   10.0742 C   0  0  0  0  0  0  0  0  0  0  0  0
   -1.5430   19.0180   10.9312 N   0  0  0  0  0  0  0  0  0  0  0  0
  -14.5984   20.1030    7.4976 N   0  0  0  0  0  0  0  0  0  0  0  0
  -10.4862   19.5398    6.1105 C   0  0  0  0  0  0  0  0  0  0  0  0
   -9.9384   20.3887    5.7319 O   0  0  0  0  0  0  0  0  0  0  0  0
  -11.7625   19.2499    6.8620 C   0  0  2  0  0  0  0  0  0  0  0  0
  -12.7653   18.8648    6.0087 O   0  0  0  0  0  0  0  0  0  0  0  0
  -12.2070   20.5611    7.5006 C   0  0  0  0  0  0  0  0  0  0  0  0
  -13.4833   20.5193    8.3603 C   0  0  0  0  0  0  0  0  0  0  0  0
  1  2  1  6  0  0  0
  1  3  1  0  0  0  0
  3  4  1  6  0  0  0
  3  5  1  0  0  0  0
  5  6  1  6  0  0  0
  5  7  1  0  0  0  0
  7  8  1  6  0  0  0
  9  7  1  0  0  0  0
  9 10  1  0  0  0  0
  9 11  1  1  0  0  0
 10  1  1  0  0  0  0
 11 12  1  0  0  0  0
 13 14  1  1  0  0  0
 13 15  1  0  0  0  0
 13 22  1  0  0  0  0
 14 32  1  0  0  0  0
 15 16  1  1  0  0  0
 15 17  1  0  0  0  0
 16 23  1  0  0  0  0
 17 18  1  1  0  0  0
 17 19  1  0  0  0  0
 19  2  1  6  0  0  0
 19 20  1  0  0  0  0
 20 21  1  6  0  0  0
 20 22  1  0  0  0  0
 23 24  1  0  0  0  0
 24 25  1  0  0  0  0
 25 26  1  0  0  0  0
 26 27  1  0  0  0  0
 27 28  1  0  0  0  0
 28 29  1  0  0  0  0
 29 30  1  0  0  0  0
 31 37  1  0  0  0  0
 32 33  2  0  0  0  0
 34 32  1  6  0  0  0
 34 35  1  0  0  0  0
 34 36  1  0  0  0  0
 36 37  1  0  0  0  0
M  END
>  <CHROM.1>
-173.07146580,62.55616071,108.47841087,72.80281340,75.34458888,90.01468723
97.06927853,126.59280093,-170.25999499,119.83897601,167.34674962,-67.29818299
-81.30798188,-178.56302937,-61.26384327,-7.00095560,16.51581956,6.07744529
-0.97144131,-0.29790266,0.84999525

>  <Name>
1o9m_lig

>  <RI>
0

>  <Rbt.Current_Directory>
/home/itssahil/PROJECTS/Mol_Feturizer/New_Systems/rnas/1o9m

>  <Rbt.Executable>
rbdock ($Id: //depot/dev/client3/rdock/2013.1/src/exe/rbdock.cxx#4 $)

>  <Rbt.Library>
libRbt.so (2013.1, Build901 2013/11/27)

>  <Rbt.Parameter_File>
/export/apps/rDock/src/rDock_2013.1_src/data/scripts/dock_solv.prm

>  <Rbt.Receptor>
prm/pocket_docking_2.prm

>  <SCORE>
-5.12559

>  <SCORE.INTER>
-6.02823

>  <SCORE.INTER.CONST>
1

>  <SCORE.INTER.POLAR>
-0.959166

>  <SCORE.INTER.ROT>
15

>  <SCORE.INTER.SOLV>
22.0293

>  <SCORE.INTER.VDW>
-21.7647

>  <SCORE.INTER.norm>
-0.162925

>  <SCORE.INTRA>
0.0913548

>  <SCORE.INTRA.DIHEDRAL>
-2.25731

>  <SCORE.INTRA.DIHEDRAL.0>
21.5987

>  <SCORE.INTRA.POLAR>
0

>  <SCORE.INTRA.POLAR.0>
0

>  <SCORE.INTRA.REPUL>
0

>  <SCORE.INTRA.REPUL.0>
0

>  <SCORE.INTRA.SOLV>
4.03992

>  <SCORE.INTRA.SOLV.lig_0>
-108.715

>  <SCORE.INTRA.VDW>
-0.799948

>  <SCORE.INTRA.VDW.0>
-3.9485

>  <SCORE.INTRA.norm>
0.00246905

>  <SCORE.RESTR>
0.811287

>  <SCORE.RESTR.CAVITY>
0.811287

>  <SCORE.RESTR.norm>
0.0219267

>  <SCORE.SYSTEM>
0

>  <SCORE.SYSTEM.CONST>
0

>  <SCORE.SYSTEM.DIHEDRAL>
0

>  <SCORE.SYSTEM.SOLV>
0

>  <SCORE.SYSTEM.norm>
0

>  <SCORE.heavy>
37

>  <SCORE.norm>
-0.138529

>  <RMSD>
1.252

$$$$
1o9m_lig
 OpenBabel11021811403D
libRbt.so/2013.1/901 2013/11/27
 37 38  0  0  0  0  0  0  0  0999 V2000
   -5.4236   13.8920    5.2330 C   0  0  2  0  0  0  0  0  0  0  0  0
   -5.9816   15.0602    4.5575 O   0  0  0  0  0  0  0  0  0  0  0  0
   -3.8609   13.9996    5.0881 C   0  0  2  0  0  0  0  0  0  0  0  0
   -3.3316   15.2427    5.6758 N   0  0  0  0  0  0  0  0  0  0  0  0
   -3.4771   13.8958    3.5630 C   0  0  1  0  0  0  0  0  0  0  0  0
   -2.0587   13.9892    3.4049 O   0  0  0  0  0  0  0  0  0  0  0  0
   -4.0466   12.5481    3.0092 C   0  0  2  0  0  0  0  0  0  0  0  0
   -3.7674   12.3568    1.6127 O   0  0  0  0  0  0  0  0  0  0  0  0
   -5.5778   12.4713    3.2281 C   0  0  2  0  0  0  0  0  0  0  0  0
   -5.9064   12.6529    4.6132 O   0  0  0  0  0  0  0  0  0  0  0  0
   -6.1434   11.1577    2.7537 C   0  0  0  0  0  0  0  0  0  0  0  0
   -5.6892   10.1302    3.5456 N   0  0  0  0  0  0  0  0  0  0  0  0
   -8.4326   18.3198    6.0367 C   0  0  1  0  0  0  0  0  0  0  0  0
   -9.6108   19.0498    6.5831 N   0  0  0  0  0  0  0  0  0  0  0  0
   -8.0286   17.2310    7.0215 C   0  0  2  0  0  0  0  0  0  0  0  0
   -7.7621   17.8402    8.2495 O   0  0  0  0  0  0  0  0  0  0  0  0
   -6.7826   16.4495    6.4977 C   0  0  1  0  0  0  0  0  0  0  0  0
   -6.4184   15.3947    7.4396 O   0  0  0  0  0  0  0  0  0  0  0  0
   -7.1205   15.7879    5.0998 C   0  0  1  0  0  0  0  0  0  0  0  0
   -7.5076   16.8684    4.1015 C   0  0  1  0  0  0  0  0  0  0  0  0
   -7.7992   16.2409    2.8213 N   0  0  0  0  0  0  0  0  0  0  0  0
   -8.7342   17.6582    4.6314 C   0  0  0  0  0  0  0  0  0  0  0  0
   -7.9773   18.6514    9.4252 C   0  0  0  0  0  0  0  0  0  0  0  0
   -8.0561   20.1051    9.0188 C   0  0  0  0  0  0  0  0  0  0  0  0
   -7.0361   20.9663    9.6519 N   0  0  0  0  0  0  0  0  0  0  0  0
   -6.0696   21.5233   10.6255 C   0  0  0  0  0  0  0  0  0  0  0  0
   -4.8208   20.8031   10.1011 C   0  0  0  0  0  0  0  0  0  0  0  0
   -4.7609   19.3317   10.5523 C   0  0  0  0  0  0  0  0  0  0  0  0
   -3.5818   18.6079    9.9096 C   0  0  0  0  0  0  0  0  0  0  0  0
   -2.3767   18.8146   10.7003 N   0  0  0  0  0  0  0  0  0  0  0  0
  -14.5810   20.1030    8.1549 N   0  0  0  0  0  0  0  0  0  0  0  0
  -11.1348   18.3287    6.0317 C   0  0  0  0  0  0  0  0  0  0  0  0
  -11.3991   17.4882    5.4090 O   0  0  0  0  0  0  0  0  0  0  0  0
  -11.8140   19.4285    6.8106 C   0  0  2  0  0  0  0  0  0  0  0  0
  -11.9911   19.0715    8.1233 O   0  0  0  0  0  0  0  0  0  0  0  0
  -13.2046   19.6016    6.2100 C   0  0  0  0  0  0  0  0  0  0  0  0
  -14.1223   20.6474    6.8687 C   0  0  0  0  0  0  0  0  0  0  0  0
  1  2  1  6  0  0  0
  1  3  1  0  0  0  0
  3  4  1  6  0  0  0
  3  5  1  0  0  0  0
  5  6  1  1  0  0  0
  5  7  1  0  0  0  0
  7  8  1  6  0  0  0
  9  7  1  0  0  0  0
  9 10  1  0  0  0  0
  9 11  1  1  0  0  0
 10  1  1  0  0  0  0
 11 12  1  0  0  0  0
 13 14  1  1  0  0  0
 13 15  1  0  0  0  0
 13 22  1  0  0  0  0
 14 32  1  0  0  0  0
 15 16  1  1  0  0  0
 15 17  1  0  0  0  0
 16 23  1  0  0  0  0
 17 18  1  1  0  0  0
 17 19  1  0  0  0  0
 19  2  1  6  0  0  0
 19 20  1  0  0  0  0
 20 21  1  6  0  0  0
 20 22  1  0  0  0  0
 23 24  1  0  0  0  0
 24 25  1  0  0  0  0
 25 26  1  0  0  0  0
 26 27  1  0  0  0  0
 27 28  1  0  0  0  0
 28 29  1  0  0  0  0
 29 30  1  0  0  0  0
 31 37  1  0  0  0  0
 32 33  2  0  0  0  0
 34 32  1  6  0  0  0
 34 35  1  0  0  0  0
 34 36  1  0  0  0  0
 36 37  1  0  0  0  0
M  END
>  <CHROM.1>
-140.39656565,67.30390475,-91.30424509,54.21171149,-66.97793884,63.62003900
-120.59996974,-31.57990603,93.42354470,-77.99694873,174.63574007,85.55196050
-86.58513084,178.09679802,-73.43653787,-7.18947258,16.78390425,6.28088019
0.93777398,0.26685795,-2.36543702

>  <Name>
1o9m_lig

>  <RI>
0

>  <Rbt.Current_Directory>
/home/itssahil/PROJECTS/Mol_Feturizer/New_Systems/rnas/1o9m

>  <Rbt.Executable>
rbdock ($Id: //depot/dev/client3/rdock/2013.1/src/exe/rbdock.cxx#4 $)

>  <Rbt.Library>
libRbt.so (2013.1, Build901 2013/11/27)

>  <Rbt.Parameter_File>
/export/apps/rDock/src/rDock_2013.1_src/data/scripts/dock_solv.prm

>  <Rbt.Receptor>
prm/pocket_docking_2.prm

>  <SCORE>
-7.77139

>  <SCORE.INTER>
-9.18216

>  <SCORE.INTER.CONST>
1

>  <SCORE.INTER.POLAR>
-1.82181

>  <SCORE.INTER.ROT>
15

>  <SCORE.INTER.SOLV>
21.1641

>  <SCORE.INTER.VDW>
-20.7035

>  <SCORE.INTER.norm>
-0.248167

>  <SCORE.INTRA>
1.36141

>  <SCORE.INTRA.DIHEDRAL>
-2.81243

>  <SCORE.INTRA.DIHEDRAL.0>
21.5987

>  <SCORE.INTRA.POLAR>
0

>  <SCORE.INTRA.POLAR.0>
0

>  <SCORE.INTRA.REPUL>
0

>  <SCORE.INTRA.REPUL.0>
0

>  <SCORE.INTRA.SOLV>
3.59969

>  <SCORE.INTRA.SOLV.lig_0>
-108.715

>  <SCORE.INTRA.VDW>
0.967781

>  <SCORE.INTRA.VDW.0>
-3.9485

>  <SCORE.INTRA.norm>
0.0367949

>  <SCORE.RESTR>
0.0493599

>  <SCORE.RESTR.CAVITY>
0.0493599

>  <SCORE.RESTR.norm>
0.00133405

>  <SCORE.SYSTEM>
0

>  <SCORE.SYSTEM.CONST>
0

>  <SCORE.SYSTEM.DIHEDRAL>
0

>  <SCORE.SYSTEM.SOLV>
0

>  <SCORE.SYSTEM.norm>
0

>  <SCORE.heavy>
37

>  <SCORE.norm>
-0.210038

>  <RMSD>
1.261

$$$$
1o9m_lig
 OpenBabel11021811403D
libRbt.so/2013.1/901 2013/11/27
 37 38  0  0  0  0  0  0  0  0999 V2000
   -4.6210   14.2518    5.8493 C   0  0  2  0  0  0  0  0  0  0  0  0
   -5.1736   15.5035    5.3393 O   0  0  0  0  0  0  0  0  0  0  0  0
   -3.0856   14.2724    5.5076 C   0  0  2  0  0  0  0  0  0  0  0  0
   -2.3970   15.4281    6.1084 N   0  0  0  0  0  0  0  0  0  0  0  0
   -2.9068   14.2684    3.9417 C   0  0  1  0  0  0  0  0  0  0  0  0
   -1.5169   14.2851    3.6050 O   0  0  0  0  0  0  0  0  0  0  0  0
   -3.6385   13.0084    3.3722 C   0  0  2  0  0  0  0  0  0  0  0  0
   -3.5532   12.9135    1.9409 O   0  0  0  0  0  0  0  0  0  0  0  0
   -5.1311   13.0105    3.7852 C   0  0  2  0  0  0  0  0  0  0  0  0
   -5.2673   13.0997    5.2110 O   0  0  0  0  0  0  0  0  0  0  0  0
   -5.8463   11.7777    3.2961 C   0  0  0  0  0  0  0  0  0  0  0  0
   -7.2071   11.9652    3.3473 N   0  0  0  0  0  0  0  0  0  0  0  0
   -8.2520   18.2552    6.6706 C   0  0  1  0  0  0  0  0  0  0  0  0
   -9.5791   18.7602    7.1217 N   0  0  0  0  0  0  0  0  0  0  0  0
   -7.7655   17.2021    7.6569 C   0  0  2  0  0  0  0  0  0  0  0  0
   -7.7157   17.7899    8.9226 O   0  0  0  0  0  0  0  0  0  0  0  0
   -6.3654   16.6561    7.2333 C   0  0  1  0  0  0  0  0  0  0  0  0
   -5.9196   15.6321    8.1742 O   0  0  0  0  0  0  0  0  0  0  0  0
   -6.4613   16.0129    5.7901 C   0  0  1  0  0  0  0  0  0  0  0  0
   -6.9287   17.0610    4.7917 C   0  0  1  0  0  0  0  0  0  0  0  0
   -6.9954   16.4536    3.4710 N   0  0  0  0  0  0  0  0  0  0  0  0
   -8.3117   17.6181    5.2234 C   0  0  0  0  0  0  0  0  0  0  0  0
   -7.3102   18.6969    9.9712 C   0  0  0  0  0  0  0  0  0  0  0  0
   -7.7129   20.1042    9.5947 C   0  0  0  0  0  0  0  0  0  0  0  0
   -6.7758   21.1468   10.0613 N   0  0  0  0  0  0  0  0  0  0  0  0
   -5.5433   21.9371   10.2820 C   0  0  0  0  0  0  0  0  0  0  0  0
   -5.1162   21.2768   11.5990 C   0  0  0  0  0  0  0  0  0  0  0  0
   -4.6748   19.8141   11.4043 C   0  0  0  0  0  0  0  0  0  0  0  0
   -3.3661   19.7347   10.6244 C   0  0  0  0  0  0  0  0  0  0  0  0
   -2.2775   20.2899   11.4162 N   0  0  0  0  0  0  0  0  0  0  0  0
  -12.6562   22.4027    6.0384 N   0  0  0  0  0  0  0  0  0  0  0  0
  -10.9080   17.8819    6.3411 C   0  0  0  0  0  0  0  0  0  0  0  0
  -10.9735   17.0704    5.6332 O   0  0  0  0  0  0  0  0  0  0  0  0
  -11.8257   18.8019    7.1087 C   0  0  2  0  0  0  0  0  0  0  0  0
  -13.0952   18.2875    7.1849 O   0  0  0  0  0  0  0  0  0  0  0  0
  -11.9227   20.0969    6.3098 C   0  0  0  0  0  0  0  0  0  0  0  0
  -12.7454   21.2393    6.9326 C   0  0  0  0  0  0  0  0  0  0  0  0
  1  2  1  6  0  0  0
  1  3  1  0  0  0  0
  3  4  1  6  0  0  0
  3  5  1  0  0  0  0
  5  6  1  1  0  0  0
  5  7  1  0  0  0  0
  7  8  1  6  0  0  0
  9  7  1  0  0  0  0
  9 10  1  0  0  0  0
  9 11  1  1  0  0  0
 10  1  1  0  0  0  0
 11 12  1  0  0  0  0
 13 14  1  1  0  0  0
 13 15  1  0  0  0  0
 13 22  1  0  0  0  0
 14 32  1  0  0  0  0
 15 16  1  1  0  0  0
 15 17  1  0  0  0  0
 16 23  1  0  0  0  0
 17 18  1  1  0  0  0
 17 19  1  0  0  0  0
 19  2  1  6  0  0  0
 19 20  1  0  0  0  0
 20 21  1  6  0  0  0
 20 22  1  0  0  0  0
 23 24  1  0  0  0  0
 24 25  1  0  0  0  0
 25 26  1  0  0  0  0
 26 27  1  0  0  0  0
 27 28  1  0  0  0  0
 28 29  1  0  0  0  0
 29 30  1  0  0  0  0
 31 37  1  0  0  0  0
 32 33  2  0  0  0  0
 34 32  1  6  0  0  0
 34 35  1  0  0  0  0
 34 36  1  0  0  0  0
 36 37  1  0  0  0  0
M  END
>  <CHROM.1>
-162.31335480,-163.60531523,-94.15023914,-62.12425613,63.93113449,76.21552632
-146.16683723,57.24972304,-93.82040387,68.46989126,68.62705504,67.15202417
-161.14652816,-176.49599608,177.36659687,-6.79318995,17.11521104,6.66788671
-0.97611077,-0.29083622,0.78425413

>  <Name>
1o9m_lig

>  <RI>
0

>  <Rbt.Current_Directory>
/home/itssahil/PROJECTS/Mol_Feturizer/New_Systems/rnas/1o9m

>  <Rbt.Executable>
rbdock ($Id: //depot/dev/client3/rdock/2013.1/src/exe/rbdock.cxx#4 $)

>  <Rbt.Library>
libRbt.so (2013.1, Build901 2013/11/27)

>  <Rbt.Parameter_File>
/export/apps/rDock/src/rDock_2013.1_src/data/scripts/dock_solv.prm

>  <Rbt.Receptor>
prm/pocket_docking_4.prm

>  <SCORE>
-14.0984

>  <SCORE.INTER>
-11.1802

>  <SCORE.INTER.CONST>
1

>  <SCORE.INTER.POLAR>
-1.06548

>  <SCORE.INTER.ROT>
15

>  <SCORE.INTER.SOLV>
18.1088

>  <SCORE.INTER.VDW>
-23.5381

>  <SCORE.INTER.norm>
-0.302167

>  <SCORE.INTRA>
-2.91822

>  <SCORE.INTRA.DIHEDRAL>
-10.965

>  <SCORE.INTRA.DIHEDRAL.0>
21.5987

>  <SCORE.INTRA.POLAR>
0

>  <SCORE.INTRA.POLAR.0>
0

>  <SCORE.INTRA.REPUL>
0

>  <SCORE.INTRA.REPUL.0>
0

>  <SCORE.INTRA.SOLV>
0.633186

>  <SCORE.INTRA.SOLV.lig_0>
-108.715

>  <SCORE.INTRA.VDW>
2.24771

>  <SCORE.INTRA.VDW.0>
-3.9485

>  <SCORE.INTRA.norm>
-0.0788708

>  <SCORE.RESTR>
0

>  <SCORE.RESTR.CAVITY>
0

>  <SCORE.RESTR.norm>
0

>  <SCORE.SYSTEM>
0

>  <SCORE.SYSTEM.CONST>
0

>  <SCORE.SYSTEM.DIHEDRAL>
0

>  <SCORE.SYSTEM.SOLV>
0

>  <SCORE.SYSTEM.norm>
0

>  <SCORE.heavy>
37

>  <SCORE.norm>
-0.381038

>  <RMSD>
1.282

$$$$
1o9m_lig
 OpenBabel11021811403D
libRbt.so/2013.1/901 2013/11/27
 37 38  0  0  0  0  0  0  0  0999 V2000
   -5.0406   14.2700    5.6561 C   0  0  2  0  0  0  0  0  0  0  0  0
   -5.7279   15.4442    5.1259 O   0  0  0  0  0  0  0  0  0  0  0  0
   -3.5104   14.4779    5.3561 C   0  0  2  0  0  0  0  0  0  0  0  0
   -2.9852   15.7098    5.9705 N   0  0  0  0  0  0  0  0  0  0  0  0
   -3.2894   14.4944    3.7958 C   0  0  1  0  0  0  0  0  0  0  0  0
   -1.9033   14.6807    3.4969 O   0  0  0  0  0  0  0  0  0  0  0  0
   -3.8456   13.1538    3.2119 C   0  0  2  0  0  0  0  0  0  0  0  0
   -3.7100   13.0688    1.7839 O   0  0  0  0  0  0  0  0  0  0  0  0
   -5.3381   12.9737    3.5842 C   0  0  2  0  0  0  0  0  0  0  0  0
   -5.5234   13.0468    5.0053 O   0  0  0  0  0  0  0  0  0  0  0  0
   -5.8835   11.6622    3.0811 C   0  0  0  0  0  0  0  0  0  0  0  0
   -5.3471   10.6180    3.7961 N   0  0  0  0  0  0  0  0  0  0  0  0
   -8.7810   18.0192    6.8195 C   0  0  1  0  0  0  0  0  0  0  0  0
  -10.0965   18.4639    7.3592 N   0  0  0  0  0  0  0  0  0  0  0  0
   -8.2570   16.8775    7.6799 C   0  0  2  0  0  0  0  0  0  0  0  0
   -8.1715   17.3361    8.9962 O   0  0  0  0  0  0  0  0  0  0  0  0
   -6.8674   16.3900    7.1613 C   0  0  1  0  0  0  0  0  0  0  0  0
   -6.3858   15.2813    7.9807 O   0  0  0  0  0  0  0  0  0  0  0  0
   -7.0042   15.8935    5.6645 C   0  0  1  0  0  0  0  0  0  0  0  0
   -7.5093   17.0318    4.7909 C   0  0  1  0  0  0  0  0  0  0  0  0
   -7.6133   16.5589    3.4186 N   0  0  0  0  0  0  0  0  0  0  0  0
   -8.8817   17.5296    5.3182 C   0  0  0  0  0  0  0  0  0  0  0  0
   -7.6037   17.9494   10.1744 C   0  0  0  0  0  0  0  0  0  0  0  0
   -6.3173   18.6490    9.7999 C   0  0  0  0  0  0  0  0  0  0  0  0
   -6.5091   19.9744    9.1758 N   0  0  0  0  0  0  0  0  0  0  0  0
   -6.9101   21.3822    8.9528 C   0  0  0  0  0  0  0  0  0  0  0  0
   -5.6573   22.0421    9.5427 C   0  0  0  0  0  0  0  0  0  0  0  0
   -4.3937   21.7448    8.7138 C   0  0  0  0  0  0  0  0  0  0  0  0
   -3.1403   21.8088    9.5812 C   0  0  0  0  0  0  0  0  0  0  0  0
   -2.9867   20.5698   10.3304 N   0  0  0  0  0  0  0  0  0  0  0  0
  -14.8130   20.5908    7.8552 N   0  0  0  0  0  0  0  0  0  0  0  0
  -10.6050   20.0052    6.6433 C   0  0  0  0  0  0  0  0  0  0  0  0
  -10.1903   20.6784    5.9092 O   0  0  0  0  0  0  0  0  0  0  0  0
  -11.8147   19.9007    7.5395 C   0  0  2  0  0  0  0  0  0  0  0  0
  -12.7219   18.9973    7.0469 O   0  0  0  0  0  0  0  0  0  0  0  0
  -12.4970   21.2641    7.5217 C   0  0  0  0  0  0  0  0  0  0  0  0
  -13.7424   21.4311    8.4110 C   0  0  0  0  0  0  0  0  0  0  0  0
  1  2  1  6  0  0  0
  1  3  1  0  0  0  0
  3  4  1  6  0  0  0
  3  5  1  0  0  0  0
  5  6  1  1  0  0  0
  5  7  1  0  0  0  0
  7  8  1  6  0  0  0
  9  7  1  0  0  0  0
  9 10  1  0  0  0  0
  9 11  1  1  0  0  0
 10  1  1  0  0  0  0
 11 12  1  0  0  0  0
 13 14  1  1  0  0  0
 13 15  1  0  0  0  0
 13 22  1  0  0  0  0
 14 32  1  0  0  0  0
 15 16  1  1  0  0  0
 15 17  1  0  0  0  0
 16 23  1  0  0  0  0
 17 18  1  1  0  0  0
 17 19  1  0  0  0  0
 19  2  1  6  0  0  0
 19 20  1  0  0  0  0
 20 21  1  6  0  0  0
 20 22  1  0  0  0  0
 23 24  1  0  0  0  0
 24 25  1  0  0  0  0
 25 26  1  0  0  0  0
 26 27  1  0  0  0  0
 27 28  1  0  0  0  0
 28 29  1  0  0  0  0
 29 30  1  0  0  0  0
 31 37  1  0  0  0  0
 32 33  2  0  0  0  0
 34 32  1  6  0  0  0
 34 35  1  0  0  0  0
 34 36  1  0  0  0  0
 36 37  1  0  0  0  0
M  END
>  <CHROM.1>
-154.07578763,70.51458630,167.54789568,-88.54003454,10.34742471,65.54493331
80.01163686,59.39157179,88.82675641,65.93258420,-153.29400124,80.15887063
-76.79774241,-177.79763100,-67.80511315,-7.06004662,17.28117731,6.54104770
0.93224777,0.14402249,-2.49058484

>  <Name>
1o9m_lig

>  <RI>
0

>  <Rbt.Current_Directory>
/home/itssahil/PROJECTS/Mol_Feturizer/New_Systems/rnas/1o9m

>  <Rbt.Executable>
rbdock ($Id: //depot/dev/client3/rdock/2013.1/src/exe/rbdock.cxx#4 $)

>  <Rbt.Library>
libRbt.so (2013.1, Build901 2013/11/27)

>  <Rbt.Parameter_File>
/export/apps/rDock/src/rDock_2013.1_src/data/scripts/dock_solv.prm

>  <Rbt.Receptor>
prm/pocket_docking_2.prm

>  <SCORE>
-5.03121

>  <SCORE.INTER>
-7.76319

>  <SCORE.INTER.CONST>
1

>  <SCORE.INTER.POLAR>
-0.959166

>  <SCORE.INTER.ROT>
15

>  <SCORE.INTER.SOLV>
17.2842

>  <SCORE.INTER.VDW>
-21.3396

>  <SCORE.INTER.norm>
-0.209816

>  <SCORE.INTRA>
2.04503

>  <SCORE.INTRA.DIHEDRAL>
-0.838005

>  <SCORE.INTRA.DIHEDRAL.0>
21.5987

>  <SCORE.INTRA.POLAR>
0

>  <SCORE.INTRA.POLAR.0>
0

>  <SCORE.INTRA.REPUL>
0

>  <SCORE.INTRA.REPUL.0>
0

>  <SCORE.INTRA.SOLV>
5.03737

>  <SCORE.INTRA.SOLV.lig_0>
-108.715

>  <SCORE.INTRA.VDW>
-0.0546483

>  <SCORE.INTRA.VDW.0>
-3.9485

>  <SCORE.INTRA.norm>
0.0552711

>  <SCORE.RESTR>
0.686951

>  <SCORE.RESTR.CAVITY>
0.686951

>  <SCORE.RESTR.norm>
0.0185663

>  <SCORE.SYSTEM>
0

>  <SCORE.SYSTEM.CONST>
0

>  <SCORE.SYSTEM.DIHEDRAL>
0

>  <SCORE.SYSTEM.SOLV>
0

>  <SCORE.SYSTEM.norm>
0

>  <SCORE.heavy>
37

>  <SCORE.norm>
-0.135979

>  <RMSD>
1.341

$$$$
1o9m_lig
 OpenBabel11021811403D
libRbt.so/2013.1/901 2013/11/27
 37 38  0  0  0  0  0  0  0  0999 V2000
   -4.4490   13.7744    4.6749 C   0  0  2  0  0  0  0  0  0  0  0  0
   -5.4662   14.6836    4.1543 O   0  0  0  0  0  0  0  0  0  0  0  0
   -3.1964   13.9245    3.7353 C   0  0  2  0  0  0  0  0  0  0  0  0
   -2.6893   15.3074    3.7002 N   0  0  0  0  0  0  0  0  0  0  0  0
   -3.5775   13.4330    2.2872 C   0  0  1  0  0  0  0  0  0  0  0  0
   -2.4525   13.5579    1.4129 O   0  0  0  0  0  0  0  0  0  0  0  0
   -4.0837   11.9564    2.3926 C   0  0  2  0  0  0  0  0  0  0  0  0
   -4.4770   11.4099    1.1232 O   0  0  0  0  0  0  0  0  0  0  0  0
   -5.2795   11.8578    3.3717 C   0  0  2  0  0  0  0  0  0  0  0  0
   -4.9322   12.3892    4.6587 O   0  0  0  0  0  0  0  0  0  0  0  0
   -5.7506   10.4358    3.5344 C   0  0  0  0  0  0  0  0  0  0  0  0
   -6.4124   10.0213    2.4032 N   0  0  0  0  0  0  0  0  0  0  0  0
   -8.3444   17.2564    6.1334 C   0  0  1  0  0  0  0  0  0  0  0  0
   -9.5108   17.6780    6.9588 N   0  0  0  0  0  0  0  0  0  0  0  0
   -7.3869   16.4575    7.0070 C   0  0  2  0  0  0  0  0  0  0  0  0
   -7.0188   17.2619    8.0876 O   0  0  0  0  0  0  0  0  0  0  0  0
   -6.1366   16.0091    6.1864 C   0  0  1  0  0  0  0  0  0  0  0  0
   -5.2369   15.2259    7.0287 O   0  0  0  0  0  0  0  0  0  0  0  0
   -6.5970   15.1138    4.9648 C   0  0  1  0  0  0  0  0  0  0  0  0
   -7.5399   15.9080    4.0738 C   0  0  1  0  0  0  0  0  0  0  0  0
   -7.9386   15.0727    2.9508 N   0  0  0  0  0  0  0  0  0  0  0  0
   -8.7735   16.3706    4.8945 C   0  0  0  0  0  0  0  0  0  0  0  0
   -6.4031   18.3538    8.8054 C   0  0  0  0  0  0  0  0  0  0  0  0
   -6.7139   18.2186   10.2784 C   0  0  0  0  0  0  0  0  0  0  0  0
   -5.8492   19.0338   11.1563 N   0  0  0  0  0  0  0  0  0  0  0  0
   -4.8554   20.0242   11.6293 C   0  0  0  0  0  0  0  0  0  0  0  0
   -3.7597   19.7136   10.6017 C   0  0  0  0  0  0  0  0  0  0  0  0
   -2.4288   20.4132   10.9356 C   0  0  0  0  0  0  0  0  0  0  0  0
   -1.6127   19.5944   11.9310 C   0  0  0  0  0  0  0  0  0  0  0  0
   -2.4287   19.2568   13.0888 N   0  0  0  0  0  0  0  0  0  0  0  0
  -13.3518   21.3335    6.9318 N   0  0  0  0  0  0  0  0  0  0  0  0
  -10.8197   18.3250    5.9513 C   0  0  0  0  0  0  0  0  0  0  0  0
  -10.9658   18.4706    4.8923 O   0  0  0  0  0  0  0  0  0  0  0  0
  -11.5556   18.5640    7.2470 C   0  0  2  0  0  0  0  0  0  0  0  0
  -12.9009   18.3364    7.1040 O   0  0  0  0  0  0  0  0  0  0  0  0
  -11.3924   20.0425    7.5819 C   0  0  0  0  0  0  0  0  0  0  0  0
  -11.9559   21.0527    6.5661 C   0  0  0  0  0  0  0  0  0  0  0  0
  1  2  1  6  0  0  0
  1  3  1  0  0  0  0
  3  4  1  6  0  0  0
  3  5  1  0  0  0  0
  5  6  1  6  0  0  0
  5  7  1  0  0  0  0
  7  8  1  6  0  0  0
  9  7  1  0  0  0  0
  9 10  1  0  0  0  0
  9 11  1  1  0  0  0
 10  1  1  0  0  0  0
 11 12  1  0  0  0  0
 13 14  1  1  0  0  0
 13 15  1  0  0  0  0
 13 22  1  0  0  0  0
 14 32  1  0  0  0  0
 15 16  1  1  0  0  0
 15 17  1  0  0  0  0
 16 23  1  0  0  0  0
 17 18  1  1  0  0  0
 17 19  1  0  0  0  0
 19  2  1  6  0  0  0
 19 20  1  0  0  0  0
 20 21  1  6  0  0  0
 20 22  1  0  0  0  0
 23 24  1  0  0  0  0
 24 25  1  0  0  0  0
 25 26  1  0  0  0  0
 26 27  1  0  0  0  0
 27 28  1  0  0  0  0
 28 29  1  0  0  0  0
 29 30  1  0  0  0  0
 31 37  1  0  0  0  0
 32 33  2  0  0  0  0
 34 32  1  6  0  0  0
 34 35  1  0  0  0  0
 34 36  1  0  0  0  0
 36 37  1  0  0  0  0
M  END
>  <CHROM.1>
-161.61049149,-72.83140478,-168.49856528,-67.80377228,-179.74191301,66.03555189
163.73616826,9.70064889,-44.96044154,-170.17909078,84.47358711,-51.88633832
-143.52711281,60.89229180,89.89972501,-6.59585593,16.36045761,6.21769045
-1.22346466,-0.32108467,0.84977563

>  <Name>
1o9m_lig

>  <RI>
0

>  <Rbt.Current_Directory>
/home/itssahil/PROJECTS/Mol_Feturizer/New_Systems/rnas/1o9m

>  <Rbt.Executable>
rbdock ($Id: //depot/dev/client3/rdock/2013.1/src/exe/rbdock.cxx#4 $)

>  <Rbt.Library>
libRbt.so (2013.1, Build901 2013/11/27)

>  <Rbt.Parameter_File>
/export/apps/rDock/src/rDock_2013.1_src/data/scripts/dock_solv.prm

>  <Rbt.Receptor>
prm/pocket_docking_2.prm

>  <SCORE>
-11.6688

>  <SCORE.INTER>
-10.8111

>  <SCORE.INTER.CONST>
1

>  <SCORE.INTER.POLAR>
-0.959166

>  <SCORE.INTER.ROT>
15

>  <SCORE.INTER.SOLV>
20.6

>  <SCORE.INTER.VDW>
-24.4768

>  <SCORE.INTER.norm>
-0.292192

>  <SCORE.INTRA>
-1.37355

>  <SCORE.INTRA.DIHEDRAL>
-9.05037

>  <SCORE.INTRA.DIHEDRAL.0>
21.5987

>  <SCORE.INTRA.POLAR>
0

>  <SCORE.INTRA.POLAR.0>
0

>  <SCORE.INTRA.REPUL>
0

>  <SCORE.INTRA.REPUL.0>
0

>  <SCORE.INTRA.SOLV>
3.53459

>  <SCORE.INTRA.SOLV.lig_0>
-108.715

>  <SCORE.INTRA.VDW>
1.38434

>  <SCORE.INTRA.VDW.0>
-3.9485

>  <SCORE.INTRA.norm>
-0.0371229

>  <SCORE.RESTR>
0.515801

>  <SCORE.RESTR.CAVITY>
0.515801

>  <SCORE.RESTR.norm>
0.0139406

>  <SCORE.SYSTEM>
0

>  <SCORE.SYSTEM.CONST>
0

>  <SCORE.SYSTEM.DIHEDRAL>
0

>  <SCORE.SYSTEM.SOLV>
0

>  <SCORE.SYSTEM.norm>
0

>  <SCORE.heavy>
37

>  <SCORE.norm>
-0.315374

>  <RMSD>
1.351

$$$$
1o9m_lig
 OpenBabel11021811403D
libRbt.so/2013.1/901 2013/11/27
 37 38  0  0  0  0  0  0  0  0999 V2000
   -4.4445   13.7697    4.5990 C   0  0  2  0  0  0  0  0  0  0  0  0
   -5.4225   14.7129    4.0640 O   0  0  0  0  0  0  0  0  0  0  0  0
   -3.1881   13.8501    3.6559 C   0  0  2  0  0  0  0  0  0  0  0  0
   -2.6221   15.2092    3.5973 N   0  0  0  0  0  0  0  0  0  0  0  0
   -3.5921   13.3513    2.2166 C   0  0  1  0  0  0  0  0  0  0  0  0
   -2.4641   13.4133    1.3394 O   0  0  0  0  0  0  0  0  0  0  0  0
   -4.1611   11.8999    2.3471 C   0  0  2  0  0  0  0  0  0  0  0  0
   -4.5795   11.3496    1.0873 O   0  0  0  0  0  0  0  0  0  0  0  0
   -5.3586   11.8691    3.3287 C   0  0  2  0  0  0  0  0  0  0  0  0
   -4.9868   12.4064    4.6063 O   0  0  0  0  0  0  0  0  0  0  0  0
   -5.8901   10.4715    3.5155 C   0  0  0  0  0  0  0  0  0  0  0  0
   -6.5433   10.0550    2.3801 N   0  0  0  0  0  0  0  0  0  0  0  0
   -8.5920   17.1647    5.7264 C   0  0  1  0  0  0  0  0  0  0  0  0
   -9.8049   17.5492    6.5014 N   0  0  0  0  0  0  0  0  0  0  0  0
   -7.5545   16.5981    6.6860 C   0  0  2  0  0  0  0  0  0  0  0  0
   -7.2892   17.5692    7.6539 O   0  0  0  0  0  0  0  0  0  0  0  0
   -6.2553   16.1974    5.9184 C   0  0  1  0  0  0  0  0  0  0  0  0
   -5.2768   15.6356    6.8455 O   0  0  0  0  0  0  0  0  0  0  0  0
   -6.6009   15.1083    4.8229 C   0  0  1  0  0  0  0  0  0  0  0  0
   -7.6233   15.6697    3.8465 C   0  0  1  0  0  0  0  0  0  0  0  0
   -7.9152   14.6593    2.8408 N   0  0  0  0  0  0  0  0  0  0  0  0
   -8.9075   16.0863    4.6123 C   0  0  0  0  0  0  0  0  0  0  0  0
   -6.7036   18.1779    8.8257 C   0  0  0  0  0  0  0  0  0  0  0  0
   -7.0847   19.6399    8.8697 C   0  0  0  0  0  0  0  0  0  0  0  0
   -6.4591   20.3950    9.9748 N   0  0  0  0  0  0  0  0  0  0  0  0
   -5.4703   20.8969   10.9560 C   0  0  0  0  0  0  0  0  0  0  0  0
   -5.1267   19.5481   11.6006 C   0  0  0  0  0  0  0  0  0  0  0  0
   -4.1698   19.6984   12.7981 C   0  0  0  0  0  0  0  0  0  0  0  0
   -3.8446   18.3414   13.4147 C   0  0  0  0  0  0  0  0  0  0  0  0
   -3.1065   17.5234   12.4627 N   0  0  0  0  0  0  0  0  0  0  0  0
  -12.9719   21.5140    6.8855 N   0  0  0  0  0  0  0  0  0  0  0  0
  -10.8976   18.5614    5.5380 C   0  0  0  0  0  0  0  0  0  0  0  0
  -10.8895   18.9471    4.5304 O   0  0  0  0  0  0  0  0  0  0  0  0
  -11.7659   18.6127    6.7713 C   0  0  2  0  0  0  0  0  0  0  0  0
  -13.0855   18.7940    6.4431 O   0  0  0  0  0  0  0  0  0  0  0  0
  -11.3363   19.8426    7.5634 C   0  0  0  0  0  0  0  0  0  0  0  0
  -11.5334   21.2109    6.8861 C   0  0  0  0  0  0  0  0  0  0  0  0
  1  2  1  6  0  0  0
  1  3  1  0  0  0  0
  3  4  1  6  0  0  0
  3  5  1  0  0  0  0
  5  6  1  6  0  0  0
  5  7  1  0  0  0  0
  7  8  1  6  0  0  0
  9  7  1  0  0  0  0
  9 10  1  0  0  0  0
  9 11  1  1  0  0  0
 10  1  1  0  0  0  0
 11 12  1  0  0  0  0
 13 14  1  1  0  0  0
 13 15  1  0  0  0  0
 13 22  1  0  0  0  0
 14 32  1  0  0  0  0
 15 16  1  1  0  0  0
 15 17  1  0  0  0  0
 16 23  1  0  0  0  0
 17 18  1  1  0  0  0
 17 19  1  0  0  0  0
 19  2  1  6  0  0  0
 19 20  1  0  0  0  0
 20 21  1  6  0  0  0
 20 22  1  0  0  0  0
 23 24  1  0  0  0  0
 24 25  1  0  0  0  0
 25 26  1  0  0  0  0
 26 27  1  0  0  0  0
 27 28  1  0  0  0  0
 28 29  1  0  0  0  0
 29 30  1  0  0  0  0
 31 37  1  0  0  0  0
 32 33  2  0  0  0  0
 34 32  1  6  0  0  0
 34 35  1  0  0  0  0
 34 36  1  0  0  0  0
 36 37  1  0  0  0  0
M  END
>  <CHROM.1>
-167.47292696,-71.39786611,166.43771575,178.16706179,171.89356968,79.01382438
-175.68182281,41.19692859,-57.41574057,-175.12274242,-179.85930693,64.88428325
-152.31408711,63.05238156,72.91526811,-6.84508085,16.37794878,6.08934937
-1.16261696,-0.43577565,0.90728638

>  <Name>
1o9m_lig

>  <RI>
0

>  <Rbt.Current_Directory>
/home/itssahil/PROJECTS/Mol_Feturizer/New_Systems/rnas/1o9m

>  <Rbt.Executable>
rbdock ($Id: //depot/dev/client3/rdock/2013.1/src/exe/rbdock.cxx#4 $)

>  <Rbt.Library>
libRbt.so (2013.1, Build901 2013/11/27)

>  <Rbt.Parameter_File>
/export/apps/rDock/src/rDock_2013.1_src/data/scripts/dock_solv.prm

>  <Rbt.Receptor>
prm/pocket_docking_3.prm

>  <SCORE>
-22.2723

>  <SCORE.INTER>
-15.9368

>  <SCORE.INTER.CONST>
1

>  <SCORE.INTER.POLAR>
-0.959166

>  <SCORE.INTER.ROT>
15

>  <SCORE.INTER.SOLV>
18.1936

>  <SCORE.INTER.VDW>
-27.0918

>  <SCORE.INTER.norm>
-0.430723

>  <SCORE.INTRA>
-6.33549

>  <SCORE.INTRA.DIHEDRAL>
-15.3925

>  <SCORE.INTRA.DIHEDRAL.0>
21.5987

>  <SCORE.INTRA.POLAR>
0

>  <SCORE.INTRA.POLAR.0>
0

>  <SCORE.INTRA.REPUL>
0

>  <SCORE.INTRA.REPUL.0>
0

>  <SCORE.INTRA.SOLV>
2.63321

>  <SCORE.INTRA.SOLV.lig_0>
-108.715

>  <SCORE.INTRA.VDW>
0.0441375

>  <SCORE.INTRA.VDW.0>
-3.9485

>  <SCORE.INTRA.norm>
-0.17123

>  <SCORE.RESTR>
0

>  <SCORE.RESTR.CAVITY>
0

>  <SCORE.RESTR.norm>
0

>  <SCORE.SYSTEM>
0

>  <SCORE.SYSTEM.CONST>
0

>  <SCORE.SYSTEM.DIHEDRAL>
0

>  <SCORE.SYSTEM.SOLV>
0

>  <SCORE.SYSTEM.norm>
0

>  <SCORE.heavy>
37

>  <SCORE.norm>
-0.601953

>  <RMSD>
1.357

$$$$
1o9m_lig
 OpenBabel11021811403D
libRbt.so/2013.1/901 2013/11/27
 37 38  0  0  0  0  0  0  0  0999 V2000
   -3.7947   14.3626    6.2179 C   0  0  2  0  0  0  0  0  0  0  0  0
   -4.5450   15.5440    5.8014 O   0  0  0  0  0  0  0  0  0  0  0  0
   -2.2833   14.6618    5.9009 C   0  0  2  0  0  0  0  0  0  0  0  0
   -1.7946   15.8622    6.6016 N   0  0  0  0  0  0  0  0  0  0  0  0
   -2.1046   14.8138    4.3424 C   0  0  1  0  0  0  0  0  0  0  0  0
   -0.7360   15.0850    4.0279 O   0  0  0  0  0  0  0  0  0  0  0  0
   -2.6187   13.5013    3.6639 C   0  0  2  0  0  0  0  0  0  0  0  0
   -2.5176   13.5378    2.2310 O   0  0  0  0  0  0  0  0  0  0  0  0
   -4.0918   13.2256    4.0544 C   0  0  2  0  0  0  0  0  0  0  0  0
   -4.2423   13.1756    5.4807 O   0  0  0  0  0  0  0  0  0  0  0  0
   -4.5943   11.9360    3.4585 C   0  0  0  0  0  0  0  0  0  0  0  0
   -5.5893   11.4047    4.2439 N   0  0  0  0  0  0  0  0  0  0  0  0
   -8.4881   17.3012    6.2308 C   0  0  1  0  0  0  0  0  0  0  0  0
   -9.9533   17.4106    6.4779 N   0  0  0  0  0  0  0  0  0  0  0  0
   -7.8192   16.7430    7.4795 C   0  0  2  0  0  0  0  0  0  0  0  0
   -8.1233   17.5923    8.5456 O   0  0  0  0  0  0  0  0  0  0  0  0
   -6.2759   16.6280    7.2728 C   0  0  1  0  0  0  0  0  0  0  0  0
   -5.6488   16.0715    8.4684 O   0  0  0  0  0  0  0  0  0  0  0  0
   -5.9746   15.6707    6.0486 C   0  0  1  0  0  0  0  0  0  0  0  0
   -6.6224   16.2282    4.7902 C   0  0  1  0  0  0  0  0  0  0  0  0
   -6.3209   15.3423    3.6758 N   0  0  0  0  0  0  0  0  0  0  0  0
   -8.1543   16.3611    5.0026 C   0  0  0  0  0  0  0  0  0  0  0  0
   -8.1228   18.7863    9.3586 C   0  0  0  0  0  0  0  0  0  0  0  0
   -6.7311   19.0181    9.9008 C   0  0  0  0  0  0  0  0  0  0  0  0
   -6.5084   20.3780   10.4337 N   0  0  0  0  0  0  0  0  0  0  0  0
   -5.8593   21.6524   10.8171 C   0  0  0  0  0  0  0  0  0  0  0  0
   -4.5328   21.0602   11.3096 C   0  0  0  0  0  0  0  0  0  0  0  0
   -3.6761   20.5042   10.1568 C   0  0  0  0  0  0  0  0  0  0  0  0
   -2.3405   19.9756   10.6707 C   0  0  0  0  0  0  0  0  0  0  0  0
   -2.5590   18.8384   11.5535 N   0  0  0  0  0  0  0  0  0  0  0  0
  -14.1415   19.0350    8.2349 N   0  0  0  0  0  0  0  0  0  0  0  0
  -10.6456   18.8261    5.6633 C   0  0  0  0  0  0  0  0  0  0  0  0
  -10.2556   19.6080    5.0304 O   0  0  0  0  0  0  0  0  0  0  0  0
  -11.9567   18.4096    6.2839 C   0  0  2  0  0  0  0  0  0  0  0  0
  -12.5686   17.4306    5.5429 O   0  0  0  0  0  0  0  0  0  0  0  0
  -12.8716   19.6285    6.2440 C   0  0  0  0  0  0  0  0  0  0  0  0
  -14.2832   19.4593    6.8346 C   0  0  0  0  0  0  0  0  0  0  0  0
  1  2  1  6  0  0  0
  1  3  1  0  0  0  0
  3  4  1  1  0  0  0
  3  5  1  0  0  0  0
  5  6  1  1  0  0  0
  5  7  1  0  0  0  0
  7  8  1  6  0  0  0
  9  7  1  0  0  0  0
  9 10  1  0  0  0  0
  9 11  1  6  0  0  0
 10  1  1  0  0  0  0
 11 12  1  0  0  0  0
 13 14  1  1  0  0  0
 13 15  1  0  0  0  0
 13 22  1  0  0  0  0
 14 32  1  0  0  0  0
 15 16  1  1  0  0  0
 15 17  1  0  0  0  0
 16 23  1  0  0  0  0
 17 18  1  1  0  0  0
 17 19  1  0  0  0  0
 19  2  1  6  0  0  0
 19 20  1  0  0  0  0
 20 21  1  6  0  0  0
 20 22  1  0  0  0  0
 23 24  1  0  0  0  0
 24 25  1  0  0  0  0
 25 26  1  0  0  0  0
 26 27  1  0  0  0  0
 27 28  1  0  0  0  0
 28 29  1  0  0  0  0
 29 30  1  0  0  0  0
 31 37  1  0  0  0  0
 32 33  2  0  0  0  0
 34 32  1  6  0  0  0
 34 35  1  0  0  0  0
 34 36  1  0  0  0  0
 36 37  1  0  0  0  0
M  END
>  <CHROM.1>
-174.75518712,152.53810818,145.10885239,-68.18651047,-65.79997030,102.53289167
164.23102906,-148.52145508,-40.11532505,70.23768562,177.64521905,64.37521279
-82.46237479,-179.62985089,57.70745281,-6.45845556,16.88703109,6.69792484
0.61516671,0.21601447,-2.32503341

>  <Name>
1o9m_lig

>  <RI>
0

>  <Rbt.Current_Directory>
/home/itssahil/PROJECTS/Mol_Feturizer/New_Systems/rnas/1o9m

>  <Rbt.Executable>
rbdock ($Id: //depot/dev/client3/rdock/2013.1/src/exe/rbdock.cxx#4 $)

>  <Rbt.Library>
libRbt.so (2013.1, Build901 2013/11/27)

>  <Rbt.Parameter_File>
/export/apps/rDock/src/rDock_2013.1_src/data/scripts/dock_solv.prm

>  <Rbt.Receptor>
prm/pocket_docking_3.prm

>  <SCORE>
-17.9243

>  <SCORE.INTER>
-15.6242

>  <SCORE.INTER.CONST>
1

>  <SCORE.INTER.POLAR>
-2.20214

>  <SCORE.INTER.ROT>
15

>  <SCORE.INTER.SOLV>
20.6354

>  <SCORE.INTER.VDW>
-23.5541

>  <SCORE.INTER.norm>
-0.422275

>  <SCORE.INTRA>
-2.30017

>  <SCORE.INTRA.DIHEDRAL>
-8.67251

>  <SCORE.INTRA.DIHEDRAL.0>
21.5987

>  <SCORE.INTRA.POLAR>
0

>  <SCORE.INTRA.POLAR.0>
0

>  <SCORE.INTRA.REPUL>
0

>  <SCORE.INTRA.REPUL.0>
0

>  <SCORE.INTRA.SOLV>
3.58777

>  <SCORE.INTRA.SOLV.lig_0>
-108.715

>  <SCORE.INTRA.VDW>
0.242201

>  <SCORE.INTRA.VDW.0>
-3.9485

>  <SCORE.INTRA.norm>
-0.0621667

>  <SCORE.RESTR>
0

>  <SCORE.RESTR.CAVITY>
0

>  <SCORE.RESTR.norm>
0

>  <SCORE.SYSTEM>
0

>  <SCORE.SYSTEM.CONST>
0

>  <SCORE.SYSTEM.DIHEDRAL>
0

>  <SCORE.SYSTEM.SOLV>
0

>  <SCORE.SYSTEM.norm>
0

>  <SCORE.heavy>
37

>  <SCORE.norm>
-0.484442

>  <RMSD>
1.359

$$$$
1o9m_lig
 OpenBabel11021811403D
libRbt.so/2013.1/901 2013/11/27
 37 38  0  0  0  0  0  0  0  0999 V2000
   -4.6525   14.2308    5.8831 C   0  0  2  0  0  0  0  0  0  0  0  0
   -5.2105   15.4509    5.3068 O   0  0  0  0  0  0  0  0  0  0  0  0
   -3.1229   14.2254    5.5157 C   0  0  2  0  0  0  0  0  0  0  0  0
   -2.4218   15.4134    6.0335 N   0  0  0  0  0  0  0  0  0  0  0  0
   -2.9700   14.1254    3.9503 C   0  0  1  0  0  0  0  0  0  0  0  0
   -1.5858   14.1169    3.5905 O   0  0  0  0  0  0  0  0  0  0  0  0
   -3.7139   12.8354    3.4707 C   0  0  2  0  0  0  0  0  0  0  0  0
   -3.6525   12.6532    2.0467 O   0  0  0  0  0  0  0  0  0  0  0  0
   -5.1995   12.8677    3.9071 C   0  0  2  0  0  0  0  0  0  0  0  0
   -5.3119   13.0440    5.3268 O   0  0  0  0  0  0  0  0  0  0  0  0
   -5.9255   11.6098    3.5059 C   0  0  0  0  0  0  0  0  0  0  0  0
   -6.1193   11.5855    2.1453 N   0  0  0  0  0  0  0  0  0  0  0  0
   -8.4553   18.1736    6.2444 C   0  0  1  0  0  0  0  0  0  0  0  0
   -9.8141   18.6570    6.6181 N   0  0  0  0  0  0  0  0  0  0  0  0
   -7.9219   17.2913    7.3649 C   0  0  2  0  0  0  0  0  0  0  0  0
   -7.9205   18.0446    8.5408 O   0  0  0  0  0  0  0  0  0  0  0  0
   -6.4882   16.7753    7.0243 C   0  0  1  0  0  0  0  0  0  0  0  0
   -5.9965   15.9134    8.0956 O   0  0  0  0  0  0  0  0  0  0  0  0
   -6.5303   15.9408    5.6797 C   0  0  1  0  0  0  0  0  0  0  0  0
   -7.0442   16.8177    4.5480 C   0  0  1  0  0  0  0  0  0  0  0  0
   -7.0607   16.0367    3.3203 N   0  0  0  0  0  0  0  0  0  0  0  0
   -8.4615   17.3468    4.8953 C   0  0  0  0  0  0  0  0  0  0  0  0
   -7.7366   18.3586    9.9387 C   0  0  0  0  0  0  0  0  0  0  0  0
   -7.5327   19.8485   10.0911 C   0  0  0  0  0  0  0  0  0  0  0  0
   -6.1264   20.2828    9.9624 N   0  0  0  0  0  0  0  0  0  0  0  0
   -4.8648   21.0402   10.1271 C   0  0  0  0  0  0  0  0  0  0  0  0
   -3.9279   20.0088    9.4857 C   0  0  0  0  0  0  0  0  0  0  0  0
   -3.5911   18.8494   10.4421 C   0  0  0  0  0  0  0  0  0  0  0  0
   -2.6299   19.3023   11.5367 C   0  0  0  0  0  0  0  0  0  0  0  0
   -2.4214   18.2266   12.4958 N   0  0  0  0  0  0  0  0  0  0  0  0
  -14.6022   19.5012    7.7373 N   0  0  0  0  0  0  0  0  0  0  0  0
  -11.0835   17.6815    5.8543 C   0  0  0  0  0  0  0  0  0  0  0  0
  -11.0960   16.8241    5.1994 O   0  0  0  0  0  0  0  0  0  0  0  0
  -12.0590   18.6142    6.5297 C   0  0  2  0  0  0  0  0  0  0  0  0
  -12.1090   18.3873    7.8817 O   0  0  0  0  0  0  0  0  0  0  0  0
  -13.4410   18.2845    5.9766 C   0  0  0  0  0  0  0  0  0  0  0  0
  -14.5706   19.2844    6.2836 C   0  0  0  0  0  0  0  0  0  0  0  0
  1  2  1  6  0  0  0
  1  3  1  0  0  0  0
  3  4  1  6  0  0  0
  3  5  1  0  0  0  0
  5  6  1  1  0  0  0
  5  7  1  0  0  0  0
  7  8  1  6  0  0  0
  9  7  1  0  0  0  0
  9 10  1  0  0  0  0
  9 11  1  1  0  0  0
 10  1  1  0  0  0  0
 11 12  1  0  0  0  0
 13 14  1  1  0  0  0
 13 15  1  0  0  0  0
 13 22  1  0  0  0  0
 14 32  1  0  0  0  0
 15 16  1  1  0  0  0
 15 17  1  0  0  0  0
 16 23  1  0  0  0  0
 17 18  1  1  0  0  0
 17 19  1  0  0  0  0
 19  2  1  6  0  0  0
 19 20  1  0  0  0  0
 20 21  1  6  0  0  0
 20 22  1  0  0  0  0
 23 24  1  0  0  0  0
 24 25  1  0  0  0  0
 25 26  1  0  0  0  0
 26 27  1  0  0  0  0
 27 28  1  0  0  0  0
 28 29  1  0  0  0  0
 29 30  1  0  0  0  0
 31 37  1  0  0  0  0
 32 33  2  0  0  0  0
 34 32  1  6  0  0  0
 34 35  1  0  0  0  0
 34 36  1  0  0  0  0
 36 37  1  0  0  0  0
M  END
>  <CHROM.1>
-166.62120608,-71.80986657,-98.53371333,178.86187055,155.15451405,82.72281087
-87.74336723,-149.24813131,166.82224968,-78.74306931,-73.05229183,174.87478108
-72.34557266,-167.64465896,-52.98007141,-6.83814444,16.67751815,6.55693076
0.71089438,0.24152477,-2.28918844

>  <Name>
1o9m_lig

>  <RI>
0

>  <Rbt.Current_Directory>
/home/itssahil/PROJECTS/Mol_Feturizer/New_Systems/rnas/1o9m

>  <Rbt.Executable>
rbdock ($Id: //depot/dev/client3/rdock/2013.1/src/exe/rbdock.cxx#4 $)

>  <Rbt.Library>
libRbt.so (2013.1, Build901 2013/11/27)

>  <Rbt.Parameter_File>
/export/apps/rDock/src/rDock_2013.1_src/data/scripts/dock_solv.prm

>  <Rbt.Receptor>
prm/pocket_docking_2.prm

>  <SCORE>
-11.1199

>  <SCORE.INTER>
-11.7949

>  <SCORE.INTER.CONST>
1

>  <SCORE.INTER.POLAR>
-1.83095

>  <SCORE.INTER.ROT>
15

>  <SCORE.INTER.SOLV>
14.5979

>  <SCORE.INTER.VDW>
-20.2261

>  <SCORE.INTER.norm>
-0.318782

>  <SCORE.INTRA>
-0.427841

>  <SCORE.INTRA.DIHEDRAL>
-7.70841

>  <SCORE.INTRA.DIHEDRAL.0>
21.5987

>  <SCORE.INTRA.POLAR>
0

>  <SCORE.INTRA.POLAR.0>
0

>  <SCORE.INTRA.REPUL>
0

>  <SCORE.INTRA.REPUL.0>
0

>  <SCORE.INTRA.SOLV>
2.81011

>  <SCORE.INTRA.SOLV.lig_0>
-108.715

>  <SCORE.INTRA.VDW>
2.02131

>  <SCORE.INTRA.VDW.0>
-3.9485

>  <SCORE.INTRA.norm>
-0.0115633

>  <SCORE.RESTR>
1.10288

>  <SCORE.RESTR.CAVITY>
1.10288

>  <SCORE.RESTR.norm>
0.0298075

>  <SCORE.SYSTEM>
0

>  <SCORE.SYSTEM.CONST>
0

>  <SCORE.SYSTEM.DIHEDRAL>
0

>  <SCORE.SYSTEM.SOLV>
0

>  <SCORE.SYSTEM.norm>
0

>  <SCORE.heavy>
37

>  <SCORE.norm>
-0.300538

>  <RMSD>
1.361

$$$$
1o9m_lig
 OpenBabel11021811403D
libRbt.so/2013.1/901 2013/11/27
 37 38  0  0  0  0  0  0  0  0999 V2000
   -4.3923   14.2205    5.5572 C   0  0  2  0  0  0  0  0  0  0  0  0
   -5.2186   15.2428    4.9212 O   0  0  0  0  0  0  0  0  0  0  0  0
   -2.9285   14.4374    5.0237 C   0  0  2  0  0  0  0  0  0  0  0  0
   -2.4178   15.7848    5.3314 N   0  0  0  0  0  0  0  0  0  0  0  0
   -2.9022   14.1720    3.4704 C   0  0  1  0  0  0  0  0  0  0  0  0
   -1.5793   14.3614    2.9609 O   0  0  0  0  0  0  0  0  0  0  0  0
   -3.4323   12.7222    3.2161 C   0  0  2  0  0  0  0  0  0  0  0  0
   -3.4673   12.3780    1.8214 O   0  0  0  0  0  0  0  0  0  0  0  0
   -4.8518   12.5478    3.8101 C   0  0  2  0  0  0  0  0  0  0  0  0
   -4.8660   12.8768    5.2068 O   0  0  0  0  0  0  0  0  0  0  0  0
   -5.3633   11.1422    3.6278 C   0  0  0  0  0  0  0  0  0  0  0  0
   -5.7487   10.9413    2.3238 N   0  0  0  0  0  0  0  0  0  0  0  0
   -8.9215   17.4053    5.5792 C   0  0  1  0  0  0  0  0  0  0  0  0
  -10.2792   17.7320    6.0983 N   0  0  0  0  0  0  0  0  0  0  0  0
   -7.9681   17.2541    6.7568 C   0  0  2  0  0  0  0  0  0  0  0  0
   -7.9935   18.4451    7.4855 O   0  0  0  0  0  0  0  0  0  0  0  0
   -6.5247   16.9287    6.2584 C   0  0  1  0  0  0  0  0  0  0  0  0
   -5.6250   16.7646    7.3968 O   0  0  0  0  0  0  0  0  0  0  0  0
   -6.5418   15.5823    5.4260 C   0  0  1  0  0  0  0  0  0  0  0  0
   -7.4770   15.7276    4.2352 C   0  0  1  0  0  0  0  0  0  0  0  0
   -7.4664   14.4859    3.4765 N   0  0  0  0  0  0  0  0  0  0  0  0
   -8.9079   16.0705    4.7297 C   0  0  0  0  0  0  0  0  0  0  0  0
   -7.5742   19.4566    8.4276 C   0  0  0  0  0  0  0  0  0  0  0  0
   -7.2239   18.7974    9.7419 C   0  0  0  0  0  0  0  0  0  0  0  0
   -6.2986   19.5824   10.5847 N   0  0  0  0  0  0  0  0  0  0  0  0
   -5.4525   20.6821   11.1017 C   0  0  0  0  0  0  0  0  0  0  0  0
   -4.5917   19.8410   12.0528 C   0  0  0  0  0  0  0  0  0  0  0  0
   -3.7600   18.7810   11.3065 C   0  0  0  0  0  0  0  0  0  0  0  0
   -2.9164   19.4190   10.2072 C   0  0  0  0  0  0  0  0  0  0  0  0
   -2.1059   20.4952   10.7596 N   0  0  0  0  0  0  0  0  0  0  0  0
  -14.9788   18.7066    6.4906 N   0  0  0  0  0  0  0  0  0  0  0  0
  -10.7009   19.4277    5.7926 C   0  0  0  0  0  0  0  0  0  0  0  0
  -10.2103   20.2610    5.3141 O   0  0  0  0  0  0  0  0  0  0  0  0
  -11.9933   19.1251    6.5109 C   0  0  2  0  0  0  0  0  0  0  0  0
  -11.7619   18.4868    7.7029 O   0  0  0  0  0  0  0  0  0  0  0  0
  -12.7692   18.1498    5.6326 C   0  0  0  0  0  0  0  0  0  0  0  0
  -14.0767   17.5799    6.2119 C   0  0  0  0  0  0  0  0  0  0  0  0
  1  2  1  6  0  0  0
  1  3  1  0  0  0  0
  3  4  1  6  0  0  0
  3  5  1  0  0  0  0
  5  6  1  1  0  0  0
  5  7  1  0  0  0  0
  7  8  1  6  0  0  0
  9  7  1  0  0  0  0
  9 10  1  0  0  0  0
  9 11  1  1  0  0  0
 10  1  1  0  0  0  0
 11 12  1  0  0  0  0
 13 14  1  1  0  0  0
 13 15  1  0  0  0  0
 13 22  1  0  0  0  0
 14 32  1  0  0  0  0
 15 16  1  6  0  0  0
 15 17  1  0  0  0  0
 16 23  1  0  0  0  0
 17 18  1  1  0  0  0
 17 19  1  0  0  0  0
 19  2  1  6  0  0  0
 19 20  1  0  0  0  0
 20 21  1  1  0  0  0
 20 22  1  0  0  0  0
 23 24  1  0  0  0  0
 24 25  1  0  0  0  0
 25 26  1  0  0  0  0
 26 27  1  0  0  0  0
 27 28  1  0  0  0  0
 28 29  1  0  0  0  0
 29 30  1  0  0  0  0
 31 37  1  0  0  0  0
 32 33  2  0  0  0  0
 34 32  1  6  0  0  0
 34 35  1  0  0  0  0
 34 36  1  0  0  0  0
 36 37  1  0  0  0  0
M  END
>  <CHROM.1>
-163.55554298,-75.48680096,107.09081305,-163.46026361,-47.86241155,102.07536287
156.69093611,7.89749046,-162.35167096,62.66413021,54.38569836,53.95635778
49.06141848,174.39541837,59.78559239,-6.77580678,16.64686768,6.28444268,-0.85836993
-0.23050457,0.81719207

>  <Name>
1o9m_lig

>  <RI>
0

>  <Rbt.Current_Directory>
/home/itssahil/PROJECTS/Mol_Feturizer/New_Systems/rnas/1o9m

>  <Rbt.Executable>
rbdock ($Id: //depot/dev/client3/rdock/2013.1/src/exe/rbdock.cxx#4 $)

>  <Rbt.Library>
libRbt.so (2013.1, Build901 2013/11/27)

>  <Rbt.Parameter_File>
/export/apps/rDock/src/rDock_2013.1_src/data/scripts/dock_solv.prm

>  <Rbt.Receptor>
prm/pocket_docking_2.prm

>  <SCORE>
-11.5672

>  <SCORE.INTER>
-17.493

>  <SCORE.INTER.CONST>
1

>  <SCORE.INTER.POLAR>
-1.83095

>  <SCORE.INTER.ROT>
15

>  <SCORE.INTER.SOLV>
14.504

>  <SCORE.INTER.VDW>
-23.9935

>  <SCORE.INTER.norm>
-0.472783

>  <SCORE.INTRA>
4.75034

>  <SCORE.INTRA.DIHEDRAL>
-6.30269

>  <SCORE.INTRA.DIHEDRAL.0>
21.5987

>  <SCORE.INTRA.POLAR>
0

>  <SCORE.INTRA.POLAR.0>
0

>  <SCORE.INTRA.REPUL>
0

>  <SCORE.INTRA.REPUL.0>
0

>  <SCORE.INTRA.SOLV>
5.92831

>  <SCORE.INTRA.SOLV.lig_0>
-108.715

>  <SCORE.INTRA.VDW>
4.93753

>  <SCORE.INTRA.VDW.0>
-3.9485

>  <SCORE.INTRA.norm>
0.128388

>  <SCORE.RESTR>
1.17544

>  <SCORE.RESTR.CAVITY>
1.17544

>  <SCORE.RESTR.norm>
0.0317687

>  <SCORE.SYSTEM>
0

>  <SCORE.SYSTEM.CONST>
0

>  <SCORE.SYSTEM.DIHEDRAL>
0

>  <SCORE.SYSTEM.SOLV>
0

>  <SCORE.SYSTEM.norm>
0

>  <SCORE.heavy>
37

>  <SCORE.norm>
-0.312627

>  <RMSD>
1.401

$$$$
1o9m_lig
 OpenBabel11021811403D
libRbt.so/2013.1/901 2013/11/27
 37 38  0  0  0  0  0  0  0  0999 V2000
   -4.9015   14.5145    5.4975 C   0  0  2  0  0  0  0  0  0  0  0  0
   -5.6071   15.4675    4.6453 O   0  0  0  0  0  0  0  0  0  0  0  0
   -3.3755   14.8862    5.4107 C   0  0  2  0  0  0  0  0  0  0  0  0
   -3.1136   16.2686    5.8483 N   0  0  0  0  0  0  0  0  0  0  0  0
   -2.8749   14.6644    3.9329 C   0  0  1  0  0  0  0  0  0  0  0  0
   -1.4872   14.9944    3.8284 O   0  0  0  0  0  0  0  0  0  0  0  0
   -3.1604   13.1769    3.5412 C   0  0  2  0  0  0  0  0  0  0  0  0
   -2.7561   12.8667    2.1976 O   0  0  0  0  0  0  0  0  0  0  0  0
   -4.6660   12.8502    3.6985 C   0  0  2  0  0  0  0  0  0  0  0  0
   -5.1162   13.1404    5.0298 O   0  0  0  0  0  0  0  0  0  0  0  0
   -4.9591   11.4066    3.3810 C   0  0  0  0  0  0  0  0  0  0  0  0
   -6.3156   11.1851    3.3818 N   0  0  0  0  0  0  0  0  0  0  0  0
   -8.5442   18.6149    5.1813 C   0  0  1  0  0  0  0  0  0  0  0  0
   -9.7635   19.3262    5.6577 N   0  0  0  0  0  0  0  0  0  0  0  0
   -7.7080   18.2105    6.3878 C   0  0  2  0  0  0  0  0  0  0  0  0
   -7.4083   19.3677    7.1098 O   0  0  0  0  0  0  0  0  0  0  0  0
   -6.4069   17.4760    5.9346 C   0  0  1  0  0  0  0  0  0  0  0  0
   -5.6245   17.0742    7.1004 O   0  0  0  0  0  0  0  0  0  0  0  0
   -6.7892   16.1810    5.1084 C   0  0  1  0  0  0  0  0  0  0  0  0
   -7.6095   16.5742    3.8893 C   0  0  1  0  0  0  0  0  0  0  0  0
   -7.9370   15.3724    3.1371 N   0  0  0  0  0  0  0  0  0  0  0  0
   -8.8934   17.3218    4.3388 C   0  0  0  0  0  0  0  0  0  0  0  0
   -7.6060   20.4909    7.9964 C   0  0  0  0  0  0  0  0  0  0  0  0
   -7.6470   19.9963    9.4240 C   0  0  0  0  0  0  0  0  0  0  0  0
   -6.7107   20.6907   10.3318 N   0  0  0  0  0  0  0  0  0  0  0  0
   -5.4801   21.0837   11.0554 C   0  0  0  0  0  0  0  0  0  0  0  0
   -4.8748   19.6813   11.1956 C   0  0  0  0  0  0  0  0  0  0  0  0
   -3.8109   19.6113   12.3071 C   0  0  0  0  0  0  0  0  0  0  0  0
   -3.1336   18.2446   12.3336 C   0  0  0  0  0  0  0  0  0  0  0  0
   -4.1137   17.2061   12.6185 N   0  0  0  0  0  0  0  0  0  0  0  0
  -14.5548   20.6679    7.0970 N   0  0  0  0  0  0  0  0  0  0  0  0
  -11.0627   18.1885    6.0632 C   0  0  0  0  0  0  0  0  0  0  0  0
  -11.1660   17.1146    6.0540 O   0  0  0  0  0  0  0  0  0  0  0  0
  -11.8883   19.4104    6.3840 C   0  0  2  0  0  0  0  0  0  0  0  0
  -12.1947   19.4666    7.7200 O   0  0  0  0  0  0  0  0  0  0  0  0
  -13.2082   19.2609    5.6356 C   0  0  0  0  0  0  0  0  0  0  0  0
  -14.1795   20.4539    5.6918 C   0  0  0  0  0  0  0  0  0  0  0  0
  1  2  1  6  0  0  0
  1  3  1  0  0  0  0
  3  4  1  6  0  0  0
  3  5  1  0  0  0  0
  5  6  1  1  0  0  0
  5  7  1  0  0  0  0
  7  8  1  6  0  0  0
  9  7  1  0  0  0  0
  9 10  1  0  0  0  0
  9 11  1  1  0  0  0
 10  1  1  0  0  0  0
 11 12  1  0  0  0  0
 13 14  1  1  0  0  0
 13 15  1  0  0  0  0
 13 22  1  0  0  0  0
 14 32  1  0  0  0  0
 15 16  1  6  0  0  0
 15 17  1  0  0  0  0
 16 23  1  0  0  0  0
 17 18  1  1  0  0  0
 17 19  1  0  0  0  0
 19  2  1  6  0  0  0
 19 20  1  0  0  0  0
 20 21  1  1  0  0  0
 20 22  1  0  0  0  0
 23 24  1  0  0  0  0
 24 25  1  0  0  0  0
 25 26  1  0  0  0  0
 26 27  1  0  0  0  0
 27 28  1  0  0  0  0
 28 29  1  0  0  0  0
 29 30  1  0  0  0  0
 31 37  1  0  0  0  0
 32 33  2  0  0  0  0
 34 32  1  1  0  0  0
 34 35  1  0  0  0  0
 34 36  1  0  0  0  0
 36 37  1  0  0  0  0
M  END
>  <CHROM.1>
-131.51121707,-173.20317061,-85.60583927,76.21761765,73.80088441,84.00434632
127.21798239,-82.32112575,-35.73031027,-160.65051643,-174.55935201,-61.72683474
-114.47852150,-174.24792183,-61.70036756,-6.92091050,17.08524798,6.38499521
0.75701191,0.37216502,-2.23972949

>  <Name>
1o9m_lig

>  <RI>
0

>  <Rbt.Current_Directory>
/home/itssahil/PROJECTS/Mol_Feturizer/New_Systems/rnas/1o9m

>  <Rbt.Executable>
rbdock ($Id: //depot/dev/client3/rdock/2013.1/src/exe/rbdock.cxx#4 $)

>  <Rbt.Library>
libRbt.so (2013.1, Build901 2013/11/27)

>  <Rbt.Parameter_File>
/export/apps/rDock/src/rDock_2013.1_src/data/scripts/dock_solv.prm

>  <Rbt.Receptor>
prm/pocket_docking_3.prm

>  <SCORE>
-10.1727

>  <SCORE.INTER>
-12.1867

>  <SCORE.INTER.CONST>
1

>  <SCORE.INTER.POLAR>
-1.83095

>  <SCORE.INTER.ROT>
15

>  <SCORE.INTER.SOLV>
16.263

>  <SCORE.INTER.VDW>
-21.0423

>  <SCORE.INTER.norm>
-0.329371

>  <SCORE.INTRA>
2.01407

>  <SCORE.INTRA.DIHEDRAL>
0.24192

>  <SCORE.INTRA.DIHEDRAL.0>
21.5987

>  <SCORE.INTRA.POLAR>
0

>  <SCORE.INTRA.POLAR.0>
0

>  <SCORE.INTRA.REPUL>
0

>  <SCORE.INTRA.REPUL.0>
0

>  <SCORE.INTRA.SOLV>
2.94765

>  <SCORE.INTRA.SOLV.lig_0>
-108.715

>  <SCORE.INTRA.VDW>
0.419282

>  <SCORE.INTRA.VDW.0>
-3.9485

>  <SCORE.INTRA.norm>
0.0544343

>  <SCORE.RESTR>
0

>  <SCORE.RESTR.CAVITY>
0

>  <SCORE.RESTR.norm>
0

>  <SCORE.SYSTEM>
0

>  <SCORE.SYSTEM.CONST>
0

>  <SCORE.SYSTEM.DIHEDRAL>
0

>  <SCORE.SYSTEM.SOLV>
0

>  <SCORE.SYSTEM.norm>
0

>  <SCORE.heavy>
37

>  <SCORE.norm>
-0.274937

>  <RMSD>
1.422

$$$$
1o9m_lig
 OpenBabel11021811403D
libRbt.so/2013.1/901 2013/11/27
 37 38  0  0  0  0  0  0  0  0999 V2000
   -4.6424   13.8968    4.8755 C   0  0  2  0  0  0  0  0  0  0  0  0
   -5.6019   14.8381    4.3047 O   0  0  0  0  0  0  0  0  0  0  0  0
   -3.3162   14.0558    4.0445 C   0  0  2  0  0  0  0  0  0  0  0  0
   -2.7892   15.4308    4.0949 N   0  0  0  0  0  0  0  0  0  0  0  0
   -3.5861   13.6159    2.5554 C   0  0  1  0  0  0  0  0  0  0  0  0
   -2.3927   13.7499    1.7785 O   0  0  0  0  0  0  0  0  0  0  0  0
   -4.1192   12.1452    2.5721 C   0  0  2  0  0  0  0  0  0  0  0  0
   -4.4164   11.6449    1.2582 O   0  0  0  0  0  0  0  0  0  0  0  0
   -5.3913   12.0354    3.4486 C   0  0  2  0  0  0  0  0  0  0  0  0
   -5.1416   12.5207    4.7758 O   0  0  0  0  0  0  0  0  0  0  0  0
   -5.8932   10.6168    3.5269 C   0  0  0  0  0  0  0  0  0  0  0  0
   -6.6402   10.3141    2.4135 N   0  0  0  0  0  0  0  0  0  0  0  0
   -8.6645   17.2939    6.1512 C   0  0  1  0  0  0  0  0  0  0  0  0
   -9.9142   17.6683    6.8708 N   0  0  0  0  0  0  0  0  0  0  0  0
   -7.8213   16.4082    7.0584 C   0  0  2  0  0  0  0  0  0  0  0  0
   -7.5725   17.1145    8.2372 O   0  0  0  0  0  0  0  0  0  0  0  0
   -6.4891   16.0052    6.3509 C   0  0  1  0  0  0  0  0  0  0  0  0
   -5.6996   15.1388    7.2218 O   0  0  0  0  0  0  0  0  0  0  0  0
   -6.8144   15.2217    5.0144 C   0  0  1  0  0  0  0  0  0  0  0  0
   -7.6412   16.1037    4.0912 C   0  0  1  0  0  0  0  0  0  0  0  0
   -7.9158   15.3708    2.8644 N   0  0  0  0  0  0  0  0  0  0  0  0
   -8.9566   16.5206    4.8020 C   0  0  0  0  0  0  0  0  0  0  0  0
   -6.9640   17.4486    9.5040 C   0  0  0  0  0  0  0  0  0  0  0  0
   -7.7224   18.5948   10.1330 C   0  0  0  0  0  0  0  0  0  0  0  0
   -7.0723   19.9116    9.9707 N   0  0  0  0  0  0  0  0  0  0  0  0
   -6.7058   21.2472    9.4471 C   0  0  0  0  0  0  0  0  0  0  0  0
   -5.8560   21.7028   10.6401 C   0  0  0  0  0  0  0  0  0  0  0  0
   -4.4878   20.9970   10.6877 C   0  0  0  0  0  0  0  0  0  0  0  0
   -3.5621   21.5195    9.5934 C   0  0  0  0  0  0  0  0  0  0  0  0
   -4.0908   21.1708    8.2823 N   0  0  0  0  0  0  0  0  0  0  0  0
  -13.3908   22.3598    7.6805 N   0  0  0  0  0  0  0  0  0  0  0  0
  -10.7341   19.0301    6.0835 C   0  0  0  0  0  0  0  0  0  0  0  0
  -10.5428   19.6329    5.2094 O   0  0  0  0  0  0  0  0  0  0  0  0
  -11.7477   18.9257    7.1967 C   0  0  2  0  0  0  0  0  0  0  0  0
  -12.9400   18.4255    6.7381 O   0  0  0  0  0  0  0  0  0  0  0  0
  -12.0225   20.3458    7.6789 C   0  0  0  0  0  0  0  0  0  0  0  0
  -13.0775   21.1533    6.9012 C   0  0  0  0  0  0  0  0  0  0  0  0
  1  2  1  6  0  0  0
  1  3  1  0  0  0  0
  3  4  1  6  0  0  0
  3  5  1  0  0  0  0
  5  6  1  6  0  0  0
  5  7  1  0  0  0  0
  7  8  1  6  0  0  0
  9  7  1  0  0  0  0
  9 10  1  0  0  0  0
  9 11  1  1  0  0  0
 10  1  1  0  0  0  0
 11 12  1  0  0  0  0
 13 14  1  1  0  0  0
 13 15  1  0  0  0  0
 13 22  1  0  0  0  0
 14 32  1  0  0  0  0
 15 16  1  1  0  0  0
 15 17  1  0  0  0  0
 16 23  1  0  0  0  0
 17 18  1  1  0  0  0
 17 19  1  0  0  0  0
 19  2  1  6  0  0  0
 19 20  1  0  0  0  0
 20 21  1  6  0  0  0
 20 22  1  0  0  0  0
 23 24  1  0  0  0  0
 24 25  1  0  0  0  0
 25 26  1  0  0  0  0
 26 27  1  0  0  0  0
 27 28  1  0  0  0  0
 28 29  1  0  0  0  0
 29 30  1  0  0  0  0
 31 37  1  0  0  0  0
 32 33  2  0  0  0  0
 34 32  1  6  0  0  0
 34 35  1  0  0  0  0
 34 36  1  0  0  0  0
 36 37  1  0  0  0  0
M  END
>  <CHROM.1>
-164.00577074,-81.78917696,164.50882628,-166.41711496,-172.44986550,64.41240174
-100.73864152,94.71485460,169.50011870,73.93680183,72.69104814,-65.43755719
-108.53077564,84.64195997,168.34741610,-7.08186027,16.74691260,6.04736820
-1.09437258,-0.19376971,0.70514262

>  <Name>
1o9m_lig

>  <RI>
0

>  <Rbt.Current_Directory>
/home/itssahil/PROJECTS/Mol_Feturizer/New_Systems/rnas/1o9m

>  <Rbt.Executable>
rbdock ($Id: //depot/dev/client3/rdock/2013.1/src/exe/rbdock.cxx#4 $)

>  <Rbt.Library>
libRbt.so (2013.1, Build901 2013/11/27)

>  <Rbt.Parameter_File>
/export/apps/rDock/src/rDock_2013.1_src/data/scripts/dock_solv.prm

>  <Rbt.Receptor>
prm/pocket_docking_2.prm

>  <SCORE>
-13.2294

>  <SCORE.INTER>
-12.9205

>  <SCORE.INTER.CONST>
1

>  <SCORE.INTER.POLAR>
-0.959166

>  <SCORE.INTER.ROT>
15

>  <SCORE.INTER.SOLV>
17.7748

>  <SCORE.INTER.VDW>
-24.9414

>  <SCORE.INTER.norm>
-0.349203

>  <SCORE.INTRA>
-0.756861

>  <SCORE.INTRA.DIHEDRAL>
-6.38396

>  <SCORE.INTRA.DIHEDRAL.0>
21.5987

>  <SCORE.INTRA.POLAR>
0

>  <SCORE.INTRA.POLAR.0>
0

>  <SCORE.INTRA.REPUL>
0

>  <SCORE.INTRA.REPUL.0>
0

>  <SCORE.INTRA.SOLV>
2.23587

>  <SCORE.INTRA.SOLV.lig_0>
-108.715

>  <SCORE.INTRA.VDW>
1.31718

>  <SCORE.INTRA.VDW.0>
-3.9485

>  <SCORE.INTRA.norm>
-0.0204557

>  <SCORE.RESTR>
0.448011

>  <SCORE.RESTR.CAVITY>
0.448011

>  <SCORE.RESTR.norm>
0.0121084

>  <SCORE.SYSTEM>
0

>  <SCORE.SYSTEM.CONST>
0

>  <SCORE.SYSTEM.DIHEDRAL>
0

>  <SCORE.SYSTEM.SOLV>
0

>  <SCORE.SYSTEM.norm>
0

>  <SCORE.heavy>
37

>  <SCORE.norm>
-0.357551

>  <RMSD>
1.443

$$$$
1o9m_lig
 OpenBabel11021811403D
libRbt.so/2013.1/901 2013/11/27
 37 38  0  0  0  0  0  0  0  0999 V2000
   -4.4633   14.1056    4.7413 C   0  0  2  0  0  0  0  0  0  0  0  0
   -5.4598   15.0096    4.1737 O   0  0  0  0  0  0  0  0  0  0  0  0
   -3.2121   14.1703    3.7901 C   0  0  2  0  0  0  0  0  0  0  0  0
   -2.6704   15.5357    3.6750 N   0  0  0  0  0  0  0  0  0  0  0  0
   -3.6128   13.6077    2.3735 C   0  0  1  0  0  0  0  0  0  0  0  0
   -2.4895   13.6544    1.4895 O   0  0  0  0  0  0  0  0  0  0  0  0
   -4.1557   12.1529    2.5641 C   0  0  2  0  0  0  0  0  0  0  0  0
   -4.5692   11.5458    1.3291 O   0  0  0  0  0  0  0  0  0  0  0  0
   -5.3487   12.1403    3.5515 C   0  0  2  0  0  0  0  0  0  0  0  0
   -4.9815   12.7344    4.8052 O   0  0  0  0  0  0  0  0  0  0  0  0
   -5.8548   10.7422    3.7961 C   0  0  0  0  0  0  0  0  0  0  0  0
   -6.5554   10.2916    2.7028 N   0  0  0  0  0  0  0  0  0  0  0  0
   -8.4433   17.7606    5.7070 C   0  0  1  0  0  0  0  0  0  0  0  0
   -9.5649   18.2940    6.5299 N   0  0  0  0  0  0  0  0  0  0  0  0
   -7.3001   17.3646    6.6316 C   0  0  2  0  0  0  0  0  0  0  0  0
   -6.9361   18.4918    7.3713 O   0  0  0  0  0  0  0  0  0  0  0  0
   -6.0918   16.8156    5.8092 C   0  0  1  0  0  0  0  0  0  0  0  0
   -5.0110   16.4192    6.7077 O   0  0  0  0  0  0  0  0  0  0  0  0
   -6.5490   15.5503    4.9751 C   0  0  1  0  0  0  0  0  0  0  0  0
   -7.6789   15.9380    4.0334 C   0  0  1  0  0  0  0  0  0  0  0  0
   -8.0733   14.7656    3.2667 N   0  0  0  0  0  0  0  0  0  0  0  0
   -8.8727   16.5021    4.8494 C   0  0  0  0  0  0  0  0  0  0  0  0
   -6.2494   19.2889    8.3611 C   0  0  0  0  0  0  0  0  0  0  0  0
   -6.7711   18.9342    9.7345 C   0  0  0  0  0  0  0  0  0  0  0  0
   -6.0349   19.5730   10.8448 N   0  0  0  0  0  0  0  0  0  0  0  0
   -4.9802   19.9049   11.8296 C   0  0  0  0  0  0  0  0  0  0  0  0
   -3.8413   20.1418   10.8297 C   0  0  0  0  0  0  0  0  0  0  0  0
   -2.5979   19.2897   11.1461 C   0  0  0  0  0  0  0  0  0  0  0  0
   -2.2034   19.4179   12.6141 C   0  0  0  0  0  0  0  0  0  0  0  0
   -1.3241   18.3211   12.9934 N   0  0  0  0  0  0  0  0  0  0  0  0
  -10.9845   21.5822    6.0171 N   0  0  0  0  0  0  0  0  0  0  0  0
  -11.0712   18.3805    5.5970 C   0  0  0  0  0  0  0  0  0  0  0  0
  -11.3586   18.1284    4.5881 O   0  0  0  0  0  0  0  0  0  0  0  0
  -11.6869   18.9620    6.8462 C   0  0  2  0  0  0  0  0  0  0  0  0
  -12.3285   17.9966    7.5799 O   0  0  0  0  0  0  0  0  0  0  0  0
  -12.7539   19.9524    6.3932 C   0  0  0  0  0  0  0  0  0  0  0  0
  -12.2865   21.1243    5.5111 C   0  0  0  0  0  0  0  0  0  0  0  0
  1  2  1  6  0  0  0
  1  3  1  0  0  0  0
  3  4  1  6  0  0  0
  3  5  1  0  0  0  0
  5  6  1  6  0  0  0
  5  7  1  0  0  0  0
  7  8  1  6  0  0  0
  9  7  1  0  0  0  0
  9 10  1  0  0  0  0
  9 11  1  1  0  0  0
 10  1  1  0  0  0  0
 11 12  1  0  0  0  0
 13 14  1  1  0  0  0
 13 15  1  0  0  0  0
 13 22  1  0  0  0  0
 14 32  1  0  0  0  0
 15 16  1  6  0  0  0
 15 17  1  0  0  0  0
 16 23  1  0  0  0  0
 17 18  1  1  0  0  0
 17 19  1  0  0  0  0
 19  2  1  6  0  0  0
 19 20  1  0  0  0  0
 20 21  1  1  0  0  0
 20 22  1  0  0  0  0
 23 24  1  0  0  0  0
 24 25  1  0  0  0  0
 25 26  1  0  0  0  0
 26 27  1  0  0  0  0
 27 28  1  0  0  0  0
 28 29  1  0  0  0  0
 29 30  1  0  0  0  0
 31 37  1  0  0  0  0
 32 33  2  0  0  0  0
 34 32  1  6  0  0  0
 34 35  1  0  0  0  0
 34 36  1  0  0  0  0
 36 37  1  0  0  0  0
M  END
>  <CHROM.1>
-159.44751289,-74.02447369,-165.15104126,174.82478421,-72.13710879,82.56748787
173.31746550,-72.60930176,54.50447225,-125.93453879,-49.62225691,162.17835153
-96.60778989,-59.28947281,-38.97835744,-6.59634535,16.59729546,6.09378917
-1.24198659,-0.37920860,0.85056647

>  <Name>
1o9m_lig

>  <RI>
0

>  <Rbt.Current_Directory>
/home/itssahil/PROJECTS/Mol_Feturizer/New_Systems/rnas/1o9m

>  <Rbt.Executable>
rbdock ($Id: //depot/dev/client3/rdock/2013.1/src/exe/rbdock.cxx#4 $)

>  <Rbt.Library>
libRbt.so (2013.1, Build901 2013/11/27)

>  <Rbt.Parameter_File>
/export/apps/rDock/src/rDock_2013.1_src/data/scripts/dock_solv.prm

>  <Rbt.Receptor>
prm/pocket_docking_2.prm

>  <SCORE>
-9.06184

>  <SCORE.INTER>
-11.41

>  <SCORE.INTER.CONST>
1

>  <SCORE.INTER.POLAR>
-1.76066

>  <SCORE.INTER.ROT>
15

>  <SCORE.INTER.SOLV>
17.2007

>  <SCORE.INTER.VDW>
-21.0714

>  <SCORE.INTER.norm>
-0.308378

>  <SCORE.INTRA>
0.948448

>  <SCORE.INTRA.DIHEDRAL>
-5.28504

>  <SCORE.INTRA.DIHEDRAL.0>
21.5987

>  <SCORE.INTRA.POLAR>
0

>  <SCORE.INTRA.POLAR.0>
0

>  <SCORE.INTRA.REPUL>
0.00273862

>  <SCORE.INTRA.REPUL.0>
0

>  <SCORE.INTRA.SOLV>
3.29114

>  <SCORE.INTRA.SOLV.lig_0>
-108.715

>  <SCORE.INTRA.VDW>
1.93171

>  <SCORE.INTRA.VDW.0>
-3.9485

>  <SCORE.INTRA.norm>
0.0256337

>  <SCORE.RESTR>
1.39971

>  <SCORE.RESTR.CAVITY>
1.39971

>  <SCORE.RESTR.norm>
0.03783

>  <SCORE.SYSTEM>
0

>  <SCORE.SYSTEM.CONST>
0

>  <SCORE.SYSTEM.DIHEDRAL>
0

>  <SCORE.SYSTEM.SOLV>
0

>  <SCORE.SYSTEM.norm>
0

>  <SCORE.heavy>
37

>  <SCORE.norm>
-0.244914

>  <RMSD>
1.456

$$$$
1o9m_lig
 OpenBabel11021811403D
libRbt.so/2013.1/901 2013/11/27
 37 38  0  0  0  0  0  0  0  0999 V2000
   -5.7275   14.3689    5.9191 C   0  0  2  0  0  0  0  0  0  0  0  0
   -6.2684   15.4734    5.1318 O   0  0  0  0  0  0  0  0  0  0  0  0
   -4.2192   14.7185    6.1969 C   0  0  2  0  0  0  0  0  0  0  0  0
   -4.0671   15.9947    6.9175 N   0  0  0  0  0  0  0  0  0  0  0  0
   -3.4386   14.7541    4.8282 C   0  0  1  0  0  0  0  0  0  0  0  0
   -2.0619   15.0687    5.0547 O   0  0  0  0  0  0  0  0  0  0  0  0
   -3.6212   13.3669    4.1285 C   0  0  2  0  0  0  0  0  0  0  0  0
   -2.9598   13.2935    2.8548 O   0  0  0  0  0  0  0  0  0  0  0  0
   -5.1238   13.0486    3.9307 C   0  0  2  0  0  0  0  0  0  0  0  0
   -5.8276   13.1054    5.1801 O   0  0  0  0  0  0  0  0  0  0  0  0
   -5.3288   11.6914    3.3089 C   0  0  0  0  0  0  0  0  0  0  0  0
   -6.6524   11.5113    2.9849 N   0  0  0  0  0  0  0  0  0  0  0  0
   -8.9016   18.8169    5.9729 C   0  0  1  0  0  0  0  0  0  0  0  0
  -10.1042   19.5746    6.4194 N   0  0  0  0  0  0  0  0  0  0  0  0
   -8.3460   18.0351    7.1555 C   0  0  2  0  0  0  0  0  0  0  0  0
   -8.0607   18.9449    8.1758 O   0  0  0  0  0  0  0  0  0  0  0  0
   -7.0701   17.2379    6.7380 C   0  0  1  0  0  0  0  0  0  0  0  0
   -6.5596   16.4756    7.8741 O   0  0  0  0  0  0  0  0  0  0  0  0
   -7.4321   16.2306    5.5717 C   0  0  1  0  0  0  0  0  0  0  0  0
   -7.9710   17.0022    4.3767 C   0  0  1  0  0  0  0  0  0  0  0  0
   -8.2828   16.0601    3.3123 N   0  0  0  0  0  0  0  0  0  0  0  0
   -9.2280   17.8103    4.7965 C   0  0  0  0  0  0  0  0  0  0  0  0
   -8.2958   19.9208    9.2145 C   0  0  0  0  0  0  0  0  0  0  0  0
   -6.9719   20.4882    9.6727 C   0  0  0  0  0  0  0  0  0  0  0  0
   -6.0510   19.4862   10.2480 N   0  0  0  0  0  0  0  0  0  0  0  0
   -4.8225   18.8114   10.7251 C   0  0  0  0  0  0  0  0  0  0  0  0
   -4.6323   19.6283   12.0094 C   0  0  0  0  0  0  0  0  0  0  0  0
   -3.5747   19.0119   12.9441 C   0  0  0  0  0  0  0  0  0  0  0  0
   -2.1971   19.0097   12.2887 C   0  0  0  0  0  0  0  0  0  0  0  0
   -1.3090   18.0966   12.9943 N   0  0  0  0  0  0  0  0  0  0  0  0
  -14.3934   21.9675    6.5630 N   0  0  0  0  0  0  0  0  0  0  0  0
  -11.5620   18.5648    6.3742 C   0  0  0  0  0  0  0  0  0  0  0  0
  -11.7713   17.5395    6.1115 O   0  0  0  0  0  0  0  0  0  0  0  0
  -12.3005   19.7959    6.8397 C   0  0  2  0  0  0  0  0  0  0  0  0
  -12.2887   19.8950    8.2080 O   0  0  0  0  0  0  0  0  0  0  0  0
  -13.7569   19.6214    6.4235 C   0  0  0  0  0  0  0  0  0  0  0  0
  -14.7726   20.6190    7.0091 C   0  0  0  0  0  0  0  0  0  0  0  0
  1  2  1  6  0  0  0
  1  3  1  0  0  0  0
  3  4  1  6  0  0  0
  3  5  1  0  0  0  0
  5  6  1  1  0  0  0
  5  7  1  0  0  0  0
  7  8  1  6  0  0  0
  9  7  1  0  0  0  0
  9 10  1  0  0  0  0
  9 11  1  1  0  0  0
 10  1  1  0  0  0  0
 11 12  1  0  0  0  0
 13 14  1  1  0  0  0
 13 15  1  0  0  0  0
 13 22  1  0  0  0  0
 14 32  1  0  0  0  0
 15 16  1  1  0  0  0
 15 17  1  0  0  0  0
 16 23  1  0  0  0  0
 17 18  1  1  0  0  0
 17 19  1  0  0  0  0
 19  2  1  6  0  0  0
 19 20  1  0  0  0  0
 20 21  1  6  0  0  0
 20 22  1  0  0  0  0
 23 24  1  0  0  0  0
 24 25  1  0  0  0  0
 25 26  1  0  0  0  0
 26 27  1  0  0  0  0
 27 28  1  0  0  0  0
 28 29  1  0  0  0  0
 29 30  1  0  0  0  0
 31 37  1  0  0  0  0
 32 33  2  0  0  0  0
 34 32  1  1  0  0  0
 34 35  1  0  0  0  0
 34 36  1  0  0  0  0
 36 37  1  0  0  0  0
M  END
>  <CHROM.1>
-123.37016666,-172.07983427,-84.07684014,67.01396521,-171.96135031,75.64294517
-61.25739508,160.31292551,74.46130731,168.38318993,63.47942142,-163.52402954
-87.02734131,168.93455312,61.23592016,-7.17402334,17.15138595,6.88178339
0.54541466,0.39294018,-2.25421174

>  <Name>
1o9m_lig

>  <RI>
0

>  <Rbt.Current_Directory>
/home/itssahil/PROJECTS/Mol_Feturizer/New_Systems/rnas/1o9m

>  <Rbt.Executable>
rbdock ($Id: //depot/dev/client3/rdock/2013.1/src/exe/rbdock.cxx#4 $)

>  <Rbt.Library>
libRbt.so (2013.1, Build901 2013/11/27)

>  <Rbt.Parameter_File>
/export/apps/rDock/src/rDock_2013.1_src/data/scripts/dock_solv.prm

>  <Rbt.Receptor>
prm/pocket_docking_2.prm

>  <SCORE>
-11.2789

>  <SCORE.INTER>
-9.84781

>  <SCORE.INTER.CONST>
1

>  <SCORE.INTER.POLAR>
-1.36464

>  <SCORE.INTER.ROT>
15

>  <SCORE.INTER.SOLV>
14.229

>  <SCORE.INTER.VDW>
-20.3594

>  <SCORE.INTER.norm>
-0.266157

>  <SCORE.INTRA>
-1.67349

>  <SCORE.INTRA.DIHEDRAL>
-8.37305

>  <SCORE.INTRA.DIHEDRAL.0>
21.5987

>  <SCORE.INTRA.POLAR>
0

>  <SCORE.INTRA.POLAR.0>
0

>  <SCORE.INTRA.REPUL>
0

>  <SCORE.INTRA.REPUL.0>
0

>  <SCORE.INTRA.SOLV>
2.88716

>  <SCORE.INTRA.SOLV.lig_0>
-108.715

>  <SCORE.INTRA.VDW>
1.06945

>  <SCORE.INTRA.VDW.0>
-3.9485

>  <SCORE.INTRA.norm>
-0.0452295

>  <SCORE.RESTR>
0.242424

>  <SCORE.RESTR.CAVITY>
0.242424

>  <SCORE.RESTR.norm>
0.00655199

>  <SCORE.SYSTEM>
0

>  <SCORE.SYSTEM.CONST>
0

>  <SCORE.SYSTEM.DIHEDRAL>
0

>  <SCORE.SYSTEM.SOLV>
0

>  <SCORE.SYSTEM.norm>
0

>  <SCORE.heavy>
37

>  <SCORE.norm>
-0.304835

>  <RMSD>
1.483

$$$$
1o9m_lig
 OpenBabel11021811403D
libRbt.so/2013.1/901 2013/11/27
 37 38  0  0  0  0  0  0  0  0999 V2000
   -4.1029   14.5033    5.9581 C   0  0  2  0  0  0  0  0  0  0  0  0
   -4.7267   15.7237    5.4543 O   0  0  0  0  0  0  0  0  0  0  0  0
   -2.5992   14.5508    5.4986 C   0  0  2  0  0  0  0  0  0  0  0  0
   -1.8986   15.7423    6.0091 N   0  0  0  0  0  0  0  0  0  0  0  0
   -2.5402   14.5005    3.9245 C   0  0  1  0  0  0  0  0  0  0  0  0
   -1.1810   14.5407    3.4813 O   0  0  0  0  0  0  0  0  0  0  0  0
   -3.2786   13.2048    3.4517 C   0  0  2  0  0  0  0  0  0  0  0  0
   -3.3000   13.0657    2.0217 O   0  0  0  0  0  0  0  0  0  0  0  0
   -4.7348   13.1833    3.9782 C   0  0  2  0  0  0  0  0  0  0  0  0
   -4.7644   13.3153    5.4068 O   0  0  0  0  0  0  0  0  0  0  0  0
   -5.4514   11.9179    3.5834 C   0  0  0  0  0  0  0  0  0  0  0  0
   -5.1068   10.8917    4.4305 N   0  0  0  0  0  0  0  0  0  0  0  0
   -7.8661   18.1850    7.1592 C   0  0  1  0  0  0  0  0  0  0  0  0
   -9.2195   18.6151    7.6095 N   0  0  0  0  0  0  0  0  0  0  0  0
   -7.4858   16.9076    7.8955 C   0  0  2  0  0  0  0  0  0  0  0  0
   -7.5388   17.1702    9.2661 O   0  0  0  0  0  0  0  0  0  0  0  0
   -6.0628   16.4284    7.4678 C   0  0  1  0  0  0  0  0  0  0  0  0
   -5.7186   15.1917    8.1640 O   0  0  0  0  0  0  0  0  0  0  0  0
   -6.0410   16.1566    5.9085 C   0  0  1  0  0  0  0  0  0  0  0  0
   -6.4011   17.4314    5.1608 C   0  0  1  0  0  0  0  0  0  0  0  0
   -6.3605   17.1637    3.7311 N   0  0  0  0  0  0  0  0  0  0  0  0
   -7.8077   17.9188    5.6005 C   0  0  0  0  0  0  0  0  0  0  0  0
   -7.5810   16.9102   10.6864 C   0  0  0  0  0  0  0  0  0  0  0  0
   -7.1155   18.1403   11.4311 C   0  0  0  0  0  0  0  0  0  0  0  0
   -5.6904   18.4701   11.2231 N   0  0  0  0  0  0  0  0  0  0  0  0
   -4.4384   19.2250   10.9879 C   0  0  0  0  0  0  0  0  0  0  0  0
   -4.0638   19.4525   12.4579 C   0  0  0  0  0  0  0  0  0  0  0  0
   -3.6172   18.1542   13.1559 C   0  0  0  0  0  0  0  0  0  0  0  0
   -2.2687   17.6801   12.6228 C   0  0  0  0  0  0  0  0  0  0  0  0
   -1.9092   16.4077   13.2325 N   0  0  0  0  0  0  0  0  0  0  0  0
  -13.5073   21.7947    8.2135 N   0  0  0  0  0  0  0  0  0  0  0  0
  -10.0552   19.5497    6.3545 C   0  0  0  0  0  0  0  0  0  0  0  0
   -9.8149   19.8636    5.3507 O   0  0  0  0  0  0  0  0  0  0  0  0
  -11.1803   19.6820    7.3517 C   0  0  2  0  0  0  0  0  0  0  0  0
  -11.6379   18.4519    7.7509 O   0  0  0  0  0  0  0  0  0  0  0  0
  -12.3341   20.3672    6.6278 C   0  0  0  0  0  0  0  0  0  0  0  0
  -13.6376   20.5619    7.4233 C   0  0  0  0  0  0  0  0  0  0  0  0
  1  2  1  6  0  0  0
  1  3  1  0  0  0  0
  3  4  1  6  0  0  0
  3  5  1  0  0  0  0
  5  6  1  1  0  0  0
  5  7  1  0  0  0  0
  7  8  1  6  0  0  0
  9  7  1  0  0  0  0
  9 10  1  0  0  0  0
  9 11  1  1  0  0  0
 10  1  1  0  0  0  0
 11 12  1  0  0  0  0
 13 14  1  1  0  0  0
 13 15  1  0  0  0  0
 13 22  1  0  0  0  0
 14 32  1  0  0  0  0
 15 16  1  1  0  0  0
 15 17  1  0  0  0  0
 16 23  1  0  0  0  0
 17 18  1  1  0  0  0
 17 19  1  0  0  0  0
 19  2  1  6  0  0  0
 19 20  1  0  0  0  0
 20 21  1  6  0  0  0
 20 22  1  0  0  0  0
 23 24  1  0  0  0  0
 24 25  1  0  0  0  0
 25 26  1  0  0  0  0
 26 27  1  0  0  0  0
 27 28  1  0  0  0  0
 28 29  1  0  0  0  0
 29 30  1  0  0  0  0
 31 37  1  0  0  0  0
 32 33  2  0  0  0  0
 34 32  1  6  0  0  0
 34 35  1  0  0  0  0
 34 36  1  0  0  0  0
 36 37  1  0  0  0  0
M  END
>  <CHROM.1>
-167.43202657,80.49423703,-152.83002904,165.00520366,158.65279371,60.76788152
-66.64685814,137.77642992,91.90267692,70.51512408,69.52609512,-176.28197020
-57.77334376,177.32844590,84.24272289,-6.29087924,16.76638991,7.18255703
0.67289166,0.47407188,-2.03524024

>  <Name>
1o9m_lig

>  <RI>
0

>  <Rbt.Current_Directory>
/home/itssahil/PROJECTS/Mol_Feturizer/New_Systems/rnas/1o9m

>  <Rbt.Executable>
rbdock ($Id: //depot/dev/client3/rdock/2013.1/src/exe/rbdock.cxx#4 $)

>  <Rbt.Library>
libRbt.so (2013.1, Build901 2013/11/27)

>  <Rbt.Parameter_File>
/export/apps/rDock/src/rDock_2013.1_src/data/scripts/dock_solv.prm

>  <Rbt.Receptor>
prm/pocket_docking_3.prm

>  <SCORE>
-15.3408

>  <SCORE.INTER>
-13.9238

>  <SCORE.INTER.CONST>
1

>  <SCORE.INTER.POLAR>
-2.27605

>  <SCORE.INTER.ROT>
15

>  <SCORE.INTER.SOLV>
21.3169

>  <SCORE.INTER.VDW>
-22.4013

>  <SCORE.INTER.norm>
-0.376319

>  <SCORE.INTRA>
-1.41704

>  <SCORE.INTRA.DIHEDRAL>
-10.4173

>  <SCORE.INTRA.DIHEDRAL.0>
21.5987

>  <SCORE.INTRA.POLAR>
0

>  <SCORE.INTRA.POLAR.0>
0

>  <SCORE.INTRA.REPUL>
0.0106142

>  <SCORE.INTRA.REPUL.0>
0

>  <SCORE.INTRA.SOLV>
1.17974

>  <SCORE.INTRA.SOLV.lig_0>
-108.715

>  <SCORE.INTRA.VDW>
3.14869

>  <SCORE.INTRA.VDW.0>
-3.9485

>  <SCORE.INTRA.norm>
-0.0382984

>  <SCORE.RESTR>
0

>  <SCORE.RESTR.CAVITY>
0

>  <SCORE.RESTR.norm>
0

>  <SCORE.SYSTEM>
0

>  <SCORE.SYSTEM.CONST>
0

>  <SCORE.SYSTEM.DIHEDRAL>
0

>  <SCORE.SYSTEM.SOLV>
0

>  <SCORE.SYSTEM.norm>
0

>  <SCORE.heavy>
37

>  <SCORE.norm>
-0.414618

>  <RMSD>
1.529

$$$$
1o9m_lig
 OpenBabel11021811403D
libRbt.so/2013.1/901 2013/11/27
 37 38  0  0  0  0  0  0  0  0999 V2000
   -4.7487   14.0570    5.0206 C   0  0  2  0  0  0  0  0  0  0  0  0
   -5.6886   14.9815    4.3925 O   0  0  0  0  0  0  0  0  0  0  0  0
   -3.3828   14.2268    4.2590 C   0  0  2  0  0  0  0  0  0  0  0  0
   -2.8764   15.6088    4.3256 N   0  0  0  0  0  0  0  0  0  0  0  0
   -3.5685   13.7721    2.7614 C   0  0  1  0  0  0  0  0  0  0  0  0
   -2.3378   13.9156    2.0472 O   0  0  0  0  0  0  0  0  0  0  0  0
   -4.0834   12.2948    2.7623 C   0  0  2  0  0  0  0  0  0  0  0  0
   -4.3048   11.7808    1.4389 O   0  0  0  0  0  0  0  0  0  0  0  0
   -5.3983   12.1753    3.5718 C   0  0  2  0  0  0  0  0  0  0  0  0
   -5.2247   12.6739    4.9062 O   0  0  0  0  0  0  0  0  0  0  0  0
   -5.8859   10.7510    3.6354 C   0  0  0  0  0  0  0  0  0  0  0  0
   -6.3788   10.3616    2.4128 N   0  0  0  0  0  0  0  0  0  0  0  0
   -9.1960   17.1225    5.7833 C   0  0  1  0  0  0  0  0  0  0  0  0
  -10.5458   17.3730    6.3619 N   0  0  0  0  0  0  0  0  0  0  0  0
   -8.3403   16.4100    6.8218 C   0  0  2  0  0  0  0  0  0  0  0  0
   -8.2958   17.2115    7.9645 O   0  0  0  0  0  0  0  0  0  0  0  0
   -6.9066   16.1426    6.2644 C   0  0  1  0  0  0  0  0  0  0  0  0
   -6.1029   15.4400    7.2609 O   0  0  0  0  0  0  0  0  0  0  0  0
   -7.0019   15.2452    4.9639 C   0  0  1  0  0  0  0  0  0  0  0  0
   -7.8393   15.9554    3.9112 C   0  0  1  0  0  0  0  0  0  0  0  0
   -7.9015   15.1212    2.7205 N   0  0  0  0  0  0  0  0  0  0  0  0
   -9.2586   16.2389    4.4722 C   0  0  0  0  0  0  0  0  0  0  0  0
   -8.7721   18.0392    9.0483 C   0  0  0  0  0  0  0  0  0  0  0  0
   -7.7679   18.0067   10.1774 C   0  0  0  0  0  0  0  0  0  0  0  0
   -6.5125   18.7315    9.8914 N   0  0  0  0  0  0  0  0  0  0  0  0
   -5.1476   19.0522    9.4154 C   0  0  0  0  0  0  0  0  0  0  0  0
   -4.6501   19.7463   10.6896 C   0  0  0  0  0  0  0  0  0  0  0  0
   -5.4433   21.0281   11.0057 C   0  0  0  0  0  0  0  0  0  0  0  0
   -5.2862   22.0596    9.8927 C   0  0  0  0  0  0  0  0  0  0  0  0
   -3.8759   22.3470    9.6726 N   0  0  0  0  0  0  0  0  0  0  0  0
  -13.4965   22.0515    7.9461 N   0  0  0  0  0  0  0  0  0  0  0  0
  -11.2300   18.9015    5.7769 C   0  0  0  0  0  0  0  0  0  0  0  0
  -10.9012   19.6742    5.0995 O   0  0  0  0  0  0  0  0  0  0  0  0
  -12.4097   18.5908    6.6654 C   0  0  2  0  0  0  0  0  0  0  0  0
  -13.2728   17.7148    6.0574 O   0  0  0  0  0  0  0  0  0  0  0  0
  -13.1725   19.8966    6.8600 C   0  0  0  0  0  0  0  0  0  0  0  0
  -12.5698   20.9149    7.8447 C   0  0  0  0  0  0  0  0  0  0  0  0
  1  2  1  6  0  0  0
  1  3  1  0  0  0  0
  3  4  1  6  0  0  0
  3  5  1  0  0  0  0
  5  6  1  6  0  0  0
  5  7  1  0  0  0  0
  7  8  1  6  0  0  0
  9  7  1  0  0  0  0
  9 10  1  0  0  0  0
  9 11  1  1  0  0  0
 10  1  1  0  0  0  0
 11 12  1  0  0  0  0
 13 14  1  1  0  0  0
 13 15  1  0  0  0  0
 13 22  1  0  0  0  0
 14 32  1  0  0  0  0
 15 16  1  1  0  0  0
 15 17  1  0  0  0  0
 16 23  1  0  0  0  0
 17 18  1  1  0  0  0
 17 19  1  0  0  0  0
 19  2  1  6  0  0  0
 19 20  1  0  0  0  0
 20 21  1  6  0  0  0
 20 22  1  0  0  0  0
 23 24  1  0  0  0  0
 24 25  1  0  0  0  0
 25 26  1  0  0  0  0
 26 27  1  0  0  0  0
 27 28  1  0  0  0  0
 28 29  1  0  0  0  0
 29 30  1  0  0  0  0
 31 37  1  0  0  0  0
 32 33  2  0  0  0  0
 34 32  1  6  0  0  0
 34 35  1  0  0  0  0
 34 36  1  0  0  0  0
 36 37  1  0  0  0  0
M  END
>  <CHROM.1>
-170.65458381,-72.18948740,145.59641268,48.44420207,156.54009557,73.19322086
71.10266891,-85.50831038,-134.42093410,-63.45736257,-62.12136924,-56.06296996
-81.58196150,-76.66895392,-176.48421709,-7.28181568,16.62545284,6.04945295
-1.03880387,-0.20917204,0.74209365

>  <Name>
1o9m_lig

>  <RI>
0

>  <Rbt.Current_Directory>
/home/itssahil/PROJECTS/Mol_Feturizer/New_Systems/rnas/1o9m

>  <Rbt.Executable>
rbdock ($Id: //depot/dev/client3/rdock/2013.1/src/exe/rbdock.cxx#4 $)

>  <Rbt.Library>
libRbt.so (2013.1, Build901 2013/11/27)

>  <Rbt.Parameter_File>
/export/apps/rDock/src/rDock_2013.1_src/data/scripts/dock_solv.prm

>  <Rbt.Receptor>
prm/pocket_docking_2.prm

>  <SCORE>
-16.9691

>  <SCORE.INTER>
-13.0805

>  <SCORE.INTER.CONST>
1

>  <SCORE.INTER.POLAR>
-0.959166

>  <SCORE.INTER.ROT>
15

>  <SCORE.INTER.SOLV>
20.0431

>  <SCORE.INTER.VDW>
-25.8041

>  <SCORE.INTER.norm>
-0.353526

>  <SCORE.INTRA>
-4.03693

>  <SCORE.INTRA.DIHEDRAL>
-11.9023

>  <SCORE.INTRA.DIHEDRAL.0>
21.5987

>  <SCORE.INTRA.POLAR>
0

>  <SCORE.INTRA.POLAR.0>
0

>  <SCORE.INTRA.REPUL>
0

>  <SCORE.INTRA.REPUL.0>
0

>  <SCORE.INTRA.SOLV>
1.81749

>  <SCORE.INTRA.SOLV.lig_0>
-108.715

>  <SCORE.INTRA.VDW>
1.00547

>  <SCORE.INTRA.VDW.0>
-3.9485

>  <SCORE.INTRA.norm>
-0.109106

>  <SCORE.RESTR>
0.148238

>  <SCORE.RESTR.CAVITY>
0.148238

>  <SCORE.RESTR.norm>
0.00400643

>  <SCORE.SYSTEM>
0

>  <SCORE.SYSTEM.CONST>
0

>  <SCORE.SYSTEM.DIHEDRAL>
0

>  <SCORE.SYSTEM.SOLV>
0

>  <SCORE.SYSTEM.norm>
0

>  <SCORE.heavy>
37

>  <SCORE.norm>
-0.458625

>  <RMSD>
1.531

$$$$
1o9m_lig
 OpenBabel11021811403D
libRbt.so/2013.1/901 2013/11/27
 37 38  0  0  0  0  0  0  0  0999 V2000
   -4.7208   13.9510    5.3986 C   0  0  2  0  0  0  0  0  0  0  0  0
   -5.5684   14.9439    4.7445 O   0  0  0  0  0  0  0  0  0  0  0  0
   -3.2382   14.3109    5.0152 C   0  0  2  0  0  0  0  0  0  0  0  0
   -2.8681   15.6721    5.4405 N   0  0  0  0  0  0  0  0  0  0  0  0
   -3.0538   14.1429    3.4590 C   0  0  1  0  0  0  0  0  0  0  0  0
   -1.7110   14.4632    3.0850 O   0  0  0  0  0  0  0  0  0  0  0  0
   -3.4395   12.6750    3.0796 C   0  0  2  0  0  0  0  0  0  0  0  0
   -3.3235   12.4144    1.6712 O   0  0  0  0  0  0  0  0  0  0  0  0
   -4.8869   12.3571    3.5294 C   0  0  2  0  0  0  0  0  0  0  0  0
   -5.0507   12.5988    4.9344 O   0  0  0  0  0  0  0  0  0  0  0  0
   -5.2642   10.9303    3.2256 C   0  0  0  0  0  0  0  0  0  0  0  0
   -6.6308   10.7844    3.2471 N   0  0  0  0  0  0  0  0  0  0  0  0
   -9.2964   16.9774    5.6317 C   0  0  1  0  0  0  0  0  0  0  0  0
  -10.7089   17.1910    6.0548 N   0  0  0  0  0  0  0  0  0  0  0  0
   -8.5198   16.3774    6.7959 C   0  0  2  0  0  0  0  0  0  0  0  0
   -8.6305   17.2497    7.8808 O   0  0  0  0  0  0  0  0  0  0  0  0
   -7.0255   16.1527    6.4034 C   0  0  1  0  0  0  0  0  0  0  0  0
   -6.2966   15.5572    7.5199 O   0  0  0  0  0  0  0  0  0  0  0  0
   -6.9444   15.1724    5.1631 C   0  0  1  0  0  0  0  0  0  0  0  0
   -7.7014   15.7701    3.9869 C   0  0  1  0  0  0  0  0  0  0  0  0
   -7.6017   14.8614    2.8547 N   0  0  0  0  0  0  0  0  0  0  0  0
   -9.1825   16.0118    4.3834 C   0  0  0  0  0  0  0  0  0  0  0  0
   -8.5205   18.4720    8.6428 C   0  0  0  0  0  0  0  0  0  0  0  0
   -7.0620   18.8455    8.7757 C   0  0  0  0  0  0  0  0  0  0  0  0
   -6.8023   19.9370    9.7371 N   0  0  0  0  0  0  0  0  0  0  0  0
   -6.7134   21.2802   10.3537 C   0  0  0  0  0  0  0  0  0  0  0  0
   -5.3907   21.0693   11.1012 C   0  0  0  0  0  0  0  0  0  0  0  0
   -4.2060   20.8456   10.1428 C   0  0  0  0  0  0  0  0  0  0  0  0
   -3.9819   22.0643    9.2530 C   0  0  0  0  0  0  0  0  0  0  0  0
   -3.2264   21.6857    8.0671 N   0  0  0  0  0  0  0  0  0  0  0  0
  -12.4505   20.1067    8.3549 N   0  0  0  0  0  0  0  0  0  0  0  0
  -11.3283   18.7529    5.4860 C   0  0  0  0  0  0  0  0  0  0  0  0
  -10.9251   19.5663    4.9030 O   0  0  0  0  0  0  0  0  0  0  0  0
  -12.6054   18.3872    6.2022 C   0  0  2  0  0  0  0  0  0  0  0  0
  -13.2954   17.4154    5.5230 O   0  0  0  0  0  0  0  0  0  0  0  0
  -13.4845   19.6329    6.2020 C   0  0  0  0  0  0  0  0  0  0  0  0
  -13.6478   20.3701    7.5436 C   0  0  0  0  0  0  0  0  0  0  0  0
  1  2  1  6  0  0  0
  1  3  1  0  0  0  0
  3  4  1  6  0  0  0
  3  5  1  0  0  0  0
  5  6  1  1  0  0  0
  5  7  1  0  0  0  0
  7  8  1  6  0  0  0
  9  7  1  0  0  0  0
  9 10  1  0  0  0  0
  9 11  1  1  0  0  0
 10  1  1  0  0  0  0
 11 12  1  0  0  0  0
 13 14  1  1  0  0  0
 13 15  1  0  0  0  0
 13 22  1  0  0  0  0
 14 32  1  0  0  0  0
 15 16  1  1  0  0  0
 15 17  1  0  0  0  0
 16 23  1  0  0  0  0
 17 18  1  1  0  0  0
 17 19  1  0  0  0  0
 19  2  1  6  0  0  0
 19 20  1  0  0  0  0
 20 21  1  6  0  0  0
 20 22  1  0  0  0  0
 23 24  1  0  0  0  0
 24 25  1  0  0  0  0
 25 26  1  0  0  0  0
 26 27  1  0  0  0  0
 27 28  1  0  0  0  0
 28 29  1  0  0  0  0
 29 30  1  0  0  0  0
 31 37  1  0  0  0  0
 32 33  2  0  0  0  0
 34 32  1  6  0  0  0
 34 35  1  0  0  0  0
 34 36  1  0  0  0  0
 36 37  1  0  0  0  0
M  END
>  <CHROM.1>
-162.07540103,-161.68541985,137.75777406,-58.88155427,-61.97400468,83.07276203
-169.44539751,-75.34679321,-143.06913678,64.54821879,62.06919546,-159.36024180
-73.50822352,-107.46687277,27.01989973,-7.15898338,16.71957228,6.04277192
-0.95049041,-0.13811960,0.67236187

>  <Name>
1o9m_lig

>  <RI>
0

>  <Rbt.Current_Directory>
/home/itssahil/PROJECTS/Mol_Feturizer/New_Systems/rnas/1o9m

>  <Rbt.Executable>
rbdock ($Id: //depot/dev/client3/rdock/2013.1/src/exe/rbdock.cxx#4 $)

>  <Rbt.Library>
libRbt.so (2013.1, Build901 2013/11/27)

>  <Rbt.Parameter_File>
/export/apps/rDock/src/rDock_2013.1_src/data/scripts/dock_solv.prm

>  <Rbt.Receptor>
prm/pocket_docking_2.prm

>  <SCORE>
-12.4984

>  <SCORE.INTER>
-13.8116

>  <SCORE.INTER.CONST>
1

>  <SCORE.INTER.POLAR>
-1.42945

>  <SCORE.INTER.ROT>
15

>  <SCORE.INTER.SOLV>
22.5011

>  <SCORE.INTER.VDW>
-25.5433

>  <SCORE.INTER.norm>
-0.373286

>  <SCORE.INTRA>
0.247143

>  <SCORE.INTRA.DIHEDRAL>
-4.02096

>  <SCORE.INTRA.DIHEDRAL.0>
21.5987

>  <SCORE.INTRA.POLAR>
0

>  <SCORE.INTRA.POLAR.0>
0

>  <SCORE.INTRA.REPUL>
0

>  <SCORE.INTRA.REPUL.0>
0

>  <SCORE.INTRA.SOLV>
3.03928

>  <SCORE.INTRA.SOLV.lig_0>
-108.715

>  <SCORE.INTRA.VDW>
0.737982

>  <SCORE.INTRA.VDW.0>
-3.9485

>  <SCORE.INTRA.norm>
0.00667955

>  <SCORE.RESTR>
1.06605

>  <SCORE.RESTR.CAVITY>
1.06605

>  <SCORE.RESTR.norm>
0.028812

>  <SCORE.SYSTEM>
0

>  <SCORE.SYSTEM.CONST>
0

>  <SCORE.SYSTEM.DIHEDRAL>
0

>  <SCORE.SYSTEM.SOLV>
0

>  <SCORE.SYSTEM.norm>
0

>  <SCORE.heavy>
37

>  <SCORE.norm>
-0.337794

>  <RMSD>
1.542

$$$$
1o9m_lig
 OpenBabel11021811403D
libRbt.so/2013.1/901 2013/11/27
 37 38  0  0  0  0  0  0  0  0999 V2000
   -4.8386   14.0188    5.4677 C   0  0  2  0  0  0  0  0  0  0  0  0
   -5.6233   15.1197    4.9160 O   0  0  0  0  0  0  0  0  0  0  0  0
   -3.3500   14.2690    5.0250 C   0  0  2  0  0  0  0  0  0  0  0  0
   -2.8371   15.5646    5.5038 N   0  0  0  0  0  0  0  0  0  0  0  0
   -3.2581   14.1785    3.4542 C   0  0  1  0  0  0  0  0  0  0  0  0
   -1.9116   14.4010    3.0263 O   0  0  0  0  0  0  0  0  0  0  0  0
   -3.7939   12.7755    3.0161 C   0  0  2  0  0  0  0  0  0  0  0  0
   -3.7712   12.5900    1.5913 O   0  0  0  0  0  0  0  0  0  0  0  0
   -5.2404   12.5600    3.5255 C   0  0  2  0  0  0  0  0  0  0  0  0
   -5.3125   12.7310    4.9485 O   0  0  0  0  0  0  0  0  0  0  0  0
   -5.7604   11.1925    3.1646 C   0  0  0  0  0  0  0  0  0  0  0  0
   -5.2546   10.2484    4.0261 N   0  0  0  0  0  0  0  0  0  0  0  0
   -9.2183   17.3162    5.9514 C   0  0  1  0  0  0  0  0  0  0  0  0
  -10.6050   17.5908    6.4219 N   0  0  0  0  0  0  0  0  0  0  0  0
   -8.4367   16.6596    7.0812 C   0  0  2  0  0  0  0  0  0  0  0  0
   -8.4712   17.5177    8.1823 O   0  0  0  0  0  0  0  0  0  0  0  0
   -6.9679   16.3694    6.6384 C   0  0  1  0  0  0  0  0  0  0  0  0
   -6.2351   15.7205    7.7221 O   0  0  0  0  0  0  0  0  0  0  0  0
   -6.9730   15.4075    5.3812 C   0  0  1  0  0  0  0  0  0  0  0  0
   -7.7355   16.0610    4.2387 C   0  0  1  0  0  0  0  0  0  0  0  0
   -7.7152   15.1678    3.0901 N   0  0  0  0  0  0  0  0  0  0  0  0
   -9.1901   16.3675    4.6853 C   0  0  0  0  0  0  0  0  0  0  0  0
   -8.2760   17.9781    9.5375 C   0  0  0  0  0  0  0  0  0  0  0  0
   -6.8127   17.8592    9.8972 C   0  0  0  0  0  0  0  0  0  0  0  0
   -5.9326   18.7952    9.1676 N   0  0  0  0  0  0  0  0  0  0  0  0
   -5.2103   19.4916    8.0787 C   0  0  0  0  0  0  0  0  0  0  0  0
   -5.4751   20.9271    8.5501 C   0  0  0  0  0  0  0  0  0  0  0  0
   -4.6945   21.2758    9.8313 C   0  0  0  0  0  0  0  0  0  0  0  0
   -3.2737   21.7244    9.5036 C   0  0  0  0  0  0  0  0  0  0  0  0
   -2.4981   20.6002    8.9989 N   0  0  0  0  0  0  0  0  0  0  0  0
  -14.3518   21.5865    7.2160 N   0  0  0  0  0  0  0  0  0  0  0  0
  -11.6405   18.1564    5.0973 C   0  0  0  0  0  0  0  0  0  0  0  0
  -11.5001   18.3337    4.0424 O   0  0  0  0  0  0  0  0  0  0  0  0
  -12.7282   18.2690    6.1374 C   0  0  2  0  0  0  0  0  0  0  0  0
  -13.8698   17.6235    5.7348 O   0  0  0  0  0  0  0  0  0  0  0  0
  -13.0770   19.7487    6.2536 C   0  0  0  0  0  0  0  0  0  0  0  0
  -14.1575   20.1308    7.2815 C   0  0  0  0  0  0  0  0  0  0  0  0
  1  2  1  6  0  0  0
  1  3  1  0  0  0  0
  3  4  1  6  0  0  0
  3  5  1  0  0  0  0
  5  6  1  1  0  0  0
  5  7  1  0  0  0  0
  7  8  1  6  0  0  0
  9  7  1  0  0  0  0
  9 10  1  0  0  0  0
  9 11  1  1  0  0  0
 10  1  1  0  0  0  0
 11 12  1  0  0  0  0
 13 14  1  1  0  0  0
 13 15  1  0  0  0  0
 13 22  1  0  0  0  0
 14 32  1  0  0  0  0
 15 16  1  1  0  0  0
 15 17  1  0  0  0  0
 16 23  1  0  0  0  0
 17 18  1  1  0  0  0
 17 19  1  0  0  0  0
 19  2  1  6  0  0  0
 19 20  1  0  0  0  0
 20 21  1  6  0  0  0
 20 22  1  0  0  0  0
 23 24  1  0  0  0  0
 24 25  1  0  0  0  0
 25 26  1  0  0  0  0
 26 27  1  0  0  0  0
 27 28  1  0  0  0  0
 28 29  1  0  0  0  0
 29 30  1  0  0  0  0
 31 37  1  0  0  0  0
 32 33  2  0  0  0  0
 34 32  1  6  0  0  0
 34 35  1  0  0  0  0
 34 36  1  0  0  0  0
 36 37  1  0  0  0  0
M  END
>  <CHROM.1>
-164.73572535,78.75171710,-172.39766503,172.73476174,55.93634632,87.18724314
68.51188756,-62.51006183,134.81219632,70.41760048,84.12336716,-68.80241525
-128.61639311,-178.94401084,-179.13911435,-7.18151289,16.64635612,6.00359994
0.75841144,0.17267104,-2.46994537

>  <Name>
1o9m_lig

>  <RI>
0

>  <Rbt.Current_Directory>
/home/itssahil/PROJECTS/Mol_Feturizer/New_Systems/rnas/1o9m

>  <Rbt.Executable>
rbdock ($Id: //depot/dev/client3/rdock/2013.1/src/exe/rbdock.cxx#4 $)

>  <Rbt.Library>
libRbt.so (2013.1, Build901 2013/11/27)

>  <Rbt.Parameter_File>
/export/apps/rDock/src/rDock_2013.1_src/data/scripts/dock_solv.prm

>  <Rbt.Receptor>
prm/pocket_docking_4.prm

>  <SCORE>
-11.735

>  <SCORE.INTER>
-8.8777

>  <SCORE.INTER.CONST>
1

>  <SCORE.INTER.POLAR>
-0.959166

>  <SCORE.INTER.ROT>
15

>  <SCORE.INTER.SOLV>
19.9677

>  <SCORE.INTER.VDW>
-22.9771

>  <SCORE.INTER.norm>
-0.239938

>  <SCORE.INTRA>
-2.85727

>  <SCORE.INTRA.DIHEDRAL>
-9.29369

>  <SCORE.INTRA.DIHEDRAL.0>
21.5987

>  <SCORE.INTRA.POLAR>
0

>  <SCORE.INTRA.POLAR.0>
0

>  <SCORE.INTRA.REPUL>
0

>  <SCORE.INTRA.REPUL.0>
0

>  <SCORE.INTRA.SOLV>
4.15248

>  <SCORE.INTRA.SOLV.lig_0>
-108.715

>  <SCORE.INTRA.VDW>
-0.286666

>  <SCORE.INTRA.VDW.0>
-3.9485

>  <SCORE.INTRA.norm>
-0.0772235

>  <SCORE.RESTR>
0

>  <SCORE.RESTR.CAVITY>
0

>  <SCORE.RESTR.norm>
0

>  <SCORE.SYSTEM>
0

>  <SCORE.SYSTEM.CONST>
0

>  <SCORE.SYSTEM.DIHEDRAL>
0

>  <SCORE.SYSTEM.SOLV>
0

>  <SCORE.SYSTEM.norm>
0

>  <SCORE.heavy>
37

>  <SCORE.norm>
-0.317161

>  <RMSD>
1.542

$$$$
1o9m_lig
 OpenBabel11021811403D
libRbt.so/2013.1/901 2013/11/27
 37 38  0  0  0  0  0  0  0  0999 V2000
   -5.0288   14.0303    5.2131 C   0  0  2  0  0  0  0  0  0  0  0  0
   -5.8256   15.0915    4.6040 O   0  0  0  0  0  0  0  0  0  0  0  0
   -3.5822   14.1585    4.6086 C   0  0  2  0  0  0  0  0  0  0  0  0
   -2.9825   15.4777    4.8750 N   0  0  0  0  0  0  0  0  0  0  0  0
   -3.6450   13.8767    3.0592 C   0  0  1  0  0  0  0  0  0  0  0  0
   -2.3393   13.9856    2.4858 O   0  0  0  0  0  0  0  0  0  0  0  0
   -4.2672   12.4569    2.8484 C   0  0  2  0  0  0  0  0  0  0  0  0
   -4.3880   12.1015    1.4613 O   0  0  0  0  0  0  0  0  0  0  0  0
   -5.6644   12.3692    3.5106 C   0  0  2  0  0  0  0  0  0  0  0  0
   -5.5934   12.7122    4.9023 O   0  0  0  0  0  0  0  0  0  0  0  0
   -6.2622   10.9931    3.3702 C   0  0  0  0  0  0  0  0  0  0  0  0
   -5.5237   10.0785    4.0826 N   0  0  0  0  0  0  0  0  0  0  0  0
   -8.9466   17.6631    6.1747 C   0  0  1  0  0  0  0  0  0  0  0  0
  -10.2525   18.0879    6.7524 N   0  0  0  0  0  0  0  0  0  0  0  0
   -8.2770   16.6901    7.1356 C   0  0  2  0  0  0  0  0  0  0  0  0
   -8.1370   17.3317    8.3681 O   0  0  0  0  0  0  0  0  0  0  0  0
   -6.8926   16.2310    6.5786 C   0  0  1  0  0  0  0  0  0  0  0  0
   -6.2705   15.2821    7.4979 O   0  0  0  0  0  0  0  0  0  0  0  0
   -7.0930   15.5235    5.1768 C   0  0  1  0  0  0  0  0  0  0  0  0
   -7.7445   16.4925    4.2019 C   0  0  1  0  0  0  0  0  0  0  0  0
   -7.9056   15.8278    2.9174 N   0  0  0  0  0  0  0  0  0  0  0  0
   -9.1119   16.9642    4.7648 C   0  0  0  0  0  0  0  0  0  0  0  0
   -7.6688   18.2907    9.3416 C   0  0  0  0  0  0  0  0  0  0  0  0
   -6.1685   18.1683    9.4785 C   0  0  0  0  0  0  0  0  0  0  0  0
   -5.5490   19.2215   10.3090 N   0  0  0  0  0  0  0  0  0  0  0  0
   -5.1890   20.0765   11.4631 C   0  0  0  0  0  0  0  0  0  0  0  0
   -5.8187   21.3781   10.9510 C   0  0  0  0  0  0  0  0  0  0  0  0
   -4.7636   22.3776   10.4410 C   0  0  0  0  0  0  0  0  0  0  0  0
   -4.0357   21.8308    9.2169 C   0  0  0  0  0  0  0  0  0  0  0  0
   -4.9771   21.6264    8.1250 N   0  0  0  0  0  0  0  0  0  0  0  0
  -14.7435   20.8065    7.5400 N   0  0  0  0  0  0  0  0  0  0  0  0
  -10.5633   19.8096    6.4593 C   0  0  0  0  0  0  0  0  0  0  0  0
  -10.0353   20.6047    5.9563 O   0  0  0  0  0  0  0  0  0  0  0  0
  -11.8408   19.6022    7.2355 C   0  0  2  0  0  0  0  0  0  0  0  0
  -12.8268   19.0773    6.4391 O   0  0  0  0  0  0  0  0  0  0  0  0
  -12.3187   20.9811    7.6768 C   0  0  0  0  0  0  0  0  0  0  0  0
  -13.6335   21.0398    8.4753 C   0  0  0  0  0  0  0  0  0  0  0  0
  1  2  1  6  0  0  0
  1  3  1  0  0  0  0
  3  4  1  6  0  0  0
  3  5  1  0  0  0  0
  5  6  1  1  0  0  0
  5  7  1  0  0  0  0
  7  8  1  6  0  0  0
  9  7  1  0  0  0  0
  9 10  1  0  0  0  0
  9 11  1  1  0  0  0
 10  1  1  0  0  0  0
 11 12  1  0  0  0  0
 13 14  1  1  0  0  0
 13 15  1  0  0  0  0
 13 22  1  0  0  0  0
 14 32  1  0  0  0  0
 15 16  1  1  0  0  0
 15 17  1  0  0  0  0
 16 23  1  0  0  0  0
 17 18  1  1  0  0  0
 17 19  1  0  0  0  0
 19  2  1  6  0  0  0
 19 20  1  0  0  0  0
 20 21  1  6  0  0  0
 20 22  1  0  0  0  0
 23 24  1  0  0  0  0
 24 25  1  0  0  0  0
 25 26  1  0  0  0  0
 26 27  1  0  0  0  0
 27 28  1  0  0  0  0
 28 29  1  0  0  0  0
 29 30  1  0  0  0  0
 31 37  1  0  0  0  0
 32 33  2  0  0  0  0
 34 32  1  6  0  0  0
 34 35  1  0  0  0  0
 34 36  1  0  0  0  0
 36 37  1  0  0  0  0
M  END
>  <CHROM.1>
-162.67403231,66.07646835,140.88143100,-65.45307430,-61.21166700,66.98027966
172.07138545,63.62304674,-113.50782715,-104.76905507,64.68841333,62.15431757
-82.33100415,178.99405409,-74.22062588,-7.17631812,16.96817110,6.30878277
-1.05733974,-0.21049576,0.69906225

>  <Name>
1o9m_lig

>  <RI>
0

>  <Rbt.Current_Directory>
/home/itssahil/PROJECTS/Mol_Feturizer/New_Systems/rnas/1o9m

>  <Rbt.Executable>
rbdock ($Id: //depot/dev/client3/rdock/2013.1/src/exe/rbdock.cxx#4 $)

>  <Rbt.Library>
libRbt.so (2013.1, Build901 2013/11/27)

>  <Rbt.Parameter_File>
/export/apps/rDock/src/rDock_2013.1_src/data/scripts/dock_solv.prm

>  <Rbt.Receptor>
prm/pocket_docking_2.prm

>  <SCORE>
-12.988

>  <SCORE.INTER>
-10.5268

>  <SCORE.INTER.CONST>
1

>  <SCORE.INTER.POLAR>
-0.959166

>  <SCORE.INTER.ROT>
15

>  <SCORE.INTER.SOLV>
20.7196

>  <SCORE.INTER.VDW>
-24.3271

>  <SCORE.INTER.norm>
-0.284507

>  <SCORE.INTRA>
-2.55368

>  <SCORE.INTRA.DIHEDRAL>
-10.7061

>  <SCORE.INTRA.DIHEDRAL.0>
21.5987

>  <SCORE.INTRA.POLAR>
0

>  <SCORE.INTRA.POLAR.0>
0

>  <SCORE.INTRA.REPUL>
0

>  <SCORE.INTRA.REPUL.0>
0

>  <SCORE.INTRA.SOLV>
5.00862

>  <SCORE.INTRA.SOLV.lig_0>
-108.715

>  <SCORE.INTRA.VDW>
0.295053

>  <SCORE.INTRA.VDW.0>
-3.9485

>  <SCORE.INTRA.norm>
-0.0690184

>  <SCORE.RESTR>
0.0923898

>  <SCORE.RESTR.CAVITY>
0.0923898

>  <SCORE.RESTR.norm>
0.00249702

>  <SCORE.SYSTEM>
0

>  <SCORE.SYSTEM.CONST>
0

>  <SCORE.SYSTEM.DIHEDRAL>
0

>  <SCORE.SYSTEM.SOLV>
0

>  <SCORE.SYSTEM.norm>
0

>  <SCORE.heavy>
37

>  <SCORE.norm>
-0.351028

>  <RMSD>
1.550

$$$$
1o9m_lig
 OpenBabel11021811403D
libRbt.so/2013.1/901 2013/11/27
 37 38  0  0  0  0  0  0  0  0999 V2000
   -4.4639   14.0262    5.4199 C   0  0  2  0  0  0  0  0  0  0  0  0
   -5.1961   15.1848    4.9162 O   0  0  0  0  0  0  0  0  0  0  0  0
   -3.0473   14.0648    4.7371 C   0  0  2  0  0  0  0  0  0  0  0  0
   -2.3193   15.3104    5.0357 N   0  0  0  0  0  0  0  0  0  0  0  0
   -3.2205   13.8788    3.1817 C   0  0  1  0  0  0  0  0  0  0  0  0
   -1.9440   13.9085    2.5373 O   0  0  0  0  0  0  0  0  0  0  0  0
   -3.9768   12.5318    2.9345 C   0  0  2  0  0  0  0  0  0  0  0  0
   -4.2052   12.2683    1.5405 O   0  0  0  0  0  0  0  0  0  0  0  0
   -5.3375   12.5259    3.6740 C   0  0  2  0  0  0  0  0  0  0  0  0
   -5.1595   12.7812    5.0749 O   0  0  0  0  0  0  0  0  0  0  0  0
   -6.0617   11.2164    3.4979 C   0  0  0  0  0  0  0  0  0  0  0  0
   -5.4312   10.2243    4.2104 N   0  0  0  0  0  0  0  0  0  0  0  0
   -8.2226   17.9543    6.3273 C   0  0  1  0  0  0  0  0  0  0  0  0
   -9.4332   18.4685    7.0269 N   0  0  0  0  0  0  0  0  0  0  0  0
   -7.2807   17.3457    7.3573 C   0  0  2  0  0  0  0  0  0  0  0  0
   -6.9797   18.3317    8.2993 O   0  0  0  0  0  0  0  0  0  0  0  0
   -5.9858   16.8086    6.6699 C   0  0  1  0  0  0  0  0  0  0  0  0
   -5.1008   16.2083    7.6644 O   0  0  0  0  0  0  0  0  0  0  0  0
   -6.3708   15.7063    5.6010 C   0  0  1  0  0  0  0  0  0  0  0  0
   -7.2972   16.3078    4.5552 C   0  0  1  0  0  0  0  0  0  0  0  0
   -7.6262   15.2832    3.5756 N   0  0  0  0  0  0  0  0  0  0  0  0
   -8.5758   16.8594    5.2409 C   0  0  0  0  0  0  0  0  0  0  0  0
   -6.4161   19.5438    8.8469 C   0  0  0  0  0  0  0  0  0  0  0  0
   -6.8702   19.7001   10.2800 C   0  0  0  0  0  0  0  0  0  0  0  0
   -6.2930   18.7069   11.2092 N   0  0  0  0  0  0  0  0  0  0  0  0
   -6.0335   17.8927   12.4184 C   0  0  0  0  0  0  0  0  0  0  0  0
   -4.5281   17.6909   12.2035 C   0  0  0  0  0  0  0  0  0  0  0  0
   -3.7022   18.9035   12.6721 C   0  0  0  0  0  0  0  0  0  0  0  0
   -2.2081   18.6526   12.4925 C   0  0  0  0  0  0  0  0  0  0  0  0
   -1.4455   19.7758   13.0190 N   0  0  0  0  0  0  0  0  0  0  0  0
  -14.4810   18.5899    6.6837 N   0  0  0  0  0  0  0  0  0  0  0  0
  -10.6122   19.1342    5.8809 C   0  0  0  0  0  0  0  0  0  0  0  0
  -10.6567   19.2401    4.8081 O   0  0  0  0  0  0  0  0  0  0  0  0
  -11.4457   19.4658    7.0945 C   0  0  2  0  0  0  0  0  0  0  0  0
  -11.9021   18.3280    7.7101 O   0  0  0  0  0  0  0  0  0  0  0  0
  -12.6736   20.2190    6.5951 C   0  0  0  0  0  0  0  0  0  0  0  0
  -13.6904   19.4181    5.7617 C   0  0  0  0  0  0  0  0  0  0  0  0
  1  2  1  6  0  0  0
  1  3  1  0  0  0  0
  3  4  1  6  0  0  0
  3  5  1  0  0  0  0
  5  6  1  6  0  0  0
  5  7  1  0  0  0  0
  7  8  1  6  0  0  0
  9  7  1  0  0  0  0
  9 10  1  0  0  0  0
  9 11  1  1  0  0  0
 10  1  1  0  0  0  0
 11 12  1  0  0  0  0
 13 14  1  1  0  0  0
 13 15  1  0  0  0  0
 13 22  1  0  0  0  0
 14 32  1  0  0  0  0
 15 16  1  1  0  0  0
 15 17  1  0  0  0  0
 16 23  1  0  0  0  0
 17 18  1  1  0  0  0
 17 19  1  0  0  0  0
 19  2  1  6  0  0  0
 19 20  1  0  0  0  0
 20 21  1  6  0  0  0
 20 22  1  0  0  0  0
 23 24  1  0  0  0  0
 24 25  1  0  0  0  0
 25 26  1  0  0  0  0
 26 27  1  0  0  0  0
 27 28  1  0  0  0  0
 28 29  1  0  0  0  0
 29 30  1  0  0  0  0
 31 37  1  0  0  0  0
 32 33  2  0  0  0  0
 34 32  1  6  0  0  0
 34 35  1  0  0  0  0
 34 36  1  0  0  0  0
 36 37  1  0  0  0  0
M  END
>  <CHROM.1>
-161.41124065,71.20607778,-177.62179859,-68.85351022,176.86416744,90.18359640
69.06257574,-169.18913993,-148.67662661,81.22965468,177.93791568,-176.43833546
-67.57915322,68.26946969,77.03626204,-6.64333425,16.54169547,6.66159010,-0.97656295
-0.38079718,0.94548628

>  <Name>
1o9m_lig

>  <RI>
0

>  <Rbt.Current_Directory>
/home/itssahil/PROJECTS/Mol_Feturizer/New_Systems/rnas/1o9m

>  <Rbt.Executable>
rbdock ($Id: //depot/dev/client3/rdock/2013.1/src/exe/rbdock.cxx#4 $)

>  <Rbt.Library>
libRbt.so (2013.1, Build901 2013/11/27)

>  <Rbt.Parameter_File>
/export/apps/rDock/src/rDock_2013.1_src/data/scripts/dock_solv.prm

>  <Rbt.Receptor>
prm/pocket_docking_3.prm

>  <SCORE>
-15.2391

>  <SCORE.INTER>
-11.9392

>  <SCORE.INTER.CONST>
1

>  <SCORE.INTER.POLAR>
-1.83095

>  <SCORE.INTER.ROT>
15

>  <SCORE.INTER.SOLV>
24.7399

>  <SCORE.INTER.VDW>
-23.703

>  <SCORE.INTER.norm>
-0.322681

>  <SCORE.INTRA>
-3.33165

>  <SCORE.INTRA.DIHEDRAL>
-10.7699

>  <SCORE.INTRA.DIHEDRAL.0>
21.5987

>  <SCORE.INTRA.POLAR>
0

>  <SCORE.INTRA.POLAR.0>
0

>  <SCORE.INTRA.REPUL>
0

>  <SCORE.INTRA.REPUL.0>
0

>  <SCORE.INTRA.SOLV>
3.47951

>  <SCORE.INTRA.SOLV.lig_0>
-108.715

>  <SCORE.INTRA.VDW>
0.313553

>  <SCORE.INTRA.VDW.0>
-3.9485

>  <SCORE.INTRA.norm>
-0.0900445

>  <SCORE.RESTR>
0.0317365

>  <SCORE.RESTR.CAVITY>
0.0317365

>  <SCORE.RESTR.norm>
0.000857742

>  <SCORE.SYSTEM>
0

>  <SCORE.SYSTEM.CONST>
0

>  <SCORE.SYSTEM.DIHEDRAL>
0

>  <SCORE.SYSTEM.SOLV>
0

>  <SCORE.SYSTEM.norm>
0

>  <SCORE.heavy>
37

>  <SCORE.norm>
-0.411868

>  <RMSD>
1.554

$$$$
1o9m_lig
 OpenBabel11021811403D
libRbt.so/2013.1/901 2013/11/27
 37 38  0  0  0  0  0  0  0  0999 V2000
   -5.0147   14.4511    5.4958 C   0  0  2  0  0  0  0  0  0  0  0  0
   -5.8724   15.3673    4.7494 O   0  0  0  0  0  0  0  0  0  0  0  0
   -3.5821   15.1005    5.5157 C   0  0  2  0  0  0  0  0  0  0  0  0
   -3.5847   16.4354    6.1394 N   0  0  0  0  0  0  0  0  0  0  0  0
   -3.0300   15.1744    4.0414 C   0  0  1  0  0  0  0  0  0  0  0  0
   -1.7255   15.7606    4.0331 O   0  0  0  0  0  0  0  0  0  0  0  0
   -3.0319   13.7266    3.4486 C   0  0  2  0  0  0  0  0  0  0  0  0
   -2.5600   13.6789    2.0922 O   0  0  0  0  0  0  0  0  0  0  0  0
   -4.4537   13.1153    3.5052 C   0  0  2  0  0  0  0  0  0  0  0  0
   -4.9669   13.1369    4.8452 O   0  0  0  0  0  0  0  0  0  0  0  0
   -4.4720   11.6989    2.9913 C   0  0  0  0  0  0  0  0  0  0  0  0
   -5.7622   11.2272    2.9419 N   0  0  0  0  0  0  0  0  0  0  0  0
   -9.4556   17.7066    5.4626 C   0  0  1  0  0  0  0  0  0  0  0  0
  -10.8106   18.0768    5.9592 N   0  0  0  0  0  0  0  0  0  0  0  0
   -8.5638   17.3911    6.6558 C   0  0  2  0  0  0  0  0  0  0  0  0
   -8.5445   18.5138    7.4860 O   0  0  0  0  0  0  0  0  0  0  0  0
   -7.1243   17.0147    6.1829 C   0  0  1  0  0  0  0  0  0  0  0  0
   -6.2851   16.6934    7.3340 O   0  0  0  0  0  0  0  0  0  0  0  0
   -7.1915   15.7493    5.2342 C   0  0  1  0  0  0  0  0  0  0  0  0
   -8.0650   16.0587    4.0280 C   0  0  1  0  0  0  0  0  0  0  0  0
   -8.1010   14.8892    3.1628 N   0  0  0  0  0  0  0  0  0  0  0  0
   -9.4908   16.4521    4.4989 C   0  0  0  0  0  0  0  0  0  0  0  0
   -8.3573   19.8887    7.8875 C   0  0  0  0  0  0  0  0  0  0  0  0
   -8.4392   19.9825    9.3938 C   0  0  0  0  0  0  0  0  0  0  0  0
   -7.2355   19.4927   10.0967 N   0  0  0  0  0  0  0  0  0  0  0  0
   -5.8275   19.2971   10.5113 C   0  0  0  0  0  0  0  0  0  0  0  0
   -5.5574   20.7316   10.9824 C   0  0  0  0  0  0  0  0  0  0  0  0
   -5.6200   21.7486    9.8275 C   0  0  0  0  0  0  0  0  0  0  0  0
   -4.5031   21.5024    8.8179 C   0  0  0  0  0  0  0  0  0  0  0  0
   -3.2124   21.4951    9.4919 N   0  0  0  0  0  0  0  0  0  0  0  0
  -14.1811   19.5229    8.7727 N   0  0  0  0  0  0  0  0  0  0  0  0
  -11.1550   19.7955    5.6872 C   0  0  0  0  0  0  0  0  0  0  0  0
  -10.6194   20.6190    5.2410 O   0  0  0  0  0  0  0  0  0  0  0  0
  -12.4751   19.5297    6.3684 C   0  0  2  0  0  0  0  0  0  0  0  0
  -13.4874   19.3891    5.4532 O   0  0  0  0  0  0  0  0  0  0  0  0
  -12.8010   20.7664    7.1987 C   0  0  0  0  0  0  0  0  0  0  0  0
  -14.1319   20.7549    7.9721 C   0  0  0  0  0  0  0  0  0  0  0  0
  1  2  1  6  0  0  0
  1  3  1  0  0  0  0
  3  4  1  6  0  0  0
  3  5  1  0  0  0  0
  5  6  1  1  0  0  0
  5  7  1  0  0  0  0
  7  8  1  6  0  0  0
  9  7  1  0  0  0  0
  9 10  1  0  0  0  0
  9 11  1  1  0  0  0
 10  1  1  0  0  0  0
 11 12  1  0  0  0  0
 13 14  1  1  0  0  0
 13 15  1  0  0  0  0
 13 22  1  0  0  0  0
 14 32  1  0  0  0  0
 15 16  1  1  0  0  0
 15 17  1  0  0  0  0
 16 23  1  0  0  0  0
 17 18  1  1  0  0  0
 17 19  1  0  0  0  0
 19  2  1  6  0  0  0
 19 20  1  0  0  0  0
 20 21  1  6  0  0  0
 20 22  1  0  0  0  0
 23 24  1  0  0  0  0
 24 25  1  0  0  0  0
 25 26  1  0  0  0  0
 26 27  1  0  0  0  0
 27 28  1  0  0  0  0
 28 29  1  0  0  0  0
 29 30  1  0  0  0  0
 31 37  1  0  0  0  0
 32 33  2  0  0  0  0
 34 32  1  6  0  0  0
 34 35  1  0  0  0  0
 34 36  1  0  0  0  0
 36 37  1  0  0  0  0
M  END
>  <CHROM.1>
-133.72663969,-174.61051145,111.05171922,-56.48157918,-168.59209796,88.19565732
75.72601016,52.56242548,61.75192535,-65.15998758,-65.19850916,-54.39473115
-100.63702631,178.57299697,52.55899662,-7.26293354,17.34941098,6.19675692
0.81425761,0.18587431,-2.40631861

>  <Name>
1o9m_lig

>  <RI>
0

>  <Rbt.Current_Directory>
/home/itssahil/PROJECTS/Mol_Feturizer/New_Systems/rnas/1o9m

>  <Rbt.Executable>
rbdock ($Id: //depot/dev/client3/rdock/2013.1/src/exe/rbdock.cxx#4 $)

>  <Rbt.Library>
libRbt.so (2013.1, Build901 2013/11/27)

>  <Rbt.Parameter_File>
/export/apps/rDock/src/rDock_2013.1_src/data/scripts/dock_solv.prm

>  <Rbt.Receptor>
prm/pocket_docking_2.prm

>  <SCORE>
-9.2985

>  <SCORE.INTER>
-8.96335

>  <SCORE.INTER.CONST>
1

>  <SCORE.INTER.POLAR>
-1.2635

>  <SCORE.INTER.ROT>
15

>  <SCORE.INTER.SOLV>
18.5842

>  <SCORE.INTER.VDW>
-21.5586

>  <SCORE.INTER.norm>
-0.242253

>  <SCORE.INTRA>
-0.928962

>  <SCORE.INTRA.DIHEDRAL>
-6.71103

>  <SCORE.INTRA.DIHEDRAL.0>
21.5987

>  <SCORE.INTRA.POLAR>
0

>  <SCORE.INTRA.POLAR.0>
0

>  <SCORE.INTRA.REPUL>
0

>  <SCORE.INTRA.REPUL.0>
0

>  <SCORE.INTRA.SOLV>
4.54902

>  <SCORE.INTRA.SOLV.lig_0>
-108.715

>  <SCORE.INTRA.VDW>
0.152043

>  <SCORE.INTRA.VDW.0>
-3.9485

>  <SCORE.INTRA.norm>
-0.0251071

>  <SCORE.RESTR>
0.593806

>  <SCORE.RESTR.CAVITY>
0.593806

>  <SCORE.RESTR.norm>
0.0160488

>  <SCORE.SYSTEM>
0

>  <SCORE.SYSTEM.CONST>
0

>  <SCORE.SYSTEM.DIHEDRAL>
0

>  <SCORE.SYSTEM.SOLV>
0

>  <SCORE.SYSTEM.norm>
0

>  <SCORE.heavy>
37

>  <SCORE.norm>
-0.251311

>  <RMSD>
1.607

$$$$
1o9m_lig
 OpenBabel11021811403D
libRbt.so/2013.1/901 2013/11/27
 37 38  0  0  0  0  0  0  0  0999 V2000
   -5.5051   14.1315    5.5700 C   0  0  2  0  0  0  0  0  0  0  0  0
   -6.1030   15.2385    4.8288 O   0  0  0  0  0  0  0  0  0  0  0  0
   -3.9473   14.3371    5.4953 C   0  0  2  0  0  0  0  0  0  0  0  0
   -3.5286   15.6303    6.0639 N   0  0  0  0  0  0  0  0  0  0  0  0
   -3.4828   14.2108    3.9946 C   0  0  1  0  0  0  0  0  0  0  0  0
   -2.0673   14.3924    3.9005 O   0  0  0  0  0  0  0  0  0  0  0  0
   -3.9365   12.8117    3.4616 C   0  0  2  0  0  0  0  0  0  0  0  0
   -3.5770   12.5952    2.0873 O   0  0  0  0  0  0  0  0  0  0  0  0
   -5.4686   12.6412    3.6106 C   0  0  2  0  0  0  0  0  0  0  0  0
   -5.8760   12.8443    4.9715 O   0  0  0  0  0  0  0  0  0  0  0  0
   -5.9245   11.2789    3.1558 C   0  0  0  0  0  0  0  0  0  0  0  0
   -7.2944   11.2467    3.0487 N   0  0  0  0  0  0  0  0  0  0  0  0
   -8.3363   18.6755    6.2502 C   0  0  1  0  0  0  0  0  0  0  0  0
   -9.4524   19.4838    6.8162 N   0  0  0  0  0  0  0  0  0  0  0  0
   -7.9227   17.6248    7.2718 C   0  0  2  0  0  0  0  0  0  0  0  0
   -7.5649   18.2872    8.4480 O   0  0  0  0  0  0  0  0  0  0  0  0
   -6.7398   16.7634    6.7276 C   0  0  1  0  0  0  0  0  0  0  0  0
   -6.3669   15.7461    7.7067 O   0  0  0  0  0  0  0  0  0  0  0  0
   -7.1803   16.0427    5.3888 C   0  0  1  0  0  0  0  0  0  0  0  0
   -7.5781   17.0835    4.3533 C   0  0  1  0  0  0  0  0  0  0  0  0
   -7.9646   16.4013    3.1274 N   0  0  0  0  0  0  0  0  0  0  0  0
   -8.7411   17.9528    4.9020 C   0  0  0  0  0  0  0  0  0  0  0  0
   -7.3499   18.5028    9.8600 C   0  0  0  0  0  0  0  0  0  0  0  0
   -7.1107   19.9746   10.1075 C   0  0  0  0  0  0  0  0  0  0  0  0
   -6.0492   20.5648    9.2662 N   0  0  0  0  0  0  0  0  0  0  0  0
   -4.7450   21.0979    8.8110 C   0  0  0  0  0  0  0  0  0  0  0  0
   -4.2027   21.5007   10.1883 C   0  0  0  0  0  0  0  0  0  0  0  0
   -3.0762   20.5672   10.6697 C   0  0  0  0  0  0  0  0  0  0  0  0
   -3.6011   19.1569   10.9200 C   0  0  0  0  0  0  0  0  0  0  0  0
   -4.5006   19.1539   12.0651 N   0  0  0  0  0  0  0  0  0  0  0  0
  -10.9936   19.9852    4.3186 N   0  0  0  0  0  0  0  0  0  0  0  0
  -10.9709   18.5671    6.8411 C   0  0  0  0  0  0  0  0  0  0  0  0
  -11.2636   17.5691    6.5542 O   0  0  0  0  0  0  0  0  0  0  0  0
  -11.5936   19.8186    7.4099 C   0  0  2  0  0  0  0  0  0  0  0  0
  -12.5145   19.5183    8.3813 O   0  0  0  0  0  0  0  0  0  0  0  0
  -12.3562   20.4891    6.2726 C   0  0  0  0  0  0  0  0  0  0  0  0
  -11.5167   21.0924    5.1319 C   0  0  0  0  0  0  0  0  0  0  0  0
  1  2  1  6  0  0  0
  1  3  1  0  0  0  0
  3  4  1  6  0  0  0
  3  5  1  0  0  0  0
  5  6  1  1  0  0  0
  5  7  1  0  0  0  0
  7  8  1  6  0  0  0
  9  7  1  0  0  0  0
  9 10  1  0  0  0  0
  9 11  1  1  0  0  0
 10  1  1  0  0  0  0
 11 12  1  0  0  0  0
 13 14  1  1  0  0  0
 13 15  1  0  0  0  0
 13 22  1  0  0  0  0
 14 32  1  0  0  0  0
 15 16  1  1  0  0  0
 15 17  1  0  0  0  0
 16 23  1  0  0  0  0
 17 18  1  1  0  0  0
 17 19  1  0  0  0  0
 19  2  1  6  0  0  0
 19 20  1  0  0  0  0
 20 21  1  6  0  0  0
 20 22  1  0  0  0  0
 23 24  1  0  0  0  0
 24 25  1  0  0  0  0
 25 26  1  0  0  0  0
 26 27  1  0  0  0  0
 27 28  1  0  0  0  0
 28 29  1  0  0  0  0
 29 30  1  0  0  0  0
 31 37  1  0  0  0  0
 32 33  2  0  0  0  0
 34 32  1  6  0  0  0
 34 35  1  0  0  0  0
 34 36  1  0  0  0  0
 36 37  1  0  0  0  0
M  END
>  <CHROM.1>
-130.52663260,-168.13547382,-73.38929839,152.97475699,-167.54552891,60.13210608
-52.47449360,-100.28723338,-24.92721616,107.81635844,-65.79484030,-67.98795265
-141.05094266,-68.67550346,73.83355219,-6.92250139,17.08855152,6.43462825
-1.10631490,-0.34627555,0.75938518

>  <Name>
1o9m_lig

>  <RI>
0

>  <Rbt.Current_Directory>
/home/itssahil/PROJECTS/Mol_Feturizer/New_Systems/rnas/1o9m

>  <Rbt.Executable>
rbdock ($Id: //depot/dev/client3/rdock/2013.1/src/exe/rbdock.cxx#4 $)

>  <Rbt.Library>
libRbt.so (2013.1, Build901 2013/11/27)

>  <Rbt.Parameter_File>
/export/apps/rDock/src/rDock_2013.1_src/data/scripts/dock_solv.prm

>  <Rbt.Receptor>
prm/pocket_docking_2.prm

>  <SCORE>
-3.06498

>  <SCORE.INTER>
-7.67877

>  <SCORE.INTER.CONST>
1

>  <SCORE.INTER.POLAR>
-1.55911

>  <SCORE.INTER.ROT>
15

>  <SCORE.INTER.SOLV>
15.0714

>  <SCORE.INTER.VDW>
-18.5459

>  <SCORE.INTER.norm>
-0.207534

>  <SCORE.INTRA>
4.39018

>  <SCORE.INTRA.DIHEDRAL>
-0.155617

>  <SCORE.INTRA.DIHEDRAL.0>
21.5987

>  <SCORE.INTRA.POLAR>
0

>  <SCORE.INTRA.POLAR.0>
0

>  <SCORE.INTRA.REPUL>
0.0301123

>  <SCORE.INTRA.REPUL.0>
0

>  <SCORE.INTRA.SOLV>
9.96372

>  <SCORE.INTRA.SOLV.lig_0>
-108.715

>  <SCORE.INTRA.VDW>
-0.664434

>  <SCORE.INTRA.VDW.0>
-3.9485

>  <SCORE.INTRA.norm>
0.118654

>  <SCORE.RESTR>
0.223603

>  <SCORE.RESTR.CAVITY>
0.223603

>  <SCORE.RESTR.norm>
0.00604333

>  <SCORE.SYSTEM>
0

>  <SCORE.SYSTEM.CONST>
0

>  <SCORE.SYSTEM.DIHEDRAL>
0

>  <SCORE.SYSTEM.SOLV>
0

>  <SCORE.SYSTEM.norm>
0

>  <SCORE.heavy>
37

>  <SCORE.norm>
-0.0828373

>  <RMSD>
1.627

$$$$
1o9m_lig
 OpenBabel11021811403D
libRbt.so/2013.1/901 2013/11/27
 37 38  0  0  0  0  0  0  0  0999 V2000
   -5.6001   14.4063    5.8186 C   0  0  2  0  0  0  0  0  0  0  0  0
   -5.9913   15.5384    4.9834 O   0  0  0  0  0  0  0  0  0  0  0  0
   -4.0366   14.4865    5.9714 C   0  0  2  0  0  0  0  0  0  0  0  0
   -3.6011   15.7563    6.5789 N   0  0  0  0  0  0  0  0  0  0  0  0
   -3.3703   14.2870    4.5572 C   0  0  1  0  0  0  0  0  0  0  0  0
   -1.9461   14.3541    4.6701 O   0  0  0  0  0  0  0  0  0  0  0  0
   -3.8542   12.9154    3.9811 C   0  0  2  0  0  0  0  0  0  0  0  0
   -3.3172   12.6374    2.6776 O   0  0  0  0  0  0  0  0  0  0  0  0
   -5.4004   12.8700    3.9051 C   0  0  2  0  0  0  0  0  0  0  0  0
   -5.9838   13.1380    5.1885 O   0  0  0  0  0  0  0  0  0  0  0  0
   -5.8948   11.5371    3.4057 C   0  0  0  0  0  0  0  0  0  0  0  0
   -7.1715   11.6581    2.9108 N   0  0  0  0  0  0  0  0  0  0  0  0
   -8.4712   19.0513    5.5581 C   0  0  1  0  0  0  0  0  0  0  0  0
   -9.6579   19.8888    5.8896 N   0  0  0  0  0  0  0  0  0  0  0  0
   -8.0719   18.2538    6.7922 C   0  0  2  0  0  0  0  0  0  0  0  0
   -7.8201   19.1589    7.8254 O   0  0  0  0  0  0  0  0  0  0  0  0
   -6.8174   17.3727    6.4963 C   0  0  1  0  0  0  0  0  0  0  0  0
   -6.4577   16.5968    7.6800 O   0  0  0  0  0  0  0  0  0  0  0  0
   -7.1388   16.3730    5.3118 C   0  0  1  0  0  0  0  0  0  0  0  0
   -7.5209   17.1590    4.0669 C   0  0  1  0  0  0  0  0  0  0  0  0
   -7.7973   16.2228    2.9877 N   0  0  0  0  0  0  0  0  0  0  0  0
   -8.7562   18.0499    4.3667 C   0  0  0  0  0  0  0  0  0  0  0  0
   -8.0893   20.1278    8.8624 C   0  0  0  0  0  0  0  0  0  0  0  0
   -6.7895   20.7645    9.2977 C   0  0  0  0  0  0  0  0  0  0  0  0
   -5.9582   19.9080   10.1684 N   0  0  0  0  0  0  0  0  0  0  0  0
   -4.8344   19.0953   10.6871 C   0  0  0  0  0  0  0  0  0  0  0  0
   -5.4229   18.8030   12.0731 C   0  0  0  0  0  0  0  0  0  0  0  0
   -4.4720   17.9645   12.9478 C   0  0  0  0  0  0  0  0  0  0  0  0
   -3.2336   18.7661   13.3366 C   0  0  0  0  0  0  0  0  0  0  0  0
   -2.3666   18.9395   12.1798 N   0  0  0  0  0  0  0  0  0  0  0  0
  -13.5202   18.1701    7.8804 N   0  0  0  0  0  0  0  0  0  0  0  0
  -11.0253   18.8944    6.4265 C   0  0  0  0  0  0  0  0  0  0  0  0
  -11.1876   17.8383    6.5758 O   0  0  0  0  0  0  0  0  0  0  0  0
  -11.7879   20.1919    6.5381 C   0  0  2  0  0  0  0  0  0  0  0  0
  -11.7920   20.6567    7.8288 O   0  0  0  0  0  0  0  0  0  0  0  0
  -13.2369   19.8855    6.1759 C   0  0  0  0  0  0  0  0  0  0  0  0
  -14.1441   19.3722    7.3087 C   0  0  0  0  0  0  0  0  0  0  0  0
  1  2  1  6  0  0  0
  1  3  1  0  0  0  0
  3  4  1  6  0  0  0
  3  5  1  0  0  0  0
  5  6  1  1  0  0  0
  5  7  1  0  0  0  0
  7  8  1  6  0  0  0
  9  7  1  0  0  0  0
  9 10  1  0  0  0  0
  9 11  1  1  0  0  0
 10  1  1  0  0  0  0
 11 12  1  0  0  0  0
 13 14  1  1  0  0  0
 13 15  1  0  0  0  0
 13 22  1  0  0  0  0
 14 32  1  0  0  0  0
 15 16  1  1  0  0  0
 15 17  1  0  0  0  0
 16 23  1  0  0  0  0
 17 18  1  1  0  0  0
 17 19  1  0  0  0  0
 19  2  1  6  0  0  0
 19 20  1  0  0  0  0
 20 21  1  6  0  0  0
 20 22  1  0  0  0  0
 23 24  1  0  0  0  0
 24 25  1  0  0  0  0
 25 26  1  0  0  0  0
 26 27  1  0  0  0  0
 27 28  1  0  0  0  0
 28 29  1  0  0  0  0
 29 30  1  0  0  0  0
 31 37  1  0  0  0  0
 32 33  2  0  0  0  0
 34 32  1  1  0  0  0
 34 35  1  0  0  0  0
 34 36  1  0  0  0  0
 36 37  1  0  0  0  0
M  END
>  <CHROM.1>
-135.66349321,-159.10351319,-58.88882554,72.24787110,-168.24056525,76.23649889
-76.21199515,118.28382134,175.35893180,-178.73552243,68.37107067,-71.90944311
-97.57001372,85.59090495,-56.26980730,-7.08337659,17.04442574,6.76013543
0.85038942,0.40950625,-2.23472810

>  <Name>
1o9m_lig

>  <RI>
0

>  <Rbt.Current_Directory>
/home/itssahil/PROJECTS/Mol_Feturizer/New_Systems/rnas/1o9m

>  <Rbt.Executable>
rbdock ($Id: //depot/dev/client3/rdock/2013.1/src/exe/rbdock.cxx#4 $)

>  <Rbt.Library>
libRbt.so (2013.1, Build901 2013/11/27)

>  <Rbt.Parameter_File>
/export/apps/rDock/src/rDock_2013.1_src/data/scripts/dock_solv.prm

>  <Rbt.Receptor>
prm/pocket_docking_3.prm

>  <SCORE>
-7.92001

>  <SCORE.INTER>
-9.45406

>  <SCORE.INTER.CONST>
1

>  <SCORE.INTER.POLAR>
-1.69531

>  <SCORE.INTER.ROT>
15

>  <SCORE.INTER.SOLV>
20.0922

>  <SCORE.INTER.VDW>
-20.9491

>  <SCORE.INTER.norm>
-0.255515

>  <SCORE.INTRA>
1.53405

>  <SCORE.INTRA.DIHEDRAL>
-4.73176

>  <SCORE.INTRA.DIHEDRAL.0>
21.5987

>  <SCORE.INTRA.POLAR>
0

>  <SCORE.INTRA.POLAR.0>
0

>  <SCORE.INTRA.REPUL>
0

>  <SCORE.INTRA.REPUL.0>
0

>  <SCORE.INTRA.SOLV>
6.76113

>  <SCORE.INTRA.SOLV.lig_0>
-108.715

>  <SCORE.INTRA.VDW>
0.519363

>  <SCORE.INTRA.VDW.0>
-3.9485

>  <SCORE.INTRA.norm>
0.0414607

>  <SCORE.RESTR>
0

>  <SCORE.RESTR.CAVITY>
0

>  <SCORE.RESTR.norm>
0

>  <SCORE.SYSTEM>
0

>  <SCORE.SYSTEM.CONST>
0

>  <SCORE.SYSTEM.DIHEDRAL>
0

>  <SCORE.SYSTEM.SOLV>
0

>  <SCORE.SYSTEM.norm>
0

>  <SCORE.heavy>
37

>  <SCORE.norm>
-0.214054

>  <RMSD>
1.647

$$$$
1o9m_lig
 OpenBabel11021811403D
libRbt.so/2013.1/901 2013/11/27
 37 38  0  0  0  0  0  0  0  0999 V2000
   -4.7596   13.9131    5.0048 C   0  0  2  0  0  0  0  0  0  0  0  0
   -5.6816   14.8362    4.3491 O   0  0  0  0  0  0  0  0  0  0  0  0
   -3.3609   14.1173    4.3145 C   0  0  2  0  0  0  0  0  0  0  0  0
   -2.8794   15.5048    4.4322 N   0  0  0  0  0  0  0  0  0  0  0  0
   -3.4665   13.6896    2.8013 C   0  0  1  0  0  0  0  0  0  0  0  0
   -2.2047   13.8647    2.1511 O   0  0  0  0  0  0  0  0  0  0  0  0
   -3.9582   12.2054    2.7489 C   0  0  2  0  0  0  0  0  0  0  0  0
   -4.1070   11.7145    1.4066 O   0  0  0  0  0  0  0  0  0  0  0  0
   -5.3091   12.0512    3.4904 C   0  0  2  0  0  0  0  0  0  0  0  0
   -5.2084   12.5258    4.8409 O   0  0  0  0  0  0  0  0  0  0  0  0
   -5.7775   10.6191    3.5029 C   0  0  0  0  0  0  0  0  0  0  0  0
   -6.2967   10.2775    2.2769 N   0  0  0  0  0  0  0  0  0  0  0  0
   -9.2725   16.9476    5.5607 C   0  0  1  0  0  0  0  0  0  0  0  0
  -10.6421   17.1892    6.0949 N   0  0  0  0  0  0  0  0  0  0  0  0
   -8.4271   16.3009    6.6494 C   0  0  2  0  0  0  0  0  0  0  0  0
   -8.4303   17.1510    7.7574 O   0  0  0  0  0  0  0  0  0  0  0  0
   -6.9738   16.0454    6.1391 C   0  0  1  0  0  0  0  0  0  0  0  0
   -6.1794   15.4056    7.1841 O   0  0  0  0  0  0  0  0  0  0  0  0
   -7.0149   15.0917    4.8764 C   0  0  1  0  0  0  0  0  0  0  0  0
   -7.8418   15.7359    3.7741 C   0  0  1  0  0  0  0  0  0  0  0  0
   -7.8541   14.8507    2.6191 N   0  0  0  0  0  0  0  0  0  0  0  0
   -9.2810   16.0079    4.2876 C   0  0  0  0  0  0  0  0  0  0  0  0
   -8.9559   17.9791    8.8178 C   0  0  0  0  0  0  0  0  0  0  0  0
   -7.8833   18.1911    9.8613 C   0  0  0  0  0  0  0  0  0  0  0  0
   -7.6319   19.6092   10.1911 N   0  0  0  0  0  0  0  0  0  0  0  0
   -7.1062   20.9929   10.1535 C   0  0  0  0  0  0  0  0  0  0  0  0
   -5.7243   20.6973   10.7502 C   0  0  0  0  0  0  0  0  0  0  0  0
   -4.7622   21.8928   10.6189 C   0  0  0  0  0  0  0  0  0  0  0  0
   -4.4721   22.2058    9.1542 C   0  0  0  0  0  0  0  0  0  0  0  0
   -3.8878   21.0433    8.5005 N   0  0  0  0  0  0  0  0  0  0  0  0
  -12.5454   20.3446    8.7576 N   0  0  0  0  0  0  0  0  0  0  0  0
  -11.2937   18.7410    5.5345 C   0  0  0  0  0  0  0  0  0  0  0  0
  -10.9342   19.5328    4.8959 O   0  0  0  0  0  0  0  0  0  0  0  0
  -12.5088   18.4103    6.3664 C   0  0  2  0  0  0  0  0  0  0  0  0
  -13.3314   17.5263    5.7154 O   0  0  0  0  0  0  0  0  0  0  0  0
  -13.2969   19.7050    6.5317 C   0  0  0  0  0  0  0  0  0  0  0  0
  -12.6405   20.8176    7.3690 C   0  0  0  0  0  0  0  0  0  0  0  0
  1  2  1  6  0  0  0
  1  3  1  0  0  0  0
  3  4  1  6  0  0  0
  3  5  1  0  0  0  0
  5  6  1  1  0  0  0
  5  7  1  0  0  0  0
  7  8  1  6  0  0  0
  9  7  1  0  0  0  0
  9 10  1  0  0  0  0
  9 11  1  1  0  0  0
 10  1  1  0  0  0  0
 11 12  1  0  0  0  0
 13 14  1  1  0  0  0
 13 15  1  0  0  0  0
 13 22  1  0  0  0  0
 14 32  1  0  0  0  0
 15 16  1  1  0  0  0
 15 17  1  0  0  0  0
 16 23  1  0  0  0  0
 17 18  1  1  0  0  0
 17 19  1  0  0  0  0
 19  2  1  6  0  0  0
 19 20  1  0  0  0  0
 20 21  1  6  0  0  0
 20 22  1  0  0  0  0
 23 24  1  0  0  0  0
 24 25  1  0  0  0  0
 25 26  1  0  0  0  0
 26 27  1  0  0  0  0
 27 28  1  0  0  0  0
 28 29  1  0  0  0  0
 29 30  1  0  0  0  0
 31 37  1  0  0  0  0
 32 33  2  0  0  0  0
 34 32  1  6  0  0  0
 34 35  1  0  0  0  0
 34 36  1  0  0  0  0
 36 37  1  0  0  0  0
M  END
>  <CHROM.1>
-169.31492070,-76.67597073,140.86934600,52.98285321,161.90560881,76.16538798
126.91723148,-85.05939905,-76.99353998,168.89000223,-63.98428834,-58.76399580
-79.57834745,-67.04071773,-66.08231583,-7.33851928,16.57531253,5.92489836
-1.06176436,-0.14777946,0.70543059

>  <Name>
1o9m_lig

>  <RI>
0

>  <Rbt.Current_Directory>
/home/itssahil/PROJECTS/Mol_Feturizer/New_Systems/rnas/1o9m

>  <Rbt.Executable>
rbdock ($Id: //depot/dev/client3/rdock/2013.1/src/exe/rbdock.cxx#4 $)

>  <Rbt.Library>
libRbt.so (2013.1, Build901 2013/11/27)

>  <Rbt.Parameter_File>
/export/apps/rDock/src/rDock_2013.1_src/data/scripts/dock_solv.prm

>  <Rbt.Receptor>
prm/pocket_docking_2.prm

>  <SCORE>
-16.2948

>  <SCORE.INTER>
-14.1281

>  <SCORE.INTER.CONST>
1

>  <SCORE.INTER.POLAR>
-1.28191

>  <SCORE.INTER.ROT>
15

>  <SCORE.INTER.SOLV>
24.7736

>  <SCORE.INTER.VDW>
-27.0036

>  <SCORE.INTER.norm>
-0.38184

>  <SCORE.INTRA>
-2.4555

>  <SCORE.INTRA.DIHEDRAL>
-8.37742

>  <SCORE.INTRA.DIHEDRAL.0>
21.5987

>  <SCORE.INTRA.POLAR>
0

>  <SCORE.INTRA.POLAR.0>
0

>  <SCORE.INTRA.REPUL>
0

>  <SCORE.INTRA.REPUL.0>
0

>  <SCORE.INTRA.SOLV>
2.40745

>  <SCORE.INTRA.SOLV.lig_0>
-108.715

>  <SCORE.INTRA.VDW>
0.529481

>  <SCORE.INTRA.VDW.0>
-3.9485

>  <SCORE.INTRA.norm>
-0.0663649

>  <SCORE.RESTR>
0.288772

>  <SCORE.RESTR.CAVITY>
0.288772

>  <SCORE.RESTR.norm>
0.00780465

>  <SCORE.SYSTEM>
0

>  <SCORE.SYSTEM.CONST>
0

>  <SCORE.SYSTEM.DIHEDRAL>
0

>  <SCORE.SYSTEM.SOLV>
0

>  <SCORE.SYSTEM.norm>
0

>  <SCORE.heavy>
37

>  <SCORE.norm>
-0.4404

>  <RMSD>
1.658

$$$$
1o9m_lig
 OpenBabel11021811403D
libRbt.so/2013.1/901 2013/11/27
 37 38  0  0  0  0  0  0  0  0999 V2000
   -4.7415   14.1090    5.1184 C   0  0  2  0  0  0  0  0  0  0  0  0
   -5.6804   15.0461    4.5081 O   0  0  0  0  0  0  0  0  0  0  0  0
   -3.3781   14.2851    4.3539 C   0  0  2  0  0  0  0  0  0  0  0  0
   -2.8663   15.6642    4.4391 N   0  0  0  0  0  0  0  0  0  0  0  0
   -3.5715   13.8536    2.8505 C   0  0  1  0  0  0  0  0  0  0  0  0
   -2.3431   14.0033    2.1335 O   0  0  0  0  0  0  0  0  0  0  0  0
   -4.0918   12.3784    2.8314 C   0  0  2  0  0  0  0  0  0  0  0  0
   -4.3204   11.8850    1.5013 O   0  0  0  0  0  0  0  0  0  0  0  0
   -5.4038   12.2515    3.6443 C   0  0  2  0  0  0  0  0  0  0  0  0
   -5.2231   12.7294    4.9853 O   0  0  0  0  0  0  0  0  0  0  0  0
   -5.8964   10.8282    3.6887 C   0  0  0  0  0  0  0  0  0  0  0  0
   -6.3402   10.4393    2.4473 N   0  0  0  0  0  0  0  0  0  0  0  0
   -8.9814   17.4351    5.9970 C   0  0  1  0  0  0  0  0  0  0  0  0
  -10.2701   17.7863    6.6570 N   0  0  0  0  0  0  0  0  0  0  0  0
   -8.0729   16.7638    7.0180 C   0  0  2  0  0  0  0  0  0  0  0  0
   -7.9065   17.6443    8.0891 O   0  0  0  0  0  0  0  0  0  0  0  0
   -6.6997   16.3937    6.3739 C   0  0  1  0  0  0  0  0  0  0  0  0
   -5.8459   15.7315    7.3563 O   0  0  0  0  0  0  0  0  0  0  0  0
   -6.9328   15.4084    5.1571 C   0  0  1  0  0  0  0  0  0  0  0  0
   -7.8244   16.0755    4.1208 C   0  0  1  0  0  0  0  0  0  0  0  0
   -8.0134   15.1597    3.0058 N   0  0  0  0  0  0  0  0  0  0  0  0
   -9.1823   16.4613    4.7662 C   0  0  0  0  0  0  0  0  0  0  0  0
   -7.4323   18.1480    9.3572 C   0  0  0  0  0  0  0  0  0  0  0  0
   -5.9337   18.3327    9.2898 C   0  0  0  0  0  0  0  0  0  0  0  0
   -5.3366   18.8870   10.5224 N   0  0  0  0  0  0  0  0  0  0  0  0
   -4.9852   19.8082   11.6271 C   0  0  0  0  0  0  0  0  0  0  0  0
   -4.1199   20.7769   10.8111 C   0  0  0  0  0  0  0  0  0  0  0  0
   -4.8453   22.1031   10.5158 C   0  0  0  0  0  0  0  0  0  0  0  0
   -5.7222   21.9844    9.2731 C   0  0  0  0  0  0  0  0  0  0  0  0
   -6.8954   21.1726    9.5644 N   0  0  0  0  0  0  0  0  0  0  0  0
  -14.7279   20.4774    7.7972 N   0  0  0  0  0  0  0  0  0  0  0  0
  -11.1209   19.0712    5.7786 C   0  0  0  0  0  0  0  0  0  0  0  0
  -10.9262   19.6402    4.8828 O   0  0  0  0  0  0  0  0  0  0  0  0
  -12.1666   18.9738    6.8624 C   0  0  2  0  0  0  0  0  0  0  0  0
  -13.3888   18.6276    6.3443 O   0  0  0  0  0  0  0  0  0  0  0  0
  -12.3195   20.3698    7.4559 C   0  0  0  0  0  0  0  0  0  0  0  0
  -13.4375   20.5658    8.4959 C   0  0  0  0  0  0  0  0  0  0  0  0
  1  2  1  6  0  0  0
  1  3  1  0  0  0  0
  3  4  1  6  0  0  0
  3  5  1  0  0  0  0
  5  6  1  6  0  0  0
  5  7  1  0  0  0  0
  7  8  1  6  0  0  0
  9  7  1  0  0  0  0
  9 10  1  0  0  0  0
  9 11  1  1  0  0  0
 10  1  1  0  0  0  0
 11 12  1  0  0  0  0
 13 14  1  1  0  0  0
 13 15  1  0  0  0  0
 13 22  1  0  0  0  0
 14 32  1  0  0  0  0
 15 16  1  1  0  0  0
 15 17  1  0  0  0  0
 16 23  1  0  0  0  0
 17 18  1  1  0  0  0
 17 19  1  0  0  0  0
 19  2  1  6  0  0  0
 19 20  1  0  0  0  0
 20 21  1  6  0  0  0
 20 22  1  0  0  0  0
 23 24  1  0  0  0  0
 24 25  1  0  0  0  0
 25 26  1  0  0  0  0
 26 27  1  0  0  0  0
 27 28  1  0  0  0  0
 28 29  1  0  0  0  0
 29 30  1  0  0  0  0
 31 37  1  0  0  0  0
 32 33  2  0  0  0  0
 34 32  1  6  0  0  0
 34 35  1  0  0  0  0
 34 36  1  0  0  0  0
 36 37  1  0  0  0  0
M  END
>  <CHROM.1>
-164.36276850,-69.49155018,158.48838444,-179.13722243,64.74931728,74.45496633
178.17618660,-66.54428797,-70.32437969,104.61899784,-84.88986820,72.56664862
-119.43838708,174.08363427,-69.88875352,-7.20605946,16.78052156,6.19727839
-1.03360524,-0.22541052,0.76086695

>  <Name>
1o9m_lig

>  <RI>
0

>  <Rbt.Current_Directory>
/home/itssahil/PROJECTS/Mol_Feturizer/New_Systems/rnas/1o9m

>  <Rbt.Executable>
rbdock ($Id: //depot/dev/client3/rdock/2013.1/src/exe/rbdock.cxx#4 $)

>  <Rbt.Library>
libRbt.so (2013.1, Build901 2013/11/27)

>  <Rbt.Parameter_File>
/export/apps/rDock/src/rDock_2013.1_src/data/scripts/dock_solv.prm

>  <Rbt.Receptor>
prm/pocket_docking_2.prm

>  <SCORE>
-14.3597

>  <SCORE.INTER>
-13.7733

>  <SCORE.INTER.CONST>
1

>  <SCORE.INTER.POLAR>
-0.959166

>  <SCORE.INTER.ROT>
15

>  <SCORE.INTER.SOLV>
17.4855

>  <SCORE.INTER.VDW>
-25.4134

>  <SCORE.INTER.norm>
-0.37225

>  <SCORE.INTRA>
-0.643325

>  <SCORE.INTRA.DIHEDRAL>
-8.1498

>  <SCORE.INTRA.DIHEDRAL.0>
21.5987

>  <SCORE.INTRA.POLAR>
0

>  <SCORE.INTRA.POLAR.0>
0

>  <SCORE.INTRA.REPUL>
0

>  <SCORE.INTRA.REPUL.0>
0

>  <SCORE.INTRA.SOLV>
7.19526

>  <SCORE.INTRA.SOLV.lig_0>
-108.715

>  <SCORE.INTRA.VDW>
-0.166057

>  <SCORE.INTRA.VDW.0>
-3.9485

>  <SCORE.INTRA.norm>
-0.0173872

>  <SCORE.RESTR>
0.0569034

>  <SCORE.RESTR.CAVITY>
0.0569034

>  <SCORE.RESTR.norm>
0.00153793

>  <SCORE.SYSTEM>
0

>  <SCORE.SYSTEM.CONST>
0

>  <SCORE.SYSTEM.DIHEDRAL>
0

>  <SCORE.SYSTEM.SOLV>
0

>  <SCORE.SYSTEM.norm>
0

>  <SCORE.heavy>
37

>  <SCORE.norm>
-0.388099

>  <RMSD>
1.664

$$$$
1o9m_lig
 OpenBabel11021811403D
libRbt.so/2013.1/901 2013/11/27
 37 38  0  0  0  0  0  0  0  0999 V2000
   -5.1830   14.3845    5.5894 C   0  0  2  0  0  0  0  0  0  0  0  0
   -6.0503   15.3934    4.9875 O   0  0  0  0  0  0  0  0  0  0  0  0
   -3.7229   14.7044    5.0991 C   0  0  2  0  0  0  0  0  0  0  0  0
   -3.2906   16.0592    5.4847 N   0  0  0  0  0  0  0  0  0  0  0  0
   -3.6531   14.5203    3.5355 C   0  0  1  0  0  0  0  0  0  0  0  0
   -2.3327   14.8042    3.0649 O   0  0  0  0  0  0  0  0  0  0  0  0
   -4.1003   13.0597    3.1977 C   0  0  2  0  0  0  0  0  0  0  0  0
   -4.0905   12.7857    1.7871 O   0  0  0  0  0  0  0  0  0  0  0  0
   -5.5196   12.7814    3.7513 C   0  0  2  0  0  0  0  0  0  0  0  0
   -5.5778   13.0376    5.1621 O   0  0  0  0  0  0  0  0  0  0  0  0
   -5.9520   11.3621    3.4881 C   0  0  0  0  0  0  0  0  0  0  0  0
   -5.0942   10.4815    4.1028 N   0  0  0  0  0  0  0  0  0  0  0  0
   -9.6041   17.6303    6.0773 C   0  0  1  0  0  0  0  0  0  0  0  0
  -10.9465   17.9363    6.6463 N   0  0  0  0  0  0  0  0  0  0  0  0
   -8.6907   17.1566    7.1997 C   0  0  2  0  0  0  0  0  0  0  0  0
   -8.6478   18.1595    8.1706 O   0  0  0  0  0  0  0  0  0  0  0  0
   -7.2632   16.8409    6.6518 C   0  0  1  0  0  0  0  0  0  0  0  0
   -6.4032   16.3672    7.7328 O   0  0  0  0  0  0  0  0  0  0  0  0
   -7.3571   15.7125    5.5456 C   0  0  1  0  0  0  0  0  0  0  0  0
   -8.2525   16.1819    4.4091 C   0  0  1  0  0  0  0  0  0  0  0  0
   -8.3130   15.1373    3.3978 N   0  0  0  0  0  0  0  0  0  0  0  0
   -9.6662   16.5145    4.9571 C   0  0  0  0  0  0  0  0  0  0  0  0
   -8.1607   18.9273    9.2930 C   0  0  0  0  0  0  0  0  0  0  0  0
   -7.4513   18.0040   10.2567 C   0  0  0  0  0  0  0  0  0  0  0  0
   -6.1284   18.4916   10.6987 N   0  0  0  0  0  0  0  0  0  0  0  0
   -5.0651   19.1900   11.4563 C   0  0  0  0  0  0  0  0  0  0  0  0
   -4.0494   19.3066   10.3128 C   0  0  0  0  0  0  0  0  0  0  0  0
   -3.1411   20.5417   10.4604 C   0  0  0  0  0  0  0  0  0  0  0  0
   -3.9150   21.8280   10.1890 C   0  0  0  0  0  0  0  0  0  0  0  0
   -4.2253   21.9352    8.7704 N   0  0  0  0  0  0  0  0  0  0  0  0
  -13.6611   21.0944    8.0251 N   0  0  0  0  0  0  0  0  0  0  0  0
  -12.1456   18.2138    5.3689 C   0  0  0  0  0  0  0  0  0  0  0  0
  -12.1273   18.2009    4.2902 O   0  0  0  0  0  0  0  0  0  0  0  0
  -13.1224   18.4751    6.4893 C   0  0  2  0  0  0  0  0  0  0  0  0
  -13.9861   17.4217    6.6515 O   0  0  0  0  0  0  0  0  0  0  0  0
  -13.9649   19.6748    6.0704 C   0  0  0  0  0  0  0  0  0  0  0  0
  -14.6841   20.4462    7.1918 C   0  0  0  0  0  0  0  0  0  0  0  0
  1  2  1  6  0  0  0
  1  3  1  0  0  0  0
  3  4  1  6  0  0  0
  3  5  1  0  0  0  0
  5  6  1  1  0  0  0
  5  7  1  0  0  0  0
  7  8  1  6  0  0  0
  9  7  1  0  0  0  0
  9 10  1  0  0  0  0
  9 11  1  1  0  0  0
 10  1  1  0  0  0  0
 11 12  1  0  0  0  0
 13 14  1  1  0  0  0
 13 15  1  0  0  0  0
 13 22  1  0  0  0  0
 14 32  1  0  0  0  0
 15 16  1  1  0  0  0
 15 17  1  0  0  0  0
 16 23  1  0  0  0  0
 17 18  1  1  0  0  0
 17 19  1  0  0  0  0
 19  2  1  6  0  0  0
 19 20  1  0  0  0  0
 20 21  1  6  0  0  0
 20 22  1  0  0  0  0
 23 24  1  0  0  0  0
 24 25  1  0  0  0  0
 25 26  1  0  0  0  0
 26 27  1  0  0  0  0
 27 28  1  0  0  0  0
 28 29  1  0  0  0  0
 29 30  1  0  0  0  0
 31 37  1  0  0  0  0
 32 33  2  0  0  0  0
 34 32  1  6  0  0  0
 34 35  1  0  0  0  0
 34 36  1  0  0  0  0
 36 37  1  0  0  0  0
M  END
>  <CHROM.1>
-158.54002455,60.81921094,-169.78977602,-159.78810800,-32.62189926,88.12174099
131.87320804,87.05569746,-152.99512785,150.90458250,-71.35232164,-71.11124540
-105.32657567,-159.36287272,66.88826159,-7.43802738,16.82033287,6.36007319
0.74892874,0.20637188,-2.37748471

>  <Name>
1o9m_lig

>  <RI>
0

>  <Rbt.Current_Directory>
/home/itssahil/PROJECTS/Mol_Feturizer/New_Systems/rnas/1o9m

>  <Rbt.Executable>
rbdock ($Id: //depot/dev/client3/rdock/2013.1/src/exe/rbdock.cxx#4 $)

>  <Rbt.Library>
libRbt.so (2013.1, Build901 2013/11/27)

>  <Rbt.Parameter_File>
/export/apps/rDock/src/rDock_2013.1_src/data/scripts/dock_solv.prm

>  <Rbt.Receptor>
prm/pocket_docking_2.prm

>  <SCORE>
-2.52625

>  <SCORE.INTER>
-6.41661

>  <SCORE.INTER.CONST>
1

>  <SCORE.INTER.POLAR>
-0.959166

>  <SCORE.INTER.ROT>
15

>  <SCORE.INTER.SOLV>
22.2727

>  <SCORE.INTER.VDW>
-22.1047

>  <SCORE.INTER.norm>
-0.173422

>  <SCORE.INTRA>
2.60365

>  <SCORE.INTRA.DIHEDRAL>
1.96677

>  <SCORE.INTRA.DIHEDRAL.0>
21.5987

>  <SCORE.INTRA.POLAR>
0

>  <SCORE.INTRA.POLAR.0>
0

>  <SCORE.INTRA.REPUL>
0

>  <SCORE.INTRA.REPUL.0>
0

>  <SCORE.INTRA.SOLV>
3.40033

>  <SCORE.INTRA.SOLV.lig_0>
-108.715

>  <SCORE.INTRA.VDW>
-0.0799031

>  <SCORE.INTRA.VDW.0>
-3.9485

>  <SCORE.INTRA.norm>
0.0703688

>  <SCORE.RESTR>
1.28671

>  <SCORE.RESTR.CAVITY>
1.28671

>  <SCORE.RESTR.norm>
0.034776

>  <SCORE.SYSTEM>
0

>  <SCORE.SYSTEM.CONST>
0

>  <SCORE.SYSTEM.DIHEDRAL>
0

>  <SCORE.SYSTEM.SOLV>
0

>  <SCORE.SYSTEM.norm>
0

>  <SCORE.heavy>
37

>  <SCORE.norm>
-0.068277

>  <RMSD>
1.670

$$$$
1o9m_lig
 OpenBabel11021811403D
libRbt.so/2013.1/901 2013/11/27
 37 38  0  0  0  0  0  0  0  0999 V2000
   -5.1193   14.1975    5.3413 C   0  0  2  0  0  0  0  0  0  0  0  0
   -6.0036   15.1230    4.6387 O   0  0  0  0  0  0  0  0  0  0  0  0
   -3.6956   14.8665    5.3536 C   0  0  2  0  0  0  0  0  0  0  0  0
   -3.7046   16.1822    6.0167 N   0  0  0  0  0  0  0  0  0  0  0  0
   -3.1730   14.9918    3.8721 C   0  0  1  0  0  0  0  0  0  0  0  0
   -1.8771   15.5966    3.8568 O   0  0  0  0  0  0  0  0  0  0  0  0
   -3.1663   13.5623    3.2365 C   0  0  2  0  0  0  0  0  0  0  0  0
   -2.7199   13.5615    1.8707 O   0  0  0  0  0  0  0  0  0  0  0  0
   -4.5782   12.9292    3.3016 C   0  0  2  0  0  0  0  0  0  0  0  0
   -5.0659   12.9039    4.6510 O   0  0  0  0  0  0  0  0  0  0  0  0
   -4.5869   11.5285    2.7461 C   0  0  0  0  0  0  0  0  0  0  0  0
   -5.8740   11.0506    2.6803 N   0  0  0  0  0  0  0  0  0  0  0  0
   -9.6869   17.2480    5.4977 C   0  0  1  0  0  0  0  0  0  0  0  0
  -11.0726   17.5112    5.9773 N   0  0  0  0  0  0  0  0  0  0  0  0
   -8.8362   16.7956    6.6767 C   0  0  2  0  0  0  0  0  0  0  0  0
   -8.8876   17.7942    7.6515 O   0  0  0  0  0  0  0  0  0  0  0  0
   -7.3667   16.5252    6.2236 C   0  0  1  0  0  0  0  0  0  0  0  0
   -6.5665   16.0713    7.3577 O   0  0  0  0  0  0  0  0  0  0  0  0
   -7.3534   15.4003    5.1099 C   0  0  1  0  0  0  0  0  0  0  0  0
   -8.1853   15.8491    3.9180 C   0  0  1  0  0  0  0  0  0  0  0  0
   -8.1474   14.8085    2.9015 N   0  0  0  0  0  0  0  0  0  0  0  0
   -9.6414   16.1369    4.3721 C   0  0  0  0  0  0  0  0  0  0  0  0
   -9.0989   18.4057    8.9430 C   0  0  0  0  0  0  0  0  0  0  0  0
   -8.1105   17.8324    9.9324 C   0  0  0  0  0  0  0  0  0  0  0  0
   -6.8358   18.5751   10.0134 N   0  0  0  0  0  0  0  0  0  0  0  0
   -5.7876   19.5339   10.4310 C   0  0  0  0  0  0  0  0  0  0  0  0
   -6.5021   20.8164    9.9863 C   0  0  0  0  0  0  0  0  0  0  0  0
   -5.6345   22.0719   10.1942 C   0  0  0  0  0  0  0  0  0  0  0  0
   -4.5790   22.1973    9.0998 C   0  0  0  0  0  0  0  0  0  0  0  0
   -3.3667   21.4921    9.4911 N   0  0  0  0  0  0  0  0  0  0  0  0
  -14.7636   21.2701    8.4763 N   0  0  0  0  0  0  0  0  0  0  0  0
  -11.6564   19.0972    5.4383 C   0  0  0  0  0  0  0  0  0  0  0  0
  -11.2472   19.8979    4.8422 O   0  0  0  0  0  0  0  0  0  0  0  0
  -12.9167   18.7752    6.2037 C   0  0  2  0  0  0  0  0  0  0  0  0
  -13.9514   18.4756    5.3542 O   0  0  0  0  0  0  0  0  0  0  0  0
  -13.3148   20.0422    6.9527 C   0  0  0  0  0  0  0  0  0  0  0  0
  -14.6037   19.9789    7.7920 C   0  0  0  0  0  0  0  0  0  0  0  0
  1  2  1  6  0  0  0
  1  3  1  0  0  0  0
  3  4  1  6  0  0  0
  3  5  1  0  0  0  0
  5  6  1  1  0  0  0
  5  7  1  0  0  0  0
  7  8  1  6  0  0  0
  9  7  1  0  0  0  0
  9 10  1  0  0  0  0
  9 11  1  1  0  0  0
 10  1  1  0  0  0  0
 11 12  1  0  0  0  0
 13 14  1  1  0  0  0
 13 15  1  0  0  0  0
 13 22  1  0  0  0  0
 14 32  1  0  0  0  0
 15 16  1  1  0  0  0
 15 17  1  0  0  0  0
 16 23  1  0  0  0  0
 17 18  1  1  0  0  0
 17 19  1  0  0  0  0
 19  2  1  6  0  0  0
 19 20  1  0  0  0  0
 20 21  1  6  0  0  0
 20 22  1  0  0  0  0
 23 24  1  0  0  0  0
 24 25  1  0  0  0  0
 25 26  1  0  0  0  0
 26 27  1  0  0  0  0
 27 28  1  0  0  0  0
 28 29  1  0  0  0  0
 29 30  1  0  0  0  0
 31 37  1  0  0  0  0
 32 33  2  0  0  0  0
 34 32  1  6  0  0  0
 34 35  1  0  0  0  0
 34 36  1  0  0  0  0
 36 37  1  0  0  0  0
M  END
>  <CHROM.1>
-138.05542702,-173.33204567,130.04251317,125.13463714,64.86598391,84.31802995
90.06138993,92.51550437,-66.55461476,-176.38809247,77.80120124,-89.13773438
-106.65962116,178.62482131,177.22128253,-7.49100013,17.00017631,6.11278534
0.78903093,0.16359351,-2.39614686

>  <Name>
1o9m_lig

>  <RI>
0

>  <Rbt.Current_Directory>
/home/itssahil/PROJECTS/Mol_Feturizer/New_Systems/rnas/1o9m

>  <Rbt.Executable>
rbdock ($Id: //depot/dev/client3/rdock/2013.1/src/exe/rbdock.cxx#4 $)

>  <Rbt.Library>
libRbt.so (2013.1, Build901 2013/11/27)

>  <Rbt.Parameter_File>
/export/apps/rDock/src/rDock_2013.1_src/data/scripts/dock_solv.prm

>  <Rbt.Receptor>
prm/pocket_docking_2.prm

>  <SCORE>
-8.44466

>  <SCORE.INTER>
-11.4386

>  <SCORE.INTER.CONST>
1

>  <SCORE.INTER.POLAR>
-0.959166

>  <SCORE.INTER.ROT>
15

>  <SCORE.INTER.SOLV>
16.7334

>  <SCORE.INTER.VDW>
-23.6063

>  <SCORE.INTER.norm>
-0.309151

>  <SCORE.INTRA>
2.52231

>  <SCORE.INTRA.DIHEDRAL>
4.68976

>  <SCORE.INTRA.DIHEDRAL.0>
21.5987

>  <SCORE.INTRA.POLAR>
0

>  <SCORE.INTRA.POLAR.0>
0

>  <SCORE.INTRA.REPUL>
0

>  <SCORE.INTRA.REPUL.0>
0

>  <SCORE.INTRA.SOLV>
1.76764

>  <SCORE.INTRA.SOLV.lig_0>
-108.715

>  <SCORE.INTRA.VDW>
-0.706393

>  <SCORE.INTRA.VDW.0>
-3.9485

>  <SCORE.INTRA.norm>
0.0681705

>  <SCORE.RESTR>
0.47163

>  <SCORE.RESTR.CAVITY>
0.47163

>  <SCORE.RESTR.norm>
0.0127468

>  <SCORE.SYSTEM>
0

>  <SCORE.SYSTEM.CONST>
0

>  <SCORE.SYSTEM.DIHEDRAL>
0

>  <SCORE.SYSTEM.SOLV>
0

>  <SCORE.SYSTEM.norm>
0

>  <SCORE.heavy>
37

>  <SCORE.norm>
-0.228234

>  <RMSD>
1.674

$$$$
1o9m_lig
 OpenBabel11021811403D
libRbt.so/2013.1/901 2013/11/27
 37 38  0  0  0  0  0  0  0  0999 V2000
   -4.7273   13.9006    5.3272 C   0  0  2  0  0  0  0  0  0  0  0  0
   -5.5713   14.9039    4.6842 O   0  0  0  0  0  0  0  0  0  0  0  0
   -3.2482   14.2257    4.9014 C   0  0  2  0  0  0  0  0  0  0  0  0
   -2.8394   15.5835    5.3016 N   0  0  0  0  0  0  0  0  0  0  0  0
   -3.1081   14.0373    3.3429 C   0  0  1  0  0  0  0  0  0  0  0  0
   -1.7693   14.3258    2.9306 O   0  0  0  0  0  0  0  0  0  0  0  0
   -3.5335   12.5738    2.9901 C   0  0  2  0  0  0  0  0  0  0  0  0
   -3.4598   12.2957    1.5822 O   0  0  0  0  0  0  0  0  0  0  0  0
   -4.9748   12.2907    3.4810 C   0  0  2  0  0  0  0  0  0  0  0  0
   -5.0968   12.5507    4.8870 O   0  0  0  0  0  0  0  0  0  0  0  0
   -5.3889   10.8687    3.2031 C   0  0  0  0  0  0  0  0  0  0  0  0
   -6.7358   10.7127    3.4281 N   0  0  0  0  0  0  0  0  0  0  0  0
   -9.1748   17.0751    5.7431 C   0  0  1  0  0  0  0  0  0  0  0  0
  -10.5633   17.3390    6.2141 N   0  0  0  0  0  0  0  0  0  0  0  0
   -8.3943   16.4037    6.8649 C   0  0  2  0  0  0  0  0  0  0  0  0
   -8.4339   17.2451    7.9787 O   0  0  0  0  0  0  0  0  0  0  0  0
   -6.9236   16.1241    6.4216 C   0  0  1  0  0  0  0  0  0  0  0  0
   -6.1919   15.4609    7.4974 O   0  0  0  0  0  0  0  0  0  0  0  0
   -6.9230   15.1811    5.1502 C   0  0  1  0  0  0  0  0  0  0  0  0
   -7.6843   15.8497    4.0156 C   0  0  1  0  0  0  0  0  0  0  0  0
   -7.6587   14.9738    2.8538 N   0  0  0  0  0  0  0  0  0  0  0  0
   -9.1408   16.1456    4.4630 C   0  0  0  0  0  0  0  0  0  0  0  0
   -8.2039   17.7033    9.3292 C   0  0  0  0  0  0  0  0  0  0  0  0
   -7.3116   18.9227    9.2955 C   0  0  0  0  0  0  0  0  0  0  0  0
   -5.8689   18.6145    9.2139 N   0  0  0  0  0  0  0  0  0  0  0  0
   -4.5075   18.3719    8.6846 C   0  0  0  0  0  0  0  0  0  0  0  0
   -4.3671   19.6766    7.8903 C   0  0  0  0  0  0  0  0  0  0  0  0
   -4.2471   20.9093    8.8058 C   0  0  0  0  0  0  0  0  0  0  0  0
   -2.9254   20.9009    9.5677 C   0  0  0  0  0  0  0  0  0  0  0  0
   -2.8061   22.1064   10.3756 N   0  0  0  0  0  0  0  0  0  0  0  0
  -13.9263   19.4327    8.4099 N   0  0  0  0  0  0  0  0  0  0  0  0
  -11.4791   18.2954    5.0336 C   0  0  0  0  0  0  0  0  0  0  0  0
  -11.2665   18.7139    4.0622 O   0  0  0  0  0  0  0  0  0  0  0  0
  -12.6139   18.2386    6.0268 C   0  0  2  0  0  0  0  0  0  0  0  0
  -13.6090   17.3977    5.5971 O   0  0  0  0  0  0  0  0  0  0  0  0
  -13.2166   19.6377    6.0898 C   0  0  0  0  0  0  0  0  0  0  0  0
  -14.3796   19.8511    7.0755 C   0  0  0  0  0  0  0  0  0  0  0  0
  1  2  1  6  0  0  0
  1  3  1  0  0  0  0
  3  4  1  6  0  0  0
  3  5  1  0  0  0  0
  5  6  1  1  0  0  0
  5  7  1  0  0  0  0
  7  8  1  6  0  0  0
  9  7  1  0  0  0  0
  9 10  1  0  0  0  0
  9 11  1  1  0  0  0
 10  1  1  0  0  0  0
 11 12  1  0  0  0  0
 13 14  1  1  0  0  0
 13 15  1  0  0  0  0
 13 22  1  0  0  0  0
 14 32  1  0  0  0  0
 15 16  1  1  0  0  0
 15 17  1  0  0  0  0
 16 23  1  0  0  0  0
 17 18  1  1  0  0  0
 17 19  1  0  0  0  0
 19  2  1  6  0  0  0
 19 20  1  0  0  0  0
 20 21  1  6  0  0  0
 20 22  1  0  0  0  0
 23 24  1  0  0  0  0
 24 25  1  0  0  0  0
 25 26  1  0  0  0  0
 26 27  1  0  0  0  0
 27 28  1  0  0  0  0
 28 29  1  0  0  0  0
 29 30  1  0  0  0  0
 31 37  1  0  0  0  0
 32 33  2  0  0  0  0
 34 32  1  6  0  0  0
 34 35  1  0  0  0  0
 34 36  1  0  0  0  0
 36 37  1  0  0  0  0
M  END
>  <CHROM.1>
-161.01776140,-169.34199962,173.13993289,177.64910518,115.08929412,79.84007688
-83.53206544,95.94036825,53.02653779,69.48529002,68.18103399,177.23991781
-107.38695283,-178.27437663,55.11093528,-7.07932161,16.44398440,5.90482111
0.74109632,0.14025646,-2.45341292

>  <Name>
1o9m_lig

>  <RI>
0

>  <Rbt.Current_Directory>
/home/itssahil/PROJECTS/Mol_Feturizer/New_Systems/rnas/1o9m

>  <Rbt.Executable>
rbdock ($Id: //depot/dev/client3/rdock/2013.1/src/exe/rbdock.cxx#4 $)

>  <Rbt.Library>
libRbt.so (2013.1, Build901 2013/11/27)

>  <Rbt.Parameter_File>
/export/apps/rDock/src/rDock_2013.1_src/data/scripts/dock_solv.prm

>  <Rbt.Receptor>
prm/pocket_docking_3.prm

>  <SCORE>
-12.1435

>  <SCORE.INTER>
-10.2829

>  <SCORE.INTER.CONST>
1

>  <SCORE.INTER.POLAR>
-1.47659

>  <SCORE.INTER.ROT>
15

>  <SCORE.INTER.SOLV>
24.5982

>  <SCORE.INTER.VDW>
-23.7326

>  <SCORE.INTER.norm>
-0.277915

>  <SCORE.INTRA>
-1.87041

>  <SCORE.INTRA.DIHEDRAL>
-5.06193

>  <SCORE.INTRA.DIHEDRAL.0>
21.5987

>  <SCORE.INTRA.POLAR>
0

>  <SCORE.INTRA.POLAR.0>
0

>  <SCORE.INTRA.REPUL>
0

>  <SCORE.INTRA.REPUL.0>
0

>  <SCORE.INTRA.SOLV>
1.67462

>  <SCORE.INTRA.SOLV.lig_0>
-108.715

>  <SCORE.INTRA.VDW>
-0.176756

>  <SCORE.INTRA.VDW.0>
-3.9485

>  <SCORE.INTRA.norm>
-0.0505517

>  <SCORE.RESTR>
0.00973502

>  <SCORE.RESTR.CAVITY>
0.00973502

>  <SCORE.RESTR.norm>
0.000263109

>  <SCORE.SYSTEM>
0

>  <SCORE.SYSTEM.CONST>
0

>  <SCORE.SYSTEM.DIHEDRAL>
0

>  <SCORE.SYSTEM.SOLV>
0

>  <SCORE.SYSTEM.norm>
0

>  <SCORE.heavy>
37

>  <SCORE.norm>
-0.328204

>  <RMSD>
1.674

$$$$
1o9m_lig
 OpenBabel11021811403D
libRbt.so/2013.1/901 2013/11/27
 37 38  0  0  0  0  0  0  0  0999 V2000
   -3.8317   14.4217    6.1317 C   0  0  2  0  0  0  0  0  0  0  0  0
   -4.4213   15.7239    5.8336 O   0  0  0  0  0  0  0  0  0  0  0  0
   -2.3287   14.4993    5.6738 C   0  0  2  0  0  0  0  0  0  0  0  0
   -1.5920   15.5739    6.3619 N   0  0  0  0  0  0  0  0  0  0  0  0
   -2.2764   14.6988    4.1114 C   0  0  1  0  0  0  0  0  0  0  0  0
   -0.9180   14.7707    3.6695 O   0  0  0  0  0  0  0  0  0  0  0  0
   -3.0538   13.5164    3.4442 C   0  0  2  0  0  0  0  0  0  0  0  0
   -3.0840   13.6076    2.0104 O   0  0  0  0  0  0  0  0  0  0  0  0
   -4.5083   13.4525    3.9720 C   0  0  2  0  0  0  0  0  0  0  0  0
   -4.5293   13.3559    5.4036 O   0  0  0  0  0  0  0  0  0  0  0  0
   -5.2628   12.2869    3.3865 C   0  0  0  0  0  0  0  0  0  0  0  0
   -5.3345   11.2603    4.2977 N   0  0  0  0  0  0  0  0  0  0  0  0
   -7.8980   17.8851    7.2695 C   0  0  1  0  0  0  0  0  0  0  0  0
   -9.3174   18.1913    7.6030 N   0  0  0  0  0  0  0  0  0  0  0  0
   -7.4717   16.6380    8.0320 C   0  0  2  0  0  0  0  0  0  0  0  0
   -7.6642   16.8806    9.3937 O   0  0  0  0  0  0  0  0  0  0  0  0
   -5.9809   16.2888    7.7269 C   0  0  1  0  0  0  0  0  0  0  0  0
   -5.5905   15.0795    8.4464 O   0  0  0  0  0  0  0  0  0  0  0  0
   -5.8023   16.0362    6.1744 C   0  0  1  0  0  0  0  0  0  0  0  0
   -6.2074   17.2826    5.4023 C   0  0  1  0  0  0  0  0  0  0  0  0
   -6.0216   17.0344    3.9805 N   0  0  0  0  0  0  0  0  0  0  0  0
   -7.6837   17.6413    5.7208 C   0  0  0  0  0  0  0  0  0  0  0  0
   -7.6643   17.5994   10.6467 C   0  0  0  0  0  0  0  0  0  0  0  0
   -6.3209   18.2650   10.8383 C   0  0  0  0  0  0  0  0  0  0  0  0
   -6.2057   19.5908   10.1965 N   0  0  0  0  0  0  0  0  0  0  0  0
   -6.5065   20.9681    9.7437 C   0  0  0  0  0  0  0  0  0  0  0  0
   -5.6951   21.7110   10.8127 C   0  0  0  0  0  0  0  0  0  0  0  0
   -4.2086   21.8438   10.4321 C   0  0  0  0  0  0  0  0  0  0  0  0
   -3.4677   20.5272   10.6446 C   0  0  0  0  0  0  0  0  0  0  0  0
   -2.0372   20.7221   10.4552 N   0  0  0  0  0  0  0  0  0  0  0  0
  -11.0288   22.2622    6.5070 N   0  0  0  0  0  0  0  0  0  0  0  0
   -9.9428   19.5269    6.6174 C   0  0  0  0  0  0  0  0  0  0  0  0
   -9.5392   20.1515    5.8357 O   0  0  0  0  0  0  0  0  0  0  0  0
  -11.2256   19.3593    7.3945 C   0  0  2  0  0  0  0  0  0  0  0  0
  -12.3115   19.3135    6.5575 O   0  0  0  0  0  0  0  0  0  0  0  0
  -11.3865   20.6067    8.2563 C   0  0  0  0  0  0  0  0  0  0  0  0
  -11.9616   21.8584    7.5691 C   0  0  0  0  0  0  0  0  0  0  0  0
  1  2  1  6  0  0  0
  1  3  1  0  0  0  0
  3  4  1  1  0  0  0
  3  5  1  0  0  0  0
  5  6  1  6  0  0  0
  5  7  1  0  0  0  0
  7  8  1  6  0  0  0
  9  7  1  0  0  0  0
  9 10  1  0  0  0  0
  9 11  1  6  0  0  0
 10  1  1  0  0  0  0
 11 12  1  0  0  0  0
 13 14  1  6  0  0  0
 13 15  1  0  0  0  0
 13 22  1  0  0  0  0
 14 32  1  0  0  0  0
 15 16  1  1  0  0  0
 15 17  1  0  0  0  0
 16 23  1  0  0  0  0
 17 18  1  1  0  0  0
 17 19  1  0  0  0  0
 19  2  1  1  0  0  0
 19 20  1  0  0  0  0
 20 21  1  6  0  0  0
 20 22  1  0  0  0  0
 23 24  1  0  0  0  0
 24 25  1  0  0  0  0
 25 26  1  0  0  0  0
 26 27  1  0  0  0  0
 27 28  1  0  0  0  0
 28 29  1  0  0  0  0
 29 30  1  0  0  0  0
 31 37  1  0  0  0  0
 32 33  2  0  0  0  0
 34 32  1  6  0  0  0
 34 35  1  0  0  0  0
 34 36  1  0  0  0  0
 36 37  1  0  0  0  0
M  END
>  <CHROM.1>
-177.57449355,101.76703672,-173.73748737,-41.01036129,-47.87206016,74.76096024
85.67529908,44.64623379,99.35076926,84.38808240,-76.54454021,-172.26085548
-131.68552301,80.98575864,-62.60405555,-6.21817342,17.29552211,6.92472563
-0.91056373,-0.29041644,0.78465328

>  <Name>
1o9m_lig

>  <RI>
0

>  <Rbt.Current_Directory>
/home/itssahil/PROJECTS/Mol_Feturizer/New_Systems/rnas/1o9m

>  <Rbt.Executable>
rbdock ($Id: //depot/dev/client3/rdock/2013.1/src/exe/rbdock.cxx#4 $)

>  <Rbt.Library>
libRbt.so (2013.1, Build901 2013/11/27)

>  <Rbt.Parameter_File>
/export/apps/rDock/src/rDock_2013.1_src/data/scripts/dock_solv.prm

>  <Rbt.Receptor>
prm/pocket_docking_3.prm

>  <SCORE>
-15.469

>  <SCORE.INTER>
-16.5706

>  <SCORE.INTER.CONST>
1

>  <SCORE.INTER.POLAR>
-1.95764

>  <SCORE.INTER.ROT>
15

>  <SCORE.INTER.SOLV>
17.9319

>  <SCORE.INTER.VDW>
-24.0989

>  <SCORE.INTER.norm>
-0.447854

>  <SCORE.INTRA>
1.10158

>  <SCORE.INTRA.DIHEDRAL>
-3.73607

>  <SCORE.INTRA.DIHEDRAL.0>
21.5987

>  <SCORE.INTRA.POLAR>
0

>  <SCORE.INTRA.POLAR.0>
0

>  <SCORE.INTRA.REPUL>
0

>  <SCORE.INTRA.REPUL.0>
0

>  <SCORE.INTRA.SOLV>
4.82176

>  <SCORE.INTRA.SOLV.lig_0>
-108.715

>  <SCORE.INTRA.VDW>
0.558741

>  <SCORE.INTRA.VDW.0>
-3.9485

>  <SCORE.INTRA.norm>
0.0297725

>  <SCORE.RESTR>
0

>  <SCORE.RESTR.CAVITY>
0

>  <SCORE.RESTR.norm>
0

>  <SCORE.SYSTEM>
0

>  <SCORE.SYSTEM.CONST>
0

>  <SCORE.SYSTEM.DIHEDRAL>
0

>  <SCORE.SYSTEM.SOLV>
0

>  <SCORE.SYSTEM.norm>
0

>  <SCORE.heavy>
37

>  <SCORE.norm>
-0.418081

>  <RMSD>
1.682

$$$$
1o9m_lig
 OpenBabel11021811403D
libRbt.so/2013.1/901 2013/11/27
 37 38  0  0  0  0  0  0  0  0999 V2000
   -4.0025   14.0825    5.6892 C   0  0  2  0  0  0  0  0  0  0  0  0
   -4.7724   15.2297    5.2165 O   0  0  0  0  0  0  0  0  0  0  0  0
   -2.5251   14.3060    5.1974 C   0  0  2  0  0  0  0  0  0  0  0  0
   -1.9524   15.5635    5.7090 N   0  0  0  0  0  0  0  0  0  0  0  0
   -2.4978   14.2807    3.6218 C   0  0  1  0  0  0  0  0  0  0  0  0
   -1.1627   14.4803    3.1494 O   0  0  0  0  0  0  0  0  0  0  0  0
   -3.0953   12.9150    3.1473 C   0  0  2  0  0  0  0  0  0  0  0  0
   -3.1345   12.7907    1.7162 O   0  0  0  0  0  0  0  0  0  0  0  0
   -4.5270   12.7219    3.7054 C   0  0  2  0  0  0  0  0  0  0  0  0
   -4.5377   12.8334    5.1360 O   0  0  0  0  0  0  0  0  0  0  0  0
   -5.1045   11.3878    3.3088 C   0  0  0  0  0  0  0  0  0  0  0  0
   -6.4267   11.3133    3.6768 N   0  0  0  0  0  0  0  0  0  0  0  0
   -7.8835   17.9439    6.5484 C   0  0  1  0  0  0  0  0  0  0  0  0
   -9.0155   18.4933    7.3461 N   0  0  0  0  0  0  0  0  0  0  0  0
   -6.6952   17.7167    7.4729 C   0  0  2  0  0  0  0  0  0  0  0  0
   -6.3843   18.9354    8.0799 O   0  0  0  0  0  0  0  0  0  0  0  0
   -5.4756   17.1572    6.6746 C   0  0  1  0  0  0  0  0  0  0  0  0
   -4.3501   16.9231    7.5751 O   0  0  0  0  0  0  0  0  0  0  0  0
   -5.8731   15.7859    5.9910 C   0  0  1  0  0  0  0  0  0  0  0  0
   -7.0482   16.0038    5.0499 C   0  0  1  0  0  0  0  0  0  0  0  0
   -7.3872   14.7357    4.4218 N   0  0  0  0  0  0  0  0  0  0  0  0
   -8.2544   16.5786    5.8399 C   0  0  0  0  0  0  0  0  0  0  0  0
   -5.7245   19.8721    8.9596 C   0  0  0  0  0  0  0  0  0  0  0  0
   -6.3157   19.7536   10.3456 C   0  0  0  0  0  0  0  0  0  0  0  0
   -5.4978   18.9603   11.2862 N   0  0  0  0  0  0  0  0  0  0  0  0
   -4.3715   18.2116   11.8889 C   0  0  0  0  0  0  0  0  0  0  0  0
   -3.4088   18.3074   10.6985 C   0  0  0  0  0  0  0  0  0  0  0  0
   -2.6116   19.6252   10.6949 C   0  0  0  0  0  0  0  0  0  0  0  0
   -1.4992   19.5968   11.7384 C   0  0  0  0  0  0  0  0  0  0  0  0
   -2.0587   19.3473   13.0593 N   0  0  0  0  0  0  0  0  0  0  0  0
  -11.0627   21.0448    4.9293 N   0  0  0  0  0  0  0  0  0  0  0  0
  -10.4761   18.6815    6.3572 C   0  0  0  0  0  0  0  0  0  0  0  0
  -10.7309   18.4816    5.3281 O   0  0  0  0  0  0  0  0  0  0  0  0
  -11.1192   19.2402    7.6030 C   0  0  2  0  0  0  0  0  0  0  0  0
  -12.2937   18.5919    7.8897 O   0  0  0  0  0  0  0  0  0  0  0  0
  -11.4792   20.6908    7.3020 C   0  0  0  0  0  0  0  0  0  0  0  0
  -12.1309   20.9777    5.9371 C   0  0  0  0  0  0  0  0  0  0  0  0
  1  2  1  6  0  0  0
  1  3  1  0  0  0  0
  3  4  1  6  0  0  0
  3  5  1  0  0  0  0
  5  6  1  1  0  0  0
  5  7  1  0  0  0  0
  7  8  1  6  0  0  0
  9  7  1  0  0  0  0
  9 10  1  0  0  0  0
  9 11  1  1  0  0  0
 10  1  1  0  0  0  0
 11 12  1  0  0  0  0
 13 14  1  1  0  0  0
 13 15  1  0  0  0  0
 13 22  1  0  0  0  0
 14 32  1  0  0  0  0
 15 16  1  6  0  0  0
 15 17  1  0  0  0  0
 16 23  1  0  0  0  0
 17 18  1  1  0  0  0
 17 19  1  0  0  0  0
 19  2  1  6  0  0  0
 19 20  1  0  0  0  0
 20 21  1  1  0  0  0
 20 22  1  0  0  0  0
 23 24  1  0  0  0  0
 24 25  1  0  0  0  0
 25 26  1  0  0  0  0
 26 27  1  0  0  0  0
 27 28  1  0  0  0  0
 28 29  1  0  0  0  0
 29 30  1  0  0  0  0
 31 37  1  0  0  0  0
 32 33  2  0  0  0  0
 34 32  1  6  0  0  0
 34 35  1  0  0  0  0
 34 36  1  0  0  0  0
 36 37  1  0  0  0  0
M  END
>  <CHROM.1>
-145.63048173,-172.65441795,-176.11859313,174.82236890,-79.26872380,105.66797878
100.54180322,11.78361261,-3.53793695,84.41861854,75.83673366,-57.46686722
-127.31997123,44.03659699,-81.01690078,-6.01424637,16.84663338,6.70085644
-0.93787594,-0.35778041,0.86760368

>  <Name>
1o9m_lig

>  <RI>
0

>  <Rbt.Current_Directory>
/home/itssahil/PROJECTS/Mol_Feturizer/New_Systems/rnas/1o9m

>  <Rbt.Executable>
rbdock ($Id: //depot/dev/client3/rdock/2013.1/src/exe/rbdock.cxx#4 $)

>  <Rbt.Library>
libRbt.so (2013.1, Build901 2013/11/27)

>  <Rbt.Parameter_File>
/export/apps/rDock/src/rDock_2013.1_src/data/scripts/dock_solv.prm

>  <Rbt.Receptor>
prm/pocket_docking_2.prm

>  <SCORE>
1.49331

>  <SCORE.INTER>
-7.97651

>  <SCORE.INTER.CONST>
1

>  <SCORE.INTER.POLAR>
-1.43571

>  <SCORE.INTER.ROT>
15

>  <SCORE.INTER.SOLV>
18.7349

>  <SCORE.INTER.VDW>
-20.3769

>  <SCORE.INTER.norm>
-0.215581

>  <SCORE.INTRA>
8.16683

>  <SCORE.INTRA.DIHEDRAL>
5.35785

>  <SCORE.INTRA.DIHEDRAL.0>
21.5987

>  <SCORE.INTRA.POLAR>
0

>  <SCORE.INTRA.POLAR.0>
0

>  <SCORE.INTRA.REPUL>
0

>  <SCORE.INTRA.REPUL.0>
0

>  <SCORE.INTRA.SOLV>
8.34565

>  <SCORE.INTRA.SOLV.lig_0>
-108.715

>  <SCORE.INTRA.VDW>
1.31508

>  <SCORE.INTRA.VDW.0>
-3.9485

>  <SCORE.INTRA.norm>
0.220725

>  <SCORE.RESTR>
1.303

>  <SCORE.RESTR.CAVITY>
1.303

>  <SCORE.RESTR.norm>
0.0352162

>  <SCORE.SYSTEM>
0

>  <SCORE.SYSTEM.CONST>
0

>  <SCORE.SYSTEM.DIHEDRAL>
0

>  <SCORE.SYSTEM.SOLV>
0

>  <SCORE.SYSTEM.norm>
0

>  <SCORE.heavy>
37

>  <SCORE.norm>
0.0403598

>  <RMSD>
1.684

$$$$
1o9m_lig
 OpenBabel11021811403D
libRbt.so/2013.1/901 2013/11/27
 37 38  0  0  0  0  0  0  0  0999 V2000
   -4.6508   13.9306    5.3070 C   0  0  2  0  0  0  0  0  0  0  0  0
   -5.5107   14.9188    4.6619 O   0  0  0  0  0  0  0  0  0  0  0  0
   -3.1827   14.2457    4.8383 C   0  0  2  0  0  0  0  0  0  0  0  0
   -2.7650   15.6123    5.1973 N   0  0  0  0  0  0  0  0  0  0  0  0
   -3.0802   14.0217    3.2816 C   0  0  1  0  0  0  0  0  0  0  0  0
   -1.7519   14.3006    2.8305 O   0  0  0  0  0  0  0  0  0  0  0  0
   -3.5132   12.5505    2.9728 C   0  0  2  0  0  0  0  0  0  0  0  0
   -3.4734   12.2403    1.5703 O   0  0  0  0  0  0  0  0  0  0  0  0
   -4.9421   12.2788    3.5047 C   0  0  2  0  0  0  0  0  0  0  0  0
   -5.0302   12.5709    4.9069 O   0  0  0  0  0  0  0  0  0  0  0  0
   -5.3620   10.8509    3.2696 C   0  0  0  0  0  0  0  0  0  0  0  0
   -6.7316   10.7438    3.3162 N   0  0  0  0  0  0  0  0  0  0  0  0
   -9.0965   17.1257    5.7071 C   0  0  1  0  0  0  0  0  0  0  0  0
  -10.4682   17.4095    6.2143 N   0  0  0  0  0  0  0  0  0  0  0  0
   -8.2628   16.5462    6.8418 C   0  0  2  0  0  0  0  0  0  0  0  0
   -8.2684   17.4666    7.8920 O   0  0  0  0  0  0  0  0  0  0  0  0
   -6.8076   16.2495    6.3599 C   0  0  1  0  0  0  0  0  0  0  0  0
   -6.0246   15.6743    7.4502 O   0  0  0  0  0  0  0  0  0  0  0  0
   -6.8460   15.2159    5.1616 C   0  0  1  0  0  0  0  0  0  0  0  0
   -7.6610   15.7919    4.0136 C   0  0  1  0  0  0  0  0  0  0  0  0
   -7.6708   14.8336    2.9186 N   0  0  0  0  0  0  0  0  0  0  0  0
   -9.1021   16.1052    4.4978 C   0  0  0  0  0  0  0  0  0  0  0  0
   -8.7964   18.3531    8.9030 C   0  0  0  0  0  0  0  0  0  0  0  0
   -7.6499   19.0225    9.6253 C   0  0  0  0  0  0  0  0  0  0  0  0
   -6.9389   18.1438   10.5768 N   0  0  0  0  0  0  0  0  0  0  0  0
   -6.1871   17.0050   11.1515 C   0  0  0  0  0  0  0  0  0  0  0  0
   -4.8413   17.2923   10.4738 C   0  0  0  0  0  0  0  0  0  0  0  0
   -3.7365   16.3215   10.9311 C   0  0  0  0  0  0  0  0  0  0  0  0
   -3.2609   16.6561   12.3415 C   0  0  0  0  0  0  0  0  0  0  0  0
   -2.5990   17.9530   12.3517 N   0  0  0  0  0  0  0  0  0  0  0  0
  -12.4199   22.0089    6.5907 N   0  0  0  0  0  0  0  0  0  0  0  0
  -11.4811   18.1577    4.9649 C   0  0  0  0  0  0  0  0  0  0  0  0
  -11.3358   18.4397    3.9337 O   0  0  0  0  0  0  0  0  0  0  0  0
  -12.5600   18.2069    6.0190 C   0  0  2  0  0  0  0  0  0  0  0  0
  -13.8085   18.1233    5.4567 O   0  0  0  0  0  0  0  0  0  0  0  0
  -12.4670   19.5763    6.6829 C   0  0  0  0  0  0  0  0  0  0  0  0
  -12.5951   20.8054    5.7649 C   0  0  0  0  0  0  0  0  0  0  0  0
  1  2  1  6  0  0  0
  1  3  1  0  0  0  0
  3  4  1  6  0  0  0
  3  5  1  0  0  0  0
  5  6  1  1  0  0  0
  5  7  1  0  0  0  0
  7  8  1  6  0  0  0
  9  7  1  0  0  0  0
  9 10  1  0  0  0  0
  9 11  1  1  0  0  0
 10  1  1  0  0  0  0
 11 12  1  0  0  0  0
 13 14  1  1  0  0  0
 13 15  1  0  0  0  0
 13 22  1  0  0  0  0
 14 32  1  0  0  0  0
 15 16  1  1  0  0  0
 15 17  1  0  0  0  0
 16 23  1  0  0  0  0
 17 18  1  1  0  0  0
 17 19  1  0  0  0  0
 19  2  1  6  0  0  0
 19 20  1  0  0  0  0
 20 21  1  6  0  0  0
 20 22  1  0  0  0  0
 23 24  1  0  0  0  0
 24 25  1  0  0  0  0
 25 26  1  0  0  0  0
 26 27  1  0  0  0  0
 27 28  1  0  0  0  0
 28 29  1  0  0  0  0
 29 30  1  0  0  0  0
 31 37  1  0  0  0  0
 32 33  2  0  0  0  0
 34 32  1  6  0  0  0
 34 35  1  0  0  0  0
 34 36  1  0  0  0  0
 36 37  1  0  0  0  0
M  END
>  <CHROM.1>
-160.41936423,-159.52270984,177.42158632,54.72964963,-178.85979466,82.58286578
-74.87084966,55.26323656,71.33989790,175.98785349,-74.50135543,-65.96024554
-150.34882817,57.22224968,-177.57821486,-7.04253752,16.12207935,6.16613126
0.58593444,0.46611654,-2.10345834

>  <Name>
1o9m_lig

>  <RI>
0

>  <Rbt.Current_Directory>
/home/itssahil/PROJECTS/Mol_Feturizer/New_Systems/rnas/1o9m

>  <Rbt.Executable>
rbdock ($Id: //depot/dev/client3/rdock/2013.1/src/exe/rbdock.cxx#4 $)

>  <Rbt.Library>
libRbt.so (2013.1, Build901 2013/11/27)

>  <Rbt.Parameter_File>
/export/apps/rDock/src/rDock_2013.1_src/data/scripts/dock_solv.prm

>  <Rbt.Receptor>
prm/pocket_docking_3.prm

>  <SCORE>
-17.7064

>  <SCORE.INTER>
-11.9143

>  <SCORE.INTER.CONST>
1

>  <SCORE.INTER.POLAR>
-0.959166

>  <SCORE.INTER.ROT>
15

>  <SCORE.INTER.SOLV>
18.3094

>  <SCORE.INTER.VDW>
-24.4487

>  <SCORE.INTER.norm>
-0.322007

>  <SCORE.INTRA>
-5.8153

>  <SCORE.INTRA.DIHEDRAL>
-12.2832

>  <SCORE.INTRA.DIHEDRAL.0>
21.5987

>  <SCORE.INTRA.POLAR>
0

>  <SCORE.INTRA.POLAR.0>
0

>  <SCORE.INTRA.REPUL>
0

>  <SCORE.INTRA.REPUL.0>
0

>  <SCORE.INTRA.SOLV>
1.26999

>  <SCORE.INTRA.SOLV.lig_0>
-108.715

>  <SCORE.INTRA.VDW>
-0.308709

>  <SCORE.INTRA.VDW.0>
-3.9485

>  <SCORE.INTRA.norm>
-0.15717

>  <SCORE.RESTR>
0.0231351

>  <SCORE.RESTR.CAVITY>
0.0231351

>  <SCORE.RESTR.norm>
0.000625274

>  <SCORE.SYSTEM>
0

>  <SCORE.SYSTEM.CONST>
0

>  <SCORE.SYSTEM.DIHEDRAL>
0

>  <SCORE.SYSTEM.SOLV>
0

>  <SCORE.SYSTEM.norm>
0

>  <SCORE.heavy>
37

>  <SCORE.norm>
-0.478552

>  <RMSD>
1.689

$$$$
1o9m_lig
 OpenBabel11021811403D
libRbt.so/2013.1/901 2013/11/27
 37 38  0  0  0  0  0  0  0  0999 V2000
   -4.9831   13.8267    5.2013 C   0  0  2  0  0  0  0  0  0  0  0  0
   -5.6153   14.9984    4.6017 O   0  0  0  0  0  0  0  0  0  0  0  0
   -3.5168   13.7742    4.6343 C   0  0  2  0  0  0  0  0  0  0  0  0
   -2.7543   14.9951    4.9489 N   0  0  0  0  0  0  0  0  0  0  0  0
   -3.5753   13.5385    3.0771 C   0  0  1  0  0  0  0  0  0  0  0  0
   -2.2520   13.4851    2.5372 O   0  0  0  0  0  0  0  0  0  0  0  0
   -4.3749   12.2197    2.8148 C   0  0  2  0  0  0  0  0  0  0  0  0
   -4.5051   11.9153    1.4165 O   0  0  0  0  0  0  0  0  0  0  0  0
   -5.7885   12.3044    3.4418 C   0  0  2  0  0  0  0  0  0  0  0  0
   -5.7095   12.6032    4.8432 O   0  0  0  0  0  0  0  0  0  0  0  0
   -6.5600   11.0241    3.2518 C   0  0  0  0  0  0  0  0  0  0  0  0
   -5.8834    9.9718    3.8210 N   0  0  0  0  0  0  0  0  0  0  0  0
   -8.7341   17.7988    5.7202 C   0  0  1  0  0  0  0  0  0  0  0  0
  -10.0403   18.3152    6.2169 N   0  0  0  0  0  0  0  0  0  0  0  0
   -8.0687   16.9960    6.8298 C   0  0  2  0  0  0  0  0  0  0  0  0
   -7.9300   17.8314    7.9402 O   0  0  0  0  0  0  0  0  0  0  0  0
   -6.6841   16.4491    6.3593 C   0  0  1  0  0  0  0  0  0  0  0  0
   -6.0660   15.6633    7.4237 O   0  0  0  0  0  0  0  0  0  0  0  0
   -6.8830   15.5209    5.0925 C   0  0  1  0  0  0  0  0  0  0  0  0
   -7.5303   16.3174    3.9699 C   0  0  1  0  0  0  0  0  0  0  0  0
   -7.6901   15.4507    2.8119 N   0  0  0  0  0  0  0  0  0  0  0  0
   -8.8979   16.8777    4.4441 C   0  0  0  0  0  0  0  0  0  0  0  0
   -7.5806   18.2441    9.2797 C   0  0  0  0  0  0  0  0  0  0  0  0
   -6.1272   18.6580    9.3093 C   0  0  0  0  0  0  0  0  0  0  0  0
   -5.7548   19.4749   10.4828 N   0  0  0  0  0  0  0  0  0  0  0  0
   -4.9597   20.1780   11.5152 C   0  0  0  0  0  0  0  0  0  0  0  0
   -3.8988   19.0901   11.7250 C   0  0  0  0  0  0  0  0  0  0  0  0
   -3.0048   19.3724   12.9470 C   0  0  0  0  0  0  0  0  0  0  0  0
   -1.9738   18.2647   13.1405 C   0  0  0  0  0  0  0  0  0  0  0  0
   -0.9812   18.3137   12.0763 N   0  0  0  0  0  0  0  0  0  0  0  0
  -16.1168   18.0334    6.4935 N   0  0  0  0  0  0  0  0  0  0  0  0
  -11.3995   17.3847    5.5585 C   0  0  0  0  0  0  0  0  0  0  0  0
  -11.4940   16.5361    4.8989 O   0  0  0  0  0  0  0  0  0  0  0  0
  -12.2846   18.3358    6.3263 C   0  0  2  0  0  0  0  0  0  0  0  0
  -12.0878   18.2161    7.6786 O   0  0  0  0  0  0  0  0  0  0  0  0
  -13.7251   17.9178    6.0523 C   0  0  0  0  0  0  0  0  0  0  0  0
  -14.8162   18.5679    6.9222 C   0  0  0  0  0  0  0  0  0  0  0  0
  1  2  1  6  0  0  0
  1  3  1  0  0  0  0
  3  4  1  6  0  0  0
  3  5  1  0  0  0  0
  5  6  1  1  0  0  0
  5  7  1  0  0  0  0
  7  8  1  6  0  0  0
  9  7  1  0  0  0  0
  9 10  1  0  0  0  0
  9 11  1  1  0  0  0
 10  1  1  0  0  0  0
 11 12  1  0  0  0  0
 13 14  1  1  0  0  0
 13 15  1  0  0  0  0
 13 22  1  0  0  0  0
 14 32  1  0  0  0  0
 15 16  1  1  0  0  0
 15 17  1  0  0  0  0
 16 23  1  0  0  0  0
 17 18  1  1  0  0  0
 17 19  1  0  0  0  0
 19  2  1  6  0  0  0
 19 20  1  0  0  0  0
 20 21  1  6  0  0  0
 20 22  1  0  0  0  0
 23 24  1  0  0  0  0
 24 25  1  0  0  0  0
 25 26  1  0  0  0  0
 26 27  1  0  0  0  0
 27 28  1  0  0  0  0
 28 29  1  0  0  0  0
 29 30  1  0  0  0  0
 31 37  1  0  0  0  0
 32 33  2  0  0  0  0
 34 32  1  6  0  0  0
 34 35  1  0  0  0  0
 34 36  1  0  0  0  0
 36 37  1  0  0  0  0
M  END
>  <CHROM.1>
-167.47541200,58.80070190,-103.83018316,179.07762908,84.65984554,82.16265395
162.28569692,164.85766044,-40.13541078,-169.76118681,179.21103546,69.86406515
-64.19809568,169.11009598,179.82724518,-7.02409731,16.16012173,6.37182130
-0.93166324,-0.26381515,0.89714995

>  <Name>
1o9m_lig

>  <RI>
0

>  <Rbt.Current_Directory>
/home/itssahil/PROJECTS/Mol_Feturizer/New_Systems/rnas/1o9m

>  <Rbt.Executable>
rbdock ($Id: //depot/dev/client3/rdock/2013.1/src/exe/rbdock.cxx#4 $)

>  <Rbt.Library>
libRbt.so (2013.1, Build901 2013/11/27)

>  <Rbt.Parameter_File>
/export/apps/rDock/src/rDock_2013.1_src/data/scripts/dock_solv.prm

>  <Rbt.Receptor>
prm/pocket_docking_3.prm

>  <SCORE>
-14.371

>  <SCORE.INTER>
-12.9863

>  <SCORE.INTER.CONST>
1

>  <SCORE.INTER.POLAR>
-1.83095

>  <SCORE.INTER.ROT>
15

>  <SCORE.INTER.SOLV>
24.286

>  <SCORE.INTER.VDW>
-24.2498

>  <SCORE.INTER.norm>
-0.350982

>  <SCORE.INTRA>
-1.91629

>  <SCORE.INTRA.DIHEDRAL>
-11.5145

>  <SCORE.INTRA.DIHEDRAL.0>
21.5987

>  <SCORE.INTRA.POLAR>
0

>  <SCORE.INTRA.POLAR.0>
0

>  <SCORE.INTRA.REPUL>
0

>  <SCORE.INTRA.REPUL.0>
0

>  <SCORE.INTRA.SOLV>
1.15928

>  <SCORE.INTRA.SOLV.lig_0>
-108.715

>  <SCORE.INTRA.VDW>
3.26131

>  <SCORE.INTRA.VDW.0>
-3.9485

>  <SCORE.INTRA.norm>
-0.0517915

>  <SCORE.RESTR>
0.531646

>  <SCORE.RESTR.CAVITY>
0.531646

>  <SCORE.RESTR.norm>
0.0143688

>  <SCORE.SYSTEM>
0

>  <SCORE.SYSTEM.CONST>
0

>  <SCORE.SYSTEM.DIHEDRAL>
0

>  <SCORE.SYSTEM.SOLV>
0

>  <SCORE.SYSTEM.norm>
0

>  <SCORE.heavy>
37

>  <SCORE.norm>
-0.388405

>  <RMSD>
1.693

$$$$
1o9m_lig
 OpenBabel11021811403D
libRbt.so/2013.1/901 2013/11/27
 37 38  0  0  0  0  0  0  0  0999 V2000
   -4.7199   13.7825    5.1403 C   0  0  2  0  0  0  0  0  0  0  0  0
   -5.6080   14.7365    4.4819 O   0  0  0  0  0  0  0  0  0  0  0  0
   -3.2686   14.0949    4.6201 C   0  0  2  0  0  0  0  0  0  0  0  0
   -2.8571   15.4784    4.9158 N   0  0  0  0  0  0  0  0  0  0  0  0
   -3.2053   13.8128    3.0709 C   0  0  1  0  0  0  0  0  0  0  0  0
   -1.8929   14.0881    2.5736 O   0  0  0  0  0  0  0  0  0  0  0  0
   -3.6296   12.3264    2.8298 C   0  0  2  0  0  0  0  0  0  0  0  0
   -3.6239   11.9635    1.4394 O   0  0  0  0  0  0  0  0  0  0  0  0
   -5.0405   12.0603    3.4103 C   0  0  2  0  0  0  0  0  0  0  0  0
   -5.0943   12.4047    4.8023 O   0  0  0  0  0  0  0  0  0  0  0  0
   -5.4502   10.6202    3.2408 C   0  0  0  0  0  0  0  0  0  0  0  0
   -6.8124   10.4940    3.3748 N   0  0  0  0  0  0  0  0  0  0  0  0
   -9.0252   17.0714    5.7826 C   0  0  1  0  0  0  0  0  0  0  0  0
  -10.3674   17.3983    6.3403 N   0  0  0  0  0  0  0  0  0  0  0  0
   -8.2138   16.3456    6.8472 C   0  0  2  0  0  0  0  0  0  0  0  0
   -8.1430   17.1720    7.9707 O   0  0  0  0  0  0  0  0  0  0  0  0
   -6.7888   15.9985    6.3120 C   0  0  1  0  0  0  0  0  0  0  0  0
   -6.0284   15.2840    7.3337 O   0  0  0  0  0  0  0  0  0  0  0  0
   -6.9131   15.0748    5.0325 C   0  0  1  0  0  0  0  0  0  0  0  0
   -7.7063   15.7971    3.9539 C   0  0  1  0  0  0  0  0  0  0  0  0
   -7.7957   14.9377    2.7830 N   0  0  0  0  0  0  0  0  0  0  0  0
   -9.1161   16.1597    4.4925 C   0  0  0  0  0  0  0  0  0  0  0  0
   -8.5965   17.9953    9.0676 C   0  0  0  0  0  0  0  0  0  0  0  0
   -9.1269   19.3016    8.5227 C   0  0  0  0  0  0  0  0  0  0  0  0
   -8.0956   20.1657    7.9123 N   0  0  0  0  0  0  0  0  0  0  0  0
   -6.8001   20.6661    7.3987 C   0  0  0  0  0  0  0  0  0  0  0  0
   -5.9845   20.4613    8.6816 C   0  0  0  0  0  0  0  0  0  0  0  0
   -6.4455   21.3877    9.8224 C   0  0  0  0  0  0  0  0  0  0  0  0
   -5.4600   21.3573   10.9866 C   0  0  0  0  0  0  0  0  0  0  0  0
   -5.2967   19.9929   11.4681 N   0  0  0  0  0  0  0  0  0  0  0  0
  -13.5810   21.5416    7.7944 N   0  0  0  0  0  0  0  0  0  0  0  0
  -11.4256   18.1139    5.1096 C   0  0  0  0  0  0  0  0  0  0  0  0
  -11.3241   18.3527    4.0623 O   0  0  0  0  0  0  0  0  0  0  0  0
  -12.4536   18.2229    6.2091 C   0  0  2  0  0  0  0  0  0  0  0  0
  -13.6902   17.8166    5.7757 O   0  0  0  0  0  0  0  0  0  0  0  0
  -12.5733   19.7025    6.5572 C   0  0  0  0  0  0  0  0  0  0  0  0
  -13.5578   20.0762    7.6801 C   0  0  0  0  0  0  0  0  0  0  0  0
  1  2  1  6  0  0  0
  1  3  1  0  0  0  0
  3  4  1  6  0  0  0
  3  5  1  0  0  0  0
  5  6  1  1  0  0  0
  5  7  1  0  0  0  0
  7  8  1  6  0  0  0
  9  7  1  0  0  0  0
  9 10  1  0  0  0  0
  9 11  1  1  0  0  0
 10  1  1  0  0  0  0
 11 12  1  0  0  0  0
 13 14  1  1  0  0  0
 13 15  1  0  0  0  0
 13 22  1  0  0  0  0
 14 32  1  0  0  0  0
 15 16  1  1  0  0  0
 15 17  1  0  0  0  0
 16 23  1  0  0  0  0
 17 18  1  1  0  0  0
 17 19  1  0  0  0  0
 19  2  1  6  0  0  0
 19 20  1  0  0  0  0
 20 21  1  6  0  0  0
 20 22  1  0  0  0  0
 23 24  1  0  0  0  0
 24 25  1  0  0  0  0
 25 26  1  0  0  0  0
 26 27  1  0  0  0  0
 27 28  1  0  0  0  0
 28 29  1  0  0  0  0
 29 30  1  0  0  0  0
 31 37  1  0  0  0  0
 32 33  2  0  0  0  0
 34 32  1  6  0  0  0
 34 35  1  0  0  0  0
 34 36  1  0  0  0  0
 36 37  1  0  0  0  0
M  END
>  <CHROM.1>
-158.15471978,-161.60626111,-174.77595257,55.56721558,-72.43537936,73.35684570
-67.17586014,3.78733016,-54.65810675,-66.55664792,-169.15185855,-57.10189516
-135.47513249,-179.16164611,-176.48775290,-7.44155442,16.53497462,5.87885781
-0.92897521,-0.21374998,0.72638935

>  <Name>
1o9m_lig

>  <RI>
0

>  <Rbt.Current_Directory>
/home/itssahil/PROJECTS/Mol_Feturizer/New_Systems/rnas/1o9m

>  <Rbt.Executable>
rbdock ($Id: //depot/dev/client3/rdock/2013.1/src/exe/rbdock.cxx#4 $)

>  <Rbt.Library>
libRbt.so (2013.1, Build901 2013/11/27)

>  <Rbt.Parameter_File>
/export/apps/rDock/src/rDock_2013.1_src/data/scripts/dock_solv.prm

>  <Rbt.Receptor>
prm/pocket_docking_3.prm

>  <SCORE>
-20.3263

>  <SCORE.INTER>
-14.0894

>  <SCORE.INTER.CONST>
1

>  <SCORE.INTER.POLAR>
-0.959166

>  <SCORE.INTER.ROT>
15

>  <SCORE.INTER.SOLV>
22.4162

>  <SCORE.INTER.VDW>
-27.2678

>  <SCORE.INTER.norm>
-0.380796

>  <SCORE.INTRA>
-6.23811

>  <SCORE.INTRA.DIHEDRAL>
-12.1915

>  <SCORE.INTRA.DIHEDRAL.0>
21.5987

>  <SCORE.INTRA.POLAR>
0

>  <SCORE.INTRA.POLAR.0>
0

>  <SCORE.INTRA.REPUL>
0

>  <SCORE.INTRA.REPUL.0>
0

>  <SCORE.INTRA.SOLV>
0.95451

>  <SCORE.INTRA.SOLV.lig_0>
-108.715

>  <SCORE.INTRA.VDW>
-0.619633

>  <SCORE.INTRA.VDW.0>
-3.9485

>  <SCORE.INTRA.norm>
-0.168597

>  <SCORE.RESTR>
0.00127834

>  <SCORE.RESTR.CAVITY>
0.00127834

>  <SCORE.RESTR.norm>
3.45496e-05

>  <SCORE.SYSTEM>
0

>  <SCORE.SYSTEM.CONST>
0

>  <SCORE.SYSTEM.DIHEDRAL>
0

>  <SCORE.SYSTEM.SOLV>
0

>  <SCORE.SYSTEM.norm>
0

>  <SCORE.heavy>
37

>  <SCORE.norm>
-0.549359

>  <RMSD>
1.694

$$$$
1o9m_lig
 OpenBabel11021811403D
libRbt.so/2013.1/901 2013/11/27
 37 38  0  0  0  0  0  0  0  0999 V2000
   -5.2734   13.9592    5.3902 C   0  0  2  0  0  0  0  0  0  0  0  0
   -5.8634   15.0292    4.5907 O   0  0  0  0  0  0  0  0  0  0  0  0
   -3.7156   14.0729    5.2040 C   0  0  2  0  0  0  0  0  0  0  0  0
   -3.1986   15.3856    5.6288 N   0  0  0  0  0  0  0  0  0  0  0  0
   -3.3558   13.7932    3.6953 C   0  0  1  0  0  0  0  0  0  0  0  0
   -1.9422   13.8892    3.5003 O   0  0  0  0  0  0  0  0  0  0  0  0
   -3.9107   12.3801    3.3173 C   0  0  2  0  0  0  0  0  0  0  0  0
   -3.6517   12.0273    1.9486 O   0  0  0  0  0  0  0  0  0  0  0  0
   -5.4363   12.3063    3.5727 C   0  0  2  0  0  0  0  0  0  0  0  0
   -5.7446   12.6474    4.9322 O   0  0  0  0  0  0  0  0  0  0  0  0
   -5.9865   10.9367    3.2694 C   0  0  0  0  0  0  0  0  0  0  0  0
   -7.3594   10.9502    3.3344 N   0  0  0  0  0  0  0  0  0  0  0  0
   -8.2513   18.5073    5.6013 C   0  0  1  0  0  0  0  0  0  0  0  0
   -9.3861   19.3267    6.1115 N   0  0  0  0  0  0  0  0  0  0  0  0
   -7.6962   17.6697    6.7453 C   0  0  2  0  0  0  0  0  0  0  0  0
   -7.3143   18.5400    7.7685 O   0  0  0  0  0  0  0  0  0  0  0  0
   -6.4895   16.8059    6.2602 C   0  0  1  0  0  0  0  0  0  0  0  0
   -5.9800   15.9915    7.3601 O   0  0  0  0  0  0  0  0  0  0  0  0
   -6.9597   15.8460    5.0926 C   0  0  1  0  0  0  0  0  0  0  0  0
   -7.4993   16.6725    3.9353 C   0  0  1  0  0  0  0  0  0  0  0  0
   -7.9114   15.7726    2.8685 N   0  0  0  0  0  0  0  0  0  0  0  0
   -8.6864   17.5461    4.4221 C   0  0  0  0  0  0  0  0  0  0  0  0
   -6.5500   19.5514    8.4610 C   0  0  0  0  0  0  0  0  0  0  0  0
   -7.2017   19.8419    9.7934 C   0  0  0  0  0  0  0  0  0  0  0  0
   -6.3675   20.6426   10.7131 N   0  0  0  0  0  0  0  0  0  0  0  0
   -5.2101   21.1523   11.4833 C   0  0  0  0  0  0  0  0  0  0  0  0
   -4.9208   22.3843   10.6163 C   0  0  0  0  0  0  0  0  0  0  0  0
   -4.3753   22.0068    9.2263 C   0  0  0  0  0  0  0  0  0  0  0  0
   -2.9329   21.5182    9.3166 C   0  0  0  0  0  0  0  0  0  0  0  0
   -2.8816   20.2350   10.0028 N   0  0  0  0  0  0  0  0  0  0  0  0
  -15.1767   18.5202    6.4735 N   0  0  0  0  0  0  0  0  0  0  0  0
  -10.8285   18.3338    6.3948 C   0  0  0  0  0  0  0  0  0  0  0  0
  -11.0646   17.2858    6.2938 O   0  0  0  0  0  0  0  0  0  0  0  0
  -11.5047   19.6206    6.8004 C   0  0  2  0  0  0  0  0  0  0  0  0
  -10.9549   20.1304    7.9492 O   0  0  0  0  0  0  0  0  0  0  0  0
  -12.9547   19.2758    7.1217 C   0  0  0  0  0  0  0  0  0  0  0  0
  -13.8124   18.7277    5.9668 C   0  0  0  0  0  0  0  0  0  0  0  0
  1  2  1  6  0  0  0
  1  3  1  0  0  0  0
  3  4  1  6  0  0  0
  3  5  1  0  0  0  0
  5  6  1  1  0  0  0
  5  7  1  0  0  0  0
  7  8  1  6  0  0  0
  9  7  1  0  0  0  0
  9 10  1  0  0  0  0
  9 11  1  1  0  0  0
 10  1  1  0  0  0  0
 11 12  1  0  0  0  0
 13 14  1  1  0  0  0
 13 15  1  0  0  0  0
 13 22  1  0  0  0  0
 14 32  1  0  0  0  0
 15 16  1  1  0  0  0
 15 17  1  0  0  0  0
 16 23  1  0  0  0  0
 17 18  1  1  0  0  0
 17 19  1  0  0  0  0
 19  2  1  6  0  0  0
 19 20  1  0  0  0  0
 20 21  1  6  0  0  0
 20 22  1  0  0  0  0
 23 24  1  0  0  0  0
 24 25  1  0  0  0  0
 25 26  1  0  0  0  0
 26 27  1  0  0  0  0
 27 28  1  0  0  0  0
 28 29  1  0  0  0  0
 29 30  1  0  0  0  0
 31 37  1  0  0  0  0
 32 33  2  0  0  0  0
 34 32  1  1  0  0  0
 34 35  1  0  0  0  0
 34 36  1  0  0  0  0
 36 37  1  0  0  0  0
M  END
>  <CHROM.1>
-137.06177441,-172.06411303,-73.52679236,-69.83565377,176.67076420,69.64509849
167.74186314,-43.87135142,102.57980798,-69.15229849,-73.22355771,68.54521391
-66.22970609,-63.06331656,-177.53498973,-6.96773334,16.99250665,6.25101519
-1.15407733,-0.16076711,0.66065815

>  <Name>
1o9m_lig

>  <RI>
0

>  <Rbt.Current_Directory>
/home/itssahil/PROJECTS/Mol_Feturizer/New_Systems/rnas/1o9m

>  <Rbt.Executable>
rbdock ($Id: //depot/dev/client3/rdock/2013.1/src/exe/rbdock.cxx#4 $)

>  <Rbt.Library>
libRbt.so (2013.1, Build901 2013/11/27)

>  <Rbt.Parameter_File>
/export/apps/rDock/src/rDock_2013.1_src/data/scripts/dock_solv.prm

>  <Rbt.Receptor>
prm/pocket_docking_2.prm

>  <SCORE>
-9.13054

>  <SCORE.INTER>
-8.45069

>  <SCORE.INTER.CONST>
1

>  <SCORE.INTER.POLAR>
-0.959166

>  <SCORE.INTER.ROT>
15

>  <SCORE.INTER.SOLV>
19.3079

>  <SCORE.INTER.VDW>
-22.4725

>  <SCORE.INTER.norm>
-0.228397

>  <SCORE.INTRA>
-2.03706

>  <SCORE.INTRA.DIHEDRAL>
-10.507

>  <SCORE.INTRA.DIHEDRAL.0>
21.5987

>  <SCORE.INTRA.POLAR>
0

>  <SCORE.INTRA.POLAR.0>
0

>  <SCORE.INTRA.REPUL>
0

>  <SCORE.INTRA.REPUL.0>
0

>  <SCORE.INTRA.SOLV>
3.86612

>  <SCORE.INTRA.SOLV.lig_0>
-108.715

>  <SCORE.INTRA.VDW>
1.28336

>  <SCORE.INTRA.VDW.0>
-3.9485

>  <SCORE.INTRA.norm>
-0.0550558

>  <SCORE.RESTR>
1.35721

>  <SCORE.RESTR.CAVITY>
1.35721

>  <SCORE.RESTR.norm>
0.0366815

>  <SCORE.SYSTEM>
0

>  <SCORE.SYSTEM.CONST>
0

>  <SCORE.SYSTEM.DIHEDRAL>
0

>  <SCORE.SYSTEM.SOLV>
0

>  <SCORE.SYSTEM.norm>
0

>  <SCORE.heavy>
37

>  <SCORE.norm>
-0.246771

>  <RMSD>
1.703

$$$$
1o9m_lig
 OpenBabel11021811403D
libRbt.so/2013.1/901 2013/11/27
 37 38  0  0  0  0  0  0  0  0999 V2000
   -4.7200   13.9985    5.0696 C   0  0  2  0  0  0  0  0  0  0  0  0
   -5.7054   14.8935    4.4695 O   0  0  0  0  0  0  0  0  0  0  0  0
   -3.3774   14.2235    4.2813 C   0  0  2  0  0  0  0  0  0  0  0  0
   -2.9196   15.6223    4.3496 N   0  0  0  0  0  0  0  0  0  0  0  0
   -3.5783   13.7746    2.7840 C   0  0  1  0  0  0  0  0  0  0  0  0
   -2.3688   13.9681    2.0456 O   0  0  0  0  0  0  0  0  0  0  0  0
   -4.0396   12.2797    2.7826 C   0  0  2  0  0  0  0  0  0  0  0  0
   -4.2704   11.7686    1.4596 O   0  0  0  0  0  0  0  0  0  0  0  0
   -5.3320   12.1063    3.6181 C   0  0  2  0  0  0  0  0  0  0  0  0
   -5.1483   12.6001    4.9530 O   0  0  0  0  0  0  0  0  0  0  0  0
   -5.7668   10.6649    3.6794 C   0  0  0  0  0  0  0  0  0  0  0  0
   -6.1496   10.2299    2.4330 N   0  0  0  0  0  0  0  0  0  0  0  0
   -8.7974   17.4049    6.1877 C   0  0  1  0  0  0  0  0  0  0  0  0
  -10.0357   17.8021    6.9146 N   0  0  0  0  0  0  0  0  0  0  0  0
   -7.8902   16.6412    7.1427 C   0  0  2  0  0  0  0  0  0  0  0  0
   -7.6295   17.4660    8.2391 O   0  0  0  0  0  0  0  0  0  0  0  0
   -6.5680   16.2196    6.4273 C   0  0  1  0  0  0  0  0  0  0  0  0
   -5.7163   15.4697    7.3465 O   0  0  0  0  0  0  0  0  0  0  0  0
   -6.9073   15.3001    5.1843 C   0  0  1  0  0  0  0  0  0  0  0  0
   -7.7985   16.0593    4.2131 C   0  0  1  0  0  0  0  0  0  0  0  0
   -8.0856   15.2025    3.0725 N   0  0  0  0  0  0  0  0  0  0  0  0
   -9.1045   16.4956    4.9297 C   0  0  0  0  0  0  0  0  0  0  0  0
   -7.0481   17.9037    9.4869 C   0  0  0  0  0  0  0  0  0  0  0  0
   -5.5414   17.8692    9.3726 C   0  0  0  0  0  0  0  0  0  0  0  0
   -4.8343   18.5043   10.5039 N   0  0  0  0  0  0  0  0  0  0  0  0
   -4.5270   19.0518   11.8448 C   0  0  0  0  0  0  0  0  0  0  0  0
   -5.0545   20.4723   11.6058 C   0  0  0  0  0  0  0  0  0  0  0  0
   -4.2009   21.2499   10.5865 C   0  0  0  0  0  0  0  0  0  0  0  0
   -4.8809   22.5544   10.1826 C   0  0  0  0  0  0  0  0  0  0  0  0
   -6.0968   22.2732    9.4325 N   0  0  0  0  0  0  0  0  0  0  0  0
  -14.5815   19.7542    8.4538 N   0  0  0  0  0  0  0  0  0  0  0  0
  -11.0425   18.8880    5.9379 C   0  0  0  0  0  0  0  0  0  0  0  0
  -10.9690   19.3113    4.9482 O   0  0  0  0  0  0  0  0  0  0  0  0
  -11.9718   18.9228    7.1264 C   0  0  2  0  0  0  0  0  0  0  0  0
  -13.0015   18.0284    6.9787 O   0  0  0  0  0  0  0  0  0  0  0  0
  -12.5974   20.3129    7.1579 C   0  0  0  0  0  0  0  0  0  0  0  0
  -13.4344   20.6719    8.3989 C   0  0  0  0  0  0  0  0  0  0  0  0
  1  2  1  6  0  0  0
  1  3  1  0  0  0  0
  3  4  1  6  0  0  0
  3  5  1  0  0  0  0
  5  6  1  6  0  0  0
  5  7  1  0  0  0  0
  7  8  1  6  0  0  0
  9  7  1  0  0  0  0
  9 10  1  0  0  0  0
  9 11  1  1  0  0  0
 10  1  1  0  0  0  0
 11 12  1  0  0  0  0
 13 14  1  1  0  0  0
 13 15  1  0  0  0  0
 13 22  1  0  0  0  0
 14 32  1  0  0  0  0
 15 16  1  1  0  0  0
 15 17  1  0  0  0  0
 16 23  1  0  0  0  0
 17 18  1  1  0  0  0
 17 19  1  0  0  0  0
 19  2  1  6  0  0  0
 19 20  1  0  0  0  0
 20 21  1  6  0  0  0
 20 22  1  0  0  0  0
 23 24  1  0  0  0  0
 24 25  1  0  0  0  0
 25 26  1  0  0  0  0
 26 27  1  0  0  0  0
 27 28  1  0  0  0  0
 28 29  1  0  0  0  0
 29 30  1  0  0  0  0
 31 37  1  0  0  0  0
 32 33  2  0  0  0  0
 34 32  1  6  0  0  0
 34 35  1  0  0  0  0
 34 36  1  0  0  0  0
 36 37  1  0  0  0  0
M  END
>  <CHROM.1>
-159.05683960,-66.36673211,172.08878761,-175.17246026,55.51421467,67.15957782
170.42220059,22.09599105,-88.20549964,-67.76976716,169.88976384,-66.95429140
-96.89023812,-171.42693183,-62.78688996,-7.06373473,16.63347214,6.30512595
-1.07247605,-0.21345180,0.77264370

>  <Name>
1o9m_lig

>  <RI>
0

>  <Rbt.Current_Directory>
/home/itssahil/PROJECTS/Mol_Feturizer/New_Systems/rnas/1o9m

>  <Rbt.Executable>
rbdock ($Id: //depot/dev/client3/rdock/2013.1/src/exe/rbdock.cxx#4 $)

>  <Rbt.Library>
libRbt.so (2013.1, Build901 2013/11/27)

>  <Rbt.Parameter_File>
/export/apps/rDock/src/rDock_2013.1_src/data/scripts/dock_solv.prm

>  <Rbt.Receptor>
prm/pocket_docking_2.prm

>  <SCORE>
-16.7905

>  <SCORE.INTER>
-12.1797

>  <SCORE.INTER.CONST>
1

>  <SCORE.INTER.POLAR>
-0.959166

>  <SCORE.INTER.ROT>
15

>  <SCORE.INTER.SOLV>
22.1288

>  <SCORE.INTER.VDW>
-25.8988

>  <SCORE.INTER.norm>
-0.329181

>  <SCORE.INTRA>
-5.08631

>  <SCORE.INTRA.DIHEDRAL>
-14.4014

>  <SCORE.INTRA.DIHEDRAL.0>
21.5987

>  <SCORE.INTRA.POLAR>
0

>  <SCORE.INTRA.POLAR.0>
0

>  <SCORE.INTRA.REPUL>
0

>  <SCORE.INTRA.REPUL.0>
0

>  <SCORE.INTRA.SOLV>
3.1233

>  <SCORE.INTRA.SOLV.lig_0>
-108.715

>  <SCORE.INTRA.VDW>
0.552716

>  <SCORE.INTRA.VDW.0>
-3.9485

>  <SCORE.INTRA.norm>
-0.137468

>  <SCORE.RESTR>
0.475477

>  <SCORE.RESTR.CAVITY>
0.475477

>  <SCORE.RESTR.norm>
0.0128507

>  <SCORE.SYSTEM>
0

>  <SCORE.SYSTEM.CONST>
0

>  <SCORE.SYSTEM.DIHEDRAL>
0

>  <SCORE.SYSTEM.SOLV>
0

>  <SCORE.SYSTEM.norm>
0

>  <SCORE.heavy>
37

>  <SCORE.norm>
-0.453798

>  <RMSD>
1.714

$$$$
1o9m_lig
 OpenBabel11021811403D
libRbt.so/2013.1/901 2013/11/27
 37 38  0  0  0  0  0  0  0  0999 V2000
   -5.2197   14.3099    5.9169 C   0  0  2  0  0  0  0  0  0  0  0  0
   -5.6240   15.5321    5.2279 O   0  0  0  0  0  0  0  0  0  0  0  0
   -3.6579   14.2070    5.7590 C   0  0  2  0  0  0  0  0  0  0  0  0
   -2.9631   15.3770    6.3240 N   0  0  0  0  0  0  0  0  0  0  0  0
   -3.3054   14.0317    4.2330 C   0  0  1  0  0  0  0  0  0  0  0  0
   -1.8886   13.9339    4.0632 O   0  0  0  0  0  0  0  0  0  0  0  0
   -4.0537   12.7639    3.7038 C   0  0  2  0  0  0  0  0  0  0  0  0
   -3.8152   12.5176    2.3083 O   0  0  0  0  0  0  0  0  0  0  0  0
   -5.5795   12.8942    3.9350 C   0  0  2  0  0  0  0  0  0  0  0  0
   -5.8682   13.1372    5.3195 O   0  0  0  0  0  0  0  0  0  0  0  0
   -6.3186   11.6607    3.4846 C   0  0  0  0  0  0  0  0  0  0  0  0
   -6.2833   11.5585    2.1144 N   0  0  0  0  0  0  0  0  0  0  0  0
   -8.0517   18.9923    6.2049 C   0  0  1  0  0  0  0  0  0  0  0  0
   -9.2096   19.8026    6.6762 N   0  0  0  0  0  0  0  0  0  0  0  0
   -7.5610   18.1214    7.3535 C   0  0  2  0  0  0  0  0  0  0  0  0
   -7.2316   18.9617    8.4191 O   0  0  0  0  0  0  0  0  0  0  0  0
   -6.3328   17.2656    6.9098 C   0  0  1  0  0  0  0  0  0  0  0  0
   -5.8853   16.4192    8.0125 O   0  0  0  0  0  0  0  0  0  0  0  0
   -6.7430   16.3399    5.6930 C   0  0  1  0  0  0  0  0  0  0  0  0
   -7.2175   17.2002    4.5316 C   0  0  1  0  0  0  0  0  0  0  0  0
   -7.5749   16.3315    3.4202 N   0  0  0  0  0  0  0  0  0  0  0  0
   -8.4262   18.0655    4.9783 C   0  0  0  0  0  0  0  0  0  0  0  0
   -7.3971   19.9709    9.4392 C   0  0  0  0  0  0  0  0  0  0  0  0
   -6.9535   21.3083    8.8921 C   0  0  0  0  0  0  0  0  0  0  0  0
   -5.4898   21.5090    8.8984 N   0  0  0  0  0  0  0  0  0  0  0  0
   -4.0359   21.2742    9.0514 C   0  0  0  0  0  0  0  0  0  0  0  0
   -4.1266   19.9147    9.7560 C   0  0  0  0  0  0  0  0  0  0  0  0
   -2.7393   19.3119   10.0459 C   0  0  0  0  0  0  0  0  0  0  0  0
   -2.2754   19.6558   11.4580 C   0  0  0  0  0  0  0  0  0  0  0  0
   -2.9367   18.7922   12.4260 N   0  0  0  0  0  0  0  0  0  0  0  0
  -12.5168   20.4760    4.4955 N   0  0  0  0  0  0  0  0  0  0  0  0
  -10.0271   19.0308    8.0483 C   0  0  0  0  0  0  0  0  0  0  0  0
   -9.8728   18.1275    8.6177 O   0  0  0  0  0  0  0  0  0  0  0  0
  -10.9859   20.1951    7.9952 C   0  0  2  0  0  0  0  0  0  0  0  0
  -11.7940   20.2245    9.1035 O   0  0  0  0  0  0  0  0  0  0  0  0
  -11.8954   19.9643    6.7934 C   0  0  0  0  0  0  0  0  0  0  0  0
  -11.8867   21.0439    5.6961 C   0  0  0  0  0  0  0  0  0  0  0  0
  1  2  1  6  0  0  0
  1  3  1  0  0  0  0
  3  4  1  6  0  0  0
  3  5  1  0  0  0  0
  5  6  1  1  0  0  0
  5  7  1  0  0  0  0
  7  8  1  6  0  0  0
  9  7  1  0  0  0  0
  9 10  1  0  0  0  0
  9 11  1  1  0  0  0
 10  1  1  0  0  0  0
 11 12  1  0  0  0  0
 13 14  1  1  0  0  0
 13 15  1  0  0  0  0
 13 22  1  0  0  0  0
 14 32  1  0  0  0  0
 15 16  1  1  0  0  0
 15 17  1  0  0  0  0
 16 23  1  0  0  0  0
 17 18  1  1  0  0  0
 17 19  1  0  0  0  0
 19  2  1  6  0  0  0
 19 20  1  0  0  0  0
 20 21  1  6  0  0  0
 20 22  1  0  0  0  0
 23 24  1  0  0  0  0
 24 25  1  0  0  0  0
 25 26  1  0  0  0  0
 26 27  1  0  0  0  0
 27 28  1  0  0  0  0
 28 29  1  0  0  0  0
 29 30  1  0  0  0  0
 31 37  1  0  0  0  0
 32 33  2  0  0  0  0
 34 32  1  1  0  0  0
 34 35  1  0  0  0  0
 34 36  1  0  0  0  0
 36 37  1  0  0  0  0
M  END
>  <CHROM.1>
-146.80270654,-69.28025838,-24.38887357,56.40460287,-93.14408374,79.77445728
-79.95339719,4.60873127,-8.92326627,178.10922127,94.69228086,78.44715525
-168.89949151,-120.35919427,164.71020584,-6.57886972,17.28740369,6.63770742
-1.06408427,-0.36343665,0.75052402

>  <Name>
1o9m_lig

>  <RI>
0

>  <Rbt.Current_Directory>
/home/itssahil/PROJECTS/Mol_Feturizer/New_Systems/rnas/1o9m

>  <Rbt.Executable>
rbdock ($Id: //depot/dev/client3/rdock/2013.1/src/exe/rbdock.cxx#4 $)

>  <Rbt.Library>
libRbt.so (2013.1, Build901 2013/11/27)

>  <Rbt.Parameter_File>
/export/apps/rDock/src/rDock_2013.1_src/data/scripts/dock_solv.prm

>  <Rbt.Receptor>
prm/pocket_docking_2.prm

>  <SCORE>
4.25194

>  <SCORE.INTER>
-3.39749

>  <SCORE.INTER.CONST>
1

>  <SCORE.INTER.POLAR>
-0.88462

>  <SCORE.INTER.ROT>
15

>  <SCORE.INTER.SOLV>
12.7498

>  <SCORE.INTER.VDW>
-17.1662

>  <SCORE.INTER.norm>
-0.0918239

>  <SCORE.INTRA>
5.90431

>  <SCORE.INTRA.DIHEDRAL>
5.42949

>  <SCORE.INTRA.DIHEDRAL.0>
21.5987

>  <SCORE.INTRA.POLAR>
0

>  <SCORE.INTRA.POLAR.0>
0

>  <SCORE.INTRA.REPUL>
0

>  <SCORE.INTRA.REPUL.0>
0

>  <SCORE.INTRA.SOLV>
2.95382

>  <SCORE.INTRA.SOLV.lig_0>
-108.715

>  <SCORE.INTRA.VDW>
1.71266

>  <SCORE.INTRA.VDW.0>
-3.9485

>  <SCORE.INTRA.norm>
0.159576

>  <SCORE.RESTR>
1.74512

>  <SCORE.RESTR.CAVITY>
1.74512

>  <SCORE.RESTR.norm>
0.0471654

>  <SCORE.SYSTEM>
0

>  <SCORE.SYSTEM.CONST>
0

>  <SCORE.SYSTEM.DIHEDRAL>
0

>  <SCORE.SYSTEM.SOLV>
0

>  <SCORE.SYSTEM.norm>
0

>  <SCORE.heavy>
37

>  <SCORE.norm>
0.114917

>  <RMSD>
1.720

$$$$
1o9m_lig
 OpenBabel11021811403D
libRbt.so/2013.1/901 2013/11/27
 37 38  0  0  0  0  0  0  0  0999 V2000
   -4.1093   14.7356    5.8808 C   0  0  2  0  0  0  0  0  0  0  0  0
   -4.7012   15.8629    5.1658 O   0  0  0  0  0  0  0  0  0  0  0  0
   -2.5634   14.7907    5.5950 C   0  0  2  0  0  0  0  0  0  0  0  0
   -1.9607   16.0609    6.0360 N   0  0  0  0  0  0  0  0  0  0  0  0
   -2.3161   14.5604    4.0557 C   0  0  1  0  0  0  0  0  0  0  0  0
   -0.9153   14.6043    3.7702 O   0  0  0  0  0  0  0  0  0  0  0  0
   -2.9580   13.1897    3.6600 C   0  0  2  0  0  0  0  0  0  0  0  0
   -2.8053   12.8848    2.2641 O   0  0  0  0  0  0  0  0  0  0  0  0
   -4.4655   13.1702    4.0142 C   0  0  2  0  0  0  0  0  0  0  0  0
   -4.6684   13.4658    5.4038 O   0  0  0  0  0  0  0  0  0  0  0  0
   -5.0958   11.8394    3.6944 C   0  0  0  0  0  0  0  0  0  0  0  0
   -5.1304   11.6437    2.3344 N   0  0  0  0  0  0  0  0  0  0  0  0
   -7.6565   18.7114    6.5703 C   0  0  1  0  0  0  0  0  0  0  0  0
   -8.9756   19.2827    6.9616 N   0  0  0  0  0  0  0  0  0  0  0  0
   -7.3671   17.4986    7.4442 C   0  0  2  0  0  0  0  0  0  0  0  0
   -7.4001   17.9125    8.7776 O   0  0  0  0  0  0  0  0  0  0  0  0
   -5.9820   16.8761    7.0812 C   0  0  1  0  0  0  0  0  0  0  0  0
   -5.7258   15.7018    7.9105 O   0  0  0  0  0  0  0  0  0  0  0  0
   -5.9809   16.4347    5.5610 C   0  0  1  0  0  0  0  0  0  0  0  0
   -6.2504   17.6423    4.6762 C   0  0  1  0  0  0  0  0  0  0  0  0
   -6.2302   17.2177    3.2845 N   0  0  0  0  0  0  0  0  0  0  0  0
   -7.6185   18.2729    5.0504 C   0  0  0  0  0  0  0  0  0  0  0  0
   -7.8121   18.6511    9.9485 C   0  0  0  0  0  0  0  0  0  0  0  0
   -7.2715   20.0600    9.8635 C   0  0  0  0  0  0  0  0  0  0  0  0
   -5.9903   20.2600   10.5716 N   0  0  0  0  0  0  0  0  0  0  0  0
   -4.5442   20.2826   10.8890 C   0  0  0  0  0  0  0  0  0  0  0  0
   -4.5470   19.1403   11.9128 C   0  0  0  0  0  0  0  0  0  0  0  0
   -3.2405   19.0801   12.7263 C   0  0  0  0  0  0  0  0  0  0  0  0
   -2.2205   18.1622   12.0597 C   0  0  0  0  0  0  0  0  0  0  0  0
   -1.7433   18.7607   10.8210 N   0  0  0  0  0  0  0  0  0  0  0  0
  -14.4623   19.1622    4.9220 N   0  0  0  0  0  0  0  0  0  0  0  0
  -10.3180   18.3282    6.3033 C   0  0  0  0  0  0  0  0  0  0  0  0
  -10.3960   17.4356    5.7023 O   0  0  0  0  0  0  0  0  0  0  0  0
  -11.2217   19.3462    6.9549 C   0  0  2  0  0  0  0  0  0  0  0  0
  -11.8484   18.8216    8.0568 O   0  0  0  0  0  0  0  0  0  0  0  0
  -12.3137   19.6791    5.9443 C   0  0  0  0  0  0  0  0  0  0  0  0
  -13.3048   18.5544    5.5942 C   0  0  0  0  0  0  0  0  0  0  0  0
  1  2  1  6  0  0  0
  1  3  1  0  0  0  0
  3  4  1  6  0  0  0
  3  5  1  0  0  0  0
  5  6  1  1  0  0  0
  5  7  1  0  0  0  0
  7  8  1  6  0  0  0
  9  7  1  0  0  0  0
  9 10  1  0  0  0  0
  9 11  1  1  0  0  0
 10  1  1  0  0  0  0
 11 12  1  0  0  0  0
 13 14  1  1  0  0  0
 13 15  1  0  0  0  0
 13 22  1  0  0  0  0
 14 32  1  0  0  0  0
 15 16  1  1  0  0  0
 15 17  1  0  0  0  0
 16 23  1  0  0  0  0
 17 18  1  1  0  0  0
 17 19  1  0  0  0  0
 19  2  1  6  0  0  0
 19 20  1  0  0  0  0
 20 21  1  6  0  0  0
 20 22  1  0  0  0  0
 23 24  1  0  0  0  0
 24 25  1  0  0  0  0
 25 26  1  0  0  0  0
 26 27  1  0  0  0  0
 27 28  1  0  0  0  0
 28 29  1  0  0  0  0
 29 30  1  0  0  0  0
 31 37  1  0  0  0  0
 32 33  2  0  0  0  0
 34 32  1  6  0  0  0
 34 35  1  0  0  0  0
 34 36  1  0  0  0  0
 36 37  1  0  0  0  0
M  END
>  <CHROM.1>
-156.94871466,-67.89230491,-77.54023836,34.74401415,-74.26997136,55.27746342
-95.04114873,82.17410991,-107.95105304,-166.46677733,-91.22439528,69.20690551
-107.44709790,66.77357409,164.55102724,-6.26680698,16.95426854,6.68864112
0.66380446,0.32286066,-2.19081098

>  <Name>
1o9m_lig

>  <RI>
0

>  <Rbt.Current_Directory>
/home/itssahil/PROJECTS/Mol_Feturizer/New_Systems/rnas/1o9m

>  <Rbt.Executable>
rbdock ($Id: //depot/dev/client3/rdock/2013.1/src/exe/rbdock.cxx#4 $)

>  <Rbt.Library>
libRbt.so (2013.1, Build901 2013/11/27)

>  <Rbt.Parameter_File>
/export/apps/rDock/src/rDock_2013.1_src/data/scripts/dock_solv.prm

>  <Rbt.Receptor>
prm/pocket_docking_3.prm

>  <SCORE>
-10.3689

>  <SCORE.INTER>
-10.7474

>  <SCORE.INTER.CONST>
1

>  <SCORE.INTER.POLAR>
-1.83095

>  <SCORE.INTER.ROT>
15

>  <SCORE.INTER.SOLV>
12.3432

>  <SCORE.INTER.VDW>
-18.7762

>  <SCORE.INTER.norm>
-0.290469

>  <SCORE.INTRA>
0.378459

>  <SCORE.INTRA.DIHEDRAL>
-2.71033

>  <SCORE.INTRA.DIHEDRAL.0>
21.5987

>  <SCORE.INTRA.POLAR>
0

>  <SCORE.INTRA.POLAR.0>
0

>  <SCORE.INTRA.REPUL>
0

>  <SCORE.INTRA.REPUL.0>
0

>  <SCORE.INTRA.SOLV>
1.82402

>  <SCORE.INTRA.SOLV.lig_0>
-108.715

>  <SCORE.INTRA.VDW>
0.821616

>  <SCORE.INTRA.VDW.0>
-3.9485

>  <SCORE.INTRA.norm>
0.0102286

>  <SCORE.RESTR>
0

>  <SCORE.RESTR.CAVITY>
0

>  <SCORE.RESTR.norm>
0

>  <SCORE.SYSTEM>
0

>  <SCORE.SYSTEM.CONST>
0

>  <SCORE.SYSTEM.DIHEDRAL>
0

>  <SCORE.SYSTEM.SOLV>
0

>  <SCORE.SYSTEM.norm>
0

>  <SCORE.heavy>
37

>  <SCORE.norm>
-0.280241

>  <RMSD>
1.749

$$$$
1o9m_lig
 OpenBabel11021811403D
libRbt.so/2013.1/901 2013/11/27
 37 38  0  0  0  0  0  0  0  0999 V2000
   -4.0822   14.3490    5.8556 C   0  0  2  0  0  0  0  0  0  0  0  0
   -4.6482   15.6297    5.4413 O   0  0  0  0  0  0  0  0  0  0  0  0
   -2.5551   14.3964    5.4811 C   0  0  2  0  0  0  0  0  0  0  0  0
   -1.8547   15.5126    6.1403 N   0  0  0  0  0  0  0  0  0  0  0  0
   -2.4122   14.4953    3.9147 C   0  0  1  0  0  0  0  0  0  0  0  0
   -1.0304   14.5380    3.5481 O   0  0  0  0  0  0  0  0  0  0  0  0
   -3.1549   13.2729    3.2808 C   0  0  2  0  0  0  0  0  0  0  0  0
   -3.1023   13.2720    1.8448 O   0  0  0  0  0  0  0  0  0  0  0  0
   -4.6376   13.2436    3.7270 C   0  0  2  0  0  0  0  0  0  0  0  0
   -4.7413   13.2391    5.1583 O   0  0  0  0  0  0  0  0  0  0  0  0
   -5.3621   12.0433    3.1748 C   0  0  0  0  0  0  0  0  0  0  0  0
   -6.7086   12.1394    3.4337 N   0  0  0  0  0  0  0  0  0  0  0  0
   -7.5908   18.1124    7.4407 C   0  0  1  0  0  0  0  0  0  0  0  0
   -8.9072   18.5887    7.9506 N   0  0  0  0  0  0  0  0  0  0  0  0
   -7.3043   16.7372    8.0283 C   0  0  2  0  0  0  0  0  0  0  0  0
   -7.3334   16.8504    9.4199 O   0  0  0  0  0  0  0  0  0  0  0  0
   -5.9221   16.2047    7.5348 C   0  0  1  0  0  0  0  0  0  0  0  0
   -5.6687   14.8769    8.0873 O   0  0  0  0  0  0  0  0  0  0  0  0
   -5.9252   16.1055    5.9549 C   0  0  1  0  0  0  0  0  0  0  0  0
   -6.1919   17.4779    5.3556 C   0  0  1  0  0  0  0  0  0  0  0  0
   -6.1757   17.3670    3.9047 N   0  0  0  0  0  0  0  0  0  0  0  0
   -7.5571   18.0160    5.8617 C   0  0  0  0  0  0  0  0  0  0  0  0
   -7.5834   17.4307   10.7189 C   0  0  0  0  0  0  0  0  0  0  0  0
   -6.4566   18.3763   11.0663 C   0  0  0  0  0  0  0  0  0  0  0  0
   -5.2331   17.7062   11.5532 N   0  0  0  0  0  0  0  0  0  0  0  0
   -3.8241   17.2731   11.6924 C   0  0  0  0  0  0  0  0  0  0  0  0
   -3.3706   18.3766   12.6565 C   0  0  0  0  0  0  0  0  0  0  0  0
   -2.6069   19.5045   11.9376 C   0  0  0  0  0  0  0  0  0  0  0  0
   -1.2705   19.0050   11.3974 C   0  0  0  0  0  0  0  0  0  0  0  0
   -0.5802   20.0801   10.6988 N   0  0  0  0  0  0  0  0  0  0  0  0
  -13.7949   22.1993    7.5316 N   0  0  0  0  0  0  0  0  0  0  0  0
   -9.6151   19.8119    6.8785 C   0  0  0  0  0  0  0  0  0  0  0  0
   -9.3194   20.2747    5.9499 O   0  0  0  0  0  0  0  0  0  0  0  0
  -10.7475   19.8759    7.8742 C   0  0  2  0  0  0  0  0  0  0  0  0
  -11.4464   18.6959    7.9086 O   0  0  0  0  0  0  0  0  0  0  0  0
  -11.7135   20.9455    7.3768 C   0  0  0  0  0  0  0  0  0  0  0  0
  -12.9898   21.1715    8.2073 C   0  0  0  0  0  0  0  0  0  0  0  0
  1  2  1  6  0  0  0
  1  3  1  0  0  0  0
  3  4  1  1  0  0  0
  3  5  1  0  0  0  0
  5  6  1  1  0  0  0
  5  7  1  0  0  0  0
  7  8  1  6  0  0  0
  9  7  1  0  0  0  0
  9 10  1  0  0  0  0
  9 11  1  6  0  0  0
 10  1  1  0  0  0  0
 11 12  1  0  0  0  0
 13 14  1  6  0  0  0
 13 15  1  0  0  0  0
 13 22  1  0  0  0  0
 14 32  1  0  0  0  0
 15 16  1  1  0  0  0
 15 17  1  0  0  0  0
 16 23  1  0  0  0  0
 17 18  1  1  0  0  0
 17 19  1  0  0  0  0
 19  2  1  6  0  0  0
 19 20  1  0  0  0  0
 20 21  1  6  0  0  0
 20 22  1  0  0  0  0
 23 24  1  0  0  0  0
 24 25  1  0  0  0  0
 25 26  1  0  0  0  0
 26 27  1  0  0  0  0
 27 28  1  0  0  0  0
 28 29  1  0  0  0  0
 29 30  1  0  0  0  0
 31 37  1  0  0  0  0
 32 33  2  0  0  0  0
 34 32  1  6  0  0  0
 34 35  1  0  0  0  0
 34 36  1  0  0  0  0
 36 37  1  0  0  0  0
M  END
>  <CHROM.1>
-162.23171490,-171.83175241,-157.36338188,13.33251354,-82.85157037,57.51356285
-79.03536939,124.43788449,90.37163207,-100.32478285,-67.09005476,178.82064678
-65.90765151,178.09606437,-177.97659684,-6.03201274,16.93239724,7.12607932
0.76064875,0.37586246,-2.15848789

>  <Name>
1o9m_lig

>  <RI>
0

>  <Rbt.Current_Directory>
/home/itssahil/PROJECTS/Mol_Feturizer/New_Systems/rnas/1o9m

>  <Rbt.Executable>
rbdock ($Id: //depot/dev/client3/rdock/2013.1/src/exe/rbdock.cxx#4 $)

>  <Rbt.Library>
libRbt.so (2013.1, Build901 2013/11/27)

>  <Rbt.Parameter_File>
/export/apps/rDock/src/rDock_2013.1_src/data/scripts/dock_solv.prm

>  <Rbt.Receptor>
prm/pocket_docking_3.prm

>  <SCORE>
-13.2637

>  <SCORE.INTER>
-13.4259

>  <SCORE.INTER.CONST>
1

>  <SCORE.INTER.POLAR>
-1.89535

>  <SCORE.INTER.ROT>
15

>  <SCORE.INTER.SOLV>
14.643

>  <SCORE.INTER.VDW>
-21.1137

>  <SCORE.INTER.norm>
-0.362861

>  <SCORE.INTRA>
0.162187

>  <SCORE.INTRA.DIHEDRAL>
-2.56575

>  <SCORE.INTRA.DIHEDRAL.0>
21.5987

>  <SCORE.INTRA.POLAR>
0

>  <SCORE.INTRA.POLAR.0>
0

>  <SCORE.INTRA.REPUL>
0

>  <SCORE.INTRA.REPUL.0>
0

>  <SCORE.INTRA.SOLV>
-1.04127

>  <SCORE.INTRA.SOLV.lig_0>
-108.715

>  <SCORE.INTRA.VDW>
1.9657

>  <SCORE.INTRA.VDW.0>
-3.9485

>  <SCORE.INTRA.norm>
0.00438343

>  <SCORE.RESTR>
0

>  <SCORE.RESTR.CAVITY>
0

>  <SCORE.RESTR.norm>
0

>  <SCORE.SYSTEM>
0

>  <SCORE.SYSTEM.CONST>
0

>  <SCORE.SYSTEM.DIHEDRAL>
0

>  <SCORE.SYSTEM.SOLV>
0

>  <SCORE.SYSTEM.norm>
0

>  <SCORE.heavy>
37

>  <SCORE.norm>
-0.358477

>  <RMSD>
1.781

$$$$
1o9m_lig
 OpenBabel11021811403D
libRbt.so/2013.1/901 2013/11/27
 37 38  0  0  0  0  0  0  0  0999 V2000
   -4.6809   13.9580    4.9906 C   0  0  2  0  0  0  0  0  0  0  0  0
   -5.6176   14.8787    4.3526 O   0  0  0  0  0  0  0  0  0  0  0  0
   -3.3089   14.1296    4.2404 C   0  0  2  0  0  0  0  0  0  0  0  0
   -2.8065   15.5130    4.3083 N   0  0  0  0  0  0  0  0  0  0  0  0
   -3.4808   13.6713    2.7423 C   0  0  1  0  0  0  0  0  0  0  0  0
   -2.2443   13.8163    2.0382 O   0  0  0  0  0  0  0  0  0  0  0  0
   -3.9919   12.1927    2.7420 C   0  0  2  0  0  0  0  0  0  0  0  0
   -4.2008   11.6752    1.4178 O   0  0  0  0  0  0  0  0  0  0  0  0
   -5.3133   12.0716    3.5404 C   0  0  2  0  0  0  0  0  0  0  0  0
   -5.1524   12.5735    4.8752 O   0  0  0  0  0  0  0  0  0  0  0  0
   -5.7979   10.6462    3.6030 C   0  0  0  0  0  0  0  0  0  0  0  0
   -6.3640   10.2829    2.4043 N   0  0  0  0  0  0  0  0  0  0  0  0
   -9.1653   17.0192    5.6382 C   0  0  1  0  0  0  0  0  0  0  0  0
  -10.5173   17.2731    6.2102 N   0  0  0  0  0  0  0  0  0  0  0  0
   -8.2878   16.3891    6.7112 C   0  0  2  0  0  0  0  0  0  0  0  0
   -8.2553   17.2579    7.8040 O   0  0  0  0  0  0  0  0  0  0  0  0
   -6.8515   16.1214    6.1608 C   0  0  1  0  0  0  0  0  0  0  0  0
   -6.0264   15.4975    7.1915 O   0  0  0  0  0  0  0  0  0  0  0  0
   -6.9335   15.1464    4.9164 C   0  0  1  0  0  0  0  0  0  0  0  0
   -7.7927   15.7737    3.8292 C   0  0  1  0  0  0  0  0  0  0  0  0
   -7.8424   14.8690    2.6905 N   0  0  0  0  0  0  0  0  0  0  0  0
   -9.2150   16.0580    4.3823 C   0  0  0  0  0  0  0  0  0  0  0  0
   -8.0162   17.7174    9.1524 C   0  0  0  0  0  0  0  0  0  0  0  0
   -8.2247   19.2132    9.2124 C   0  0  0  0  0  0  0  0  0  0  0  0
   -7.1777   19.9978    8.5261 N   0  0  0  0  0  0  0  0  0  0  0  0
   -6.1932   21.0559    8.2040 C   0  0  0  0  0  0  0  0  0  0  0  0
   -5.0555   20.5488    9.0991 C   0  0  0  0  0  0  0  0  0  0  0  0
   -5.2710   20.9100   10.5807 C   0  0  0  0  0  0  0  0  0  0  0  0
   -4.9769   22.3853   10.8346 C   0  0  0  0  0  0  0  0  0  0  0  0
   -3.5901   22.6828   10.5053 N   0  0  0  0  0  0  0  0  0  0  0  0
  -10.7008   20.6642    6.4907 N   0  0  0  0  0  0  0  0  0  0  0  0
  -11.5029   18.2752    5.1280 C   0  0  0  0  0  0  0  0  0  0  0  0
  -11.3527   18.7268    4.1597 O   0  0  0  0  0  0  0  0  0  0  0  0
  -12.5693   18.1888    6.1925 C   0  0  2  0  0  0  0  0  0  0  0  0
  -13.7264   17.6460    5.6941 O   0  0  0  0  0  0  0  0  0  0  0  0
  -12.8968   19.6191    6.6069 C   0  0  0  0  0  0  0  0  0  0  0  0
  -11.8187   20.3780    7.4015 C   0  0  0  0  0  0  0  0  0  0  0  0
  1  2  1  6  0  0  0
  1  3  1  0  0  0  0
  3  4  1  6  0  0  0
  3  5  1  0  0  0  0
  5  6  1  6  0  0  0
  5  7  1  0  0  0  0
  7  8  1  6  0  0  0
  9  7  1  0  0  0  0
  9 10  1  0  0  0  0
  9 11  1  1  0  0  0
 10  1  1  0  0  0  0
 11 12  1  0  0  0  0
 13 14  1  1  0  0  0
 13 15  1  0  0  0  0
 13 22  1  0  0  0  0
 14 32  1  0  0  0  0
 15 16  1  1  0  0  0
 15 17  1  0  0  0  0
 16 23  1  0  0  0  0
 17 18  1  1  0  0  0
 17 19  1  0  0  0  0
 19  2  1  6  0  0  0
 19 20  1  0  0  0  0
 20 21  1  6  0  0  0
 20 22  1  0  0  0  0
 23 24  1  0  0  0  0
 24 25  1  0  0  0  0
 25 26  1  0  0  0  0
 26 27  1  0  0  0  0
 27 28  1  0  0  0  0
 28 29  1  0  0  0  0
 29 30  1  0  0  0  0
 31 37  1  0  0  0  0
 32 33  2  0  0  0  0
 34 32  1  6  0  0  0
 34 35  1  0  0  0  0
 34 36  1  0  0  0  0
 36 37  1  0  0  0  0
M  END
>  <CHROM.1>
-170.29210897,-76.35846976,169.39688646,166.68097485,170.38147522,76.56857555
-70.88617696,-140.84740694,81.55269605,-78.42226970,-75.47526119,-60.87211133
-121.95861955,-70.12933293,70.09253915,-7.20670878,16.60418693,5.79180988
-1.12701761,-0.17052067,0.67593681

>  <Name>
1o9m_lig

>  <RI>
0

>  <Rbt.Current_Directory>
/home/itssahil/PROJECTS/Mol_Feturizer/New_Systems/rnas/1o9m

>  <Rbt.Executable>
rbdock ($Id: //depot/dev/client3/rdock/2013.1/src/exe/rbdock.cxx#4 $)

>  <Rbt.Library>
libRbt.so (2013.1, Build901 2013/11/27)

>  <Rbt.Parameter_File>
/export/apps/rDock/src/rDock_2013.1_src/data/scripts/dock_solv.prm

>  <Rbt.Receptor>
prm/pocket_docking_3.prm

>  <SCORE>
-18.5339

>  <SCORE.INTER>
-15.288

>  <SCORE.INTER.CONST>
1

>  <SCORE.INTER.POLAR>
-0.959166

>  <SCORE.INTER.ROT>
15

>  <SCORE.INTER.SOLV>
21.8317

>  <SCORE.INTER.VDW>
-27.872

>  <SCORE.INTER.norm>
-0.41319

>  <SCORE.INTRA>
-3.2459

>  <SCORE.INTRA.DIHEDRAL>
-10.6146

>  <SCORE.INTRA.DIHEDRAL.0>
21.5987

>  <SCORE.INTRA.POLAR>
0

>  <SCORE.INTRA.POLAR.0>
0

>  <SCORE.INTRA.REPUL>
0

>  <SCORE.INTRA.REPUL.0>
0

>  <SCORE.INTRA.SOLV>
5.7175

>  <SCORE.INTRA.SOLV.lig_0>
-108.715

>  <SCORE.INTRA.VDW>
-0.797333

>  <SCORE.INTRA.VDW.0>
-3.9485

>  <SCORE.INTRA.norm>
-0.087727

>  <SCORE.RESTR>
0

>  <SCORE.RESTR.CAVITY>
0

>  <SCORE.RESTR.norm>
0

>  <SCORE.SYSTEM>
0

>  <SCORE.SYSTEM.CONST>
0

>  <SCORE.SYSTEM.DIHEDRAL>
0

>  <SCORE.SYSTEM.SOLV>
0

>  <SCORE.SYSTEM.norm>
0

>  <SCORE.heavy>
37

>  <SCORE.norm>
-0.500917

>  <RMSD>
1.796

$$$$
1o9m_lig
 OpenBabel11021811403D
libRbt.so/2013.1/901 2013/11/27
 37 38  0  0  0  0  0  0  0  0999 V2000
   -4.4086   14.0617    5.6859 C   0  0  2  0  0  0  0  0  0  0  0  0
   -4.9741   15.3392    5.2612 O   0  0  0  0  0  0  0  0  0  0  0  0
   -2.8984   14.0762    5.2457 C   0  0  2  0  0  0  0  0  0  0  0  0
   -2.1550   15.1989    5.8439 N   0  0  0  0  0  0  0  0  0  0  0  0
   -2.8214   14.1311    3.6725 C   0  0  1  0  0  0  0  0  0  0  0  0
   -1.4561   14.1434    3.2466 O   0  0  0  0  0  0  0  0  0  0  0  0
   -3.6074   12.9036    3.1043 C   0  0  2  0  0  0  0  0  0  0  0  0
   -3.6164   12.8637    1.6679 O   0  0  0  0  0  0  0  0  0  0  0  0
   -5.0699   12.9084    3.6136 C   0  0  2  0  0  0  0  0  0  0  0  0
   -5.1122   12.9436    5.0476 O   0  0  0  0  0  0  0  0  0  0  0  0
   -5.8339   11.7048    3.1255 C   0  0  0  0  0  0  0  0  0  0  0  0
   -7.1844   11.8989    3.2917 N   0  0  0  0  0  0  0  0  0  0  0  0
   -7.8047   17.9578    7.2489 C   0  0  1  0  0  0  0  0  0  0  0  0
   -9.0900   18.4674    7.8036 N   0  0  0  0  0  0  0  0  0  0  0  0
   -7.4707   16.6324    7.9198 C   0  0  2  0  0  0  0  0  0  0  0  0
   -7.4131   16.8512    9.2979 O   0  0  0  0  0  0  0  0  0  0  0  0
   -6.1181   16.0681    7.3815 C   0  0  1  0  0  0  0  0  0  0  0  0
   -5.8198   14.7871    8.0160 O   0  0  0  0  0  0  0  0  0  0  0  0
   -6.2200   15.8487    5.8171 C   0  0  1  0  0  0  0  0  0  0  0  0
   -6.5348   17.1706    5.1335 C   0  0  1  0  0  0  0  0  0  0  0  0
   -6.6090   16.9495    3.6971 N   0  0  0  0  0  0  0  0  0  0  0  0
   -7.8696   17.7414    5.6828 C   0  0  0  0  0  0  0  0  0  0  0  0
   -6.8832   17.2748   10.5731 C   0  0  0  0  0  0  0  0  0  0  0  0
   -6.5106   18.7376   10.4956 C   0  0  0  0  0  0  0  0  0  0  0  0
   -5.5404   19.1699   11.5226 N   0  0  0  0  0  0  0  0  0  0  0  0
   -4.5841   19.9891   12.3017 C   0  0  0  0  0  0  0  0  0  0  0  0
   -3.3824   19.8424   11.3596 C   0  0  0  0  0  0  0  0  0  0  0  0
   -3.6345   20.4884    9.9843 C   0  0  0  0  0  0  0  0  0  0  0  0
   -3.7743   22.0026   10.1063 C   0  0  0  0  0  0  0  0  0  0  0  0
   -2.4855   22.5997   10.4266 N   0  0  0  0  0  0  0  0  0  0  0  0
  -10.5132   22.4404    6.2212 N   0  0  0  0  0  0  0  0  0  0  0  0
   -9.9065   19.5510    6.6608 C   0  0  0  0  0  0  0  0  0  0  0  0
   -9.6932   19.9111    5.6664 O   0  0  0  0  0  0  0  0  0  0  0  0
  -10.9618   19.7085    7.7282 C   0  0  2  0  0  0  0  0  0  0  0  0
  -11.6662   18.5448    7.9063 O   0  0  0  0  0  0  0  0  0  0  0  0
  -11.9529   20.7496    7.2198 C   0  0  0  0  0  0  0  0  0  0  0  0
  -11.5085   22.2222    7.2810 C   0  0  0  0  0  0  0  0  0  0  0  0
  1  2  1  6  0  0  0
  1  3  1  0  0  0  0
  3  4  1  1  0  0  0
  3  5  1  0  0  0  0
  5  6  1  1  0  0  0
  5  7  1  0  0  0  0
  7  8  1  6  0  0  0
  9  7  1  0  0  0  0
  9 10  1  0  0  0  0
  9 11  1  1  0  0  0
 10  1  1  0  0  0  0
 11 12  1  0  0  0  0
 13 14  1  1  0  0  0
 13 15  1  0  0  0  0
 13 22  1  0  0  0  0
 14 32  1  0  0  0  0
 15 16  1  1  0  0  0
 15 17  1  0  0  0  0
 16 23  1  0  0  0  0
 17 18  1  1  0  0  0
 17 19  1  0  0  0  0
 19  2  1  6  0  0  0
 19 20  1  0  0  0  0
 20 21  1  6  0  0  0
 20 22  1  0  0  0  0
 23 24  1  0  0  0  0
 24 25  1  0  0  0  0
 25 26  1  0  0  0  0
 26 27  1  0  0  0  0
 27 28  1  0  0  0  0
 28 29  1  0  0  0  0
 29 30  1  0  0  0  0
 31 37  1  0  0  0  0
 32 33  2  0  0  0  0
 34 32  1  6  0  0  0
 34 35  1  0  0  0  0
 34 36  1  0  0  0  0
 36 37  1  0  0  0  0
M  END
>  <CHROM.1>
-162.11923543,-164.53337068,-155.01702789,-77.84680320,55.09680706,60.71915999
-159.25093015,172.96334830,-77.84889538,64.63658362,65.88622161,70.46506861
-68.54646485,-76.10005725,73.70776850,-6.29362379,17.11095130,6.81050703
-1.13200457,-0.32990402,0.78392823

>  <Name>
1o9m_lig

>  <RI>
0

>  <Rbt.Current_Directory>
/home/itssahil/PROJECTS/Mol_Feturizer/New_Systems/rnas/1o9m

>  <Rbt.Executable>
rbdock ($Id: //depot/dev/client3/rdock/2013.1/src/exe/rbdock.cxx#4 $)

>  <Rbt.Library>
libRbt.so (2013.1, Build901 2013/11/27)

>  <Rbt.Parameter_File>
/export/apps/rDock/src/rDock_2013.1_src/data/scripts/dock_solv.prm

>  <Rbt.Receptor>
prm/pocket_docking_4.prm

>  <SCORE>
-15.2188

>  <SCORE.INTER>
-13.0668

>  <SCORE.INTER.CONST>
1

>  <SCORE.INTER.POLAR>
-1.90972

>  <SCORE.INTER.ROT>
15

>  <SCORE.INTER.SOLV>
21.55

>  <SCORE.INTER.VDW>
-23.1288

>  <SCORE.INTER.norm>
-0.353156

>  <SCORE.INTRA>
-2.15207

>  <SCORE.INTRA.DIHEDRAL>
-12.5083

>  <SCORE.INTRA.DIHEDRAL.0>
21.5987

>  <SCORE.INTRA.POLAR>
0

>  <SCORE.INTRA.POLAR.0>
0

>  <SCORE.INTRA.REPUL>
0

>  <SCORE.INTRA.REPUL.0>
0

>  <SCORE.INTRA.SOLV>
3.0155

>  <SCORE.INTRA.SOLV.lig_0>
-108.715

>  <SCORE.INTRA.VDW>
2.59432

>  <SCORE.INTRA.VDW.0>
-3.9485

>  <SCORE.INTRA.norm>
-0.058164

>  <SCORE.RESTR>
0

>  <SCORE.RESTR.CAVITY>
0

>  <SCORE.RESTR.norm>
0

>  <SCORE.SYSTEM>
0

>  <SCORE.SYSTEM.CONST>
0

>  <SCORE.SYSTEM.DIHEDRAL>
0

>  <SCORE.SYSTEM.SOLV>
0

>  <SCORE.SYSTEM.norm>
0

>  <SCORE.heavy>
37

>  <SCORE.norm>
-0.41132

>  <RMSD>
1.796

$$$$
1o9m_lig
 OpenBabel11021811403D
libRbt.so/2013.1/901 2013/11/27
 37 38  0  0  0  0  0  0  0  0999 V2000
   -4.9624   14.1848    5.6756 C   0  0  2  0  0  0  0  0  0  0  0  0
   -5.5125   15.3727    5.0287 O   0  0  0  0  0  0  0  0  0  0  0  0
   -3.4145   14.4296    5.8113 C   0  0  2  0  0  0  0  0  0  0  0  0
   -3.1088   15.6384    6.5964 N   0  0  0  0  0  0  0  0  0  0  0  0
   -2.7802   14.5241    4.3717 C   0  0  1  0  0  0  0  0  0  0  0  0
   -1.3705   14.7451    4.4683 O   0  0  0  0  0  0  0  0  0  0  0  0
   -3.1209   13.2048    3.6030 C   0  0  2  0  0  0  0  0  0  0  0  0
   -2.6019   13.1903    2.2631 O   0  0  0  0  0  0  0  0  0  0  0  0
   -4.6529   12.9849    3.5482 C   0  0  2  0  0  0  0  0  0  0  0  0
   -5.2176   12.9871    4.8674 O   0  0  0  0  0  0  0  0  0  0  0  0
   -5.0059   11.6910    2.8612 C   0  0  0  0  0  0  0  0  0  0  0  0
   -6.3693   11.5804    2.7262 N   0  0  0  0  0  0  0  0  0  0  0  0
   -7.7342   18.6768    6.7514 C   0  0  1  0  0  0  0  0  0  0  0  0
   -8.8605   19.4450    7.3521 N   0  0  0  0  0  0  0  0  0  0  0  0
   -7.4129   17.4909    7.6508 C   0  0  2  0  0  0  0  0  0  0  0  0
   -7.1100   17.9853    8.9213 O   0  0  0  0  0  0  0  0  0  0  0  0
   -6.2228   16.6649    7.0688 C   0  0  1  0  0  0  0  0  0  0  0  0
   -5.9386   15.5189    7.9281 O   0  0  0  0  0  0  0  0  0  0  0  0
   -6.5998   16.1363    5.6251 C   0  0  1  0  0  0  0  0  0  0  0  0
   -6.9048   17.3136    4.7115 C   0  0  1  0  0  0  0  0  0  0  0  0
   -7.2338   16.8068    3.3877 N   0  0  0  0  0  0  0  0  0  0  0  0
   -8.0750   18.1462    5.3002 C   0  0  0  0  0  0  0  0  0  0  0  0
   -7.2982   18.6646   10.1821 C   0  0  0  0  0  0  0  0  0  0  0  0
   -7.7364   20.0872    9.9199 C   0  0  0  0  0  0  0  0  0  0  0  0
   -6.6313   21.0081    9.5824 N   0  0  0  0  0  0  0  0  0  0  0  0
   -5.8653   22.1439    9.0208 C   0  0  0  0  0  0  0  0  0  0  0  0
   -4.9620   22.3948   10.2349 C   0  0  0  0  0  0  0  0  0  0  0  0
   -4.0057   21.2183   10.5061 C   0  0  0  0  0  0  0  0  0  0  0  0
   -2.9079   21.1482    9.4491 C   0  0  0  0  0  0  0  0  0  0  0  0
   -3.4641   20.7029    8.1792 N   0  0  0  0  0  0  0  0  0  0  0  0
  -11.7703   23.0579    5.4464 N   0  0  0  0  0  0  0  0  0  0  0  0
  -10.4287   18.8799    6.7456 C   0  0  0  0  0  0  0  0  0  0  0  0
  -10.7487   18.1111    6.0597 O   0  0  0  0  0  0  0  0  0  0  0  0
  -11.0323   19.9622    7.6070 C   0  0  2  0  0  0  0  0  0  0  0  0
  -12.0122   19.4584    8.4243 O   0  0  0  0  0  0  0  0  0  0  0  0
  -11.7101   20.9506    6.6646 C   0  0  0  0  0  0  0  0  0  0  0  0
  -10.9069   22.2050    6.2759 C   0  0  0  0  0  0  0  0  0  0  0  0
  1  2  1  6  0  0  0
  1  3  1  0  0  0  0
  3  4  1  6  0  0  0
  3  5  1  0  0  0  0
  5  6  1  1  0  0  0
  5  7  1  0  0  0  0
  7  8  1  6  0  0  0
  9  7  1  0  0  0  0
  9 10  1  0  0  0  0
  9 11  1  1  0  0  0
 10  1  1  0  0  0  0
 11 12  1  0  0  0  0
 13 14  1  1  0  0  0
 13 15  1  0  0  0  0
 13 22  1  0  0  0  0
 14 32  1  0  0  0  0
 15 16  1  1  0  0  0
 15 17  1  0  0  0  0
 16 23  1  0  0  0  0
 17 18  1  1  0  0  0
 17 19  1  0  0  0  0
 19  2  1  6  0  0  0
 19 20  1  0  0  0  0
 20 21  1  6  0  0  0
 20 22  1  0  0  0  0
 23 24  1  0  0  0  0
 24 25  1  0  0  0  0
 25 26  1  0  0  0  0
 26 27  1  0  0  0  0
 27 28  1  0  0  0  0
 28 29  1  0  0  0  0
 29 30  1  0  0  0  0
 31 37  1  0  0  0  0
 32 33  2  0  0  0  0
 34 32  1  6  0  0  0
 34 35  1  0  0  0  0
 34 36  1  0  0  0  0
 36 37  1  0  0  0  0
M  END
>  <CHROM.1>
-125.11160115,-174.82362584,-91.43672138,61.39858008,-55.35057239,58.10118371
-80.75530114,152.37388308,141.39602352,65.45882232,71.84100099,-71.31465859
-127.82766572,-96.75895786,-176.17121096,-6.52398951,17.51194631,6.50989837
1.03250850,0.26145417,-2.47661921

>  <Name>
1o9m_lig

>  <RI>
0

>  <Rbt.Current_Directory>
/home/itssahil/PROJECTS/Mol_Feturizer/New_Systems/rnas/1o9m

>  <Rbt.Executable>
rbdock ($Id: //depot/dev/client3/rdock/2013.1/src/exe/rbdock.cxx#4 $)

>  <Rbt.Library>
libRbt.so (2013.1, Build901 2013/11/27)

>  <Rbt.Parameter_File>
/export/apps/rDock/src/rDock_2013.1_src/data/scripts/dock_solv.prm

>  <Rbt.Receptor>
prm/pocket_docking_3.prm

>  <SCORE>
-9.95927

>  <SCORE.INTER>
-11.8133

>  <SCORE.INTER.CONST>
1

>  <SCORE.INTER.POLAR>
-1.57486

>  <SCORE.INTER.ROT>
15

>  <SCORE.INTER.SOLV>
11.8453

>  <SCORE.INTER.VDW>
-20.1744

>  <SCORE.INTER.norm>
-0.319277

>  <SCORE.INTRA>
1.84608

>  <SCORE.INTRA.DIHEDRAL>
-3.66434

>  <SCORE.INTRA.DIHEDRAL.0>
21.5987

>  <SCORE.INTRA.POLAR>
0

>  <SCORE.INTRA.POLAR.0>
0

>  <SCORE.INTRA.REPUL>
0

>  <SCORE.INTRA.REPUL.0>
0

>  <SCORE.INTRA.SOLV>
4.31979

>  <SCORE.INTRA.SOLV.lig_0>
-108.715

>  <SCORE.INTRA.VDW>
1.51836

>  <SCORE.INTRA.VDW.0>
-3.9485

>  <SCORE.INTRA.norm>
0.0498941

>  <SCORE.RESTR>
0.00790573

>  <SCORE.RESTR.CAVITY>
0.00790573

>  <SCORE.RESTR.norm>
0.000213668

>  <SCORE.SYSTEM>
0

>  <SCORE.SYSTEM.CONST>
0

>  <SCORE.SYSTEM.DIHEDRAL>
0

>  <SCORE.SYSTEM.SOLV>
0

>  <SCORE.SYSTEM.norm>
0

>  <SCORE.heavy>
37

>  <SCORE.norm>
-0.269169

>  <RMSD>
1.803

$$$$
1o9m_lig
 OpenBabel11021811403D
libRbt.so/2013.1/901 2013/11/27
 37 38  0  0  0  0  0  0  0  0999 V2000
   -5.5216   14.1963    5.5512 C   0  0  2  0  0  0  0  0  0  0  0  0
   -6.0971   15.3034    4.7926 O   0  0  0  0  0  0  0  0  0  0  0  0
   -3.9660   14.2664    5.3282 C   0  0  2  0  0  0  0  0  0  0  0  0
   -3.3975   15.5516    5.7709 N   0  0  0  0  0  0  0  0  0  0  0  0
   -3.6526   14.0129    3.8046 C   0  0  1  0  0  0  0  0  0  0  0  0
   -2.2419   14.0698    3.5761 O   0  0  0  0  0  0  0  0  0  0  0  0
   -4.2608   12.6274    3.4073 C   0  0  2  0  0  0  0  0  0  0  0  0
   -4.0470   12.3004    2.0244 O   0  0  0  0  0  0  0  0  0  0  0  0
   -5.7813   12.5945    3.6996 C   0  0  2  0  0  0  0  0  0  0  0  0
   -6.0450   12.9114    5.0741 O   0  0  0  0  0  0  0  0  0  0  0  0
   -6.3817   11.2504    3.3778 C   0  0  0  0  0  0  0  0  0  0  0  0
   -6.4298   11.0642    2.0168 N   0  0  0  0  0  0  0  0  0  0  0  0
   -8.7735   18.4693    6.0710 C   0  0  1  0  0  0  0  0  0  0  0  0
  -10.0191   19.1569    6.5129 N   0  0  0  0  0  0  0  0  0  0  0  0
   -8.4297   17.3798    7.0776 C   0  0  2  0  0  0  0  0  0  0  0  0
   -8.2972   17.9801    8.3315 O   0  0  0  0  0  0  0  0  0  0  0  0
   -7.1171   16.6424    6.6641 C   0  0  1  0  0  0  0  0  0  0  0  0
   -6.8099   15.5863    7.6247 O   0  0  0  0  0  0  0  0  0  0  0  0
   -7.3032   15.9899    5.2339 C   0  0  1  0  0  0  0  0  0  0  0  0
   -7.6287   17.0717    4.2153 C   0  0  1  0  0  0  0  0  0  0  0  0
   -7.7808   16.4532    2.9069 N   0  0  0  0  0  0  0  0  0  0  0  0
   -8.9229   17.8180    4.6367 C   0  0  0  0  0  0  0  0  0  0  0  0
   -7.7882   18.8640    9.3544 C   0  0  0  0  0  0  0  0  0  0  0  0
   -6.3032   18.6337    9.5167 C   0  0  0  0  0  0  0  0  0  0  0  0
   -5.8845   18.3403   10.9029 N   0  0  0  0  0  0  0  0  0  0  0  0
   -5.3183   18.4817   12.2637 C   0  0  0  0  0  0  0  0  0  0  0  0
   -3.8389   18.3572   11.8780 C   0  0  0  0  0  0  0  0  0  0  0  0
   -2.8982   18.6842   13.0529 C   0  0  0  0  0  0  0  0  0  0  0  0
   -1.4382   18.6582   12.6109 C   0  0  0  0  0  0  0  0  0  0  0  0
   -1.1915   19.7129   11.6378 N   0  0  0  0  0  0  0  0  0  0  0  0
  -14.3516   16.9627    6.1210 N   0  0  0  0  0  0  0  0  0  0  0  0
  -11.4667   18.2527    6.0294 C   0  0  0  0  0  0  0  0  0  0  0  0
  -11.6478   17.3269    5.5059 O   0  0  0  0  0  0  0  0  0  0  0  0
  -12.2504   19.3747    6.6655 C   0  0  2  0  0  0  0  0  0  0  0  0
  -12.3530   19.2023    8.0226 O   0  0  0  0  0  0  0  0  0  0  0  0
  -13.6658   19.2990    6.1038 C   0  0  0  0  0  0  0  0  0  0  0  0
  -14.6143   18.2686    6.7429 C   0  0  0  0  0  0  0  0  0  0  0  0
  1  2  1  6  0  0  0
  1  3  1  0  0  0  0
  3  4  1  6  0  0  0
  3  5  1  0  0  0  0
  5  6  1  1  0  0  0
  5  7  1  0  0  0  0
  7  8  1  6  0  0  0
  9  7  1  0  0  0  0
  9 10  1  0  0  0  0
  9 11  1  1  0  0  0
 10  1  1  0  0  0  0
 11 12  1  0  0  0  0
 13 14  1  1  0  0  0
 13 15  1  0  0  0  0
 13 22  1  0  0  0  0
 14 32  1  0  0  0  0
 15 16  1  1  0  0  0
 15 17  1  0  0  0  0
 16 23  1  0  0  0  0
 17 18  1  1  0  0  0
 17 19  1  0  0  0  0
 19  2  1  6  0  0  0
 19 20  1  0  0  0  0
 20 21  1  6  0  0  0
 20 22  1  0  0  0  0
 23 24  1  0  0  0  0
 24 25  1  0  0  0  0
 25 26  1  0  0  0  0
 26 27  1  0  0  0  0
 27 28  1  0  0  0  0
 28 29  1  0  0  0  0
 29 30  1  0  0  0  0
 31 37  1  0  0  0  0
 32 33  2  0  0  0  0
 34 32  1  6  0  0  0
 34 35  1  0  0  0  0
 34 36  1  0  0  0  0
 36 37  1  0  0  0  0
M  END
>  <CHROM.1>
-148.08532991,-71.42570868,-82.26328643,-59.11331311,-57.68392536,59.70463977
-126.13465579,-104.50921239,-76.67600119,170.86685283,-175.56539706,64.57914482
-82.64037819,80.98312373,-82.84460388,-7.12521518,16.49917838,6.59878492
0.69113386,0.30584553,-2.21891897

>  <Name>
1o9m_lig

>  <RI>
0

>  <Rbt.Current_Directory>
/home/itssahil/PROJECTS/Mol_Feturizer/New_Systems/rnas/1o9m

>  <Rbt.Executable>
rbdock ($Id: //depot/dev/client3/rdock/2013.1/src/exe/rbdock.cxx#4 $)

>  <Rbt.Library>
libRbt.so (2013.1, Build901 2013/11/27)

>  <Rbt.Parameter_File>
/export/apps/rDock/src/rDock_2013.1_src/data/scripts/dock_solv.prm

>  <Rbt.Receptor>
prm/pocket_docking_3.prm

>  <SCORE>
-11.2854

>  <SCORE.INTER>
-11.9716

>  <SCORE.INTER.CONST>
1

>  <SCORE.INTER.POLAR>
-1.71979

>  <SCORE.INTER.ROT>
15

>  <SCORE.INTER.SOLV>
17.7938

>  <SCORE.INTER.VDW>
-21.7797

>  <SCORE.INTER.norm>
-0.323557

>  <SCORE.INTRA>
0.686176

>  <SCORE.INTRA.DIHEDRAL>
-5.40394

>  <SCORE.INTRA.DIHEDRAL.0>
21.5987

>  <SCORE.INTRA.POLAR>
0

>  <SCORE.INTRA.POLAR.0>
0

>  <SCORE.INTRA.REPUL>
0

>  <SCORE.INTRA.REPUL.0>
0

>  <SCORE.INTRA.SOLV>
4.04255

>  <SCORE.INTRA.SOLV.lig_0>
-108.715

>  <SCORE.INTRA.VDW>
1.36687

>  <SCORE.INTRA.VDW.0>
-3.9485

>  <SCORE.INTRA.norm>
0.0185453

>  <SCORE.RESTR>
0

>  <SCORE.RESTR.CAVITY>
0

>  <SCORE.RESTR.norm>
0

>  <SCORE.SYSTEM>
0

>  <SCORE.SYSTEM.CONST>
0

>  <SCORE.SYSTEM.DIHEDRAL>
0

>  <SCORE.SYSTEM.SOLV>
0

>  <SCORE.SYSTEM.norm>
0

>  <SCORE.heavy>
37

>  <SCORE.norm>
-0.305011

>  <RMSD>
1.832

$$$$
1o9m_lig
 OpenBabel11021811403D
libRbt.so/2013.1/901 2013/11/27
 37 38  0  0  0  0  0  0  0  0999 V2000
   -4.4419   14.7441    6.0507 C   0  0  2  0  0  0  0  0  0  0  0  0
   -4.9106   15.9916    5.4539 O   0  0  0  0  0  0  0  0  0  0  0  0
   -2.8755   14.7433    5.9054 C   0  0  2  0  0  0  0  0  0  0  0  0
   -2.2544   15.9031    6.5689 N   0  0  0  0  0  0  0  0  0  0  0  0
   -2.5006   14.7090    4.3750 C   0  0  1  0  0  0  0  0  0  0  0  0
   -1.0792   14.7059    4.2164 O   0  0  0  0  0  0  0  0  0  0  0  0
   -3.1697   13.4461    3.7389 C   0  0  2  0  0  0  0  0  0  0  0  0
   -2.9056   13.3243    2.3317 O   0  0  0  0  0  0  0  0  0  0  0  0
   -4.7023   13.4704    3.9598 C   0  0  2  0  0  0  0  0  0  0  0  0
   -5.0163   13.5869    5.3553 O   0  0  0  0  0  0  0  0  0  0  0  0
   -5.3649   12.2360    3.4051 C   0  0  0  0  0  0  0  0  0  0  0  0
   -5.3573   11.2300    4.3418 N   0  0  0  0  0  0  0  0  0  0  0  0
   -7.9759   18.9997    6.0671 C   0  0  1  0  0  0  0  0  0  0  0  0
   -9.2592   19.6247    6.4938 N   0  0  0  0  0  0  0  0  0  0  0  0
   -7.2646   18.4494    7.2958 C   0  0  2  0  0  0  0  0  0  0  0  0
   -7.0777   19.5040    8.1920 O   0  0  0  0  0  0  0  0  0  0  0  0
   -5.9018   17.7994    6.8980 C   0  0  1  0  0  0  0  0  0  0  0  0
   -5.2397   17.2564    8.0809 O   0  0  0  0  0  0  0  0  0  0  0  0
   -6.1556   16.6211    5.8719 C   0  0  1  0  0  0  0  0  0  0  0  0
   -6.8494   17.1622    4.6311 C   0  0  1  0  0  0  0  0  0  0  0  0
   -7.0594   16.0670    3.6962 N   0  0  0  0  0  0  0  0  0  0  0  0
   -8.1950   17.8259    5.0289 C   0  0  0  0  0  0  0  0  0  0  0  0
   -7.4012   20.4940    9.1928 C   0  0  0  0  0  0  0  0  0  0  0  0
   -6.4812   21.6824    9.0324 C   0  0  0  0  0  0  0  0  0  0  0  0
   -5.0670   21.4004    9.3539 N   0  0  0  0  0  0  0  0  0  0  0  0
   -3.7847   21.2813   10.0845 C   0  0  0  0  0  0  0  0  0  0  0  0
   -4.3398   20.6270   11.3560 C   0  0  0  0  0  0  0  0  0  0  0  0
   -4.4309   19.0944   11.2338 C   0  0  0  0  0  0  0  0  0  0  0  0
   -4.4510   18.4341   12.6089 C   0  0  0  0  0  0  0  0  0  0  0  0
   -4.5899   16.9914   12.4690 N   0  0  0  0  0  0  0  0  0  0  0  0
  -14.6590   19.0101    4.9168 N   0  0  0  0  0  0  0  0  0  0  0  0
  -10.5775   18.4385    6.5349 C   0  0  0  0  0  0  0  0  0  0  0  0
  -10.6583   17.3814    6.3349 O   0  0  0  0  0  0  0  0  0  0  0  0
  -11.4603   19.5919    6.9445 C   0  0  2  0  0  0  0  0  0  0  0  0
  -12.1064   19.3284    8.1257 O   0  0  0  0  0  0  0  0  0  0  0  0
  -12.5376   19.7259    5.8739 C   0  0  0  0  0  0  0  0  0  0  0  0
  -13.5187   18.5494    5.7222 C   0  0  0  0  0  0  0  0  0  0  0  0
  1  2  1  6  0  0  0
  1  3  1  0  0  0  0
  3  4  1  6  0  0  0
  3  5  1  0  0  0  0
  5  6  1  1  0  0  0
  5  7  1  0  0  0  0
  7  8  1  6  0  0  0
  9  7  1  0  0  0  0
  9 10  1  0  0  0  0
  9 11  1  1  0  0  0
 10  1  1  0  0  0  0
 11 12  1  0  0  0  0
 13 14  1  1  0  0  0
 13 15  1  0  0  0  0
 13 22  1  0  0  0  0
 14 32  1  0  0  0  0
 15 16  1  1  0  0  0
 15 17  1  0  0  0  0
 16 23  1  0  0  0  0
 17 18  1  1  0  0  0
 17 19  1  0  0  0  0
 19  2  1  6  0  0  0
 19 20  1  0  0  0  0
 20 21  1  6  0  0  0
 20 22  1  0  0  0  0
 23 24  1  0  0  0  0
 24 25  1  0  0  0  0
 25 26  1  0  0  0  0
 26 27  1  0  0  0  0
 27 28  1  0  0  0  0
 28 29  1  0  0  0  0
 29 30  1  0  0  0  0
 31 37  1  0  0  0  0
 32 33  2  0  0  0  0
 34 32  1  6  0  0  0
 34 35  1  0  0  0  0
 34 36  1  0  0  0  0
 36 37  1  0  0  0  0
M  END
>  <CHROM.1>
-153.40169636,86.85423839,-87.95300737,76.59270779,-151.53432101,99.07094847
-67.54180771,-94.47956523,46.84216455,86.26629596,157.93543853,177.78868027
-124.28859289,64.37690850,165.32582959,-6.51874456,17.27036872,6.69865093
0.73102514,0.31591732,-2.30758811

>  <Name>
1o9m_lig

>  <RI>
0

>  <Rbt.Current_Directory>
/home/itssahil/PROJECTS/Mol_Feturizer/New_Systems/rnas/1o9m

>  <Rbt.Executable>
rbdock ($Id: //depot/dev/client3/rdock/2013.1/src/exe/rbdock.cxx#4 $)

>  <Rbt.Library>
libRbt.so (2013.1, Build901 2013/11/27)

>  <Rbt.Parameter_File>
/export/apps/rDock/src/rDock_2013.1_src/data/scripts/dock_solv.prm

>  <Rbt.Receptor>
prm/pocket_docking_3.prm

>  <SCORE>
-9.7199

>  <SCORE.INTER>
-12.3651

>  <SCORE.INTER.CONST>
1

>  <SCORE.INTER.POLAR>
-2.40772

>  <SCORE.INTER.ROT>
15

>  <SCORE.INTER.SOLV>
15.3796

>  <SCORE.INTER.VDW>
-18.9442

>  <SCORE.INTER.norm>
-0.334192

>  <SCORE.INTRA>
2.51855

>  <SCORE.INTRA.DIHEDRAL>
2.40077

>  <SCORE.INTRA.DIHEDRAL.0>
21.5987

>  <SCORE.INTRA.POLAR>
0

>  <SCORE.INTRA.POLAR.0>
0

>  <SCORE.INTRA.REPUL>
0

>  <SCORE.INTRA.REPUL.0>
0

>  <SCORE.INTRA.SOLV>
2.34807

>  <SCORE.INTRA.SOLV.lig_0>
-108.715

>  <SCORE.INTRA.VDW>
0.144128

>  <SCORE.INTRA.VDW.0>
-3.9485

>  <SCORE.INTRA.norm>
0.0680688

>  <SCORE.RESTR>
0.12665

>  <SCORE.RESTR.CAVITY>
0.12665

>  <SCORE.RESTR.norm>
0.00342298

>  <SCORE.SYSTEM>
0

>  <SCORE.SYSTEM.CONST>
0

>  <SCORE.SYSTEM.DIHEDRAL>
0

>  <SCORE.SYSTEM.SOLV>
0

>  <SCORE.SYSTEM.norm>
0

>  <SCORE.heavy>
37

>  <SCORE.norm>
-0.2627

>  <RMSD>
1.836

$$$$
1o9m_lig
 OpenBabel11021811403D
libRbt.so/2013.1/901 2013/11/27
 37 38  0  0  0  0  0  0  0  0999 V2000
   -4.7426   14.1697    5.5925 C   0  0  2  0  0  0  0  0  0  0  0  0
   -5.5957   15.1839    4.9795 O   0  0  0  0  0  0  0  0  0  0  0  0
   -3.2788   14.4614    5.0961 C   0  0  2  0  0  0  0  0  0  0  0  0
   -2.8254   15.8142    5.4640 N   0  0  0  0  0  0  0  0  0  0  0  0
   -3.2144   14.2567    3.5347 C   0  0  1  0  0  0  0  0  0  0  0  0
   -1.8907   14.5148    3.0585 O   0  0  0  0  0  0  0  0  0  0  0  0
   -3.6842   12.7989    3.2159 C   0  0  2  0  0  0  0  0  0  0  0  0
   -3.6810   12.5073    1.8089 O   0  0  0  0  0  0  0  0  0  0  0  0
   -5.1065   12.5490    3.7752 C   0  0  2  0  0  0  0  0  0  0  0  0
   -5.1583   12.8235    5.1828 O   0  0  0  0  0  0  0  0  0  0  0  0
   -5.5607   11.1332    3.5304 C   0  0  0  0  0  0  0  0  0  0  0  0
   -5.6966   10.9035    2.1820 N   0  0  0  0  0  0  0  0  0  0  0  0
   -8.9672   17.5185    6.3947 C   0  0  1  0  0  0  0  0  0  0  0  0
  -10.3116   17.8437    6.9483 N   0  0  0  0  0  0  0  0  0  0  0  0
   -8.2057   16.6808    7.4129 C   0  0  2  0  0  0  0  0  0  0  0  0
   -8.1360   17.4093    8.6022 O   0  0  0  0  0  0  0  0  0  0  0  0
   -6.7798   16.3307    6.8818 C   0  0  1  0  0  0  0  0  0  0  0  0
   -6.0678   15.5094    7.8570 O   0  0  0  0  0  0  0  0  0  0  0  0
   -6.9024   15.5199    5.5277 C   0  0  1  0  0  0  0  0  0  0  0  0
   -7.6455   16.3546    4.4958 C   0  0  1  0  0  0  0  0  0  0  0  0
   -7.7337   15.5977    3.2561 N   0  0  0  0  0  0  0  0  0  0  0  0
   -9.0558   16.7193    5.0319 C   0  0  0  0  0  0  0  0  0  0  0  0
   -7.6889   18.4075    9.5458 C   0  0  0  0  0  0  0  0  0  0  0  0
   -6.5101   17.8659   10.3214 C   0  0  0  0  0  0  0  0  0  0  0  0
   -5.6995   18.9031   10.9923 N   0  0  0  0  0  0  0  0  0  0  0  0
   -5.2143   20.2122   11.4857 C   0  0  0  0  0  0  0  0  0  0  0  0
   -4.2006   20.4836   10.3669 C   0  0  0  0  0  0  0  0  0  0  0  0
   -4.8736   20.6249    8.9888 C   0  0  0  0  0  0  0  0  0  0  0  0
   -5.9038   21.7501    8.9936 C   0  0  0  0  0  0  0  0  0  0  0  0
   -5.2792   22.9983    9.4086 N   0  0  0  0  0  0  0  0  0  0  0  0
  -10.6212   21.7958    7.4694 N   0  0  0  0  0  0  0  0  0  0  0  0
  -11.3905   18.4896    5.6972 C   0  0  0  0  0  0  0  0  0  0  0  0
  -11.3001   18.6874    4.6404 O   0  0  0  0  0  0  0  0  0  0  0  0
  -12.4132   18.6249    6.7988 C   0  0  2  0  0  0  0  0  0  0  0  0
  -13.6874   18.4631    6.3169 O   0  0  0  0  0  0  0  0  0  0  0  0
  -12.3172   20.0553    7.3178 C   0  0  0  0  0  0  0  0  0  0  0  0
  -10.9905   20.4679    7.9808 C   0  0  0  0  0  0  0  0  0  0  0  0
  1  2  1  6  0  0  0
  1  3  1  0  0  0  0
  3  4  1  6  0  0  0
  3  5  1  0  0  0  0
  5  6  1  1  0  0  0
  5  7  1  0  0  0  0
  7  8  1  6  0  0  0
  9  7  1  0  0  0  0
  9 10  1  0  0  0  0
  9 11  1  1  0  0  0
 10  1  1  0  0  0  0
 11 12  1  0  0  0  0
 13 14  1  1  0  0  0
 13 15  1  0  0  0  0
 13 22  1  0  0  0  0
 14 32  1  0  0  0  0
 15 16  1  1  0  0  0
 15 17  1  0  0  0  0
 16 23  1  0  0  0  0
 17 18  1  1  0  0  0
 17 19  1  0  0  0  0
 19  2  1  6  0  0  0
 19 20  1  0  0  0  0
 20 21  1  6  0  0  0
 20 22  1  0  0  0  0
 23 24  1  0  0  0  0
 24 25  1  0  0  0  0
 25 26  1  0  0  0  0
 26 27  1  0  0  0  0
 27 28  1  0  0  0  0
 28 29  1  0  0  0  0
 29 30  1  0  0  0  0
 31 37  1  0  0  0  0
 32 33  2  0  0  0  0
 34 32  1  6  0  0  0
 34 35  1  0  0  0  0
 34 36  1  0  0  0  0
 36 37  1  0  0  0  0
M  END
>  <CHROM.1>
-159.17556798,-65.28140781,-166.94653254,-77.38049152,-87.03785643,72.02307726
161.45559809,2.54371251,-96.02557680,63.47271063,58.19437989,56.19699259
-148.78440892,-63.81235374,135.51172815,-6.97494024,16.86417587,6.37473918
-1.04084800,-0.23239092,0.74322675

>  <Name>
1o9m_lig

>  <RI>
0

>  <Rbt.Current_Directory>
/home/itssahil/PROJECTS/Mol_Feturizer/New_Systems/rnas/1o9m

>  <Rbt.Executable>
rbdock ($Id: //depot/dev/client3/rdock/2013.1/src/exe/rbdock.cxx#4 $)

>  <Rbt.Library>
libRbt.so (2013.1, Build901 2013/11/27)

>  <Rbt.Parameter_File>
/export/apps/rDock/src/rDock_2013.1_src/data/scripts/dock_solv.prm

>  <Rbt.Receptor>
prm/pocket_docking_2.prm

>  <SCORE>
-8.46082

>  <SCORE.INTER>
-11.0266

>  <SCORE.INTER.CONST>
1

>  <SCORE.INTER.POLAR>
-1.27778

>  <SCORE.INTER.ROT>
15

>  <SCORE.INTER.SOLV>
20.2874

>  <SCORE.INTER.VDW>
-23.4542

>  <SCORE.INTER.norm>
-0.298015

>  <SCORE.INTRA>
1.08214

>  <SCORE.INTRA.DIHEDRAL>
-4.42268

>  <SCORE.INTRA.DIHEDRAL.0>
21.5987

>  <SCORE.INTRA.POLAR>
0

>  <SCORE.INTRA.POLAR.0>
0

>  <SCORE.INTRA.REPUL>
0

>  <SCORE.INTRA.REPUL.0>
0

>  <SCORE.INTRA.SOLV>
3.06799

>  <SCORE.INTRA.SOLV.lig_0>
-108.715

>  <SCORE.INTRA.VDW>
1.75948

>  <SCORE.INTRA.VDW.0>
-3.9485

>  <SCORE.INTRA.norm>
0.029247

>  <SCORE.RESTR>
1.4836

>  <SCORE.RESTR.CAVITY>
1.4836

>  <SCORE.RESTR.norm>
0.0400972

>  <SCORE.SYSTEM>
0

>  <SCORE.SYSTEM.CONST>
0

>  <SCORE.SYSTEM.DIHEDRAL>
0

>  <SCORE.SYSTEM.SOLV>
0

>  <SCORE.SYSTEM.norm>
0

>  <SCORE.heavy>
37

>  <SCORE.norm>
-0.228671

>  <RMSD>
1.844

$$$$
1o9m_lig
 OpenBabel11021811403D
libRbt.so/2013.1/901 2013/11/27
 37 38  0  0  0  0  0  0  0  0999 V2000
   -3.7197   14.4054    6.1578 C   0  0  2  0  0  0  0  0  0  0  0  0
   -4.4051   15.6283    5.7493 O   0  0  0  0  0  0  0  0  0  0  0  0
   -2.2024   14.6037    5.7929 C   0  0  2  0  0  0  0  0  0  0  0  0
   -1.6172   15.7773    6.4646 N   0  0  0  0  0  0  0  0  0  0  0  0
   -2.0613   14.7283    4.2282 C   0  0  1  0  0  0  0  0  0  0  0  0
   -0.6883   14.9078    3.8705 O   0  0  0  0  0  0  0  0  0  0  0  0
   -2.6784   13.4446    3.5809 C   0  0  2  0  0  0  0  0  0  0  0  0
   -2.6182   13.4601    2.1453 O   0  0  0  0  0  0  0  0  0  0  0  0
   -4.1537   13.2681    4.0177 C   0  0  2  0  0  0  0  0  0  0  0  0
   -4.2641   13.2422    5.4482 O   0  0  0  0  0  0  0  0  0  0  0  0
   -4.7551   12.0075    3.4523 C   0  0  0  0  0  0  0  0  0  0  0  0
   -5.8030   11.5870    4.2362 N   0  0  0  0  0  0  0  0  0  0  0  0
   -8.1175   17.5343    6.9349 C   0  0  1  0  0  0  0  0  0  0  0  0
   -9.5729   17.7317    7.1847 N   0  0  0  0  0  0  0  0  0  0  0  0
   -7.6341   16.3474    7.7571 C   0  0  2  0  0  0  0  0  0  0  0  0
   -7.9191   16.6098    9.0987 O   0  0  0  0  0  0  0  0  0  0  0  0
   -6.1056   16.1137    7.5407 C   0  0  1  0  0  0  0  0  0  0  0  0
   -5.6586   14.9603    8.3168 O   0  0  0  0  0  0  0  0  0  0  0  0
   -5.8233   15.8352    6.0082 C   0  0  1  0  0  0  0  0  0  0  0  0
   -6.2851   17.0229    5.1776 C   0  0  1  0  0  0  0  0  0  0  0  0
   -6.0031   16.7527    3.7758 N   0  0  0  0  0  0  0  0  0  0  0  0
   -7.8006   17.2675    5.4078 C   0  0  0  0  0  0  0  0  0  0  0  0
   -8.0080   17.3481   10.3371 C   0  0  0  0  0  0  0  0  0  0  0  0
   -6.6701   17.9861   10.6329 C   0  0  0  0  0  0  0  0  0  0  0  0
   -5.6045   17.0234   10.9805 N   0  0  0  0  0  0  0  0  0  0  0  0
   -4.3317   16.4461   11.4694 C   0  0  0  0  0  0  0  0  0  0  0  0
   -3.3866   17.2713   10.5870 C   0  0  0  0  0  0  0  0  0  0  0  0
   -3.2930   18.7395   11.0429 C   0  0  0  0  0  0  0  0  0  0  0  0
   -2.3319   19.5287   10.1591 C   0  0  0  0  0  0  0  0  0  0  0  0
   -2.3145   20.9273   10.5636 N   0  0  0  0  0  0  0  0  0  0  0  0
  -13.0685   22.3372    7.7021 N   0  0  0  0  0  0  0  0  0  0  0  0
  -10.1545   19.2486    6.4724 C   0  0  0  0  0  0  0  0  0  0  0  0
   -9.7038   20.0436    5.8989 O   0  0  0  0  0  0  0  0  0  0  0  0
  -11.4974   18.8848    7.0573 C   0  0  2  0  0  0  0  0  0  0  0  0
  -12.1104   17.9027    6.3214 O   0  0  0  0  0  0  0  0  0  0  0  0
  -12.3760   20.1264    6.9528 C   0  0  0  0  0  0  0  0  0  0  0  0
  -12.0920   21.2661    7.9479 C   0  0  0  0  0  0  0  0  0  0  0  0
  1  2  1  6  0  0  0
  1  3  1  0  0  0  0
  3  4  1  1  0  0  0
  3  5  1  0  0  0  0
  5  6  1  1  0  0  0
  5  7  1  0  0  0  0
  7  8  1  6  0  0  0
  9  7  1  0  0  0  0
  9 10  1  0  0  0  0
  9 11  1  6  0  0  0
 10  1  1  0  0  0  0
 11 12  1  0  0  0  0
 13 14  1  6  0  0  0
 13 15  1  0  0  0  0
 13 22  1  0  0  0  0
 14 32  1  0  0  0  0
 15 16  1  1  0  0  0
 15 17  1  0  0  0  0
 16 23  1  0  0  0  0
 17 18  1  1  0  0  0
 17 19  1  0  0  0  0
 19  2  1  1  0  0  0
 19 20  1  0  0  0  0
 20 21  1  6  0  0  0
 20 22  1  0  0  0  0
 23 24  1  0  0  0  0
 24 25  1  0  0  0  0
 25 26  1  0  0  0  0
 26 27  1  0  0  0  0
 27 28  1  0  0  0  0
 28 29  1  0  0  0  0
 29 30  1  0  0  0  0
 31 37  1  0  0  0  0
 32 33  2  0  0  0  0
 34 32  1  6  0  0  0
 34 35  1  0  0  0  0
 34 36  1  0  0  0  0
 36 37  1  0  0  0  0
M  END
>  <CHROM.1>
-176.26829985,155.61409615,170.76092086,-45.40797152,-49.89289341,72.69929783
-68.88664317,-165.58355732,-57.13211118,72.80676630,179.20134301,176.96573319
-75.99998583,-74.83809680,-178.32975661,-6.12241603,16.69748385,6.92397512
0.60256815,0.35310660,-2.17479111

>  <Name>
1o9m_lig

>  <RI>
0

>  <Rbt.Current_Directory>
/home/itssahil/PROJECTS/Mol_Feturizer/New_Systems/rnas/1o9m

>  <Rbt.Executable>
rbdock ($Id: //depot/dev/client3/rdock/2013.1/src/exe/rbdock.cxx#4 $)

>  <Rbt.Library>
libRbt.so (2013.1, Build901 2013/11/27)

>  <Rbt.Parameter_File>
/export/apps/rDock/src/rDock_2013.1_src/data/scripts/dock_solv.prm

>  <Rbt.Receptor>
prm/pocket_docking_4.prm

>  <SCORE>
-18.0742

>  <SCORE.INTER>
-10.4642

>  <SCORE.INTER.CONST>
1

>  <SCORE.INTER.POLAR>
-1.84554

>  <SCORE.INTER.ROT>
15

>  <SCORE.INTER.SOLV>
18.1196

>  <SCORE.INTER.VDW>
-20.4642

>  <SCORE.INTER.norm>
-0.282816

>  <SCORE.INTRA>
-7.60997

>  <SCORE.INTRA.DIHEDRAL>
-14.5395

>  <SCORE.INTRA.DIHEDRAL.0>
21.5987

>  <SCORE.INTRA.POLAR>
0

>  <SCORE.INTRA.POLAR.0>
0

>  <SCORE.INTRA.REPUL>
0

>  <SCORE.INTRA.REPUL.0>
0

>  <SCORE.INTRA.SOLV>
0.179167

>  <SCORE.INTRA.SOLV.lig_0>
-108.715

>  <SCORE.INTRA.VDW>
-0.429808

>  <SCORE.INTRA.VDW.0>
-3.9485

>  <SCORE.INTRA.norm>
-0.205675

>  <SCORE.RESTR>
0

>  <SCORE.RESTR.CAVITY>
0

>  <SCORE.RESTR.norm>
0

>  <SCORE.SYSTEM>
0

>  <SCORE.SYSTEM.CONST>
0

>  <SCORE.SYSTEM.DIHEDRAL>
0

>  <SCORE.SYSTEM.SOLV>
0

>  <SCORE.SYSTEM.norm>
0

>  <SCORE.heavy>
37

>  <SCORE.norm>
-0.488491

>  <RMSD>
1.878

$$$$
1o9m_lig
 OpenBabel11021811403D
libRbt.so/2013.1/901 2013/11/27
 37 38  0  0  0  0  0  0  0  0999 V2000
   -4.2652   14.5526    6.9279 C   0  0  2  0  0  0  0  0  0  0  0  0
   -4.8943   15.8103    6.5346 O   0  0  0  0  0  0  0  0  0  0  0  0
   -2.7207   14.8372    7.0166 C   0  0  2  0  0  0  0  0  0  0  0  0
   -2.4056   15.9018    7.9853 N   0  0  0  0  0  0  0  0  0  0  0  0
   -2.1829   15.2103    5.5829 C   0  0  1  0  0  0  0  0  0  0  0  0
   -0.7779   15.4723    5.6370 O   0  0  0  0  0  0  0  0  0  0  0  0
   -2.5282   14.0326    4.6128 C   0  0  2  0  0  0  0  0  0  0  0  0
   -2.0954   14.2759    3.2643 O   0  0  0  0  0  0  0  0  0  0  0  0
   -4.0525   13.7589    4.6070 C   0  0  2  0  0  0  0  0  0  0  0  0
   -4.5318   13.5052    5.9357 O   0  0  0  0  0  0  0  0  0  0  0  0
   -4.4057   12.5913    3.7224 C   0  0  0  0  0  0  0  0  0  0  0  0
   -5.5019   11.9298    4.2225 N   0  0  0  0  0  0  0  0  0  0  0  0
   -8.8322   17.6107    6.2668 C   0  0  1  0  0  0  0  0  0  0  0  0
  -10.2808   17.8538    6.5160 N   0  0  0  0  0  0  0  0  0  0  0  0
   -8.0777   17.7447    7.5826 C   0  0  2  0  0  0  0  0  0  0  0  0
   -8.3292   19.0197    8.0938 O   0  0  0  0  0  0  0  0  0  0  0  0
   -6.5485   17.5156    7.3662 C   0  0  1  0  0  0  0  0  0  0  0  0
   -5.8390   17.6251    8.6378 O   0  0  0  0  0  0  0  0  0  0  0  0
   -6.3077   16.0679    6.7730 C   0  0  1  0  0  0  0  0  0  0  0  0
   -7.0417   15.9281    5.4480 C   0  0  1  0  0  0  0  0  0  0  0  0
   -6.7952   14.5972    4.9136 N   0  0  0  0  0  0  0  0  0  0  0  0
   -8.5595   16.1752    5.6596 C   0  0  0  0  0  0  0  0  0  0  0  0
   -8.5433   20.0598    9.0730 C   0  0  0  0  0  0  0  0  0  0  0  0
   -7.4004   20.0546   10.0621 C   0  0  0  0  0  0  0  0  0  0  0  0
   -6.1881   20.7543    9.5892 N   0  0  0  0  0  0  0  0  0  0  0  0
   -4.7978   21.2540    9.4900 C   0  0  0  0  0  0  0  0  0  0  0  0
   -4.1149   20.0888   10.2174 C   0  0  0  0  0  0  0  0  0  0  0  0
   -2.6303   20.3729   10.5130 C   0  0  0  0  0  0  0  0  0  0  0  0
   -1.9723   19.1860   11.2100 C   0  0  0  0  0  0  0  0  0  0  0  0
   -2.6362   18.9199   12.4783 N   0  0  0  0  0  0  0  0  0  0  0  0
  -12.1368   21.9855    6.1177 N   0  0  0  0  0  0  0  0  0  0  0  0
  -11.2087   17.8555    5.0042 C   0  0  0  0  0  0  0  0  0  0  0  0
  -10.9687   17.7119    3.9622 O   0  0  0  0  0  0  0  0  0  0  0  0
  -12.4103   18.1574    5.8661 C   0  0  2  0  0  0  0  0  0  0  0  0
  -13.5246   17.4968    5.4145 O   0  0  0  0  0  0  0  0  0  0  0  0
  -12.6940   19.6485    5.7222 C   0  0  0  0  0  0  0  0  0  0  0  0
  -11.6196   20.6159    6.2510 C   0  0  0  0  0  0  0  0  0  0  0  0
  1  2  1  6  0  0  0
  1  3  1  0  0  0  0
  3  4  1  1  0  0  0
  3  5  1  0  0  0  0
  5  6  1  1  0  0  0
  5  7  1  0  0  0  0
  7  8  1  6  0  0  0
  9  7  1  0  0  0  0
  9 10  1  0  0  0  0
  9 11  1  6  0  0  0
 10  1  1  0  0  0  0
 11 12  1  0  0  0  0
 13 14  1  1  0  0  0
 13 15  1  0  0  0  0
 13 22  1  0  0  0  0
 14 32  1  0  0  0  0
 15 16  1  6  0  0  0
 15 17  1  0  0  0  0
 16 23  1  0  0  0  0
 17 18  1  1  0  0  0
 17 19  1  0  0  0  0
 19  2  1  6  0  0  0
 19 20  1  0  0  0  0
 20 21  1  1  0  0  0
 20 22  1  0  0  0  0
 23 24  1  0  0  0  0
 24 25  1  0  0  0  0
 25 26  1  0  0  0  0
 26 27  1  0  0  0  0
 27 28  1  0  0  0  0
 28 29  1  0  0  0  0
 29 30  1  0  0  0  0
 31 37  1  0  0  0  0
 32 33  2  0  0  0  0
 34 32  1  6  0  0  0
 34 35  1  0  0  0  0
 34 36  1  0  0  0  0
 36 37  1  0  0  0  0
M  END
>  <CHROM.1>
-159.31737346,148.17704651,175.00769306,147.11058925,52.80830109,134.87947062
81.16711899,-169.45309537,27.56931485,-170.70740019,-178.82081948,-60.63751591
-141.77424656,-64.69067286,-175.37800792,-6.47217606,17.19280177,6.86565258
0.32342560,0.32004568,-2.40068619

>  <Name>
1o9m_lig

>  <RI>
0

>  <Rbt.Current_Directory>
/home/itssahil/PROJECTS/Mol_Feturizer/New_Systems/rnas/1o9m

>  <Rbt.Executable>
rbdock ($Id: //depot/dev/client3/rdock/2013.1/src/exe/rbdock.cxx#4 $)

>  <Rbt.Library>
libRbt.so (2013.1, Build901 2013/11/27)

>  <Rbt.Parameter_File>
/export/apps/rDock/src/rDock_2013.1_src/data/scripts/dock_solv.prm

>  <Rbt.Receptor>
prm/pocket_docking_3.prm

>  <SCORE>
-8.01298

>  <SCORE.INTER>
-9.26913

>  <SCORE.INTER.CONST>
1

>  <SCORE.INTER.POLAR>
-1.53667

>  <SCORE.INTER.ROT>
15

>  <SCORE.INTER.SOLV>
13.5085

>  <SCORE.INTER.VDW>
-19.16

>  <SCORE.INTER.norm>
-0.250517

>  <SCORE.INTRA>
1.25615

>  <SCORE.INTRA.DIHEDRAL>
-1.34261

>  <SCORE.INTRA.DIHEDRAL.0>
21.5987

>  <SCORE.INTRA.POLAR>
0

>  <SCORE.INTRA.POLAR.0>
0

>  <SCORE.INTRA.REPUL>
0

>  <SCORE.INTRA.REPUL.0>
0

>  <SCORE.INTRA.SOLV>
5.57066

>  <SCORE.INTRA.SOLV.lig_0>
-108.715

>  <SCORE.INTRA.VDW>
-0.857875

>  <SCORE.INTRA.VDW.0>
-3.9485

>  <SCORE.INTRA.norm>
0.03395

>  <SCORE.RESTR>
0

>  <SCORE.RESTR.CAVITY>
0

>  <SCORE.RESTR.norm>
0

>  <SCORE.SYSTEM>
0

>  <SCORE.SYSTEM.CONST>
0

>  <SCORE.SYSTEM.DIHEDRAL>
0

>  <SCORE.SYSTEM.SOLV>
0

>  <SCORE.SYSTEM.norm>
0

>  <SCORE.heavy>
37

>  <SCORE.norm>
-0.216567

>  <RMSD>
1.902

$$$$
1o9m_lig
 OpenBabel11021811403D
libRbt.so/2013.1/901 2013/11/27
 37 38  0  0  0  0  0  0  0  0999 V2000
   -3.8105   14.4510    6.3347 C   0  0  2  0  0  0  0  0  0  0  0  0
   -4.5930   15.6001    5.8882 O   0  0  0  0  0  0  0  0  0  0  0  0
   -2.3046   14.7975    6.0400 C   0  0  2  0  0  0  0  0  0  0  0  0
   -1.8699   16.0236    6.7319 N   0  0  0  0  0  0  0  0  0  0  0  0
   -2.1032   14.9342    4.4829 C   0  0  1  0  0  0  0  0  0  0  0  0
   -0.7391   15.2479    4.1887 O   0  0  0  0  0  0  0  0  0  0  0  0
   -2.5599   13.5956    3.8144 C   0  0  2  0  0  0  0  0  0  0  0  0
   -2.4342   13.6159    2.3831 O   0  0  0  0  0  0  0  0  0  0  0  0
   -4.0295   13.2749    4.1828 C   0  0  2  0  0  0  0  0  0  0  0  0
   -4.2039   13.2393    5.6068 O   0  0  0  0  0  0  0  0  0  0  0  0
   -4.4768   11.9607    3.5967 C   0  0  0  0  0  0  0  0  0  0  0  0
   -5.6091   11.5153    4.2361 N   0  0  0  0  0  0  0  0  0  0  0  0
   -8.7059   16.8883    5.3934 C   0  0  1  0  0  0  0  0  0  0  0  0
  -10.1948   16.8416    5.3697 N   0  0  0  0  0  0  0  0  0  0  0  0
   -8.2262   16.5683    6.8026 C   0  0  2  0  0  0  0  0  0  0  0  0
   -8.8074   17.4919    7.6740 O   0  0  0  0  0  0  0  0  0  0  0  0
   -6.6678   16.6238    6.8797 C   0  0  1  0  0  0  0  0  0  0  0  0
   -6.2193   16.2941    8.2297 O   0  0  0  0  0  0  0  0  0  0  0  0
   -6.0490   15.5750    5.8683 C   0  0  1  0  0  0  0  0  0  0  0  0
   -6.5062   15.8958    4.4534 C   0  0  1  0  0  0  0  0  0  0  0  0
   -5.9147   14.9302    3.5394 N   0  0  0  0  0  0  0  0  0  0  0  0
   -8.0563   15.8599    4.3813 C   0  0  0  0  0  0  0  0  0  0  0  0
   -9.0220   18.7435    8.3624 C   0  0  0  0  0  0  0  0  0  0  0  0
   -7.8677   18.9972    9.3045 C   0  0  0  0  0  0  0  0  0  0  0  0
   -7.7031   17.9670   10.3507 N   0  0  0  0  0  0  0  0  0  0  0  0
   -7.1586   17.1815   11.4816 C   0  0  0  0  0  0  0  0  0  0  0  0
   -5.6868   17.5776   11.3091 C   0  0  0  0  0  0  0  0  0  0  0  0
   -5.4395   19.0641   11.6275 C   0  0  0  0  0  0  0  0  0  0  0  0
   -3.9634   19.4193   11.4788 C   0  0  0  0  0  0  0  0  0  0  0  0
   -3.1647   18.6406   12.4147 N   0  0  0  0  0  0  0  0  0  0  0  0
  -13.5835   19.8326    8.3696 N   0  0  0  0  0  0  0  0  0  0  0  0
  -10.8972   18.4684    5.4537 C   0  0  0  0  0  0  0  0  0  0  0  0
  -10.4980   19.4693    5.5061 O   0  0  0  0  0  0  0  0  0  0  0  0
  -12.2377   17.7754    5.4341 C   0  0  2  0  0  0  0  0  0  0  0  0
  -13.0217   18.2383    4.4080 O   0  0  0  0  0  0  0  0  0  0  0  0
  -12.9464   18.1472    6.7319 C   0  0  0  0  0  0  0  0  0  0  0  0
  -13.2691   19.6369    6.9469 C   0  0  0  0  0  0  0  0  0  0  0  0
  1  2  1  6  0  0  0
  1  3  1  0  0  0  0
  3  4  1  1  0  0  0
  3  5  1  0  0  0  0
  5  6  1  1  0  0  0
  5  7  1  0  0  0  0
  7  8  1  6  0  0  0
  9  7  1  0  0  0  0
  9 10  1  0  0  0  0
  9 11  1  1  0  0  0
 10  1  1  0  0  0  0
 11 12  1  0  0  0  0
 13 14  1  1  0  0  0
 13 15  1  0  0  0  0
 13 22  1  0  0  0  0
 14 32  1  0  0  0  0
 15 16  1  1  0  0  0
 15 17  1  0  0  0  0
 16 23  1  0  0  0  0
 17 18  1  1  0  0  0
 17 19  1  0  0  0  0
 19  2  1  6  0  0  0
 19 20  1  0  0  0  0
 20 21  1  6  0  0  0
 20 22  1  0  0  0  0
 23 24  1  0  0  0  0
 24 25  1  0  0  0  0
 25 26  1  0  0  0  0
 26 27  1  0  0  0  0
 27 28  1  0  0  0  0
 28 29  1  0  0  0  0
 29 30  1  0  0  0  0
 31 37  1  0  0  0  0
 32 33  2  0  0  0  0
 34 32  1  1  0  0  0
 34 35  1  0  0  0  0
 34 36  1  0  0  0  0
 36 37  1  0  0  0  0
M  END
>  <CHROM.1>
173.05041018,162.53661997,100.16277234,-77.51169539,-68.59856115,115.53604513
-60.97985818,173.31437809,-24.74012273,67.93866226,178.67155032,-61.44639747
-124.43340807,62.72901372,-164.12040086,-6.76338628,16.50014538,6.62392508
-0.48778178,-0.31963520,1.05431105

>  <Name>
1o9m_lig

>  <RI>
0

>  <Rbt.Current_Directory>
/home/itssahil/PROJECTS/Mol_Feturizer/New_Systems/rnas/1o9m

>  <Rbt.Executable>
rbdock ($Id: //depot/dev/client3/rdock/2013.1/src/exe/rbdock.cxx#4 $)

>  <Rbt.Library>
libRbt.so (2013.1, Build901 2013/11/27)

>  <Rbt.Parameter_File>
/export/apps/rDock/src/rDock_2013.1_src/data/scripts/dock_solv.prm

>  <Rbt.Receptor>
prm/pocket_docking_3.prm

>  <SCORE>
-15.771

>  <SCORE.INTER>
-16.1707

>  <SCORE.INTER.CONST>
1

>  <SCORE.INTER.POLAR>
-1.86835

>  <SCORE.INTER.ROT>
15

>  <SCORE.INTER.SOLV>
19.6633

>  <SCORE.INTER.VDW>
-24.7071

>  <SCORE.INTER.norm>
-0.437047

>  <SCORE.INTRA>
0.398528

>  <SCORE.INTRA.DIHEDRAL>
-6.13976

>  <SCORE.INTRA.DIHEDRAL.0>
21.5987

>  <SCORE.INTRA.POLAR>
0

>  <SCORE.INTRA.POLAR.0>
0

>  <SCORE.INTRA.REPUL>
0

>  <SCORE.INTRA.REPUL.0>
0

>  <SCORE.INTRA.SOLV>
6.92153

>  <SCORE.INTRA.SOLV.lig_0>
-108.715

>  <SCORE.INTRA.VDW>
0.00764215

>  <SCORE.INTRA.VDW.0>
-3.9485

>  <SCORE.INTRA.norm>
0.010771

>  <SCORE.RESTR>
0.00124592

>  <SCORE.RESTR.CAVITY>
0.00124592

>  <SCORE.RESTR.norm>
3.36734e-05

>  <SCORE.SYSTEM>
0

>  <SCORE.SYSTEM.CONST>
0

>  <SCORE.SYSTEM.DIHEDRAL>
0

>  <SCORE.SYSTEM.SOLV>
0

>  <SCORE.SYSTEM.norm>
0

>  <SCORE.heavy>
37

>  <SCORE.norm>
-0.426243

>  <RMSD>
1.905

$$$$
1o9m_lig
 OpenBabel11021811403D
libRbt.so/2013.1/901 2013/11/27
 37 38  0  0  0  0  0  0  0  0999 V2000
   -4.8074   14.0203    5.4087 C   0  0  2  0  0  0  0  0  0  0  0  0
   -5.6069   15.0323    4.7239 O   0  0  0  0  0  0  0  0  0  0  0  0
   -3.3015   14.3995    5.1581 C   0  0  2  0  0  0  0  0  0  0  0  0
   -2.9759   15.7464    5.6590 N   0  0  0  0  0  0  0  0  0  0  0  0
   -2.9921   14.2875    3.6168 C   0  0  1  0  0  0  0  0  0  0  0  0
   -1.6259   14.6263    3.3631 O   0  0  0  0  0  0  0  0  0  0  0  0
   -3.3361   12.8325    3.1566 C   0  0  2  0  0  0  0  0  0  0  0  0
   -3.1061   12.6223    1.7538 O   0  0  0  0  0  0  0  0  0  0  0  0
   -4.8126   12.4929    3.4776 C   0  0  2  0  0  0  0  0  0  0  0  0
   -5.0899   12.6840    4.8726 O   0  0  0  0  0  0  0  0  0  0  0  0
   -5.1545   11.0762    3.0949 C   0  0  0  0  0  0  0  0  0  0  0  0
   -6.5140   10.8822    3.1538 N   0  0  0  0  0  0  0  0  0  0  0  0
   -9.4005   17.0752    5.2292 C   0  0  1  0  0  0  0  0  0  0  0  0
  -10.8246   17.3139    5.5961 N   0  0  0  0  0  0  0  0  0  0  0  0
   -8.6271   16.6924    6.4836 C   0  0  2  0  0  0  0  0  0  0  0  0
   -8.7778   17.7241    7.4126 O   0  0  0  0  0  0  0  0  0  0  0  0
   -7.1213   16.4500    6.1496 C   0  0  1  0  0  0  0  0  0  0  0  0
   -6.3949   16.0626    7.3557 O   0  0  0  0  0  0  0  0  0  0  0  0
   -6.9949   15.2859    5.0844 C   0  0  1  0  0  0  0  0  0  0  0  0
   -7.7484   15.6651    3.8186 C   0  0  1  0  0  0  0  0  0  0  0  0
   -7.6070   14.5895    2.8488 N   0  0  0  0  0  0  0  0  0  0  0  0
   -9.2415   15.9252    4.1540 C   0  0  0  0  0  0  0  0  0  0  0  0
   -8.5742   18.4882    8.6214 C   0  0  0  0  0  0  0  0  0  0  0  0
   -8.3244   17.5409    9.7724 C   0  0  0  0  0  0  0  0  0  0  0  0
   -6.9242   17.0833    9.8861 N   0  0  0  0  0  0  0  0  0  0  0  0
   -5.4474   17.0791    9.9945 C   0  0  0  0  0  0  0  0  0  0  0  0
   -5.3337   18.0155   11.2042 C   0  0  0  0  0  0  0  0  0  0  0  0
   -3.8697   18.3213   11.5721 C   0  0  0  0  0  0  0  0  0  0  0  0
   -3.7848   19.1207   12.8686 C   0  0  0  0  0  0  0  0  0  0  0  0
   -4.3379   18.3464   13.9708 N   0  0  0  0  0  0  0  0  0  0  0  0
  -11.6928   20.9835    4.7976 N   0  0  0  0  0  0  0  0  0  0  0  0
  -11.7041   18.1301    4.2896 C   0  0  0  0  0  0  0  0  0  0  0  0
  -11.4495   18.4781    3.3006 O   0  0  0  0  0  0  0  0  0  0  0  0
  -12.8942   18.1028    5.2172 C   0  0  2  0  0  0  0  0  0  0  0  0
  -14.0632   18.3185    4.5325 O   0  0  0  0  0  0  0  0  0  0  0  0
  -12.7282   19.2703    6.1837 C   0  0  0  0  0  0  0  0  0  0  0  0
  -12.8882   20.6857    5.5998 C   0  0  0  0  0  0  0  0  0  0  0  0
  1  2  1  6  0  0  0
  1  3  1  0  0  0  0
  3  4  1  6  0  0  0
  3  5  1  0  0  0  0
  5  6  1  1  0  0  0
  5  7  1  0  0  0  0
  7  8  1  6  0  0  0
  9  7  1  0  0  0  0
  9 10  1  0  0  0  0
  9 11  1  1  0  0  0
 10  1  1  0  0  0  0
 11 12  1  0  0  0  0
 13 14  1  1  0  0  0
 13 15  1  0  0  0  0
 13 22  1  0  0  0  0
 14 32  1  0  0  0  0
 15 16  1  1  0  0  0
 15 17  1  0  0  0  0
 16 23  1  0  0  0  0
 17 18  1  1  0  0  0
 17 19  1  0  0  0  0
 19  2  1  6  0  0  0
 19 20  1  0  0  0  0
 20 21  1  6  0  0  0
 20 22  1  0  0  0  0
 23 24  1  0  0  0  0
 24 25  1  0  0  0  0
 25 26  1  0  0  0  0
 26 27  1  0  0  0  0
 27 28  1  0  0  0  0
 28 29  1  0  0  0  0
 29 30  1  0  0  0  0
 31 37  1  0  0  0  0
 32 33  2  0  0  0  0
 34 32  1  6  0  0  0
 34 35  1  0  0  0  0
 34 36  1  0  0  0  0
 36 37  1  0  0  0  0
M  END
>  <CHROM.1>
-158.95936764,-168.70279333,166.42485005,-172.69464900,-34.62490813,93.10044579
83.30327752,53.34713660,53.36075283,-176.60961701,-173.50014793,62.14025885
-162.73395512,69.49846358,-73.43317059,-7.18212617,16.25336158,6.02873396
0.53053401,0.45253760,-2.10359807

>  <Name>
1o9m_lig

>  <RI>
0

>  <Rbt.Current_Directory>
/home/itssahil/PROJECTS/Mol_Feturizer/New_Systems/rnas/1o9m

>  <Rbt.Executable>
rbdock ($Id: //depot/dev/client3/rdock/2013.1/src/exe/rbdock.cxx#4 $)

>  <Rbt.Library>
libRbt.so (2013.1, Build901 2013/11/27)

>  <Rbt.Parameter_File>
/export/apps/rDock/src/rDock_2013.1_src/data/scripts/dock_solv.prm

>  <Rbt.Receptor>
prm/pocket_docking_5.prm

>  <SCORE>
-13.093

>  <SCORE.INTER>
-12.2469

>  <SCORE.INTER.CONST>
1

>  <SCORE.INTER.POLAR>
-0.959166

>  <SCORE.INTER.ROT>
15

>  <SCORE.INTER.SOLV>
23.0648

>  <SCORE.INTER.VDW>
-26.2557

>  <SCORE.INTER.norm>
-0.330998

>  <SCORE.INTRA>
-0.848763

>  <SCORE.INTRA.DIHEDRAL>
-7.47046

>  <SCORE.INTRA.DIHEDRAL.0>
21.5987

>  <SCORE.INTRA.POLAR>
0

>  <SCORE.INTRA.POLAR.0>
0

>  <SCORE.INTRA.REPUL>
0

>  <SCORE.INTRA.REPUL.0>
0

>  <SCORE.INTRA.SOLV>
6.47067

>  <SCORE.INTRA.SOLV.lig_0>
-108.715

>  <SCORE.INTRA.VDW>
-0.348869

>  <SCORE.INTRA.VDW.0>
-3.9485

>  <SCORE.INTRA.norm>
-0.0229396

>  <SCORE.RESTR>
0.00267203

>  <SCORE.RESTR.CAVITY>
0.00267203

>  <SCORE.RESTR.norm>
7.2217e-05

>  <SCORE.SYSTEM>
0

>  <SCORE.SYSTEM.CONST>
0

>  <SCORE.SYSTEM.DIHEDRAL>
0

>  <SCORE.SYSTEM.SOLV>
0

>  <SCORE.SYSTEM.norm>
0

>  <SCORE.heavy>
37

>  <SCORE.norm>
-0.353865

>  <RMSD>
1.906

$$$$
1o9m_lig
 OpenBabel11021811403D
libRbt.so/2013.1/901 2013/11/27
 37 38  0  0  0  0  0  0  0  0999 V2000
   -4.3753   14.4309    5.6119 C   0  0  2  0  0  0  0  0  0  0  0  0
   -4.8998   15.6328    4.9695 O   0  0  0  0  0  0  0  0  0  0  0  0
   -2.8577   14.3380    5.2086 C   0  0  2  0  0  0  0  0  0  0  0  0
   -2.0962   15.5273    5.6291 N   0  0  0  0  0  0  0  0  0  0  0  0
   -2.7511   14.1296    3.6501 C   0  0  1  0  0  0  0  0  0  0  0  0
   -1.3786   14.0402    3.2581 O   0  0  0  0  0  0  0  0  0  0  0  0
   -3.5584   12.8429    3.2755 C   0  0  2  0  0  0  0  0  0  0  0  0
   -3.5428   12.5656    1.8657 O   0  0  0  0  0  0  0  0  0  0  0  0
   -5.0292   12.9652    3.7448 C   0  0  2  0  0  0  0  0  0  0  0  0
   -5.0962   13.2386    5.1520 O   0  0  0  0  0  0  0  0  0  0  0  0
   -5.8153   11.7149    3.4458 C   0  0  0  0  0  0  0  0  0  0  0  0
   -6.0328   11.6015    2.0934 N   0  0  0  0  0  0  0  0  0  0  0  0
   -7.6772   18.5013    6.6661 C   0  0  1  0  0  0  0  0  0  0  0  0
   -8.9623   19.1229    7.0924 N   0  0  0  0  0  0  0  0  0  0  0  0
   -7.5220   17.1604    7.3705 C   0  0  2  0  0  0  0  0  0  0  0  0
   -7.5785   17.3894    8.7469 O   0  0  0  0  0  0  0  0  0  0  0  0
   -6.1764   16.4789    6.9671 C   0  0  1  0  0  0  0  0  0  0  0  0
   -6.0493   15.1849    7.6317 O   0  0  0  0  0  0  0  0  0  0  0  0
   -6.1459   16.2509    5.4009 C   0  0  1  0  0  0  0  0  0  0  0  0
   -6.2812   17.5865    4.6857 C   0  0  1  0  0  0  0  0  0  0  0  0
   -6.2358   17.3560    3.2496 N   0  0  0  0  0  0  0  0  0  0  0  0
   -7.6097   18.2731    5.1018 C   0  0  0  0  0  0  0  0  0  0  0  0
   -7.7200   17.1014   10.1553 C   0  0  0  0  0  0  0  0  0  0  0  0
   -7.0945   18.2198   10.9569 C   0  0  0  0  0  0  0  0  0  0  0  0
   -5.9301   17.8056   11.7665 N   0  0  0  0  0  0  0  0  0  0  0  0
   -4.6844   17.1349   12.2034 C   0  0  0  0  0  0  0  0  0  0  0  0
   -3.7246   17.8549   11.2477 C   0  0  0  0  0  0  0  0  0  0  0  0
   -3.2439   19.2062   11.8090 C   0  0  0  0  0  0  0  0  0  0  0  0
   -2.4768   19.9974   10.7540 C   0  0  0  0  0  0  0  0  0  0  0  0
   -1.1851   19.3742   10.5025 N   0  0  0  0  0  0  0  0  0  0  0  0
  -14.3919   19.6835    4.9093 N   0  0  0  0  0  0  0  0  0  0  0  0
  -10.3433   18.4125    6.2353 C   0  0  0  0  0  0  0  0  0  0  0  0
  -10.4642   17.6372    5.4948 O   0  0  0  0  0  0  0  0  0  0  0  0
  -11.1913   19.3937    7.0071 C   0  0  2  0  0  0  0  0  0  0  0  0
  -11.8610   18.7738    8.0315 O   0  0  0  0  0  0  0  0  0  0  0  0
  -12.2497   19.9176    6.0427 C   0  0  0  0  0  0  0  0  0  0  0  0
  -13.3365   18.9236    5.5947 C   0  0  0  0  0  0  0  0  0  0  0  0
  1  2  1  6  0  0  0
  1  3  1  0  0  0  0
  3  4  1  6  0  0  0
  3  5  1  0  0  0  0
  5  6  1  1  0  0  0
  5  7  1  0  0  0  0
  7  8  1  6  0  0  0
  9  7  1  0  0  0  0
  9 10  1  0  0  0  0
  9 11  1  1  0  0  0
 10  1  1  0  0  0  0
 11 12  1  0  0  0  0
 13 14  1  6  0  0  0
 13 15  1  0  0  0  0
 13 22  1  0  0  0  0
 14 32  1  0  0  0  0
 15 16  1  1  0  0  0
 15 17  1  0  0  0  0
 16 23  1  0  0  0  0
 17 18  1  1  0  0  0
 17 19  1  0  0  0  0
 19  2  1  1  0  0  0
 19 20  1  0  0  0  0
 20 21  1  6  0  0  0
 20 22  1  0  0  0  0
 23 24  1  0  0  0  0
 24 25  1  0  0  0  0
 25 26  1  0  0  0  0
 26 27  1  0  0  0  0
 27 28  1  0  0  0  0
 28 29  1  0  0  0  0
 29 30  1  0  0  0  0
 31 37  1  0  0  0  0
 32 33  2  0  0  0  0
 34 32  1  6  0  0  0
 34 35  1  0  0  0  0
 34 36  1  0  0  0  0
 36 37  1  0  0  0  0
M  END
>  <CHROM.1>
-162.48861959,-71.09446502,-79.00105869,163.48539664,159.79515594,50.25500334
-116.03916522,38.21008066,70.12066583,85.20366173,-170.89458745,-71.00656353
-104.04069319,69.20209796,168.48551582,-6.41739948,16.61993459,6.57958266
0.70159226,0.34887891,-2.14689591

>  <Name>
1o9m_lig

>  <RI>
0

>  <Rbt.Current_Directory>
/home/itssahil/PROJECTS/Mol_Feturizer/New_Systems/rnas/1o9m

>  <Rbt.Executable>
rbdock ($Id: //depot/dev/client3/rdock/2013.1/src/exe/rbdock.cxx#4 $)

>  <Rbt.Library>
libRbt.so (2013.1, Build901 2013/11/27)

>  <Rbt.Parameter_File>
/export/apps/rDock/src/rDock_2013.1_src/data/scripts/dock_solv.prm

>  <Rbt.Receptor>
prm/pocket_docking_3.prm

>  <SCORE>
-11.1784

>  <SCORE.INTER>
-10.5385

>  <SCORE.INTER.CONST>
1

>  <SCORE.INTER.POLAR>
-1.83326

>  <SCORE.INTER.ROT>
15

>  <SCORE.INTER.SOLV>
12.0017

>  <SCORE.INTER.VDW>
-18.5153

>  <SCORE.INTER.norm>
-0.284824

>  <SCORE.INTRA>
-0.698423

>  <SCORE.INTRA.DIHEDRAL>
-4.36355

>  <SCORE.INTRA.DIHEDRAL.0>
21.5987

>  <SCORE.INTRA.POLAR>
0

>  <SCORE.INTRA.POLAR.0>
0

>  <SCORE.INTRA.REPUL>
0

>  <SCORE.INTRA.REPUL.0>
0

>  <SCORE.INTRA.SOLV>
0.433269

>  <SCORE.INTRA.SOLV.lig_0>
-108.715

>  <SCORE.INTRA.VDW>
1.26672

>  <SCORE.INTRA.VDW.0>
-3.9485

>  <SCORE.INTRA.norm>
-0.0188763

>  <SCORE.RESTR>
0.058466

>  <SCORE.RESTR.CAVITY>
0.058466

>  <SCORE.RESTR.norm>
0.00158016

>  <SCORE.SYSTEM>
0

>  <SCORE.SYSTEM.CONST>
0

>  <SCORE.SYSTEM.DIHEDRAL>
0

>  <SCORE.SYSTEM.SOLV>
0

>  <SCORE.SYSTEM.norm>
0

>  <SCORE.heavy>
37

>  <SCORE.norm>
-0.30212

>  <RMSD>
1.921

$$$$
1o9m_lig
 OpenBabel11021811403D
libRbt.so/2013.1/901 2013/11/27
 37 38  0  0  0  0  0  0  0  0999 V2000
   -4.1492   14.5542    5.8409 C   0  0  2  0  0  0  0  0  0  0  0  0
   -4.6824   15.8184    5.3413 O   0  0  0  0  0  0  0  0  0  0  0  0
   -2.6160   14.5489    5.4888 C   0  0  2  0  0  0  0  0  0  0  0  0
   -1.9026   15.6888    6.0910 N   0  0  0  0  0  0  0  0  0  0  0  0
   -2.4478   14.5501    3.9218 C   0  0  1  0  0  0  0  0  0  0  0  0
   -1.0601   14.5435    3.5757 O   0  0  0  0  0  0  0  0  0  0  0  0
   -3.2060   13.3065    3.3507 C   0  0  2  0  0  0  0  0  0  0  0  0
   -3.1320   13.2179    1.9184 O   0  0  0  0  0  0  0  0  0  0  0  0
   -4.6955   13.3334    3.7738 C   0  0  2  0  0  0  0  0  0  0  0  0
   -4.8205   13.4174    5.2009 O   0  0  0  0  0  0  0  0  0  0  0  0
   -5.4362   12.1164    3.2831 C   0  0  0  0  0  0  0  0  0  0  0  0
   -6.7852   12.2587    3.5050 N   0  0  0  0  0  0  0  0  0  0  0  0
   -8.1146   18.1985    6.5143 C   0  0  1  0  0  0  0  0  0  0  0  0
   -9.5328   18.5926    6.7443 N   0  0  0  0  0  0  0  0  0  0  0  0
   -7.8196   16.9356    7.3121 C   0  0  2  0  0  0  0  0  0  0  0  0
   -8.0928   17.2028    8.6553 O   0  0  0  0  0  0  0  0  0  0  0  0
   -6.3348   16.4945    7.1157 C   0  0  1  0  0  0  0  0  0  0  0  0
   -6.0703   15.2711    7.8679 O   0  0  0  0  0  0  0  0  0  0  0  0
   -6.0626   16.2165    5.5813 C   0  0  1  0  0  0  0  0  0  0  0  0
   -6.3359   17.4773    4.7754 C   0  0  1  0  0  0  0  0  0  0  0  0
   -6.0655   17.2044    3.3719 N   0  0  0  0  0  0  0  0  0  0  0  0
   -7.8065   17.9271    4.9862 C   0  0  0  0  0  0  0  0  0  0  0  0
   -8.1366   17.9319    9.9015 C   0  0  0  0  0  0  0  0  0  0  0  0
   -6.7832   18.5521   10.1626 C   0  0  0  0  0  0  0  0  0  0  0  0
   -6.1869   18.1780   11.4616 N   0  0  0  0  0  0  0  0  0  0  0  0
   -6.0270   17.8511   12.8968 C   0  0  0  0  0  0  0  0  0  0  0  0
   -4.4935   17.8420   12.9296 C   0  0  0  0  0  0  0  0  0  0  0  0
   -3.9005   19.2629   12.9733 C   0  0  0  0  0  0  0  0  0  0  0  0
   -2.3756   19.2220   12.9625 C   0  0  0  0  0  0  0  0  0  0  0  0
   -1.9003   18.6103   11.7296 N   0  0  0  0  0  0  0  0  0  0  0  0
  -14.3164   19.9740    5.8687 N   0  0  0  0  0  0  0  0  0  0  0  0
  -10.6527   17.5253    5.8764 C   0  0  0  0  0  0  0  0  0  0  0  0
  -10.5431   16.6622    5.2383 O   0  0  0  0  0  0  0  0  0  0  0  0
  -11.7501   18.3969    6.4365 C   0  0  2  0  0  0  0  0  0  0  0  0
  -11.8459   18.2618    7.7983 O   0  0  0  0  0  0  0  0  0  0  0  0
  -13.0620   17.8873    5.8501 C   0  0  0  0  0  0  0  0  0  0  0  0
  -14.3526   18.5777    6.3271 C   0  0  0  0  0  0  0  0  0  0  0  0
  1  2  1  6  0  0  0
  1  3  1  0  0  0  0
  3  4  1  1  0  0  0
  3  5  1  0  0  0  0
  5  6  1  1  0  0  0
  5  7  1  0  0  0  0
  7  8  1  6  0  0  0
  9  7  1  0  0  0  0
  9 10  1  0  0  0  0
  9 11  1  1  0  0  0
 10  1  1  0  0  0  0
 11 12  1  0  0  0  0
 13 14  1  6  0  0  0
 13 15  1  0  0  0  0
 13 22  1  0  0  0  0
 14 32  1  0  0  0  0
 15 16  1  1  0  0  0
 15 17  1  0  0  0  0
 16 23  1  0  0  0  0
 17 18  1  1  0  0  0
 17 19  1  0  0  0  0
 19  2  1  1  0  0  0
 19 20  1  0  0  0  0
 20 21  1  6  0  0  0
 20 22  1  0  0  0  0
 23 24  1  0  0  0  0
 24 25  1  0  0  0  0
 25 26  1  0  0  0  0
 26 27  1  0  0  0  0
 27 28  1  0  0  0  0
 28 29  1  0  0  0  0
 29 30  1  0  0  0  0
 31 37  1  0  0  0  0
 32 33  2  0  0  0  0
 34 32  1  6  0  0  0
 34 35  1  0  0  0  0
 34 36  1  0  0  0  0
 36 37  1  0  0  0  0
M  END
>  <CHROM.1>
-175.24566146,-171.38412162,-74.27949964,-41.16573053,-46.01207570,66.73385343
-124.15325846,-39.51918164,-170.37210127,78.42445284,-178.28220957,62.13596465
-67.42166572,177.12667011,65.00966964,-6.57322697,16.56519388,6.82627768
0.57317326,0.29077025,-2.05292775

>  <Name>
1o9m_lig

>  <RI>
0

>  <Rbt.Current_Directory>
/home/itssahil/PROJECTS/Mol_Feturizer/New_Systems/rnas/1o9m

>  <Rbt.Executable>
rbdock ($Id: //depot/dev/client3/rdock/2013.1/src/exe/rbdock.cxx#4 $)

>  <Rbt.Library>
libRbt.so (2013.1, Build901 2013/11/27)

>  <Rbt.Parameter_File>
/export/apps/rDock/src/rDock_2013.1_src/data/scripts/dock_solv.prm

>  <Rbt.Receptor>
prm/pocket_docking_3.prm

>  <SCORE>
-20.4563

>  <SCORE.INTER>
-16.8243

>  <SCORE.INTER.CONST>
1

>  <SCORE.INTER.POLAR>
-1.86401

>  <SCORE.INTER.ROT>
15

>  <SCORE.INTER.SOLV>
16.7235

>  <SCORE.INTER.VDW>
-24.1773

>  <SCORE.INTER.norm>
-0.454712

>  <SCORE.INTRA>
-4.02135

>  <SCORE.INTRA.DIHEDRAL>
-10.283

>  <SCORE.INTRA.DIHEDRAL.0>
21.5987

>  <SCORE.INTRA.POLAR>
0

>  <SCORE.INTRA.POLAR.0>
0

>  <SCORE.INTRA.REPUL>
0

>  <SCORE.INTRA.REPUL.0>
0

>  <SCORE.INTRA.SOLV>
1.24055

>  <SCORE.INTRA.SOLV.lig_0>
-108.715

>  <SCORE.INTRA.VDW>
0.499889

>  <SCORE.INTRA.VDW.0>
-3.9485

>  <SCORE.INTRA.norm>
-0.108685

>  <SCORE.RESTR>
0.389399

>  <SCORE.RESTR.CAVITY>
0.389399

>  <SCORE.RESTR.norm>
0.0105243

>  <SCORE.SYSTEM>
0

>  <SCORE.SYSTEM.CONST>
0

>  <SCORE.SYSTEM.DIHEDRAL>
0

>  <SCORE.SYSTEM.SOLV>
0

>  <SCORE.SYSTEM.norm>
0

>  <SCORE.heavy>
37

>  <SCORE.norm>
-0.552872

>  <RMSD>
1.927

$$$$
1o9m_lig
 OpenBabel11021811403D
libRbt.so/2013.1/901 2013/11/27
 37 38  0  0  0  0  0  0  0  0999 V2000
   -4.1647   14.4624    6.0479 C   0  0  2  0  0  0  0  0  0  0  0  0
   -4.8455   15.6516    5.5434 O   0  0  0  0  0  0  0  0  0  0  0  0
   -2.6269   14.6991    5.8162 C   0  0  2  0  0  0  0  0  0  0  0  0
   -2.1401   15.9082    6.5033 N   0  0  0  0  0  0  0  0  0  0  0  0
   -2.3472   14.7865    4.2676 C   0  0  1  0  0  0  0  0  0  0  0  0
   -0.9531   15.0001    4.0305 O   0  0  0  0  0  0  0  0  0  0  0  0
   -2.8648   13.4672    3.6051 C   0  0  2  0  0  0  0  0  0  0  0  0
   -2.6742   13.4464    2.1810 O   0  0  0  0  0  0  0  0  0  0  0  0
   -4.3680   13.2554    3.9117 C   0  0  2  0  0  0  0  0  0  0  0  0
   -4.6078   13.2641    5.3265 O   0  0  0  0  0  0  0  0  0  0  0  0
   -4.8782   11.9618    3.3314 C   0  0  0  0  0  0  0  0  0  0  0  0
   -6.2430   11.8820    3.4735 N   0  0  0  0  0  0  0  0  0  0  0  0
   -8.4155   18.0241    6.2120 C   0  0  1  0  0  0  0  0  0  0  0  0
   -9.6802   18.5063    6.8345 N   0  0  0  0  0  0  0  0  0  0  0  0
   -7.2938   18.1239    7.2369 C   0  0  2  0  0  0  0  0  0  0  0  0
   -7.2138   19.4530    7.6578 O   0  0  0  0  0  0  0  0  0  0  0  0
   -5.9413   17.6450    6.6213 C   0  0  1  0  0  0  0  0  0  0  0  0
   -4.8785   17.7248    7.6195 O   0  0  0  0  0  0  0  0  0  0  0  0
   -6.0783   16.1419    6.1440 C   0  0  1  0  0  0  0  0  0  0  0  0
   -7.1841   16.0326    5.1052 C   0  0  1  0  0  0  0  0  0  0  0  0
   -7.2829   14.6476    4.6697 N   0  0  0  0  0  0  0  0  0  0  0  0
   -8.5248   16.5272    5.7110 C   0  0  0  0  0  0  0  0  0  0  0  0
   -7.5489   20.6607    8.3760 C   0  0  0  0  0  0  0  0  0  0  0  0
   -6.9412   20.6018    9.7586 C   0  0  0  0  0  0  0  0  0  0  0  0
   -7.0886   19.2934   10.4290 N   0  0  0  0  0  0  0  0  0  0  0  0
   -6.8197   18.0970   11.2589 C   0  0  0  0  0  0  0  0  0  0  0  0
   -5.3087   18.0158   11.0076 C   0  0  0  0  0  0  0  0  0  0  0  0
   -4.6153   16.9984   11.9330 C   0  0  0  0  0  0  0  0  0  0  0  0
   -4.5602   17.5108   13.3689 C   0  0  0  0  0  0  0  0  0  0  0  0
   -3.8465   18.7789   13.4204 N   0  0  0  0  0  0  0  0  0  0  0  0
  -15.4719   18.4470    5.5581 N   0  0  0  0  0  0  0  0  0  0  0  0
  -11.0561   18.3325    5.7285 C   0  0  0  0  0  0  0  0  0  0  0  0
  -11.1860   17.9529    4.7269 O   0  0  0  0  0  0  0  0  0  0  0  0
  -11.8809   18.9604    6.8254 C   0  0  2  0  0  0  0  0  0  0  0  0
  -12.0475   18.0969    7.8783 O   0  0  0  0  0  0  0  0  0  0  0  0
  -13.2666   19.2182    6.2440 C   0  0  0  0  0  0  0  0  0  0  0  0
  -14.1214   17.9830    5.9074 C   0  0  0  0  0  0  0  0  0  0  0  0
  1  2  1  6  0  0  0
  1  3  1  0  0  0  0
  3  4  1  1  0  0  0
  3  5  1  0  0  0  0
  5  6  1  1  0  0  0
  5  7  1  0  0  0  0
  7  8  1  6  0  0  0
  9  7  1  0  0  0  0
  9 10  1  0  0  0  0
  9 11  1  1  0  0  0
 10  1  1  0  0  0  0
 11 12  1  0  0  0  0
 13 14  1  1  0  0  0
 13 15  1  0  0  0  0
 13 22  1  0  0  0  0
 14 32  1  0  0  0  0
 15 16  1  6  0  0  0
 15 17  1  0  0  0  0
 16 23  1  0  0  0  0
 17 18  1  1  0  0  0
 17 19  1  0  0  0  0
 19  2  1  6  0  0  0
 19 20  1  0  0  0  0
 20 21  1  1  0  0  0
 20 22  1  0  0  0  0
 23 24  1  0  0  0  0
 24 25  1  0  0  0  0
 25 26  1  0  0  0  0
 26 27  1  0  0  0  0
 27 28  1  0  0  0  0
 28 29  1  0  0  0  0
 29 30  1  0  0  0  0
 31 37  1  0  0  0  0
 32 33  2  0  0  0  0
 34 32  1  6  0  0  0
 34 35  1  0  0  0  0
 34 36  1  0  0  0  0
 36 37  1  0  0  0  0
M  END
>  <CHROM.1>
-147.64367367,-172.48102714,-176.71241145,78.59713612,82.42041247,123.31011578
-43.37244375,144.32593181,-35.00531128,169.88598036,-71.54811672,-58.56135977
-71.35103918,67.95345222,171.62432645,-6.76614861,16.74256160,6.75771710
0.53118297,0.31463517,-2.12579069

>  <Name>
1o9m_lig

>  <RI>
0

>  <Rbt.Current_Directory>
/home/itssahil/PROJECTS/Mol_Feturizer/New_Systems/rnas/1o9m

>  <Rbt.Executable>
rbdock ($Id: //depot/dev/client3/rdock/2013.1/src/exe/rbdock.cxx#4 $)

>  <Rbt.Library>
libRbt.so (2013.1, Build901 2013/11/27)

>  <Rbt.Parameter_File>
/export/apps/rDock/src/rDock_2013.1_src/data/scripts/dock_solv.prm

>  <Rbt.Receptor>
prm/pocket_docking_3.prm

>  <SCORE>
-12.4218

>  <SCORE.INTER>
-14.5411

>  <SCORE.INTER.CONST>
1

>  <SCORE.INTER.POLAR>
-1.83095

>  <SCORE.INTER.ROT>
15

>  <SCORE.INTER.SOLV>
20.3467

>  <SCORE.INTER.VDW>
-23.9732

>  <SCORE.INTER.norm>
-0.393003

>  <SCORE.INTRA>
1.74061

>  <SCORE.INTRA.DIHEDRAL>
-1.92723

>  <SCORE.INTRA.DIHEDRAL.0>
21.5987

>  <SCORE.INTRA.POLAR>
0

>  <SCORE.INTRA.POLAR.0>
0

>  <SCORE.INTRA.REPUL>
0

>  <SCORE.INTRA.REPUL.0>
0

>  <SCORE.INTRA.SOLV>
5.47097

>  <SCORE.INTRA.SOLV.lig_0>
-108.715

>  <SCORE.INTRA.VDW>
-0.0312574

>  <SCORE.INTRA.VDW.0>
-3.9485

>  <SCORE.INTRA.norm>
0.0470435

>  <SCORE.RESTR>
0.37875

>  <SCORE.RESTR.CAVITY>
0.37875

>  <SCORE.RESTR.norm>
0.0102365

>  <SCORE.SYSTEM>
0

>  <SCORE.SYSTEM.CONST>
0

>  <SCORE.SYSTEM.DIHEDRAL>
0

>  <SCORE.SYSTEM.SOLV>
0

>  <SCORE.SYSTEM.norm>
0

>  <SCORE.heavy>
37

>  <SCORE.norm>
-0.335723

>  <RMSD>
1.981

$$$$
1o9m_lig
 OpenBabel11021811403D
libRbt.so/2013.1/901 2013/11/27
 37 38  0  0  0  0  0  0  0  0999 V2000
   -4.0359   14.5456    5.8606 C   0  0  2  0  0  0  0  0  0  0  0  0
   -4.5437   15.8166    5.3517 O   0  0  0  0  0  0  0  0  0  0  0  0
   -2.5410   14.4410    5.3822 C   0  0  2  0  0  0  0  0  0  0  0  0
   -1.7202   15.5627    5.8713 N   0  0  0  0  0  0  0  0  0  0  0  0
   -2.5081   14.3705    3.8081 C   0  0  1  0  0  0  0  0  0  0  0  0
   -1.1575   14.2730    3.3478 O   0  0  0  0  0  0  0  0  0  0  0  0
   -3.3762   13.1492    3.3581 C   0  0  2  0  0  0  0  0  0  0  0  0
   -3.4302   12.9996    1.9300 O   0  0  0  0  0  0  0  0  0  0  0  0
   -4.8204   13.2757    3.9027 C   0  0  2  0  0  0  0  0  0  0  0  0
   -4.8179   13.4232    5.3301 O   0  0  0  0  0  0  0  0  0  0  0  0
   -5.6628   12.0831    3.5302 C   0  0  0  0  0  0  0  0  0  0  0  0
   -5.8953   12.0691    2.1756 N   0  0  0  0  0  0  0  0  0  0  0  0
   -7.9760   18.1956    6.5261 C   0  0  1  0  0  0  0  0  0  0  0  0
   -9.3949   18.6053    6.7226 N   0  0  0  0  0  0  0  0  0  0  0  0
   -7.7374   16.8825    7.2590 C   0  0  2  0  0  0  0  0  0  0  0  0
   -8.0602   17.0765    8.6038 O   0  0  0  0  0  0  0  0  0  0  0  0
   -6.2543   16.4226    7.0960 C   0  0  1  0  0  0  0  0  0  0  0  0
   -6.0435   15.1521    7.7844 O   0  0  0  0  0  0  0  0  0  0  0  0
   -5.9249   16.2288    5.5598 C   0  0  1  0  0  0  0  0  0  0  0  0
   -6.1416   17.5399    4.8196 C   0  0  1  0  0  0  0  0  0  0  0  0
   -5.8191   17.3437    3.4142 N   0  0  0  0  0  0  0  0  0  0  0  0
   -7.6109   18.0073    4.9981 C   0  0  0  0  0  0  0  0  0  0  0  0
   -7.9813   17.6084    9.9445 C   0  0  0  0  0  0  0  0  0  0  0  0
   -7.7729   19.1038    9.8748 C   0  0  0  0  0  0  0  0  0  0  0  0
   -6.3571   19.5131    9.7710 N   0  0  0  0  0  0  0  0  0  0  0  0
   -4.8896   19.5715    9.9598 C   0  0  0  0  0  0  0  0  0  0  0  0
   -4.8918   19.7568   11.4825 C   0  0  0  0  0  0  0  0  0  0  0  0
   -3.4785   19.6562   12.0864 C   0  0  0  0  0  0  0  0  0  0  0  0
   -2.9277   18.2391   11.9615 C   0  0  0  0  0  0  0  0  0  0  0  0
   -3.8014   17.3003   12.6510 N   0  0  0  0  0  0  0  0  0  0  0  0
  -13.9604   18.5547    3.4126 N   0  0  0  0  0  0  0  0  0  0  0  0
  -10.5138   17.4554    5.9661 C   0  0  0  0  0  0  0  0  0  0  0  0
  -10.4033   16.5351    5.4138 O   0  0  0  0  0  0  0  0  0  0  0  0
  -11.6125   18.3732    6.4438 C   0  0  2  0  0  0  0  0  0  0  0  0
  -12.0264   18.0373    7.7078 O   0  0  0  0  0  0  0  0  0  0  0  0
  -12.8041   18.1554    5.5179 C   0  0  0  0  0  0  0  0  0  0  0  0
  -12.6378   18.5982    4.0530 C   0  0  0  0  0  0  0  0  0  0  0  0
  1  2  1  6  0  0  0
  1  3  1  0  0  0  0
  3  4  1  6  0  0  0
  3  5  1  0  0  0  0
  5  6  1  1  0  0  0
  5  7  1  0  0  0  0
  7  8  1  6  0  0  0
  9  7  1  0  0  0  0
  9 10  1  0  0  0  0
  9 11  1  1  0  0  0
 10  1  1  0  0  0  0
 11 12  1  0  0  0  0
 13 14  1  6  0  0  0
 13 15  1  0  0  0  0
 13 22  1  0  0  0  0
 14 32  1  0  0  0  0
 15 16  1  1  0  0  0
 15 17  1  0  0  0  0
 16 23  1  0  0  0  0
 17 18  1  1  0  0  0
 17 19  1  0  0  0  0
 19  2  1  1  0  0  0
 19 20  1  0  0  0  0
 20 21  1  6  0  0  0
 20 22  1  0  0  0  0
 23 24  1  0  0  0  0
 24 25  1  0  0  0  0
 25 26  1  0  0  0  0
 26 27  1  0  0  0  0
 27 28  1  0  0  0  0
 28 29  1  0  0  0  0
 29 30  1  0  0  0  0
 31 37  1  0  0  0  0
 32 33  2  0  0  0  0
 34 32  1  6  0  0  0
 34 35  1  0  0  0  0
 34 36  1  0  0  0  0
 36 37  1  0  0  0  0
M  END
>  <CHROM.1>
177.58021365,-68.62747224,-64.92871133,-64.38438524,44.05327759,63.33104553
-86.97069714,-38.29333275,-58.01416910,171.65779752,-67.46014731,-59.37032348
-88.85711287,-66.81418173,-168.83291865,-6.52297462,16.57096135,6.45599597
-0.64504619,-0.31745937,1.01796225

>  <Name>
1o9m_lig

>  <RI>
0

>  <Rbt.Current_Directory>
/home/itssahil/PROJECTS/Mol_Feturizer/New_Systems/rnas/1o9m

>  <Rbt.Executable>
rbdock ($Id: //depot/dev/client3/rdock/2013.1/src/exe/rbdock.cxx#4 $)

>  <Rbt.Library>
libRbt.so (2013.1, Build901 2013/11/27)

>  <Rbt.Parameter_File>
/export/apps/rDock/src/rDock_2013.1_src/data/scripts/dock_solv.prm

>  <Rbt.Receptor>
prm/pocket_docking_5.prm

>  <SCORE>
-18.6195

>  <SCORE.INTER>
-12.2717

>  <SCORE.INTER.CONST>
1

>  <SCORE.INTER.POLAR>
-1.85679

>  <SCORE.INTER.ROT>
15

>  <SCORE.INTER.SOLV>
15.8755

>  <SCORE.INTER.VDW>
-20.8837

>  <SCORE.INTER.norm>
-0.331668

>  <SCORE.INTRA>
-6.34773

>  <SCORE.INTRA.DIHEDRAL>
-14.7589

>  <SCORE.INTRA.DIHEDRAL.0>
21.5987

>  <SCORE.INTRA.POLAR>
0

>  <SCORE.INTRA.POLAR.0>
0

>  <SCORE.INTRA.REPUL>
0

>  <SCORE.INTRA.REPUL.0>
0

>  <SCORE.INTRA.SOLV>
1.93983

>  <SCORE.INTRA.SOLV.lig_0>
-108.715

>  <SCORE.INTRA.VDW>
0.0617822

>  <SCORE.INTRA.VDW.0>
-3.9485

>  <SCORE.INTRA.norm>
-0.17156

>  <SCORE.RESTR>
0

>  <SCORE.RESTR.CAVITY>
0

>  <SCORE.RESTR.norm>
0

>  <SCORE.SYSTEM>
0

>  <SCORE.SYSTEM.CONST>
0

>  <SCORE.SYSTEM.DIHEDRAL>
0

>  <SCORE.SYSTEM.SOLV>
0

>  <SCORE.SYSTEM.norm>
0

>  <SCORE.heavy>
37

>  <SCORE.norm>
-0.503229

>  <RMSD>
2.027

$$$$
1o9m_lig
 OpenBabel11021811403D
libRbt.so/2013.1/901 2013/11/27
 37 38  0  0  0  0  0  0  0  0999 V2000
   -4.4463   14.1373    5.2465 C   0  0  2  0  0  0  0  0  0  0  0  0
   -5.2324   15.1106    4.4935 O   0  0  0  0  0  0  0  0  0  0  0  0
   -2.9527   14.3238    4.7896 C   0  0  2  0  0  0  0  0  0  0  0  0
   -2.4619   15.6911    5.0356 N   0  0  0  0  0  0  0  0  0  0  0  0
   -2.8316   13.9538    3.2624 C   0  0  1  0  0  0  0  0  0  0  0  0
   -1.4801   14.1138    2.8228 O   0  0  0  0  0  0  0  0  0  0  0  0
   -3.3450   12.4879    3.0754 C   0  0  2  0  0  0  0  0  0  0  0  0
   -3.2948   12.0498    1.7078 O   0  0  0  0  0  0  0  0  0  0  0  0
   -4.7981   12.3481    3.5923 C   0  0  2  0  0  0  0  0  0  0  0  0
   -4.8976   12.7709    4.9600 O   0  0  0  0  0  0  0  0  0  0  0  0
   -5.2974   10.9312    3.4751 C   0  0  0  0  0  0  0  0  0  0  0  0
   -5.7173   10.6792    2.1907 N   0  0  0  0  0  0  0  0  0  0  0  0
   -8.1418   18.2352    5.2630 C   0  0  1  0  0  0  0  0  0  0  0  0
   -9.2726   18.9710    5.8952 N   0  0  0  0  0  0  0  0  0  0  0  0
   -7.0652   17.9929    6.3121 C   0  0  2  0  0  0  0  0  0  0  0  0
   -6.6799   19.2328    6.8263 O   0  0  0  0  0  0  0  0  0  0  0  0
   -5.8487   17.2385    5.6885 C   0  0  1  0  0  0  0  0  0  0  0  0
   -4.8331   16.9929    6.7086 O   0  0  0  0  0  0  0  0  0  0  0  0
   -6.3295   15.8478    5.1049 C   0  0  1  0  0  0  0  0  0  0  0  0
   -7.3925   16.0780    4.0415 C   0  0  1  0  0  0  0  0  0  0  0  0
   -7.8090   14.7896    3.5085 N   0  0  0  0  0  0  0  0  0  0  0  0
   -8.5934   16.8453    4.6566 C   0  0  0  0  0  0  0  0  0  0  0  0
   -5.9106   20.2008    7.5731 C   0  0  0  0  0  0  0  0  0  0  0  0
   -5.6731   19.6760    8.9705 C   0  0  0  0  0  0  0  0  0  0  0  0
   -6.8581   19.0478    9.5902 N   0  0  0  0  0  0  0  0  0  0  0  0
   -8.0535   18.2011    9.8056 C   0  0  0  0  0  0  0  0  0  0  0  0
   -7.3172   16.9063   10.1721 C   0  0  0  0  0  0  0  0  0  0  0  0
   -6.6659   16.9777   11.5660 C   0  0  0  0  0  0  0  0  0  0  0  0
   -5.2341   17.4968   11.4771 C   0  0  0  0  0  0  0  0  0  0  0  0
   -4.6110   17.4734   12.7929 N   0  0  0  0  0  0  0  0  0  0  0  0
  -10.9042   22.5252    7.3536 N   0  0  0  0  0  0  0  0  0  0  0  0
  -10.7149   18.9570    4.8627 C   0  0  0  0  0  0  0  0  0  0  0  0
  -10.9598   18.5343    3.9007 O   0  0  0  0  0  0  0  0  0  0  0  0
  -11.3629   19.7945    5.9381 C   0  0  2  0  0  0  0  0  0  0  0  0
  -12.6396   19.3663    6.1998 O   0  0  0  0  0  0  0  0  0  0  0  0
  -11.4781   21.2110    5.3859 C   0  0  0  0  0  0  0  0  0  0  0  0
  -11.9634   22.3004    6.3593 C   0  0  0  0  0  0  0  0  0  0  0  0
  1  2  1  6  0  0  0
  1  3  1  0  0  0  0
  3  4  1  6  0  0  0
  3  5  1  0  0  0  0
  5  6  1  1  0  0  0
  5  7  1  0  0  0  0
  7  8  1  6  0  0  0
  9  7  1  0  0  0  0
  9 10  1  0  0  0  0
  9 11  1  1  0  0  0
 10  1  1  0  0  0  0
 11 12  1  0  0  0  0
 13 14  1  1  0  0  0
 13 15  1  0  0  0  0
 13 22  1  0  0  0  0
 14 32  1  0  0  0  0
 15 16  1  6  0  0  0
 15 17  1  0  0  0  0
 16 23  1  0  0  0  0
 17 18  1  1  0  0  0
 17 19  1  0  0  0  0
 19  2  1  6  0  0  0
 19 20  1  0  0  0  0
 20 21  1  1  0  0  0
 20 22  1  0  0  0  0
 23 24  1  0  0  0  0
 24 25  1  0  0  0  0
 25 26  1  0  0  0  0
 26 27  1  0  0  0  0
 27 28  1  0  0  0  0
 28 29  1  0  0  0  0
 29 30  1  0  0  0  0
 31 37  1  0  0  0  0
 32 33  2  0  0  0  0
 34 32  1  6  0  0  0
 34 35  1  0  0  0  0
 34 36  1  0  0  0  0
 36 37  1  0  0  0  0
M  END
>  <CHROM.1>
-140.41688441,-80.97754659,-166.53048149,-170.49597934,-47.40492755,92.67408874
-43.01795650,49.09787243,80.63092908,71.85337359,-90.83404384,-176.31957424
-136.42091118,-173.15002753,69.50495820,-6.72003606,16.73518008,5.95388098
-0.77906255,-0.60686178,1.03563385

>  <Name>
1o9m_lig

>  <RI>
0

>  <Rbt.Current_Directory>
/home/itssahil/PROJECTS/Mol_Feturizer/New_Systems/rnas/1o9m

>  <Rbt.Executable>
rbdock ($Id: //depot/dev/client3/rdock/2013.1/src/exe/rbdock.cxx#4 $)

>  <Rbt.Library>
libRbt.so (2013.1, Build901 2013/11/27)

>  <Rbt.Parameter_File>
/export/apps/rDock/src/rDock_2013.1_src/data/scripts/dock_solv.prm

>  <Rbt.Receptor>
prm/pocket_docking_3.prm

>  <SCORE>
-7.48429

>  <SCORE.INTER>
-8.35322

>  <SCORE.INTER.CONST>
1

>  <SCORE.INTER.POLAR>
-1.57406

>  <SCORE.INTER.ROT>
15

>  <SCORE.INTER.SOLV>
15.8153

>  <SCORE.INTER.VDW>
-19.1937

>  <SCORE.INTER.norm>
-0.225763

>  <SCORE.INTRA>
0.713508

>  <SCORE.INTRA.DIHEDRAL>
-1.42417

>  <SCORE.INTRA.DIHEDRAL.0>
21.5987

>  <SCORE.INTRA.POLAR>
0

>  <SCORE.INTRA.POLAR.0>
0

>  <SCORE.INTRA.REPUL>
0

>  <SCORE.INTRA.REPUL.0>
0

>  <SCORE.INTRA.SOLV>
4.04915

>  <SCORE.INTRA.SOLV.lig_0>
-108.715

>  <SCORE.INTRA.VDW>
-0.598982

>  <SCORE.INTRA.VDW.0>
-3.9485

>  <SCORE.INTRA.norm>
0.019284

>  <SCORE.RESTR>
0.155427

>  <SCORE.RESTR.CAVITY>
0.155427

>  <SCORE.RESTR.norm>
0.00420073

>  <SCORE.SYSTEM>
0

>  <SCORE.SYSTEM.CONST>
0

>  <SCORE.SYSTEM.DIHEDRAL>
0

>  <SCORE.SYSTEM.SOLV>
0

>  <SCORE.SYSTEM.norm>
0

>  <SCORE.heavy>
37

>  <SCORE.norm>
-0.202278

>  <RMSD>
2.062

$$$$
1o9m_lig
 OpenBabel11021811403D
libRbt.so/2013.1/901 2013/11/27
 37 38  0  0  0  0  0  0  0  0999 V2000
   -3.9237   14.4224    5.9120 C   0  0  2  0  0  0  0  0  0  0  0  0
   -4.4629   15.7147    5.4980 O   0  0  0  0  0  0  0  0  0  0  0  0
   -2.4196   14.4007    5.4519 C   0  0  2  0  0  0  0  0  0  0  0  0
   -1.6408   15.5030    6.0429 N   0  0  0  0  0  0  0  0  0  0  0  0
   -2.3621   14.4581    3.8780 C   0  0  1  0  0  0  0  0  0  0  0  0
   -1.0026   14.4377    3.4340 O   0  0  0  0  0  0  0  0  0  0  0  0
   -3.1857   13.2519    3.3173 C   0  0  2  0  0  0  0  0  0  0  0  0
   -3.2146   13.2162    1.8810 O   0  0  0  0  0  0  0  0  0  0  0  0
   -4.6408   13.2916    3.8460 C   0  0  2  0  0  0  0  0  0  0  0  0
   -4.6632   13.3238    5.2805 O   0  0  0  0  0  0  0  0  0  0  0  0
   -5.4407   12.1085    3.3652 C   0  0  0  0  0  0  0  0  0  0  0  0
   -6.7762   12.2980    3.6296 N   0  0  0  0  0  0  0  0  0  0  0  0
   -7.7093   18.1022    7.1048 C   0  0  1  0  0  0  0  0  0  0  0  0
   -9.0917   18.5241    7.4659 N   0  0  0  0  0  0  0  0  0  0  0  0
   -7.4134   16.7652    7.7707 C   0  0  2  0  0  0  0  0  0  0  0  0
   -7.5853   16.9240    9.1474 O   0  0  0  0  0  0  0  0  0  0  0  0
   -5.9643   16.2913    7.4344 C   0  0  1  0  0  0  0  0  0  0  0  0
   -5.7003   14.9986    8.0603 O   0  0  0  0  0  0  0  0  0  0  0  0
   -5.8066   16.1383    5.8667 C   0  0  1  0  0  0  0  0  0  0  0  0
   -6.0815   17.4732    5.1911 C   0  0  1  0  0  0  0  0  0  0  0  0
   -5.9166   17.3141    3.7541 N   0  0  0  0  0  0  0  0  0  0  0  0
   -7.5151   17.9540    5.5414 C   0  0  0  0  0  0  0  0  0  0  0  0
   -7.7513   16.5579   10.5349 C   0  0  0  0  0  0  0  0  0  0  0  0
   -7.3727   17.7323   11.4078 C   0  0  0  0  0  0  0  0  0  0  0  0
   -5.9818   17.6930   11.9046 N   0  0  0  0  0  0  0  0  0  0  0  0
   -4.7175   18.0559   12.5846 C   0  0  0  0  0  0  0  0  0  0  0  0
   -4.1576   16.6358   12.7356 C   0  0  0  0  0  0  0  0  0  0  0  0
   -2.8186   16.6123   13.4963 C   0  0  0  0  0  0  0  0  0  0  0  0
   -1.6907   17.1800   12.6402 C   0  0  0  0  0  0  0  0  0  0  0  0
   -1.7464   18.6350   12.6403 N   0  0  0  0  0  0  0  0  0  0  0  0
  -12.4614   22.1536    6.3431 N   0  0  0  0  0  0  0  0  0  0  0  0
  -10.2952   17.8044    6.3796 C   0  0  0  0  0  0  0  0  0  0  0  0
  -10.2560   17.1323    5.5365 O   0  0  0  0  0  0  0  0  0  0  0  0
  -11.3192   18.5765    7.1751 C   0  0  2  0  0  0  0  0  0  0  0  0
  -12.5535   17.9815    7.1070 O   0  0  0  0  0  0  0  0  0  0  0  0
  -11.4528   19.9441    6.5145 C   0  0  0  0  0  0  0  0  0  0  0  0
  -12.3910   20.9574    7.1948 C   0  0  0  0  0  0  0  0  0  0  0  0
  1  2  1  6  0  0  0
  1  3  1  0  0  0  0
  3  4  1  1  0  0  0
  3  5  1  0  0  0  0
  5  6  1  1  0  0  0
  5  7  1  0  0  0  0
  7  8  1  6  0  0  0
  9  7  1  0  0  0  0
  9 10  1  0  0  0  0
  9 11  1  1  0  0  0
 10  1  1  0  0  0  0
 11 12  1  0  0  0  0
 13 14  1  6  0  0  0
 13 15  1  0  0  0  0
 13 22  1  0  0  0  0
 14 32  1  0  0  0  0
 15 16  1  1  0  0  0
 15 17  1  0  0  0  0
 16 23  1  0  0  0  0
 17 18  1  1  0  0  0
 17 19  1  0  0  0  0
 19  2  1  1  0  0  0
 19 20  1  0  0  0  0
 20 21  1  6  0  0  0
 20 22  1  0  0  0  0
 23 24  1  0  0  0  0
 24 25  1  0  0  0  0
 25 26  1  0  0  0  0
 26 27  1  0  0  0  0
 27 28  1  0  0  0  0
 28 29  1  0  0  0  0
 29 30  1  0  0  0  0
 31 37  1  0  0  0  0
 32 33  2  0  0  0  0
 34 32  1  6  0  0  0
 34 35  1  0  0  0  0
 34 36  1  0  0  0  0
 36 37  1  0  0  0  0
M  END
>  <CHROM.1>
-174.31755879,-168.46987705,-85.12218938,165.73187845,159.56451276,63.39393541
-95.78254890,177.98410338,155.79664839,-177.16647232,-72.00525918,78.67436217
-154.93546246,-176.65780924,-175.29393794,-6.20003289,16.48122582,7.10081961
0.60290857,0.44572421,-1.96124858

>  <Name>
1o9m_lig

>  <RI>
0

>  <Rbt.Current_Directory>
/home/itssahil/PROJECTS/Mol_Feturizer/New_Systems/rnas/1o9m

>  <Rbt.Executable>
rbdock ($Id: //depot/dev/client3/rdock/2013.1/src/exe/rbdock.cxx#4 $)

>  <Rbt.Library>
libRbt.so (2013.1, Build901 2013/11/27)

>  <Rbt.Parameter_File>
/export/apps/rDock/src/rDock_2013.1_src/data/scripts/dock_solv.prm

>  <Rbt.Receptor>
prm/pocket_docking_4.prm

>  <SCORE>
-14.1666

>  <SCORE.INTER>
-10.3034

>  <SCORE.INTER.CONST>
1

>  <SCORE.INTER.POLAR>
-1.16087

>  <SCORE.INTER.ROT>
15

>  <SCORE.INTER.SOLV>
17.4202

>  <SCORE.INTER.VDW>
-22.4061

>  <SCORE.INTER.norm>
-0.278471

>  <SCORE.INTRA>
-3.86316

>  <SCORE.INTRA.DIHEDRAL>
-10.0521

>  <SCORE.INTRA.DIHEDRAL.0>
21.5987

>  <SCORE.INTRA.POLAR>
0

>  <SCORE.INTRA.POLAR.0>
0

>  <SCORE.INTRA.REPUL>
0

>  <SCORE.INTRA.REPUL.0>
0

>  <SCORE.INTRA.SOLV>
0.0796599

>  <SCORE.INTRA.SOLV.lig_0>
-108.715

>  <SCORE.INTRA.VDW>
1.12305

>  <SCORE.INTRA.VDW.0>
-3.9485

>  <SCORE.INTRA.norm>
-0.10441

>  <SCORE.RESTR>
0

>  <SCORE.RESTR.CAVITY>
0

>  <SCORE.RESTR.norm>
0

>  <SCORE.SYSTEM>
0

>  <SCORE.SYSTEM.CONST>
0

>  <SCORE.SYSTEM.DIHEDRAL>
0

>  <SCORE.SYSTEM.SOLV>
0

>  <SCORE.SYSTEM.norm>
0

>  <SCORE.heavy>
37

>  <SCORE.norm>
-0.382881

>  <RMSD>
2.075

$$$$
1o9m_lig
 OpenBabel11021811403D
libRbt.so/2013.1/901 2013/11/27
 37 38  0  0  0  0  0  0  0  0999 V2000
   -4.2292   14.4829    5.7546 C   0  0  2  0  0  0  0  0  0  0  0  0
   -4.7708   15.7022    5.1611 O   0  0  0  0  0  0  0  0  0  0  0  0
   -2.7271   14.3950    5.2960 C   0  0  2  0  0  0  0  0  0  0  0  0
   -1.9463   15.5709    5.7187 N   0  0  0  0  0  0  0  0  0  0  0  0
   -2.6762   14.2251    3.7300 C   0  0  1  0  0  0  0  0  0  0  0  0
   -1.3187   14.1408    3.2878 O   0  0  0  0  0  0  0  0  0  0  0  0
   -3.5016   12.9508    3.3524 C   0  0  2  0  0  0  0  0  0  0  0  0
   -3.5366   12.7086    1.9364 O   0  0  0  0  0  0  0  0  0  0  0  0
   -4.9544   13.0663    3.8761 C   0  0  2  0  0  0  0  0  0  0  0  0
   -4.9708   13.3049    5.2910 O   0  0  0  0  0  0  0  0  0  0  0  0
   -5.7558   11.8265    3.5741 C   0  0  0  0  0  0  0  0  0  0  0  0
   -6.0451   11.7619    2.2319 N   0  0  0  0  0  0  0  0  0  0  0  0
   -8.1416   18.0051    6.6291 C   0  0  1  0  0  0  0  0  0  0  0  0
   -9.5489   18.4348    6.8620 N   0  0  0  0  0  0  0  0  0  0  0  0
   -7.9672   16.5867    7.1548 C   0  0  2  0  0  0  0  0  0  0  0  0
   -8.3136   16.5846    8.5076 O   0  0  0  0  0  0  0  0  0  0  0  0
   -6.4982   16.0997    6.9483 C   0  0  1  0  0  0  0  0  0  0  0  0
   -6.3490   14.7314    7.4362 O   0  0  0  0  0  0  0  0  0  0  0  0
   -6.1407   16.1312    5.4065 C   0  0  1  0  0  0  0  0  0  0  0  0
   -6.2931   17.5478    4.8737 C   0  0  1  0  0  0  0  0  0  0  0  0
   -5.9458   17.5570    3.4606 N   0  0  0  0  0  0  0  0  0  0  0  0
   -7.7484   18.0393    5.0968 C   0  0  0  0  0  0  0  0  0  0  0  0
   -8.1551   16.7026    9.9385 C   0  0  0  0  0  0  0  0  0  0  0  0
   -7.3996   17.9737   10.2521 C   0  0  0  0  0  0  0  0  0  0  0  0
   -6.7111   17.9613   11.5592 N   0  0  0  0  0  0  0  0  0  0  0  0
   -5.8945   17.5331   12.7178 C   0  0  0  0  0  0  0  0  0  0  0  0
   -4.5878   17.2759   11.9565 C   0  0  0  0  0  0  0  0  0  0  0  0
   -3.8551   18.5812   11.5938 C   0  0  0  0  0  0  0  0  0  0  0  0
   -3.0708   19.1202   12.7861 C   0  0  0  0  0  0  0  0  0  0  0  0
   -1.7999   18.4199   12.9067 N   0  0  0  0  0  0  0  0  0  0  0  0
  -15.4248   18.3868    5.3301 N   0  0  0  0  0  0  0  0  0  0  0  0
  -10.6903   17.4632    5.9133 C   0  0  0  0  0  0  0  0  0  0  0  0
  -10.6000   16.6374    5.2249 O   0  0  0  0  0  0  0  0  0  0  0  0
  -11.7661   18.3376    6.5098 C   0  0  2  0  0  0  0  0  0  0  0  0
  -11.9757   18.0360    7.8316 O   0  0  0  0  0  0  0  0  0  0  0  0
  -13.0603   18.0107    5.7731 C   0  0  0  0  0  0  0  0  0  0  0  0
  -14.3379   18.7157    6.2636 C   0  0  0  0  0  0  0  0  0  0  0  0
  1  2  1  6  0  0  0
  1  3  1  0  0  0  0
  3  4  1  6  0  0  0
  3  5  1  0  0  0  0
  5  6  1  1  0  0  0
  5  7  1  0  0  0  0
  7  8  1  6  0  0  0
  9  7  1  0  0  0  0
  9 10  1  0  0  0  0
  9 11  1  1  0  0  0
 10  1  1  0  0  0  0
 11 12  1  0  0  0  0
 13 14  1  6  0  0  0
 13 15  1  0  0  0  0
 13 22  1  0  0  0  0
 14 32  1  0  0  0  0
 15 16  1  1  0  0  0
 15 17  1  0  0  0  0
 16 23  1  0  0  0  0
 17 18  1  6  0  0  0
 17 19  1  0  0  0  0
 19  2  1  1  0  0  0
 19 20  1  0  0  0  0
 20 21  1  6  0  0  0
 20 22  1  0  0  0  0
 23 24  1  0  0  0  0
 24 25  1  0  0  0  0
 25 26  1  0  0  0  0
 26 27  1  0  0  0  0
 27 28  1  0  0  0  0
 28 29  1  0  0  0  0
 29 30  1  0  0  0  0
 31 37  1  0  0  0  0
 32 33  2  0  0  0  0
 34 32  1  6  0  0  0
 34 35  1  0  0  0  0
 34 36  1  0  0  0  0
 36 37  1  0  0  0  0
M  END
>  <CHROM.1>
-178.12229452,-72.35045431,-65.14973118,-88.65086811,47.44253406,48.43986768
-156.84962943,45.92975162,57.32385785,76.35497837,80.26011330,81.10479294
-73.04346981,176.23676241,173.47027318,-6.71663505,16.27497914,6.70315278
0.54733510,0.28628990,-2.04666235

>  <Name>
1o9m_lig

>  <RI>
0

>  <Rbt.Current_Directory>
/home/itssahil/PROJECTS/Mol_Feturizer/New_Systems/rnas/1o9m

>  <Rbt.Executable>
rbdock ($Id: //depot/dev/client3/rdock/2013.1/src/exe/rbdock.cxx#4 $)

>  <Rbt.Library>
libRbt.so (2013.1, Build901 2013/11/27)

>  <Rbt.Parameter_File>
/export/apps/rDock/src/rDock_2013.1_src/data/scripts/dock_solv.prm

>  <Rbt.Receptor>
prm/pocket_docking_4.prm

>  <SCORE>
-20.0508

>  <SCORE.INTER>
-16.7468

>  <SCORE.INTER.CONST>
1

>  <SCORE.INTER.POLAR>
-1.90646

>  <SCORE.INTER.ROT>
15

>  <SCORE.INTER.SOLV>
17.7457

>  <SCORE.INTER.VDW>
-24.3249

>  <SCORE.INTER.norm>
-0.452615

>  <SCORE.INTRA>
-3.30404

>  <SCORE.INTRA.DIHEDRAL>
-9.20237

>  <SCORE.INTRA.DIHEDRAL.0>
21.5987

>  <SCORE.INTRA.POLAR>
0

>  <SCORE.INTRA.POLAR.0>
0

>  <SCORE.INTRA.REPUL>
0

>  <SCORE.INTRA.REPUL.0>
0

>  <SCORE.INTRA.SOLV>
0.431979

>  <SCORE.INTRA.SOLV.lig_0>
-108.715

>  <SCORE.INTRA.VDW>
1.08116

>  <SCORE.INTRA.VDW.0>
-3.9485

>  <SCORE.INTRA.norm>
-0.0892983

>  <SCORE.RESTR>
0

>  <SCORE.RESTR.CAVITY>
0

>  <SCORE.RESTR.norm>
0

>  <SCORE.SYSTEM>
0

>  <SCORE.SYSTEM.CONST>
0

>  <SCORE.SYSTEM.DIHEDRAL>
0

>  <SCORE.SYSTEM.SOLV>
0

>  <SCORE.SYSTEM.norm>
0

>  <SCORE.heavy>
37

>  <SCORE.norm>
-0.541914

>  <RMSD>
2.089

$$$$
1o9m_lig
 OpenBabel11021811403D
libRbt.so/2013.1/901 2013/11/27
 37 38  0  0  0  0  0  0  0  0999 V2000
   -3.7448   14.4110    6.1688 C   0  0  2  0  0  0  0  0  0  0  0  0
   -4.4275   15.6364    5.7631 O   0  0  0  0  0  0  0  0  0  0  0  0
   -2.2281   14.6044    5.7991 C   0  0  2  0  0  0  0  0  0  0  0  0
   -1.6368   15.7757    6.4695 N   0  0  0  0  0  0  0  0  0  0  0  0
   -2.0916   14.7293    4.2340 C   0  0  1  0  0  0  0  0  0  0  0  0
   -0.7191   14.9044    3.8720 O   0  0  0  0  0  0  0  0  0  0  0  0
   -2.7151   13.4481    3.5881 C   0  0  2  0  0  0  0  0  0  0  0  0
   -2.6595   13.4641    2.1523 O   0  0  0  0  0  0  0  0  0  0  0  0
   -4.1895   13.2762    4.0295 C   0  0  2  0  0  0  0  0  0  0  0  0
   -4.2954   13.2500    5.4604 O   0  0  0  0  0  0  0  0  0  0  0  0
   -4.7970   12.0179    3.4654 C   0  0  0  0  0  0  0  0  0  0  0  0
   -5.8631   11.6177    4.2352 N   0  0  0  0  0  0  0  0  0  0  0  0
   -7.9524   17.7491    7.1531 C   0  0  1  0  0  0  0  0  0  0  0  0
   -9.3692   18.0121    7.5312 N   0  0  0  0  0  0  0  0  0  0  0  0
   -7.4141   16.6183    8.0192 C   0  0  2  0  0  0  0  0  0  0  0  0
   -7.5528   16.9980    9.3559 O   0  0  0  0  0  0  0  0  0  0  0  0
   -5.9220   16.3196    7.6699 C   0  0  1  0  0  0  0  0  0  0  0  0
   -5.4240   15.2196    8.4912 O   0  0  0  0  0  0  0  0  0  0  0  0
   -5.8061   15.9084    6.1456 C   0  0  1  0  0  0  0  0  0  0  0  0
   -6.3237   17.0386    5.2690 C   0  0  1  0  0  0  0  0  0  0  0  0
   -6.1944   16.6464    3.8736 N   0  0  0  0  0  0  0  0  0  0  0  0
   -7.8012   17.3489    5.6297 C   0  0  0  0  0  0  0  0  0  0  0  0
   -7.4363   16.9302   10.7941 C   0  0  0  0  0  0  0  0  0  0  0  0
   -5.9790   17.0364   11.1806 C   0  0  0  0  0  0  0  0  0  0  0  0
   -5.3265   18.2874   10.7422 N   0  0  0  0  0  0  0  0  0  0  0  0
   -4.3503   19.3909   10.5950 C   0  0  0  0  0  0  0  0  0  0  0  0
   -5.1462   20.4632   11.3499 C   0  0  0  0  0  0  0  0  0  0  0  0
   -5.1104   21.8284   10.6377 C   0  0  0  0  0  0  0  0  0  0  0  0
   -5.8509   21.7721    9.3051 C   0  0  0  0  0  0  0  0  0  0  0  0
   -5.7455   23.0526    8.6199 N   0  0  0  0  0  0  0  0  0  0  0  0
  -13.0796   22.5955    7.1929 N   0  0  0  0  0  0  0  0  0  0  0  0
   -9.9653   19.5188    6.8094 C   0  0  0  0  0  0  0  0  0  0  0  0
   -9.5456   20.2712    6.1599 O   0  0  0  0  0  0  0  0  0  0  0  0
  -11.2568   19.2313    7.5354 C   0  0  2  0  0  0  0  0  0  0  0  0
  -12.1425   18.5630    6.7286 O   0  0  0  0  0  0  0  0  0  0  0  0
  -11.8897   20.5793    7.8621 C   0  0  0  0  0  0  0  0  0  0  0  0
  -12.3044   21.4611    6.6703 C   0  0  0  0  0  0  0  0  0  0  0  0
  1  2  1  6  0  0  0
  1  3  1  0  0  0  0
  3  4  1  1  0  0  0
  3  5  1  0  0  0  0
  5  6  1  1  0  0  0
  5  7  1  0  0  0  0
  7  8  1  6  0  0  0
  9  7  1  0  0  0  0
  9 10  1  0  0  0  0
  9 11  1  6  0  0  0
 10  1  1  0  0  0  0
 11 12  1  0  0  0  0
 13 14  1  1  0  0  0
 13 15  1  0  0  0  0
 13 22  1  0  0  0  0
 14 32  1  0  0  0  0
 15 16  1  1  0  0  0
 15 17  1  0  0  0  0
 16 23  1  0  0  0  0
 17 18  1  1  0  0  0
 17 19  1  0  0  0  0
 19  2  1  6  0  0  0
 19 20  1  0  0  0  0
 20 21  1  6  0  0  0
 20 22  1  0  0  0  0
 23 24  1  0  0  0  0
 24 25  1  0  0  0  0
 25 26  1  0  0  0  0
 26 27  1  0  0  0  0
 27 28  1  0  0  0  0
 28 29  1  0  0  0  0
 29 30  1  0  0  0  0
 31 37  1  0  0  0  0
 32 33  2  0  0  0  0
 34 32  1  6  0  0  0
 34 35  1  0  0  0  0
 34 36  1  0  0  0  0
 36 37  1  0  0  0  0
M  END
>  <CHROM.1>
-169.84366314,157.00007558,168.43305822,-175.16225933,66.04911951,74.54796804
59.74119086,167.05276015,-107.81345991,-137.16015004,66.75913376,-177.11257157
-94.18555071,63.39812622,170.96327788,-6.32173285,17.17491511,6.92678544
-0.82533632,-0.34572909,0.82885045

>  <Name>
1o9m_lig

>  <RI>
0

>  <Rbt.Current_Directory>
/home/itssahil/PROJECTS/Mol_Feturizer/New_Systems/rnas/1o9m

>  <Rbt.Executable>
rbdock ($Id: //depot/dev/client3/rdock/2013.1/src/exe/rbdock.cxx#4 $)

>  <Rbt.Library>
libRbt.so (2013.1, Build901 2013/11/27)

>  <Rbt.Parameter_File>
/export/apps/rDock/src/rDock_2013.1_src/data/scripts/dock_solv.prm

>  <Rbt.Receptor>
prm/pocket_docking_4.prm

>  <SCORE>
-20.4674

>  <SCORE.INTER>
-15.8461

>  <SCORE.INTER.CONST>
1

>  <SCORE.INTER.POLAR>
-2.00537

>  <SCORE.INTER.ROT>
15

>  <SCORE.INTER.SOLV>
18.3152

>  <SCORE.INTER.VDW>
-23.5846

>  <SCORE.INTER.norm>
-0.428273

>  <SCORE.INTRA>
-4.62132

>  <SCORE.INTRA.DIHEDRAL>
-10.1443

>  <SCORE.INTRA.DIHEDRAL.0>
21.5987

>  <SCORE.INTRA.POLAR>
0

>  <SCORE.INTRA.POLAR.0>
0

>  <SCORE.INTRA.REPUL>
0

>  <SCORE.INTRA.REPUL.0>
0

>  <SCORE.INTRA.SOLV>
0.357982

>  <SCORE.INTRA.SOLV.lig_0>
-108.715

>  <SCORE.INTRA.VDW>
0.271849

>  <SCORE.INTRA.VDW.0>
-3.9485

>  <SCORE.INTRA.norm>
-0.124901

>  <SCORE.RESTR>
0

>  <SCORE.RESTR.CAVITY>
0

>  <SCORE.RESTR.norm>
0

>  <SCORE.SYSTEM>
0

>  <SCORE.SYSTEM.CONST>
0

>  <SCORE.SYSTEM.DIHEDRAL>
0

>  <SCORE.SYSTEM.SOLV>
0

>  <SCORE.SYSTEM.norm>
0

>  <SCORE.heavy>
37

>  <SCORE.norm>
-0.553173

>  <RMSD>
2.124

$$$$
1o9m_lig
 OpenBabel11021811403D
libRbt.so/2013.1/901 2013/11/27
 37 38  0  0  0  0  0  0  0  0999 V2000
   -4.2646   14.6705    6.0454 C   0  0  2  0  0  0  0  0  0  0  0  0
   -4.6510   15.9956    5.5691 O   0  0  0  0  0  0  0  0  0  0  0  0
   -2.7500   14.4853    5.6634 C   0  0  2  0  0  0  0  0  0  0  0  0
   -1.8937   15.5238    6.2628 N   0  0  0  0  0  0  0  0  0  0  0  0
   -2.6114   14.4856    4.0935 C   0  0  1  0  0  0  0  0  0  0  0  0
   -1.2411   14.3167    3.7202 O   0  0  0  0  0  0  0  0  0  0  0  0
   -3.5240   13.3493    3.5248 C   0  0  2  0  0  0  0  0  0  0  0  0
   -3.4874   13.2700    2.0905 O   0  0  0  0  0  0  0  0  0  0  0  0
   -4.9915   13.5497    3.9773 C   0  0  2  0  0  0  0  0  0  0  0  0
   -5.0795   13.6304    5.4074 O   0  0  0  0  0  0  0  0  0  0  0  0
   -5.8821   12.4366    3.4890 C   0  0  0  0  0  0  0  0  0  0  0  0
   -5.6840   11.3036    4.2417 N   0  0  0  0  0  0  0  0  0  0  0  0
   -7.5741   18.8670    6.9943 C   0  0  1  0  0  0  0  0  0  0  0  0
   -8.8918   19.4682    7.3432 N   0  0  0  0  0  0  0  0  0  0  0  0
   -7.3936   17.5818    7.7907 C   0  0  2  0  0  0  0  0  0  0  0  0
   -7.4984   17.8988    9.1467 O   0  0  0  0  0  0  0  0  0  0  0  0
   -6.0141   16.9246    7.4704 C   0  0  1  0  0  0  0  0  0  0  0  0
   -5.8621   15.6826    8.2232 O   0  0  0  0  0  0  0  0  0  0  0  0
   -5.9297   16.5952    5.9243 C   0  0  1  0  0  0  0  0  0  0  0  0
   -6.0899   17.8751    5.1180 C   0  0  1  0  0  0  0  0  0  0  0  0
   -5.9943   17.5522    3.7023 N   0  0  0  0  0  0  0  0  0  0  0  0
   -7.4528   18.5389    5.4511 C   0  0  0  0  0  0  0  0  0  0  0  0
   -7.2602   18.5965   10.3889 C   0  0  0  0  0  0  0  0  0  0  0  0
   -6.6495   17.6400   11.3873 C   0  0  0  0  0  0  0  0  0  0  0  0
   -5.2577   17.2514   11.0794 N   0  0  0  0  0  0  0  0  0  0  0  0
   -4.0116   16.4630   10.9455 C   0  0  0  0  0  0  0  0  0  0  0  0
   -3.0854   17.6198   10.5490 C   0  0  0  0  0  0  0  0  0  0  0  0
   -2.6669   18.4757   11.7592 C   0  0  0  0  0  0  0  0  0  0  0  0
   -1.6074   19.5006   11.3666 C   0  0  0  0  0  0  0  0  0  0  0  0
   -1.0489   20.1241   12.5581 N   0  0  0  0  0  0  0  0  0  0  0  0
  -14.3195   18.7529    5.3217 N   0  0  0  0  0  0  0  0  0  0  0  0
  -10.2366   18.4639    6.7690 C   0  0  0  0  0  0  0  0  0  0  0  0
  -10.3166   17.5257    6.2423 O   0  0  0  0  0  0  0  0  0  0  0  0
  -11.1380   19.5313    7.3397 C   0  0  2  0  0  0  0  0  0  0  0  0
  -11.0813   19.5492    8.7103 O   0  0  0  0  0  0  0  0  0  0  0  0
  -12.5658   19.1518    6.9631 C   0  0  0  0  0  0  0  0  0  0  0  0
  -12.9344   19.2225    5.4701 C   0  0  0  0  0  0  0  0  0  0  0  0
  1  2  1  6  0  0  0
  1  3  1  0  0  0  0
  3  4  1  1  0  0  0
  3  5  1  0  0  0  0
  5  6  1  1  0  0  0
  5  7  1  0  0  0  0
  7  8  1  6  0  0  0
  9  7  1  0  0  0  0
  9 10  1  0  0  0  0
  9 11  1  1  0  0  0
 10  1  1  0  0  0  0
 11 12  1  0  0  0  0
 13 14  1  6  0  0  0
 13 15  1  0  0  0  0
 13 22  1  0  0  0  0
 14 32  1  0  0  0  0
 15 16  1  1  0  0  0
 15 17  1  0  0  0  0
 16 23  1  0  0  0  0
 17 18  1  1  0  0  0
 17 19  1  0  0  0  0
 19  2  1  1  0  0  0
 19 20  1  0  0  0  0
 20 21  1  6  0  0  0
 20 22  1  0  0  0  0
 23 24  1  0  0  0  0
 24 25  1  0  0  0  0
 25 26  1  0  0  0  0
 26 27  1  0  0  0  0
 27 28  1  0  0  0  0
 28 29  1  0  0  0  0
 29 30  1  0  0  0  0
 31 37  1  0  0  0  0
 32 33  2  0  0  0  0
 34 32  1  1  0  0  0
 34 35  1  0  0  0  0
 34 36  1  0  0  0  0
 36 37  1  0  0  0  0
M  END
>  <CHROM.1>
-170.53785850,75.97359469,-67.50258977,-49.20559552,-118.06098881,66.82218595
70.64502100,-144.34315595,-170.89791568,78.19243862,172.55972660,-169.46920038
-68.76863030,-67.80895370,177.06280805,-6.18205620,16.78933276,6.97579511
0.49128300,0.32650569,-2.15990824

>  <Name>
1o9m_lig

>  <RI>
0

>  <Rbt.Current_Directory>
/home/itssahil/PROJECTS/Mol_Feturizer/New_Systems/rnas/1o9m

>  <Rbt.Executable>
rbdock ($Id: //depot/dev/client3/rdock/2013.1/src/exe/rbdock.cxx#4 $)

>  <Rbt.Library>
libRbt.so (2013.1, Build901 2013/11/27)

>  <Rbt.Parameter_File>
/export/apps/rDock/src/rDock_2013.1_src/data/scripts/dock_solv.prm

>  <Rbt.Receptor>
prm/pocket_docking_3.prm

>  <SCORE>
-8.52641

>  <SCORE.INTER>
-4.64672

>  <SCORE.INTER.CONST>
1

>  <SCORE.INTER.POLAR>
-1.49884

>  <SCORE.INTER.ROT>
15

>  <SCORE.INTER.SOLV>
17.1768

>  <SCORE.INTER.VDW>
-17.4273

>  <SCORE.INTER.norm>
-0.125587

>  <SCORE.INTRA>
-3.87969

>  <SCORE.INTRA.DIHEDRAL>
-8.1236

>  <SCORE.INTRA.DIHEDRAL.0>
21.5987

>  <SCORE.INTRA.POLAR>
0

>  <SCORE.INTRA.POLAR.0>
0

>  <SCORE.INTRA.REPUL>
0

>  <SCORE.INTRA.REPUL.0>
0

>  <SCORE.INTRA.SOLV>
1.53732

>  <SCORE.INTRA.SOLV.lig_0>
-108.715

>  <SCORE.INTRA.VDW>
-0.58655

>  <SCORE.INTRA.VDW.0>
-3.9485

>  <SCORE.INTRA.norm>
-0.104856

>  <SCORE.RESTR>
0

>  <SCORE.RESTR.CAVITY>
0

>  <SCORE.RESTR.norm>
0

>  <SCORE.SYSTEM>
0

>  <SCORE.SYSTEM.CONST>
0

>  <SCORE.SYSTEM.DIHEDRAL>
0

>  <SCORE.SYSTEM.SOLV>
0

>  <SCORE.SYSTEM.norm>
0

>  <SCORE.heavy>
37

>  <SCORE.norm>
-0.230443

>  <RMSD>
2.168

$$$$
1o9m_lig
 OpenBabel11021811403D
libRbt.so/2013.1/901 2013/11/27
 37 38  0  0  0  0  0  0  0  0999 V2000
   -3.5702   14.2874    6.4619 C   0  0  2  0  0  0  0  0  0  0  0  0
   -4.3015   15.5125    6.1509 O   0  0  0  0  0  0  0  0  0  0  0  0
   -2.0584   14.5786    6.1391 C   0  0  2  0  0  0  0  0  0  0  0  0
   -1.5308   15.7117    6.9192 N   0  0  0  0  0  0  0  0  0  0  0  0
   -1.9042   14.8453    4.5935 C   0  0  1  0  0  0  0  0  0  0  0  0
   -0.5358   15.1113    4.2739 O   0  0  0  0  0  0  0  0  0  0  0  0
   -2.4593   13.5992    3.8276 C   0  0  2  0  0  0  0  0  0  0  0  0
   -2.3830   13.7428    2.3998 O   0  0  0  0  0  0  0  0  0  0  0  0
   -3.9309   13.3251    4.2246 C   0  0  2  0  0  0  0  0  0  0  0  0
   -4.0570   13.1697    5.6456 O   0  0  0  0  0  0  0  0  0  0  0  0
   -4.4723   12.0954    3.5425 C   0  0  0  0  0  0  0  0  0  0  0  0
   -5.5692   11.6193    4.2203 N   0  0  0  0  0  0  0  0  0  0  0  0
   -8.3291   17.1121    6.3505 C   0  0  1  0  0  0  0  0  0  0  0  0
   -9.8173   17.1564    6.4036 N   0  0  0  0  0  0  0  0  0  0  0  0
   -7.8176   16.3235    7.5484 C   0  0  2  0  0  0  0  0  0  0  0  0
   -8.2967   16.9415    8.7055 O   0  0  0  0  0  0  0  0  0  0  0  0
   -6.2573   16.2665    7.5445 C   0  0  1  0  0  0  0  0  0  0  0  0
   -5.7799   15.4898    8.6853 O   0  0  0  0  0  0  0  0  0  0  0  0
   -5.7552   15.5741    6.2125 C   0  0  1  0  0  0  0  0  0  0  0  0
   -6.2444   16.3640    5.0082 C   0  0  1  0  0  0  0  0  0  0  0  0
   -5.7598   15.7198    3.7966 N   0  0  0  0  0  0  0  0  0  0  0  0
   -7.7948   16.4376    5.0226 C   0  0  0  0  0  0  0  0  0  0  0  0
   -8.5082   17.1841   10.1137 C   0  0  0  0  0  0  0  0  0  0  0  0
   -7.1920   17.5550   10.7576 C   0  0  0  0  0  0  0  0  0  0  0  0
   -6.6912   18.8935   10.3826 N   0  0  0  0  0  0  0  0  0  0  0  0
   -5.9956   20.2000   10.4229 C   0  0  0  0  0  0  0  0  0  0  0  0
   -5.5790   20.2496    8.9474 C   0  0  0  0  0  0  0  0  0  0  0  0
   -4.6564   21.4439    8.6395 C   0  0  0  0  0  0  0  0  0  0  0  0
   -4.3419   21.5247    7.1489 C   0  0  0  0  0  0  0  0  0  0  0  0
   -3.2140   22.4176    6.9234 N   0  0  0  0  0  0  0  0  0  0  0  0
  -13.7161   18.8782    7.7962 N   0  0  0  0  0  0  0  0  0  0  0  0
  -10.4861   18.1262    5.0774 C   0  0  0  0  0  0  0  0  0  0  0  0
  -10.0678   18.6740    4.2473 O   0  0  0  0  0  0  0  0  0  0  0  0
  -11.8368   17.8246    5.6794 C   0  0  2  0  0  0  0  0  0  0  0  0
  -12.5187   16.8984    4.9317 O   0  0  0  0  0  0  0  0  0  0  0  0
  -12.6443   19.1167    5.6229 C   0  0  0  0  0  0  0  0  0  0  0  0
  -13.9881   19.1313    6.3738 C   0  0  0  0  0  0  0  0  0  0  0  0
  1  2  1  6  0  0  0
  1  3  1  0  0  0  0
  3  4  1  1  0  0  0
  3  5  1  0  0  0  0
  5  6  1  1  0  0  0
  5  7  1  0  0  0  0
  7  8  1  6  0  0  0
  9  7  1  0  0  0  0
  9 10  1  0  0  0  0
  9 11  1  6  0  0  0
 10  1  1  0  0  0  0
 11 12  1  0  0  0  0
 13 14  1  6  0  0  0
 13 15  1  0  0  0  0
 13 22  1  0  0  0  0
 14 32  1  0  0  0  0
 15 16  1  1  0  0  0
 15 17  1  0  0  0  0
 16 23  1  0  0  0  0
 17 18  1  1  0  0  0
 17 19  1  0  0  0  0
 19  2  1  1  0  0  0
 19 20  1  0  0  0  0
 20 21  1  6  0  0  0
 20 22  1  0  0  0  0
 23 24  1  0  0  0  0
 24 25  1  0  0  0  0
 25 26  1  0  0  0  0
 26 27  1  0  0  0  0
 27 28  1  0  0  0  0
 28 29  1  0  0  0  0
 29 30  1  0  0  0  0
 31 37  1  0  0  0  0
 32 33  2  0  0  0  0
 34 32  1  6  0  0  0
 34 35  1  0  0  0  0
 34 36  1  0  0  0  0
 36 37  1  0  0  0  0
M  END
>  <CHROM.1>
174.26527015,159.79370682,177.32237524,-178.90598743,65.08642273,101.05873386
71.06394208,152.10630492,142.57445267,-173.24267404,-175.87108653,-165.10698731
-105.66991406,-170.88215032,60.37153175,-6.47931406,16.72245742,6.39333573
0.54092323,0.12276694,-2.46311505

>  <Name>
1o9m_lig

>  <RI>
0

>  <Rbt.Current_Directory>
/home/itssahil/PROJECTS/Mol_Feturizer/New_Systems/rnas/1o9m

>  <Rbt.Executable>
rbdock ($Id: //depot/dev/client3/rdock/2013.1/src/exe/rbdock.cxx#4 $)

>  <Rbt.Library>
libRbt.so (2013.1, Build901 2013/11/27)

>  <Rbt.Parameter_File>
/export/apps/rDock/src/rDock_2013.1_src/data/scripts/dock_solv.prm

>  <Rbt.Receptor>
prm/pocket_docking_4.prm

>  <SCORE>
-21.2301

>  <SCORE.INTER>
-16.9677

>  <SCORE.INTER.CONST>
1

>  <SCORE.INTER.POLAR>
-2.74671

>  <SCORE.INTER.ROT>
15

>  <SCORE.INTER.SOLV>
20.4085

>  <SCORE.INTER.VDW>
-22.5589

>  <SCORE.INTER.norm>
-0.458586

>  <SCORE.INTRA>
-4.26245

>  <SCORE.INTRA.DIHEDRAL>
-9.16965

>  <SCORE.INTRA.DIHEDRAL.0>
21.5987

>  <SCORE.INTRA.POLAR>
0

>  <SCORE.INTRA.POLAR.0>
0

>  <SCORE.INTRA.REPUL>
0

>  <SCORE.INTRA.REPUL.0>
0

>  <SCORE.INTRA.SOLV>
3.01841

>  <SCORE.INTRA.SOLV.lig_0>
-108.715

>  <SCORE.INTRA.VDW>
-1.18682

>  <SCORE.INTRA.VDW.0>
-3.9485

>  <SCORE.INTRA.norm>
-0.115201

>  <SCORE.RESTR>
0

>  <SCORE.RESTR.CAVITY>
0

>  <SCORE.RESTR.norm>
0

>  <SCORE.SYSTEM>
0

>  <SCORE.SYSTEM.CONST>
0

>  <SCORE.SYSTEM.DIHEDRAL>
0

>  <SCORE.SYSTEM.SOLV>
0

>  <SCORE.SYSTEM.norm>
0

>  <SCORE.heavy>
37

>  <SCORE.norm>
-0.573788

>  <RMSD>
2.382

$$$$
1o9m_lig
 OpenBabel11021811403D
libRbt.so/2013.1/901 2013/11/27
 37 38  0  0  0  0  0  0  0  0999 V2000
   -4.0116   14.3728    5.7906 C   0  0  2  0  0  0  0  0  0  0  0  0
   -4.4578   15.6875    5.3382 O   0  0  0  0  0  0  0  0  0  0  0  0
   -2.5513   14.1845    5.2370 C   0  0  2  0  0  0  0  0  0  0  0  0
   -1.6359   15.2367    5.7123 N   0  0  0  0  0  0  0  0  0  0  0  0
   -2.5978   14.1552    3.6619 C   0  0  1  0  0  0  0  0  0  0  0  0
   -1.2800   13.9829    3.1336 O   0  0  0  0  0  0  0  0  0  0  0  0
   -3.5652   13.0056    3.2256 C   0  0  2  0  0  0  0  0  0  0  0  0
   -3.6966   12.8990    1.7987 O   0  0  0  0  0  0  0  0  0  0  0  0
   -4.9704   13.2106    3.8434 C   0  0  2  0  0  0  0  0  0  0  0  0
   -4.8904   13.3185    5.2721 O   0  0  0  0  0  0  0  0  0  0  0  0
   -5.9066   12.0859    3.4839 C   0  0  0  0  0  0  0  0  0  0  0  0
   -6.3052   12.1990    2.1733 N   0  0  0  0  0  0  0  0  0  0  0  0
   -7.3768   18.0880    7.4683 C   0  0  1  0  0  0  0  0  0  0  0  0
   -8.6912   18.6587    7.8762 N   0  0  0  0  0  0  0  0  0  0  0  0
   -7.4099   16.5799    7.6755 C   0  0  2  0  0  0  0  0  0  0  0  0
   -7.7085   16.3374    9.0179 O   0  0  0  0  0  0  0  0  0  0  0  0
   -6.0428   15.9393    7.2773 C   0  0  1  0  0  0  0  0  0  0  0  0
   -6.0942   14.4914    7.4597 O   0  0  0  0  0  0  0  0  0  0  0  0
   -5.7349   16.2492    5.7558 C   0  0  1  0  0  0  0  0  0  0  0  0
   -5.6805   17.7540    5.5399 C   0  0  1  0  0  0  0  0  0  0  0  0
   -5.3819   18.0162    4.1401 N   0  0  0  0  0  0  0  0  0  0  0  0
   -7.0329   18.3934    5.9543 C   0  0  0  0  0  0  0  0  0  0  0  0
   -8.3151   16.5177   10.3164 C   0  0  0  0  0  0  0  0  0  0  0  0
   -7.6369   17.6664   11.0270 C   0  0  0  0  0  0  0  0  0  0  0  0
   -6.1803   17.4931   11.2036 N   0  0  0  0  0  0  0  0  0  0  0  0
   -4.7248   17.4407   10.9365 C   0  0  0  0  0  0  0  0  0  0  0  0
   -4.2960   16.8481   12.2848 C   0  0  0  0  0  0  0  0  0  0  0  0
   -2.7759   16.6130   12.3640 C   0  0  0  0  0  0  0  0  0  0  0  0
   -2.4131   15.7731   13.5848 C   0  0  0  0  0  0  0  0  0  0  0  0
   -2.9006   14.4113   13.4179 N   0  0  0  0  0  0  0  0  0  0  0  0
  -10.0661   22.1941    7.2347 N   0  0  0  0  0  0  0  0  0  0  0  0
   -9.8992   18.4932    6.5878 C   0  0  0  0  0  0  0  0  0  0  0  0
   -9.9022   18.0703    5.5953 O   0  0  0  0  0  0  0  0  0  0  0  0
  -10.8401   19.2126    7.5232 C   0  0  2  0  0  0  0  0  0  0  0  0
  -11.8341   18.3780    7.9673 O   0  0  0  0  0  0  0  0  0  0  0  0
  -11.5174   20.3106    6.7106 C   0  0  0  0  0  0  0  0  0  0  0  0
  -10.6068   21.4024    6.1203 C   0  0  0  0  0  0  0  0  0  0  0  0
  1  2  1  6  0  0  0
  1  3  1  0  0  0  0
  3  4  1  6  0  0  0
  3  5  1  0  0  0  0
  5  6  1  6  0  0  0
  5  7  1  0  0  0  0
  7  8  1  6  0  0  0
  9  7  1  0  0  0  0
  9 10  1  0  0  0  0
  9 11  1  1  0  0  0
 10  1  1  0  0  0  0
 11 12  1  0  0  0  0
 13 14  1  6  0  0  0
 13 15  1  0  0  0  0
 13 22  1  0  0  0  0
 14 32  1  0  0  0  0
 15 16  1  1  0  0  0
 15 17  1  0  0  0  0
 16 23  1  0  0  0  0
 17 18  1  6  0  0  0
 17 19  1  0  0  0  0
 19  2  1  1  0  0  0
 19 20  1  0  0  0  0
 20 21  1  6  0  0  0
 20 22  1  0  0  0  0
 23 24  1  0  0  0  0
 24 25  1  0  0  0  0
 25 26  1  0  0  0  0
 26 27  1  0  0  0  0
 27 28  1  0  0  0  0
 28 29  1  0  0  0  0
 29 30  1  0  0  0  0
 31 37  1  0  0  0  0
 32 33  2  0  0  0  0
 34 32  1  6  0  0  0
 34 35  1  0  0  0  0
 34 36  1  0  0  0  0
 36 37  1  0  0  0  0
M  END
>  <CHROM.1>
-174.99174098,-74.40559274,-81.73514741,35.92070492,-75.99391857,39.45318078
-58.04605342,77.59184253,-173.16464060,178.67868390,-168.53603814,68.77508636
-111.48117882,-62.09282264,-67.88810664,-6.13472061,16.34577621,7.00823385
-0.69894600,-0.61140967,1.28872747

>  <Name>
1o9m_lig

>  <RI>
0

>  <Rbt.Current_Directory>
/home/itssahil/PROJECTS/Mol_Feturizer/New_Systems/rnas/1o9m

>  <Rbt.Executable>
rbdock ($Id: //depot/dev/client3/rdock/2013.1/src/exe/rbdock.cxx#4 $)

>  <Rbt.Library>
libRbt.so (2013.1, Build901 2013/11/27)

>  <Rbt.Parameter_File>
/export/apps/rDock/src/rDock_2013.1_src/data/scripts/dock_solv.prm

>  <Rbt.Receptor>
prm/pocket_docking_6.prm

>  <SCORE>
-16.9289

>  <SCORE.INTER>
-13.0975

>  <SCORE.INTER.CONST>
1

>  <SCORE.INTER.POLAR>
-2.48411

>  <SCORE.INTER.ROT>
15

>  <SCORE.INTER.SOLV>
18.4066

>  <SCORE.INTER.VDW>
-20.1868

>  <SCORE.INTER.norm>
-0.353986

>  <SCORE.INTRA>
-3.83138

>  <SCORE.INTRA.DIHEDRAL>
-11.1972

>  <SCORE.INTRA.DIHEDRAL.0>
21.5987

>  <SCORE.INTRA.POLAR>
0

>  <SCORE.INTRA.POLAR.0>
0

>  <SCORE.INTRA.REPUL>
0

>  <SCORE.INTRA.REPUL.0>
0

>  <SCORE.INTRA.SOLV>
2.51026

>  <SCORE.INTRA.SOLV.lig_0>
-108.715

>  <SCORE.INTRA.VDW>
0.512073

>  <SCORE.INTRA.VDW.0>
-3.9485

>  <SCORE.INTRA.norm>
-0.103551

>  <SCORE.RESTR>
0

>  <SCORE.RESTR.CAVITY>
0

>  <SCORE.RESTR.norm>
0

>  <SCORE.SYSTEM>
0

>  <SCORE.SYSTEM.CONST>
0

>  <SCORE.SYSTEM.DIHEDRAL>
0

>  <SCORE.SYSTEM.SOLV>
0

>  <SCORE.SYSTEM.norm>
0

>  <SCORE.heavy>
37

>  <SCORE.norm>
-0.457537

>  <RMSD>
2.385

$$$$
1o9m_lig
 OpenBabel11021811403D
libRbt.so/2013.1/901 2013/11/27
 37 38  0  0  0  0  0  0  0  0999 V2000
   -4.6188   14.3601    5.6742 C   0  0  2  0  0  0  0  0  0  0  0  0
   -4.9602   15.7720    5.8234 O   0  0  0  0  0  0  0  0  0  0  0  0
   -3.3101   14.1283    6.5157 C   0  0  2  0  0  0  0  0  0  0  0  0
   -3.4939   14.4719    7.9367 N   0  0  0  0  0  0  0  0  0  0  0  0
   -2.1368   14.9706    5.8851 C   0  0  1  0  0  0  0  0  0  0  0  0
   -0.9333   14.7750    6.6327 O   0  0  0  0  0  0  0  0  0  0  0  0
   -1.9802   14.5416    4.3888 C   0  0  2  0  0  0  0  0  0  0  0  0
   -0.9417   15.2641    3.7074 O   0  0  0  0  0  0  0  0  0  0  0  0
   -3.3115   14.7376    3.6224 C   0  0  2  0  0  0  0  0  0  0  0  0
   -4.3810   14.0285    4.2649 O   0  0  0  0  0  0  0  0  0  0  0  0
   -3.2033   14.2786    2.1912 C   0  0  0  0  0  0  0  0  0  0  0  0
   -3.1127   12.9082    2.1365 N   0  0  0  0  0  0  0  0  0  0  0  0
   -8.7112   17.9427    6.0194 C   0  0  1  0  0  0  0  0  0  0  0  0
  -10.0652   18.3601    6.4796 N   0  0  0  0  0  0  0  0  0  0  0  0
   -7.7250   18.1233    7.1654 C   0  0  2  0  0  0  0  0  0  0  0  0
   -7.7695   19.4611    7.5634 O   0  0  0  0  0  0  0  0  0  0  0  0
   -6.2848   17.7145    6.7221 C   0  0  1  0  0  0  0  0  0  0  0  0
   -5.3528   17.8712    7.8354 O   0  0  0  0  0  0  0  0  0  0  0  0
   -6.2805   16.1989    6.2654 C   0  0  1  0  0  0  0  0  0  0  0  0
   -7.2487   16.0096    5.1075 C   0  0  1  0  0  0  0  0  0  0  0  0
   -7.2180   14.6147    4.6941 N   0  0  0  0  0  0  0  0  0  0  0  0
   -8.6769   16.4345    5.5421 C   0  0  0  0  0  0  0  0  0  0  0  0
   -8.3248   20.7067    8.0396 C   0  0  0  0  0  0  0  0  0  0  0  0
   -7.2059   21.6996    8.2555 C   0  0  0  0  0  0  0  0  0  0  0  0
   -6.3248   21.3792    9.3974 N   0  0  0  0  0  0  0  0  0  0  0  0
   -5.3408   21.5049   10.4967 C   0  0  0  0  0  0  0  0  0  0  0  0
   -5.3670   20.0415   10.9559 C   0  0  0  0  0  0  0  0  0  0  0  0
   -4.3788   19.7711   12.1059 C   0  0  0  0  0  0  0  0  0  0  0  0
   -4.5233   18.3458   12.6303 C   0  0  0  0  0  0  0  0  0  0  0  0
   -3.4619   18.0535   13.5834 N   0  0  0  0  0  0  0  0  0  0  0  0
  -16.0745   18.7460    5.6368 N   0  0  0  0  0  0  0  0  0  0  0  0
  -11.3367   17.7232    5.4192 C   0  0  0  0  0  0  0  0  0  0  0  0
  -11.3535   17.1028    4.5367 O   0  0  0  0  0  0  0  0  0  0  0  0
  -12.3040   18.4591    6.3139 C   0  0  2  0  0  0  0  0  0  0  0  0
  -12.3004   17.9397    7.5836 O   0  0  0  0  0  0  0  0  0  0  0  0
  -13.6990   18.2229    5.7456 C   0  0  0  0  0  0  0  0  0  0  0  0
  -14.8696   18.9215    6.4607 C   0  0  0  0  0  0  0  0  0  0  0  0
  1  2  1  6  0  0  0
  1  3  1  0  0  0  0
  3  4  1  1  0  0  0
  3  5  1  0  0  0  0
  5  6  1  1  0  0  0
  5  7  1  0  0  0  0
  7  8  1  6  0  0  0
  9  7  1  0  0  0  0
  9 10  1  0  0  0  0
  9 11  1  6  0  0  0
 10  1  1  0  0  0  0
 11 12  1  0  0  0  0
 13 14  1  1  0  0  0
 13 15  1  0  0  0  0
 13 22  1  0  0  0  0
 14 32  1  0  0  0  0
 15 16  1  6  0  0  0
 15 17  1  0  0  0  0
 16 23  1  0  0  0  0
 17 18  1  1  0  0  0
 17 19  1  0  0  0  0
 19  2  1  6  0  0  0
 19 20  1  0  0  0  0
 20 21  1  1  0  0  0
 20 22  1  0  0  0  0
 23 24  1  0  0  0  0
 24 25  1  0  0  0  0
 25 26  1  0  0  0  0
 26 27  1  0  0  0  0
 27 28  1  0  0  0  0
 28 29  1  0  0  0  0
 29 30  1  0  0  0  0
 31 37  1  0  0  0  0
 32 33  2  0  0  0  0
 34 32  1  6  0  0  0
 34 35  1  0  0  0  0
 34 36  1  0  0  0  0
 36 37  1  0  0  0  0
M  END
>  <CHROM.1>
-126.61304262,70.48198487,-162.18171035,57.45263258,174.03256436,164.44709635
-69.89488548,-160.51617913,-178.99029927,177.77031249,174.50648642,172.14750214
-64.93913315,-177.79618731,170.87599996,-6.69799523,17.17895931,6.74140536
0.34882455,0.25808401,-2.20519889

>  <Name>
1o9m_lig

>  <RI>
0

>  <Rbt.Current_Directory>
/home/itssahil/PROJECTS/Mol_Feturizer/New_Systems/rnas/1o9m

>  <Rbt.Executable>
rbdock ($Id: //depot/dev/client3/rdock/2013.1/src/exe/rbdock.cxx#4 $)

>  <Rbt.Library>
libRbt.so (2013.1, Build901 2013/11/27)

>  <Rbt.Parameter_File>
/export/apps/rDock/src/rDock_2013.1_src/data/scripts/dock_solv.prm

>  <Rbt.Receptor>
prm/pocket_docking_4.prm

>  <SCORE>
-13.9298

>  <SCORE.INTER>
-10.6508

>  <SCORE.INTER.CONST>
1

>  <SCORE.INTER.POLAR>
-0.87178

>  <SCORE.INTER.ROT>
15

>  <SCORE.INTER.SOLV>
20.49

>  <SCORE.INTER.VDW>
-24.6246

>  <SCORE.INTER.norm>
-0.28786

>  <SCORE.INTRA>
-3.279

>  <SCORE.INTRA.DIHEDRAL>
-10.4664

>  <SCORE.INTRA.DIHEDRAL.0>
21.5987

>  <SCORE.INTRA.POLAR>
0

>  <SCORE.INTRA.POLAR.0>
0

>  <SCORE.INTRA.REPUL>
0

>  <SCORE.INTRA.REPUL.0>
0

>  <SCORE.INTRA.SOLV>
1.9747

>  <SCORE.INTRA.SOLV.lig_0>
-108.715

>  <SCORE.INTRA.VDW>
0.966861

>  <SCORE.INTRA.VDW.0>
-3.9485

>  <SCORE.INTRA.norm>
-0.0886215

>  <SCORE.RESTR>
0

>  <SCORE.RESTR.CAVITY>
0

>  <SCORE.RESTR.norm>
0

>  <SCORE.SYSTEM>
0

>  <SCORE.SYSTEM.CONST>
0

>  <SCORE.SYSTEM.DIHEDRAL>
0

>  <SCORE.SYSTEM.SOLV>
0

>  <SCORE.SYSTEM.norm>
0

>  <SCORE.heavy>
37

>  <SCORE.norm>
-0.376481

>  <RMSD>
2.421

$$$$
1o9m_lig
 OpenBabel11021811403D
libRbt.so/2013.1/901 2013/11/27
 37 38  0  0  0  0  0  0  0  0999 V2000
   -3.3807   15.2179    5.8725 C   0  0  2  0  0  0  0  0  0  0  0  0
   -3.9863   16.3880    5.2430 O   0  0  0  0  0  0  0  0  0  0  0  0
   -1.8437   15.2825    5.5442 C   0  0  2  0  0  0  0  0  0  0  0  0
   -1.2201   16.5217    6.0407 N   0  0  0  0  0  0  0  0  0  0  0  0
   -1.6436   15.1422    3.9872 C   0  0  1  0  0  0  0  0  0  0  0  0
   -0.2517   15.1963    3.6629 O   0  0  0  0  0  0  0  0  0  0  0  0
   -2.3056   13.8001    3.5312 C   0  0  2  0  0  0  0  0  0  0  0  0
   -2.1964   13.5773    2.1158 O   0  0  0  0  0  0  0  0  0  0  0  0
   -3.8020   13.7667    3.9286 C   0  0  2  0  0  0  0  0  0  0  0  0
   -3.9618   13.9809    5.3386 O   0  0  0  0  0  0  0  0  0  0  0  0
   -4.4501   12.4600    3.5503 C   0  0  0  0  0  0  0  0  0  0  0  0
   -4.5611   12.3620    2.1838 N   0  0  0  0  0  0  0  0  0  0  0  0
   -7.5716   18.6158    6.2445 C   0  0  1  0  0  0  0  0  0  0  0  0
   -9.0147   18.9404    6.4227 N   0  0  0  0  0  0  0  0  0  0  0  0
   -7.2341   17.3953    7.0900 C   0  0  2  0  0  0  0  0  0  0  0  0
   -7.5601   17.6881    8.4160 O   0  0  0  0  0  0  0  0  0  0  0  0
   -5.7231   17.0284    6.9487 C   0  0  1  0  0  0  0  0  0  0  0  0
   -5.4167   15.8442    7.7465 O   0  0  0  0  0  0  0  0  0  0  0  0
   -5.3920   16.7188    5.4320 C   0  0  1  0  0  0  0  0  0  0  0  0
   -5.7075   17.9383    4.5792 C   0  0  1  0  0  0  0  0  0  0  0  0
   -5.3822   17.6377    3.1930 N   0  0  0  0  0  0  0  0  0  0  0  0
   -7.2052   18.3150    4.7349 C   0  0  0  0  0  0  0  0  0  0  0  0
   -8.3820   17.9676    9.5705 C   0  0  0  0  0  0  0  0  0  0  0  0
   -7.4929   18.3286   10.7382 C   0  0  0  0  0  0  0  0  0  0  0  0
   -6.7337   19.5828   10.5554 N   0  0  0  0  0  0  0  0  0  0  0  0
   -6.3973   21.0160   10.3970 C   0  0  0  0  0  0  0  0  0  0  0  0
   -6.5282   21.0839    8.8701 C   0  0  0  0  0  0  0  0  0  0  0  0
   -5.3279   20.4406    8.1506 C   0  0  0  0  0  0  0  0  0  0  0  0
   -4.0341   21.1835    8.4693 C   0  0  0  0  0  0  0  0  0  0  0  0
   -2.9446   20.6620    7.6562 N   0  0  0  0  0  0  0  0  0  0  0  0
  -13.5051   20.0197    4.8551 N   0  0  0  0  0  0  0  0  0  0  0  0
  -10.0505   17.5859    5.9337 C   0  0  0  0  0  0  0  0  0  0  0  0
   -9.8760   16.5917    5.5526 O   0  0  0  0  0  0  0  0  0  0  0  0
  -11.2108   18.4854    6.2830 C   0  0  2  0  0  0  0  0  0  0  0  0
  -11.5041   18.4212    7.6216 O   0  0  0  0  0  0  0  0  0  0  0  0
  -12.4277   17.9462    5.5394 C   0  0  0  0  0  0  0  0  0  0  0  0
  -13.7184   18.7814    5.6182 C   0  0  0  0  0  0  0  0  0  0  0  0
  1  2  1  6  0  0  0
  1  3  1  0  0  0  0
  3  4  1  6  0  0  0
  3  5  1  0  0  0  0
  5  6  1  1  0  0  0
  5  7  1  0  0  0  0
  7  8  1  6  0  0  0
  9  7  1  0  0  0  0
  9 10  1  0  0  0  0
  9 11  1  1  0  0  0
 10  1  1  0  0  0  0
 11 12  1  0  0  0  0
 13 14  1  6  0  0  0
 13 15  1  0  0  0  0
 13 22  1  0  0  0  0
 14 32  1  0  0  0  0
 15 16  1  1  0  0  0
 15 17  1  0  0  0  0
 16 23  1  0  0  0  0
 17 18  1  1  0  0  0
 17 19  1  0  0  0  0
 19  2  1  1  0  0  0
 19 20  1  0  0  0  0
 20 21  1  6  0  0  0
 20 22  1  0  0  0  0
 23 24  1  0  0  0  0
 24 25  1  0  0  0  0
 25 26  1  0  0  0  0
 26 27  1  0  0  0  0
 27 28  1  0  0  0  0
 28 29  1  0  0  0  0
 29 30  1  0  0  0  0
 31 37  1  0  0  0  0
 32 33  2  0  0  0  0
 34 32  1  1  0  0  0
 34 35  1  0  0  0  0
 34 36  1  0  0  0  0
 36 37  1  0  0  0  0
M  END
>  <CHROM.1>
-174.72974065,-69.61711532,-59.43497089,68.87600222,-173.83010431,62.49157879
65.17547734,67.43940551,-88.72338111,-75.69372815,-62.72085458,-173.14376420
-84.87729377,-173.92615589,69.27447127,-6.20534049,17.22048602,6.15533973
-0.62131667,-0.13116576,0.81104318

>  <Name>
1o9m_lig

>  <RI>
0

>  <Rbt.Current_Directory>
/home/itssahil/PROJECTS/Mol_Feturizer/New_Systems/rnas/1o9m

>  <Rbt.Executable>
rbdock ($Id: //depot/dev/client3/rdock/2013.1/src/exe/rbdock.cxx#4 $)

>  <Rbt.Library>
libRbt.so (2013.1, Build901 2013/11/27)

>  <Rbt.Parameter_File>
/export/apps/rDock/src/rDock_2013.1_src/data/scripts/dock_solv.prm

>  <Rbt.Receptor>
prm/pocket_docking_6.prm

>  <SCORE>
-13.4169

>  <SCORE.INTER>
-4.97253

>  <SCORE.INTER.CONST>
1

>  <SCORE.INTER.POLAR>
-0.819877

>  <SCORE.INTER.ROT>
15

>  <SCORE.INTER.SOLV>
12.507

>  <SCORE.INTER.VDW>
-18.3511

>  <SCORE.INTER.norm>
-0.134393

>  <SCORE.INTRA>
-8.44601

>  <SCORE.INTRA.DIHEDRAL>
-17.0515

>  <SCORE.INTRA.DIHEDRAL.0>
21.5987

>  <SCORE.INTRA.POLAR>
0

>  <SCORE.INTRA.POLAR.0>
0

>  <SCORE.INTRA.REPUL>
0

>  <SCORE.INTRA.REPUL.0>
0

>  <SCORE.INTRA.SOLV>
2.00615

>  <SCORE.INTRA.SOLV.lig_0>
-108.715

>  <SCORE.INTRA.VDW>
-0.923356

>  <SCORE.INTRA.VDW.0>
-3.9485

>  <SCORE.INTRA.norm>
-0.22827

>  <SCORE.RESTR>
0.00167163

>  <SCORE.RESTR.CAVITY>
0.00167163

>  <SCORE.RESTR.norm>
4.51792e-05

>  <SCORE.SYSTEM>
0

>  <SCORE.SYSTEM.CONST>
0

>  <SCORE.SYSTEM.DIHEDRAL>
0

>  <SCORE.SYSTEM.SOLV>
0

>  <SCORE.SYSTEM.norm>
0

>  <SCORE.heavy>
37

>  <SCORE.norm>
-0.362618

>  <RMSD>
2.452

$$$$
1o9m_lig
 OpenBabel11021811403D
libRbt.so/2013.1/901 2013/11/27
 37 38  0  0  0  0  0  0  0  0999 V2000
   -4.5253   14.5451    5.9280 C   0  0  2  0  0  0  0  0  0  0  0  0
   -5.0755   15.7587    5.3308 O   0  0  0  0  0  0  0  0  0  0  0  0
   -3.0087   14.4942    5.5134 C   0  0  2  0  0  0  0  0  0  0  0  0
   -2.2664   15.6819    5.9709 N   0  0  0  0  0  0  0  0  0  0  0  0
   -2.9079   14.3420    3.9480 C   0  0  1  0  0  0  0  0  0  0  0  0
   -1.5364   14.2915    3.5456 O   0  0  0  0  0  0  0  0  0  0  0  0
   -3.6940   13.0545    3.5333 C   0  0  2  0  0  0  0  0  0  0  0  0
   -3.6819   12.8266    2.1146 O   0  0  0  0  0  0  0  0  0  0  0  0
   -5.1639   13.1334    4.0146 C   0  0  2  0  0  0  0  0  0  0  0  0
   -5.2272   13.3565    5.4308 O   0  0  0  0  0  0  0  0  0  0  0  0
   -5.9289   11.8800    3.6766 C   0  0  0  0  0  0  0  0  0  0  0  0
   -6.0879   11.7719    2.3156 N   0  0  0  0  0  0  0  0  0  0  0  0
   -8.3845   18.2639    6.5938 C   0  0  1  0  0  0  0  0  0  0  0  0
   -9.7801   18.7074    6.8680 N   0  0  0  0  0  0  0  0  0  0  0  0
   -8.1037   17.0002    7.3955 C   0  0  2  0  0  0  0  0  0  0  0  0
   -8.3210   17.2901    8.7441 O   0  0  0  0  0  0  0  0  0  0  0  0
   -6.6420   16.5078    7.1531 C   0  0  1  0  0  0  0  0  0  0  0  0
   -6.3919   15.2841    7.9097 O   0  0  0  0  0  0  0  0  0  0  0  0
   -6.4326   16.2050    5.6136 C   0  0  1  0  0  0  0  0  0  0  0  0
   -6.6921   17.4659    4.8032 C   0  0  1  0  0  0  0  0  0  0  0  0
   -6.4798   17.1697    3.3943 N   0  0  0  0  0  0  0  0  0  0  0  0
   -8.1388   17.9666    5.0592 C   0  0  0  0  0  0  0  0  0  0  0  0
   -8.3548   17.0951   10.1750 C   0  0  0  0  0  0  0  0  0  0  0  0
   -6.9585   16.7936   10.6689 C   0  0  0  0  0  0  0  0  0  0  0  0
   -6.8547   16.6435   12.1351 N   0  0  0  0  0  0  0  0  0  0  0  0
   -6.3175   16.3870   13.4908 C   0  0  0  0  0  0  0  0  0  0  0  0
   -5.9546   17.8362   13.8389 C   0  0  0  0  0  0  0  0  0  0  0  0
   -4.5180   18.1973   13.4172 C   0  0  0  0  0  0  0  0  0  0  0  0
   -4.4557   18.5630   11.9374 C   0  0  0  0  0  0  0  0  0  0  0  0
   -5.1817   19.8021   11.6973 N   0  0  0  0  0  0  0  0  0  0  0  0
  -14.5939   18.8458    3.7094 N   0  0  0  0  0  0  0  0  0  0  0  0
  -10.9532   17.7992    5.8957 C   0  0  0  0  0  0  0  0  0  0  0  0
  -10.8885   17.0034    5.1700 O   0  0  0  0  0  0  0  0  0  0  0  0
  -12.0037   18.6648    6.5475 C   0  0  2  0  0  0  0  0  0  0  0  0
  -12.2877   18.2306    7.8174 O   0  0  0  0  0  0  0  0  0  0  0  0
  -13.2806   18.5010    5.7304 C   0  0  0  0  0  0  0  0  0  0  0  0
  -13.2494   19.0143    4.2795 C   0  0  0  0  0  0  0  0  0  0  0  0
  1  2  1  6  0  0  0
  1  3  1  0  0  0  0
  3  4  1  6  0  0  0
  3  5  1  0  0  0  0
  5  6  1  1  0  0  0
  5  7  1  0  0  0  0
  7  8  1  6  0  0  0
  9  7  1  0  0  0  0
  9 10  1  0  0  0  0
  9 11  1  1  0  0  0
 10  1  1  0  0  0  0
 11 12  1  0  0  0  0
 13 14  1  6  0  0  0
 13 15  1  0  0  0  0
 13 22  1  0  0  0  0
 14 32  1  0  0  0  0
 15 16  1  1  0  0  0
 15 17  1  0  0  0  0
 16 23  1  0  0  0  0
 17 18  1  1  0  0  0
 17 19  1  0  0  0  0
 19  2  1  1  0  0  0
 19 20  1  0  0  0  0
 20 21  1  6  0  0  0
 20 22  1  0  0  0  0
 23 24  1  0  0  0  0
 24 25  1  0  0  0  0
 25 26  1  0  0  0  0
 26 27  1  0  0  0  0
 27 28  1  0  0  0  0
 28 29  1  0  0  0  0
 29 30  1  0  0  0  0
 31 37  1  0  0  0  0
 32 33  2  0  0  0  0
 34 32  1  6  0  0  0
 34 35  1  0  0  0  0
 34 36  1  0  0  0  0
 36 37  1  0  0  0  0
M  END
>  <CHROM.1>
-173.80479735,-67.75381056,-81.33725995,-174.38586046,58.91225727,60.89300062
176.97844234,175.50085348,94.18191046,-89.85473323,81.95303173,66.88245921
-78.64135727,-64.97704606,-176.15751746,-7.02866659,16.36890212,6.79234450
-0.77847683,-0.41193204,1.20612067

>  <Name>
1o9m_lig

>  <RI>
0

>  <Rbt.Current_Directory>
/home/itssahil/PROJECTS/Mol_Feturizer/New_Systems/rnas/1o9m

>  <Rbt.Executable>
rbdock ($Id: //depot/dev/client3/rdock/2013.1/src/exe/rbdock.cxx#4 $)

>  <Rbt.Library>
libRbt.so (2013.1, Build901 2013/11/27)

>  <Rbt.Parameter_File>
/export/apps/rDock/src/rDock_2013.1_src/data/scripts/dock_solv.prm

>  <Rbt.Receptor>
prm/pocket_docking_5.prm

>  <SCORE>
-23.7496

>  <SCORE.INTER>
-19.3523

>  <SCORE.INTER.CONST>
1

>  <SCORE.INTER.POLAR>
-1.83095

>  <SCORE.INTER.ROT>
15

>  <SCORE.INTER.SOLV>
16.9142

>  <SCORE.INTER.VDW>
-26.0364

>  <SCORE.INTER.norm>
-0.523034

>  <SCORE.INTRA>
-4.40829

>  <SCORE.INTRA.DIHEDRAL>
-14.0088

>  <SCORE.INTRA.DIHEDRAL.0>
21.5987

>  <SCORE.INTRA.POLAR>
0

>  <SCORE.INTRA.POLAR.0>
0

>  <SCORE.INTRA.REPUL>
0

>  <SCORE.INTRA.REPUL.0>
0

>  <SCORE.INTRA.SOLV>
2.98595

>  <SCORE.INTRA.SOLV.lig_0>
-108.715

>  <SCORE.INTRA.VDW>
1.10312

>  <SCORE.INTRA.VDW.0>
-3.9485

>  <SCORE.INTRA.norm>
-0.119143

>  <SCORE.RESTR>
0.0109048

>  <SCORE.RESTR.CAVITY>
0.0109048

>  <SCORE.RESTR.norm>
0.000294724

>  <SCORE.SYSTEM>
0

>  <SCORE.SYSTEM.CONST>
0

>  <SCORE.SYSTEM.DIHEDRAL>
0

>  <SCORE.SYSTEM.SOLV>
0

>  <SCORE.SYSTEM.norm>
0

>  <SCORE.heavy>
37

>  <SCORE.norm>
-0.641882

>  <RMSD>
2.453

$$$$
1o9m_lig
 OpenBabel11021811403D
libRbt.so/2013.1/901 2013/11/27
 37 38  0  0  0  0  0  0  0  0999 V2000
   -4.2826   14.1600    5.9745 C   0  0  2  0  0  0  0  0  0  0  0  0
   -4.9309   15.3742    5.4870 O   0  0  0  0  0  0  0  0  0  0  0  0
   -2.7855   14.2336    5.4971 C   0  0  2  0  0  0  0  0  0  0  0  0
   -2.0968   15.4320    6.0074 N   0  0  0  0  0  0  0  0  0  0  0  0
   -2.7451   14.1949    3.9221 C   0  0  1  0  0  0  0  0  0  0  0  0
   -1.3922   14.2589    3.4626 O   0  0  0  0  0  0  0  0  0  0  0  0
   -3.4696   12.8915    3.4492 C   0  0  2  0  0  0  0  0  0  0  0  0
   -3.5065   12.7619    2.0185 O   0  0  0  0  0  0  0  0  0  0  0  0
   -4.9188   12.8442    3.9932 C   0  0  2  0  0  0  0  0  0  0  0  0
   -4.9327   12.9659    5.4230 O   0  0  0  0  0  0  0  0  0  0  0  0
   -5.6209   11.5708    3.5983 C   0  0  0  0  0  0  0  0  0  0  0  0
   -5.9718   11.6130    2.2700 N   0  0  0  0  0  0  0  0  0  0  0  0
   -7.8771   18.0488    7.2152 C   0  0  1  0  0  0  0  0  0  0  0  0
   -9.1637   18.5308    7.7913 N   0  0  0  0  0  0  0  0  0  0  0  0
   -7.3360   16.9267    8.0907 C   0  0  2  0  0  0  0  0  0  0  0  0
   -7.1919   17.4251    9.3872 O   0  0  0  0  0  0  0  0  0  0  0  0
   -5.9752   16.4014    7.5340 C   0  0  1  0  0  0  0  0  0  0  0  0
   -5.4776   15.3116    8.3691 O   0  0  0  0  0  0  0  0  0  0  0  0
   -6.1783   15.8602    6.0603 C   0  0  1  0  0  0  0  0  0  0  0  0
   -6.7010   16.9782    5.1711 C   0  0  1  0  0  0  0  0  0  0  0  0
   -6.8661   16.4641    3.8198 N   0  0  0  0  0  0  0  0  0  0  0  0
   -8.0442   17.5138    5.7355 C   0  0  0  0  0  0  0  0  0  0  0  0
   -6.7547   18.2942   10.4549 C   0  0  0  0  0  0  0  0  0  0  0  0
   -7.3274   19.6760   10.2375 C   0  0  0  0  0  0  0  0  0  0  0  0
   -6.6646   20.4432    9.1629 N   0  0  0  0  0  0  0  0  0  0  0  0
   -6.1958   20.8840    7.8293 C   0  0  0  0  0  0  0  0  0  0  0  0
   -5.2515   21.9945    8.3068 C   0  0  0  0  0  0  0  0  0  0  0  0
   -4.4119   22.5832    7.1577 C   0  0  0  0  0  0  0  0  0  0  0  0
   -5.2608   23.4783    6.2601 C   0  0  0  0  0  0  0  0  0  0  0  0
   -6.2360   22.6774    5.5336 N   0  0  0  0  0  0  0  0  0  0  0  0
  -10.6063   22.4292    6.3162 N   0  0  0  0  0  0  0  0  0  0  0  0
  -10.0424   19.5620    6.6463 C   0  0  0  0  0  0  0  0  0  0  0  0
   -9.8655   19.9057    5.6390 O   0  0  0  0  0  0  0  0  0  0  0  0
  -11.0751   19.7110    7.7367 C   0  0  2  0  0  0  0  0  0  0  0  0
  -11.7609   18.5396    7.9353 O   0  0  0  0  0  0  0  0  0  0  0  0
  -12.0901   20.7379    7.2469 C   0  0  0  0  0  0  0  0  0  0  0  0
  -11.6694   22.2174    7.3093 C   0  0  0  0  0  0  0  0  0  0  0  0
  1  2  1  6  0  0  0
  1  3  1  0  0  0  0
  3  4  1  6  0  0  0
  3  5  1  0  0  0  0
  5  6  1  1  0  0  0
  5  7  1  0  0  0  0
  7  8  1  6  0  0  0
  9  7  1  0  0  0  0
  9 10  1  0  0  0  0
  9 11  1  1  0  0  0
 10  1  1  0  0  0  0
 11 12  1  0  0  0  0
 13 14  1  1  0  0  0
 13 15  1  0  0  0  0
 13 22  1  0  0  0  0
 14 32  1  0  0  0  0
 15 16  1  1  0  0  0
 15 17  1  0  0  0  0
 16 23  1  0  0  0  0
 17 18  1  1  0  0  0
 17 19  1  0  0  0  0
 19  2  1  6  0  0  0
 19 20  1  0  0  0  0
 20 21  1  6  0  0  0
 20 22  1  0  0  0  0
 23 24  1  0  0  0  0
 24 25  1  0  0  0  0
 25 26  1  0  0  0  0
 26 27  1  0  0  0  0
 27 28  1  0  0  0  0
 28 29  1  0  0  0  0
 29 30  1  0  0  0  0
 31 37  1  0  0  0  0
 32 33  2  0  0  0  0
 34 32  1  6  0  0  0
 34 35  1  0  0  0  0
 34 36  1  0  0  0  0
 36 37  1  0  0  0  0
M  END
>  <CHROM.1>
-160.82254221,-74.72668641,-166.77695117,-54.99366105,63.37364436,69.33783255
-74.92235736,67.34668326,-172.74627950,172.35168268,74.00731495,-68.10967779
-70.08294090,-76.86598008,68.78234888,-6.54940298,17.41000256,6.32318900
-1.02693260,0.04910040,0.40730507

>  <Name>
1o9m_lig

>  <RI>
0

>  <Rbt.Current_Directory>
/home/itssahil/PROJECTS/Mol_Feturizer/New_Systems/rnas/1o9m

>  <Rbt.Executable>
rbdock ($Id: //depot/dev/client3/rdock/2013.1/src/exe/rbdock.cxx#4 $)

>  <Rbt.Library>
libRbt.so (2013.1, Build901 2013/11/27)

>  <Rbt.Parameter_File>
/export/apps/rDock/src/rDock_2013.1_src/data/scripts/dock_solv.prm

>  <Rbt.Receptor>
prm/pocket_docking_6.prm

>  <SCORE>
-18.1177

>  <SCORE.INTER>
-14.2759

>  <SCORE.INTER.CONST>
1

>  <SCORE.INTER.POLAR>
-2.16867

>  <SCORE.INTER.ROT>
15

>  <SCORE.INTER.SOLV>
12.604

>  <SCORE.INTER.VDW>
-20.0897

>  <SCORE.INTER.norm>
-0.385834

>  <SCORE.INTRA>
-3.84186

>  <SCORE.INTRA.DIHEDRAL>
-14.2383

>  <SCORE.INTRA.DIHEDRAL.0>
21.5987

>  <SCORE.INTRA.POLAR>
0

>  <SCORE.INTRA.POLAR.0>
0

>  <SCORE.INTRA.REPUL>
0.0129884

>  <SCORE.INTRA.REPUL.0>
0

>  <SCORE.INTRA.SOLV>
6.23932

>  <SCORE.INTRA.SOLV.lig_0>
-108.715

>  <SCORE.INTRA.VDW>
0.092707

>  <SCORE.INTRA.VDW.0>
-3.9485

>  <SCORE.INTRA.norm>
-0.103834

>  <SCORE.RESTR>
0

>  <SCORE.RESTR.CAVITY>
0

>  <SCORE.RESTR.norm>
0

>  <SCORE.SYSTEM>
0

>  <SCORE.SYSTEM.CONST>
0

>  <SCORE.SYSTEM.DIHEDRAL>
0

>  <SCORE.SYSTEM.SOLV>
0

>  <SCORE.SYSTEM.norm>
0

>  <SCORE.heavy>
37

>  <SCORE.norm>
-0.489668

>  <RMSD>
2.567

$$$$
1o9m_lig
 OpenBabel11021811403D
libRbt.so/2013.1/901 2013/11/27
 37 38  0  0  0  0  0  0  0  0999 V2000
   -3.7777   14.5582    6.2642 C   0  0  2  0  0  0  0  0  0  0  0  0
   -4.2086   15.9501    6.3604 O   0  0  0  0  0  0  0  0  0  0  0  0
   -2.3379   14.4944    6.8945 C   0  0  2  0  0  0  0  0  0  0  0  0
   -2.3234   14.9479    8.2964 N   0  0  0  0  0  0  0  0  0  0  0  0
   -1.3537   15.3588    6.0182 C   0  0  1  0  0  0  0  0  0  0  0  0
   -0.0352   15.3152    6.5707 O   0  0  0  0  0  0  0  0  0  0  0  0
   -1.3996   14.8119    4.5532 C   0  0  2  0  0  0  0  0  0  0  0  0
   -0.5460   15.5432    3.6580 O   0  0  0  0  0  0  0  0  0  0  0  0
   -2.8469   14.8451    4.0030 C   0  0  2  0  0  0  0  0  0  0  0  0
   -3.7383   14.1216    4.8640 O   0  0  0  0  0  0  0  0  0  0  0  0
   -2.9277   14.2708    2.6123 C   0  0  0  0  0  0  0  0  0  0  0  0
   -2.7999   12.9029    2.6541 N   0  0  0  0  0  0  0  0  0  0  0  0
   -7.8470   18.2697    6.8098 C   0  0  1  0  0  0  0  0  0  0  0  0
   -9.2901   18.6359    6.7554 N   0  0  0  0  0  0  0  0  0  0  0  0
   -7.6879   17.0237    7.6704 C   0  0  2  0  0  0  0  0  0  0  0  0
   -8.2204   17.3017    8.9311 O   0  0  0  0  0  0  0  0  0  0  0  0
   -6.1851   16.6125    7.7714 C   0  0  1  0  0  0  0  0  0  0  0  0
   -6.0478   15.4046    8.5806 O   0  0  0  0  0  0  0  0  0  0  0  0
   -5.6164   16.3211    6.3231 C   0  0  1  0  0  0  0  0  0  0  0  0
   -5.7526   17.5655    5.4589 C   0  0  1  0  0  0  0  0  0  0  0  0
   -5.2110   17.2808    4.1385 N   0  0  0  0  0  0  0  0  0  0  0  0
   -7.2444   17.9858    5.3745 C   0  0  0  0  0  0  0  0  0  0  0  0
   -8.6801   17.0675   10.2803 C   0  0  0  0  0  0  0  0  0  0  0  0
   -7.5595   16.4544   11.0881 C   0  0  0  0  0  0  0  0  0  0  0  0
   -6.3903   17.3393   11.2696 N   0  0  0  0  0  0  0  0  0  0  0  0
   -5.5531   18.5318   11.5330 C   0  0  0  0  0  0  0  0  0  0  0  0
   -5.1142   18.1573   12.9543 C   0  0  0  0  0  0  0  0  0  0  0  0
   -4.1302   19.1804   13.5519 C   0  0  0  0  0  0  0  0  0  0  0  0
   -2.7972   19.1580   12.8102 C   0  0  0  0  0  0  0  0  0  0  0  0
   -2.8959   19.9319   11.5807 N   0  0  0  0  0  0  0  0  0  0  0  0
  -14.4788   18.5902    6.5560 N   0  0  0  0  0  0  0  0  0  0  0  0
  -10.2531   17.3676    5.9739 C   0  0  0  0  0  0  0  0  0  0  0  0
  -10.0369   16.4014    5.5452 O   0  0  0  0  0  0  0  0  0  0  0  0
  -11.4351   18.2813    6.1876 C   0  0  2  0  0  0  0  0  0  0  0  0
  -11.8844   18.2182    7.4823 O   0  0  0  0  0  0  0  0  0  0  0  0
  -12.5628   17.7591    5.3043 C   0  0  0  0  0  0  0  0  0  0  0  0
  -13.8420   18.6123    5.2311 C   0  0  0  0  0  0  0  0  0  0  0  0
  1  2  1  6  0  0  0
  1  3  1  0  0  0  0
  3  4  1  1  0  0  0
  3  5  1  0  0  0  0
  5  6  1  1  0  0  0
  5  7  1  0  0  0  0
  7  8  1  6  0  0  0
  9  7  1  0  0  0  0
  9 10  1  0  0  0  0
  9 11  1  6  0  0  0
 10  1  1  0  0  0  0
 11 12  1  0  0  0  0
 13 14  1  6  0  0  0
 13 15  1  0  0  0  0
 13 22  1  0  0  0  0
 14 32  1  0  0  0  0
 15 16  1  1  0  0  0
 15 17  1  0  0  0  0
 16 23  1  0  0  0  0
 17 18  1  1  0  0  0
 17 19  1  0  0  0  0
 19  2  1  1  0  0  0
 19 20  1  0  0  0  0
 20 21  1  6  0  0  0
 20 22  1  0  0  0  0
 23 24  1  0  0  0  0
 24 25  1  0  0  0  0
 25 26  1  0  0  0  0
 26 27  1  0  0  0  0
 27 28  1  0  0  0  0
 28 29  1  0  0  0  0
 29 30  1  0  0  0  0
 31 37  1  0  0  0  0
 32 33  2  0  0  0  0
 34 32  1  1  0  0  0
 34 35  1  0  0  0  0
 34 36  1  0  0  0  0
 36 37  1  0  0  0  0
M  END
>  <CHROM.1>
-158.09928412,73.53109849,-63.16173324,171.79458022,56.66201896,100.70007241
64.64726955,43.86588724,103.34807241,177.04366979,-67.25434033,80.70945162
-78.85158574,-173.78221977,-66.64950877,-6.07093957,16.75971074,7.24587276
0.24238324,0.23671727,-1.92545321

>  <Name>
1o9m_lig

>  <RI>
0

>  <Rbt.Current_Directory>
/home/itssahil/PROJECTS/Mol_Feturizer/New_Systems/rnas/1o9m

>  <Rbt.Executable>
rbdock ($Id: //depot/dev/client3/rdock/2013.1/src/exe/rbdock.cxx#4 $)

>  <Rbt.Library>
libRbt.so (2013.1, Build901 2013/11/27)

>  <Rbt.Parameter_File>
/export/apps/rDock/src/rDock_2013.1_src/data/scripts/dock_solv.prm

>  <Rbt.Receptor>
prm/pocket_docking_4.prm

>  <SCORE>
-13.3865

>  <SCORE.INTER>
-12.0451

>  <SCORE.INTER.CONST>
1

>  <SCORE.INTER.POLAR>
-1.1132

>  <SCORE.INTER.ROT>
15

>  <SCORE.INTER.SOLV>
17.9986

>  <SCORE.INTER.VDW>
-23.919

>  <SCORE.INTER.norm>
-0.325544

>  <SCORE.INTRA>
-1.34612

>  <SCORE.INTRA.DIHEDRAL>
-8.59751

>  <SCORE.INTRA.DIHEDRAL.0>
21.5987

>  <SCORE.INTRA.POLAR>
0

>  <SCORE.INTRA.POLAR.0>
0

>  <SCORE.INTRA.REPUL>
0

>  <SCORE.INTRA.REPUL.0>
0

>  <SCORE.INTRA.SOLV>
6.86478

>  <SCORE.INTRA.SOLV.lig_0>
-108.715

>  <SCORE.INTRA.VDW>
-0.479754

>  <SCORE.INTRA.VDW.0>
-3.9485

>  <SCORE.INTRA.norm>
-0.0363817

>  <SCORE.RESTR>
0.00469714

>  <SCORE.RESTR.CAVITY>
0.00469714

>  <SCORE.RESTR.norm>
0.00012695

>  <SCORE.SYSTEM>
0

>  <SCORE.SYSTEM.CONST>
0

>  <SCORE.SYSTEM.DIHEDRAL>
0

>  <SCORE.SYSTEM.SOLV>
0

>  <SCORE.SYSTEM.norm>
0

>  <SCORE.heavy>
37

>  <SCORE.norm>
-0.361799

>  <RMSD>
2.865

$$$$
1o9m_lig
 OpenBabel11021811403D
libRbt.so/2013.1/901 2013/11/27
 37 38  0  0  0  0  0  0  0  0999 V2000
   -4.5093   13.3041    4.4390 C   0  0  2  0  0  0  0  0  0  0  0  0
   -5.3898   14.3491    3.9242 O   0  0  0  0  0  0  0  0  0  0  0  0
   -3.2662   13.2566    3.4761 C   0  0  2  0  0  0  0  0  0  0  0  0
   -2.5601   14.5484    3.4146 N   0  0  0  0  0  0  0  0  0  0  0  0
   -3.7434   12.8126    2.0412 C   0  0  1  0  0  0  0  0  0  0  0  0
   -2.6290   12.7600    1.1462 O   0  0  0  0  0  0  0  0  0  0  0  0
   -4.4611   11.4289    2.1743 C   0  0  2  0  0  0  0  0  0  0  0  0
   -4.9552   10.9340    0.9189 O   0  0  0  0  0  0  0  0  0  0  0  0
   -5.6397   11.5192    3.1749 C   0  0  2  0  0  0  0  0  0  0  0  0
   -5.1931   12.0061    4.4488 O   0  0  0  0  0  0  0  0  0  0  0  0
   -6.3136   10.1847    3.3640 C   0  0  0  0  0  0  0  0  0  0  0  0
   -7.1292    9.9075    2.2930 N   0  0  0  0  0  0  0  0  0  0  0  0
   -8.2882   17.0416    5.7046 C   0  0  1  0  0  0  0  0  0  0  0  0
   -9.4706   17.5135    6.4785 N   0  0  0  0  0  0  0  0  0  0  0  0
   -7.3627   16.2749    6.6395 C   0  0  2  0  0  0  0  0  0  0  0  0
   -7.0134   17.1255    7.6905 O   0  0  0  0  0  0  0  0  0  0  0  0
   -6.0970   15.7756    5.8738 C   0  0  1  0  0  0  0  0  0  0  0  0
   -5.2283   15.0237    6.7752 O   0  0  0  0  0  0  0  0  0  0  0  0
   -6.5361   14.8286    4.6838 C   0  0  1  0  0  0  0  0  0  0  0  0
   -7.4466   15.5896    3.7321 C   0  0  1  0  0  0  0  0  0  0  0  0
   -7.8258   14.7065    2.6394 N   0  0  0  0  0  0  0  0  0  0  0  0
   -8.6955   16.1029    4.4977 C   0  0  0  0  0  0  0  0  0  0  0  0
   -6.7750   17.5632    9.0463 C   0  0  0  0  0  0  0  0  0  0  0  0
   -5.6890   16.7102    9.6606 C   0  0  0  0  0  0  0  0  0  0  0  0
   -5.8452   16.4851   11.1124 N   0  0  0  0  0  0  0  0  0  0  0  0
   -5.5424   16.2449   12.5418 C   0  0  0  0  0  0  0  0  0  0  0  0
   -6.9780   16.3549   13.0709 C   0  0  0  0  0  0  0  0  0  0  0  0
   -7.0792   16.0023   14.5667 C   0  0  0  0  0  0  0  0  0  0  0  0
   -8.5216   16.0909   15.0554 C   0  0  0  0  0  0  0  0  0  0  0  0
   -9.3271   15.0532   14.4273 N   0  0  0  0  0  0  0  0  0  0  0  0
  -11.2619   22.8740    7.6026 N   0  0  0  0  0  0  0  0  0  0  0  0
   -9.7559   19.2474    6.2359 C   0  0  0  0  0  0  0  0  0  0  0  0
   -9.2823   20.0242    5.6560 O   0  0  0  0  0  0  0  0  0  0  0  0
  -10.9040   19.0855    7.2020 C   0  0  2  0  0  0  0  0  0  0  0  0
  -12.0589   18.7384    6.5480 O   0  0  0  0  0  0  0  0  0  0  0  0
  -11.1483   20.4526    7.8314 C   0  0  0  0  0  0  0  0  0  0  0  0
  -11.4639   21.6144    6.8720 C   0  0  0  0  0  0  0  0  0  0  0  0
  1  2  1  6  0  0  0
  1  3  1  0  0  0  0
  3  4  1  6  0  0  0
  3  5  1  0  0  0  0
  5  6  1  6  0  0  0
  5  7  1  0  0  0  0
  7  8  1  6  0  0  0
  9  7  1  0  0  0  0
  9 10  1  0  0  0  0
  9 11  1  1  0  0  0
 10  1  1  0  0  0  0
 11 12  1  0  0  0  0
 13 14  1  1  0  0  0
 13 15  1  0  0  0  0
 13 22  1  0  0  0  0
 14 32  1  0  0  0  0
 15 16  1  1  0  0  0
 15 17  1  0  0  0  0
 16 23  1  0  0  0  0
 17 18  1  1  0  0  0
 17 19  1  0  0  0  0
 19  2  1  6  0  0  0
 19 20  1  0  0  0  0
 20 21  1  6  0  0  0
 20 22  1  0  0  0  0
 23 24  1  0  0  0  0
 24 25  1  0  0  0  0
 25 26  1  0  0  0  0
 26 27  1  0  0  0  0
 27 28  1  0  0  0  0
 28 29  1  0  0  0  0
 29 30  1  0  0  0  0
 31 37  1  0  0  0  0
 32 33  2  0  0  0  0
 34 32  1  6  0  0  0
 34 35  1  0  0  0  0
 34 36  1  0  0  0  0
 36 37  1  0  0  0  0
M  END
>  <CHROM.1>
-169.72356390,-77.29718021,129.12127395,133.59884413,61.13874234,75.38336170
-147.17496341,-149.43532843,174.95674644,173.86613781,-178.74492040,66.95178357
-88.68966603,57.78186622,-163.11627362,-7.05418831,15.65475353,6.39258550
-0.88528217,-0.88837808,1.47423689

>  <Name>
1o9m_lig

>  <RI>
0

>  <Rbt.Current_Directory>
/home/itssahil/PROJECTS/Mol_Feturizer/New_Systems/rnas/1o9m

>  <Rbt.Executable>
rbdock ($Id: //depot/dev/client3/rdock/2013.1/src/exe/rbdock.cxx#4 $)

>  <Rbt.Library>
libRbt.so (2013.1, Build901 2013/11/27)

>  <Rbt.Parameter_File>
/export/apps/rDock/src/rDock_2013.1_src/data/scripts/dock_solv.prm

>  <Rbt.Receptor>
prm/pocket_docking_7.prm

>  <SCORE>
-18.9432

>  <SCORE.INTER>
-17.0175

>  <SCORE.INTER.CONST>
1

>  <SCORE.INTER.POLAR>
-1.41176

>  <SCORE.INTER.ROT>
15

>  <SCORE.INTER.SOLV>
27.0688

>  <SCORE.INTER.VDW>
-29.2621

>  <SCORE.INTER.norm>
-0.459933

>  <SCORE.INTRA>
-1.92572

>  <SCORE.INTRA.DIHEDRAL>
-4.97503

>  <SCORE.INTRA.DIHEDRAL.0>
21.5987

>  <SCORE.INTRA.POLAR>
0

>  <SCORE.INTRA.POLAR.0>
0

>  <SCORE.INTRA.REPUL>
0

>  <SCORE.INTRA.REPUL.0>
0

>  <SCORE.INTRA.SOLV>
0.548231

>  <SCORE.INTRA.SOLV.lig_0>
-108.715

>  <SCORE.INTRA.VDW>
0.287677

>  <SCORE.INTRA.VDW.0>
-3.9485

>  <SCORE.INTRA.norm>
-0.0520465

>  <SCORE.RESTR>
0

>  <SCORE.RESTR.CAVITY>
0

>  <SCORE.RESTR.norm>
0

>  <SCORE.SYSTEM>
0

>  <SCORE.SYSTEM.CONST>
0

>  <SCORE.SYSTEM.DIHEDRAL>
0

>  <SCORE.SYSTEM.SOLV>
0

>  <SCORE.SYSTEM.norm>
0

>  <SCORE.heavy>
37

>  <SCORE.norm>
-0.511979

>  <RMSD>
2.985

$$$$
1o9m_lig
 OpenBabel11021811403D
libRbt.so/2013.1/901 2013/11/27
 37 38  0  0  0  0  0  0  0  0999 V2000
   -5.5795   16.5065    3.7934 C   0  0  2  0  0  0  0  0  0  0  0  0
   -5.7310   17.1320    5.1041 O   0  0  0  0  0  0  0  0  0  0  0  0
   -6.5968   15.3074    3.7532 C   0  0  2  0  0  0  0  0  0  0  0  0
   -7.9869   15.7496    3.9611 N   0  0  0  0  0  0  0  0  0  0  0  0
   -6.1814   14.2433    4.8391 C   0  0  1  0  0  0  0  0  0  0  0  0
   -7.0918   13.1404    4.8211 O   0  0  0  0  0  0  0  0  0  0  0  0
   -4.7096   13.8005    4.5474 C   0  0  2  0  0  0  0  0  0  0  0  0
   -4.2192   12.8372    5.4942 O   0  0  0  0  0  0  0  0  0  0  0  0
   -3.7616   15.0251    4.5433 C   0  0  2  0  0  0  0  0  0  0  0  0
   -4.2094   16.0157    3.6066 O   0  0  0  0  0  0  0  0  0  0  0  0
   -2.3457   14.6325    4.2090 C   0  0  0  0  0  0  0  0  0  0  0  0
   -1.4969   15.6945    4.4117 N   0  0  0  0  0  0  0  0  0  0  0  0
   -8.7467   19.9468    6.4469 C   0  0  1  0  0  0  0  0  0  0  0  0
  -10.0628   20.4804    6.8972 N   0  0  0  0  0  0  0  0  0  0  0  0
   -8.2900   18.8739    7.4261 C   0  0  2  0  0  0  0  0  0  0  0  0
   -8.2310   19.4495    8.6970 O   0  0  0  0  0  0  0  0  0  0  0  0
   -6.9020   18.2974    7.0032 C   0  0  1  0  0  0  0  0  0  0  0  0
   -6.4852   17.2548    7.9370 O   0  0  0  0  0  0  0  0  0  0  0  0
   -7.0078   17.6689    5.5542 C   0  0  1  0  0  0  0  0  0  0  0  0
   -7.4453   18.7366    4.5630 C   0  0  1  0  0  0  0  0  0  0  0  0
   -7.5215   18.1422    3.2369 N   0  0  0  0  0  0  0  0  0  0  0  0
   -8.8160   19.3237    4.9941 C   0  0  0  0  0  0  0  0  0  0  0  0
   -8.0138   20.4549    9.7112 C   0  0  0  0  0  0  0  0  0  0  0  0
   -6.8495   21.3285    9.3043 C   0  0  0  0  0  0  0  0  0  0  0  0
   -6.0640   21.8566   10.4388 N   0  0  0  0  0  0  0  0  0  0  0  0
   -5.1814   21.9383   11.6248 C   0  0  0  0  0  0  0  0  0  0  0  0
   -4.0745   21.0073   11.1141 C   0  0  0  0  0  0  0  0  0  0  0  0
   -4.4671   19.5214   11.2137 C   0  0  0  0  0  0  0  0  0  0  0  0
   -4.4561   19.0465   12.6634 C   0  0  0  0  0  0  0  0  0  0  0  0
   -4.5792   17.5965   12.7157 N   0  0  0  0  0  0  0  0  0  0  0  0
  -12.3742   22.9295    5.7960 N   0  0  0  0  0  0  0  0  0  0  0  0
  -11.2975   19.2077    6.9457 C   0  0  0  0  0  0  0  0  0  0  0  0
  -11.3100   18.1492    6.7372 O   0  0  0  0  0  0  0  0  0  0  0  0
  -12.2499   20.2956    7.3783 C   0  0  2  0  0  0  0  0  0  0  0  0
  -13.1030   19.8497    8.3558 O   0  0  0  0  0  0  0  0  0  0  0  0
  -13.1095   20.6380    6.1665 C   0  0  0  0  0  0  0  0  0  0  0  0
  -12.5105   21.6195    5.1429 C   0  0  0  0  0  0  0  0  0  0  0  0
  1  2  1  1  0  0  0
  1  3  1  0  0  0  0
  3  4  1  1  0  0  0
  3  5  1  0  0  0  0
  5  6  1  6  0  0  0
  5  7  1  0  0  0  0
  7  8  1  1  0  0  0
  9  7  1  0  0  0  0
  9 10  1  0  0  0  0
  9 11  1  6  0  0  0
 10  1  1  0  0  0  0
 11 12  1  0  0  0  0
 13 14  1  1  0  0  0
 13 15  1  0  0  0  0
 13 22  1  0  0  0  0
 14 32  1  0  0  0  0
 15 16  1  1  0  0  0
 15 17  1  0  0  0  0
 16 23  1  0  0  0  0
 17 18  1  1  0  0  0
 17 19  1  0  0  0  0
 19  2  1  6  0  0  0
 19 20  1  0  0  0  0
 20 21  1  6  0  0  0
 20 22  1  0  0  0  0
 23 24  1  0  0  0  0
 24 25  1  0  0  0  0
 25 26  1  0  0  0  0
 26 27  1  0  0  0  0
 27 28  1  0  0  0  0
 28 29  1  0  0  0  0
 29 30  1  0  0  0  0
 31 37  1  0  0  0  0
 32 33  2  0  0  0  0
 34 32  1  6  0  0  0
 34 35  1  0  0  0  0
 34 36  1  0  0  0  0
 36 37  1  0  0  0  0
M  END
>  <CHROM.1>
-58.45961747,-170.83648513,-60.57459617,-35.43001047,-34.67396144,-179.69608282
-148.31346917,65.94166482,45.69948805,-77.22382545,-72.53161519,-169.28981976
-139.87231937,-82.75141088,-66.01206840,-7.26953541,18.18161534,6.80239095
0.77567744,0.44669379,-2.20733191

>  <Name>
1o9m_lig

>  <RI>
0

>  <Rbt.Current_Directory>
/home/itssahil/PROJECTS/Mol_Feturizer/New_Systems/rnas/1o9m

>  <Rbt.Executable>
rbdock ($Id: //depot/dev/client3/rdock/2013.1/src/exe/rbdock.cxx#4 $)

>  <Rbt.Library>
libRbt.so (2013.1, Build901 2013/11/27)

>  <Rbt.Parameter_File>
/export/apps/rDock/src/rDock_2013.1_src/data/scripts/dock_solv.prm

>  <Rbt.Receptor>
prm/pocket_docking_3.prm

>  <SCORE>
-3.18683

>  <SCORE.INTER>
-5.43745

>  <SCORE.INTER.CONST>
1

>  <SCORE.INTER.POLAR>
-1.3483

>  <SCORE.INTER.ROT>
15

>  <SCORE.INTER.SOLV>
14.5485

>  <SCORE.INTER.VDW>
-17.5801

>  <SCORE.INTER.norm>
-0.146958

>  <SCORE.INTRA>
2.25061

>  <SCORE.INTRA.DIHEDRAL>
-6.70342

>  <SCORE.INTRA.DIHEDRAL.0>
21.5987

>  <SCORE.INTRA.POLAR>
0

>  <SCORE.INTRA.POLAR.0>
0

>  <SCORE.INTRA.REPUL>
0

>  <SCORE.INTRA.REPUL.0>
0

>  <SCORE.INTRA.SOLV>
7.08265

>  <SCORE.INTRA.SOLV.lig_0>
-108.715

>  <SCORE.INTRA.VDW>
2.061

>  <SCORE.INTRA.VDW.0>
-3.9485

>  <SCORE.INTRA.norm>
0.0608274

>  <SCORE.RESTR>
0

>  <SCORE.RESTR.CAVITY>
0

>  <SCORE.RESTR.norm>
0

>  <SCORE.SYSTEM>
0

>  <SCORE.SYSTEM.CONST>
0

>  <SCORE.SYSTEM.DIHEDRAL>
0

>  <SCORE.SYSTEM.SOLV>
0

>  <SCORE.SYSTEM.norm>
0

>  <SCORE.heavy>
37

>  <SCORE.norm>
-0.0861306

>  <RMSD>
2.993

$$$$
1o9m_lig
 OpenBabel11021811403D
libRbt.so/2013.1/901 2013/11/27
 37 38  0  0  0  0  0  0  0  0999 V2000
   -4.7597   13.6385    4.8957 C   0  0  2  0  0  0  0  0  0  0  0  0
   -5.6155   14.6377    4.2621 O   0  0  0  0  0  0  0  0  0  0  0  0
   -3.2925   13.9425    4.4166 C   0  0  2  0  0  0  0  0  0  0  0  0
   -2.8594   15.3035    4.7788 N   0  0  0  0  0  0  0  0  0  0  0  0
   -3.2045   13.7251    2.8581 C   0  0  1  0  0  0  0  0  0  0  0  0
   -1.8773   13.9940    2.3978 O   0  0  0  0  0  0  0  0  0  0  0  0
   -3.6534   12.2594    2.5458 C   0  0  2  0  0  0  0  0  0  0  0  0
   -3.6277   11.9556    1.1416 O   0  0  0  0  0  0  0  0  0  0  0  0
   -5.0804   11.9982    3.0879 C   0  0  2  0  0  0  0  0  0  0  0  0
   -5.1546   12.2843    4.4922 O   0  0  0  0  0  0  0  0  0  0  0  0
   -5.5153   10.5753    2.8494 C   0  0  0  0  0  0  0  0  0  0  0  0
   -5.7940   10.3797    1.5177 N   0  0  0  0  0  0  0  0  0  0  0  0
   -9.0358   17.0418    5.4211 C   0  0  1  0  0  0  0  0  0  0  0  0
  -10.3599   17.4069    5.9980 N   0  0  0  0  0  0  0  0  0  0  0  0
   -8.1555   16.4781    6.5283 C   0  0  2  0  0  0  0  0  0  0  0  0
   -8.0573   17.4438    7.5322 O   0  0  0  0  0  0  0  0  0  0  0  0
   -6.7471   16.0977    5.9721 C   0  0  1  0  0  0  0  0  0  0  0  0
   -5.9201   15.5385    7.0379 O   0  0  0  0  0  0  0  0  0  0  0  0
   -6.9033   15.0142    4.8287 C   0  0  1  0  0  0  0  0  0  0  0  0
   -7.7658   15.5730    3.7072 C   0  0  1  0  0  0  0  0  0  0  0  0
   -7.8839   14.5680    2.6614 N   0  0  0  0  0  0  0  0  0  0  0  0
   -9.1594   15.9695    4.2640 C   0  0  0  0  0  0  0  0  0  0  0  0
   -7.6416   18.0627    8.7695 C   0  0  0  0  0  0  0  0  0  0  0  0
   -6.1317   18.0736    8.8373 C   0  0  0  0  0  0  0  0  0  0  0  0
   -5.4710   18.3942    7.5552 N   0  0  0  0  0  0  0  0  0  0  0  0
   -4.4708   18.8380    6.5577 C   0  0  0  0  0  0  0  0  0  0  0  0
   -5.3746   18.7599    5.3208 C   0  0  0  0  0  0  0  0  0  0  0  0
   -4.6042   19.0305    4.0148 C   0  0  0  0  0  0  0  0  0  0  0  0
   -3.6721   17.8710    3.6770 C   0  0  0  0  0  0  0  0  0  0  0  0
   -2.8775   18.1946    2.5005 N   0  0  0  0  0  0  0  0  0  0  0  0
  -12.5518   22.1286    6.4378 N   0  0  0  0  0  0  0  0  0  0  0  0
  -11.3929   18.2071    4.7983 C   0  0  0  0  0  0  0  0  0  0  0  0
  -11.2867   18.4757    3.7588 O   0  0  0  0  0  0  0  0  0  0  0  0
  -12.4096   18.3234    5.9076 C   0  0  2  0  0  0  0  0  0  0  0  0
  -13.5125   17.5479    5.6545 O   0  0  0  0  0  0  0  0  0  0  0  0
  -12.8841   19.7723    5.9220 C   0  0  0  0  0  0  0  0  0  0  0  0
  -11.8547   20.8381    6.3394 C   0  0  0  0  0  0  0  0  0  0  0  0
  1  2  1  6  0  0  0
  1  3  1  0  0  0  0
  3  4  1  6  0  0  0
  3  5  1  0  0  0  0
  5  6  1  1  0  0  0
  5  7  1  0  0  0  0
  7  8  1  6  0  0  0
  9  7  1  0  0  0  0
  9 10  1  0  0  0  0
  9 11  1  1  0  0  0
 10  1  1  0  0  0  0
 11 12  1  0  0  0  0
 13 14  1  1  0  0  0
 13 15  1  0  0  0  0
 13 22  1  0  0  0  0
 14 32  1  0  0  0  0
 15 16  1  1  0  0  0
 15 17  1  0  0  0  0
 16 23  1  0  0  0  0
 17 18  1  1  0  0  0
 17 19  1  0  0  0  0
 19  2  1  6  0  0  0
 19 20  1  0  0  0  0
 20 21  1  6  0  0  0
 20 22  1  0  0  0  0
 23 24  1  0  0  0  0
 24 25  1  0  0  0  0
 25 26  1  0  0  0  0
 26 27  1  0  0  0  0
 27 28  1  0  0  0  0
 28 29  1  0  0  0  0
 29 30  1  0  0  0  0
 31 37  1  0  0  0  0
 32 33  2  0  0  0  0
 34 32  1  6  0  0  0
 34 35  1  0  0  0  0
 34 36  1  0  0  0  0
 36 37  1  0  0  0  0
M  END
>  <CHROM.1>
-155.90850902,-72.89833876,174.88385358,-177.88866475,54.33892524,82.87292737
40.38231490,156.61697150,-171.96870921,-174.16455158,71.10169344,-175.44899242
-113.00563286,-67.33584245,-173.47271617,-6.92538456,16.16174906,4.84139881
0.75357422,0.04689723,-2.60862840

>  <Name>
1o9m_lig

>  <RI>
0

>  <Rbt.Current_Directory>
/home/itssahil/PROJECTS/Mol_Feturizer/New_Systems/rnas/1o9m

>  <Rbt.Executable>
rbdock ($Id: //depot/dev/client3/rdock/2013.1/src/exe/rbdock.cxx#4 $)

>  <Rbt.Library>
libRbt.so (2013.1, Build901 2013/11/27)

>  <Rbt.Parameter_File>
/export/apps/rDock/src/rDock_2013.1_src/data/scripts/dock_solv.prm

>  <Rbt.Receptor>
prm/pocket_docking_4.prm

>  <SCORE>
-13.0493

>  <SCORE.INTER>
-8.38797

>  <SCORE.INTER.CONST>
1

>  <SCORE.INTER.POLAR>
-0.959166

>  <SCORE.INTER.ROT>
15

>  <SCORE.INTER.SOLV>
16.0935

>  <SCORE.INTER.VDW>
-21.3593

>  <SCORE.INTER.norm>
-0.226702

>  <SCORE.INTRA>
-4.70615

>  <SCORE.INTRA.DIHEDRAL>
-10.8767

>  <SCORE.INTRA.DIHEDRAL.0>
21.5987

>  <SCORE.INTRA.POLAR>
0

>  <SCORE.INTRA.POLAR.0>
0

>  <SCORE.INTRA.REPUL>
0

>  <SCORE.INTRA.REPUL.0>
0

>  <SCORE.INTRA.SOLV>
5.39938

>  <SCORE.INTRA.SOLV.lig_0>
-108.715

>  <SCORE.INTRA.VDW>
-1.96748

>  <SCORE.INTRA.VDW.0>
-3.9485

>  <SCORE.INTRA.norm>
-0.127193

>  <SCORE.RESTR>
0.0448462

>  <SCORE.RESTR.CAVITY>
0.0448462

>  <SCORE.RESTR.norm>
0.00121206

>  <SCORE.SYSTEM>
0

>  <SCORE.SYSTEM.CONST>
0

>  <SCORE.SYSTEM.DIHEDRAL>
0

>  <SCORE.SYSTEM.SOLV>
0

>  <SCORE.SYSTEM.norm>
0

>  <SCORE.heavy>
37

>  <SCORE.norm>
-0.352683

>  <RMSD>
3.076

$$$$
1o9m_lig
 OpenBabel11021811403D
libRbt.so/2013.1/901 2013/11/27
 37 38  0  0  0  0  0  0  0  0999 V2000
   -4.4680   14.0108    5.6424 C   0  0  2  0  0  0  0  0  0  0  0  0
   -5.2315   15.1160    5.0698 O   0  0  0  0  0  0  0  0  0  0  0  0
   -2.9595   14.2834    5.2895 C   0  0  2  0  0  0  0  0  0  0  0  0
   -2.4874   15.5733    5.8228 N   0  0  0  0  0  0  0  0  0  0  0  0
   -2.7785   14.2265    3.7250 C   0  0  1  0  0  0  0  0  0  0  0  0
   -1.4124   14.4699    3.3783 O   0  0  0  0  0  0  0  0  0  0  0  0
   -3.2747   12.8282    3.2289 C   0  0  2  0  0  0  0  0  0  0  0  0
   -3.1701   12.6727    1.8042 O   0  0  0  0  0  0  0  0  0  0  0  0
   -4.7453   12.5893    3.6514 C   0  0  2  0  0  0  0  0  0  0  0  0
   -4.8991   12.7299    5.0712 O   0  0  0  0  0  0  0  0  0  0  0  0
   -5.2304   11.2251    3.2340 C   0  0  0  0  0  0  0  0  0  0  0  0
   -6.5874   11.1227    3.4276 N   0  0  0  0  0  0  0  0  0  0  0  0
   -8.3329   17.8250    6.4349 C   0  0  1  0  0  0  0  0  0  0  0  0
   -9.5936   18.3062    7.0661 N   0  0  0  0  0  0  0  0  0  0  0  0
   -7.4947   17.1153    7.4895 C   0  0  2  0  0  0  0  0  0  0  0  0
   -7.2650   18.0151    8.5324 O   0  0  0  0  0  0  0  0  0  0  0  0
   -6.1514   16.6086    6.8759 C   0  0  1  0  0  0  0  0  0  0  0  0
   -5.3666   15.9112    7.8909 O   0  0  0  0  0  0  0  0  0  0  0  0
   -6.4551   15.6049    5.6901 C   0  0  1  0  0  0  0  0  0  0  0  0
   -7.2766   16.3085    4.6205 C   0  0  1  0  0  0  0  0  0  0  0  0
   -7.5314   15.3739    3.5347 N   0  0  0  0  0  0  0  0  0  0  0  0
   -8.6033   16.8295    5.2351 C   0  0  0  0  0  0  0  0  0  0  0  0
   -7.5376   19.0493    9.5034 C   0  0  0  0  0  0  0  0  0  0  0  0
   -6.9482   20.3541    9.0190 C   0  0  0  0  0  0  0  0  0  0  0  0
   -7.2490   20.6663    7.6066 N   0  0  0  0  0  0  0  0  0  0  0  0
   -7.9482   21.1128    6.3801 C   0  0  0  0  0  0  0  0  0  0  0  0
   -7.0414   20.4055    5.3650 C   0  0  0  0  0  0  0  0  0  0  0  0
   -7.5935   20.4883    3.9296 C   0  0  0  0  0  0  0  0  0  0  0  0
   -6.7934   19.6004    2.9815 C   0  0  0  0  0  0  0  0  0  0  0  0
   -5.3876   19.9786    3.0088 N   0  0  0  0  0  0  0  0  0  0  0  0
  -13.5578   21.2278    8.2718 N   0  0  0  0  0  0  0  0  0  0  0  0
  -10.7555   18.8692    5.8497 C   0  0  0  0  0  0  0  0  0  0  0  0
  -10.7615   18.9315    4.7726 O   0  0  0  0  0  0  0  0  0  0  0  0
  -11.6520   19.2062    7.0160 C   0  0  2  0  0  0  0  0  0  0  0  0
  -11.9814   18.0825    7.7307 O   0  0  0  0  0  0  0  0  0  0  0  0
  -12.9500   19.7530    6.4323 C   0  0  0  0  0  0  0  0  0  0  0  0
  -14.0584   20.1302    7.4317 C   0  0  0  0  0  0  0  0  0  0  0  0
  1  2  1  6  0  0  0
  1  3  1  0  0  0  0
  3  4  1  6  0  0  0
  3  5  1  0  0  0  0
  5  6  1  1  0  0  0
  5  7  1  0  0  0  0
  7  8  1  6  0  0  0
  9  7  1  0  0  0  0
  9 10  1  0  0  0  0
  9 11  1  1  0  0  0
 10  1  1  0  0  0  0
 11 12  1  0  0  0  0
 13 14  1  1  0  0  0
 13 15  1  0  0  0  0
 13 22  1  0  0  0  0
 14 32  1  0  0  0  0
 15 16  1  1  0  0  0
 15 17  1  0  0  0  0
 16 23  1  0  0  0  0
 17 18  1  1  0  0  0
 17 19  1  0  0  0  0
 19  2  1  6  0  0  0
 19 20  1  0  0  0  0
 20 21  1  6  0  0  0
 20 22  1  0  0  0  0
 23 24  1  0  0  0  0
 24 25  1  0  0  0  0
 25 26  1  0  0  0  0
 26 27  1  0  0  0  0
 27 28  1  0  0  0  0
 28 29  1  0  0  0  0
 29 30  1  0  0  0  0
 31 37  1  0  0  0  0
 32 33  2  0  0  0  0
 34 32  1  6  0  0  0
 34 35  1  0  0  0  0
 34 36  1  0  0  0  0
 36 37  1  0  0  0  0
M  END
>  <CHROM.1>
-148.36681069,-170.37480250,-169.24038667,41.29672097,-102.57519117,82.04405835
46.99630693,80.14520316,-163.03733019,171.94025008,-171.21992380,-57.30702250
-62.13656713,178.03623901,63.33425894,-7.10688725,16.92172825,5.62261453
0.79908593,-0.06657678,-2.74449529

>  <Name>
1o9m_lig

>  <RI>
0

>  <Rbt.Current_Directory>
/home/itssahil/PROJECTS/Mol_Feturizer/New_Systems/rnas/1o9m

>  <Rbt.Executable>
rbdock ($Id: //depot/dev/client3/rdock/2013.1/src/exe/rbdock.cxx#4 $)

>  <Rbt.Library>
libRbt.so (2013.1, Build901 2013/11/27)

>  <Rbt.Parameter_File>
/export/apps/rDock/src/rDock_2013.1_src/data/scripts/dock_solv.prm

>  <Rbt.Receptor>
prm/pocket_docking_5.prm

>  <SCORE>
-12.5872

>  <SCORE.INTER>
-10.5571

>  <SCORE.INTER.CONST>
1

>  <SCORE.INTER.POLAR>
-1.82815

>  <SCORE.INTER.ROT>
15

>  <SCORE.INTER.SOLV>
16.4836

>  <SCORE.INTER.VDW>
-20.0388

>  <SCORE.INTER.norm>
-0.285327

>  <SCORE.INTRA>
-2.03177

>  <SCORE.INTRA.DIHEDRAL>
-5.11535

>  <SCORE.INTRA.DIHEDRAL.0>
21.5987

>  <SCORE.INTRA.POLAR>
0

>  <SCORE.INTRA.POLAR.0>
0

>  <SCORE.INTRA.REPUL>
0

>  <SCORE.INTRA.REPUL.0>
0

>  <SCORE.INTRA.SOLV>
4.57895

>  <SCORE.INTRA.SOLV.lig_0>
-108.715

>  <SCORE.INTRA.VDW>
-1.76357

>  <SCORE.INTRA.VDW.0>
-3.9485

>  <SCORE.INTRA.norm>
-0.0549127

>  <SCORE.RESTR>
0.00164707

>  <SCORE.RESTR.CAVITY>
0.00164707

>  <SCORE.RESTR.norm>
4.45155e-05

>  <SCORE.SYSTEM>
0

>  <SCORE.SYSTEM.CONST>
0

>  <SCORE.SYSTEM.DIHEDRAL>
0

>  <SCORE.SYSTEM.SOLV>
0

>  <SCORE.SYSTEM.norm>
0

>  <SCORE.heavy>
37

>  <SCORE.norm>
-0.340195

>  <RMSD>
3.108

$$$$
1o9m_lig
 OpenBabel11021811403D
libRbt.so/2013.1/901 2013/11/27
 37 38  0  0  0  0  0  0  0  0999 V2000
   -5.3270   14.8041    5.7596 C   0  0  2  0  0  0  0  0  0  0  0  0
   -6.1412   15.7768    5.0364 O   0  0  0  0  0  0  0  0  0  0  0  0
   -3.8274   15.1520    5.4360 C   0  0  2  0  0  0  0  0  0  0  0  0
   -3.4757   16.5255    5.8369 N   0  0  0  0  0  0  0  0  0  0  0  0
   -3.5699   14.9369    3.8961 C   0  0  1  0  0  0  0  0  0  0  0  0
   -2.2105   15.2455    3.5766 O   0  0  0  0  0  0  0  0  0  0  0  0
   -3.9396   13.4582    3.5435 C   0  0  2  0  0  0  0  0  0  0  0  0
   -3.7575   13.1549    2.1508 O   0  0  0  0  0  0  0  0  0  0  0  0
   -5.4071   13.1543    3.9338 C   0  0  2  0  0  0  0  0  0  0  0  0
   -5.6368   13.4385    5.3216 O   0  0  0  0  0  0  0  0  0  0  0  0
   -5.7718   11.7189    3.6559 C   0  0  0  0  0  0  0  0  0  0  0  0
   -5.8680   11.5060    2.3014 N   0  0  0  0  0  0  0  0  0  0  0  0
   -9.9689   17.7827    5.4181 C   0  0  1  0  0  0  0  0  0  0  0  0
  -11.3910   18.0273    5.7888 N   0  0  0  0  0  0  0  0  0  0  0  0
   -9.1647   17.5389    6.6879 C   0  0  2  0  0  0  0  0  0  0  0  0
   -9.3212   18.6527    7.5157 O   0  0  0  0  0  0  0  0  0  0  0  0
   -7.6603   17.2956    6.3486 C   0  0  1  0  0  0  0  0  0  0  0  0
   -6.9039   17.0416    7.5717 O   0  0  0  0  0  0  0  0  0  0  0  0
   -7.5277   16.0363    5.3985 C   0  0  1  0  0  0  0  0  0  0  0  0
   -8.3121   16.2759    4.1175 C   0  0  1  0  0  0  0  0  0  0  0  0
   -8.1647   15.1143    3.2534 N   0  0  0  0  0  0  0  0  0  0  0  0
   -9.8042   16.5374    4.4561 C   0  0  0  0  0  0  0  0  0  0  0  0
   -9.5087   20.0344    7.8931 C   0  0  0  0  0  0  0  0  0  0  0  0
   -8.4729   20.8855    7.1951 C   0  0  0  0  0  0  0  0  0  0  0  0
   -8.6352   22.3375    7.4150 N   0  0  0  0  0  0  0  0  0  0  0  0
   -8.6877   23.7998    7.1885 C   0  0  0  0  0  0  0  0  0  0  0  0
   -7.5062   23.8932    6.2147 C   0  0  0  0  0  0  0  0  0  0  0  0
   -6.1526   23.6647    6.9130 C   0  0  0  0  0  0  0  0  0  0  0  0
   -5.0027   23.7155    5.9117 C   0  0  0  0  0  0  0  0  0  0  0  0
   -3.7729   23.2518    6.5384 N   0  0  0  0  0  0  0  0  0  0  0  0
  -16.5174   18.3885    6.0816 N   0  0  0  0  0  0  0  0  0  0  0  0
  -12.4131   18.2198    4.3518 C   0  0  0  0  0  0  0  0  0  0  0  0
  -12.2443   18.1898    3.2867 O   0  0  0  0  0  0  0  0  0  0  0  0
  -13.5479   18.4482    5.3201 C   0  0  2  0  0  0  0  0  0  0  0  0
  -13.9198   17.2794    5.9348 O   0  0  0  0  0  0  0  0  0  0  0  0
  -14.7444   18.9127    4.4971 C   0  0  0  0  0  0  0  0  0  0  0  0
  -15.9473   19.4771    5.2745 C   0  0  0  0  0  0  0  0  0  0  0  0
  1  2  1  6  0  0  0
  1  3  1  0  0  0  0
  3  4  1  6  0  0  0
  3  5  1  0  0  0  0
  5  6  1  1  0  0  0
  5  7  1  0  0  0  0
  7  8  1  6  0  0  0
  9  7  1  0  0  0  0
  9 10  1  0  0  0  0
  9 11  1  1  0  0  0
 10  1  1  0  0  0  0
 11 12  1  0  0  0  0
 13 14  1  1  0  0  0
 13 15  1  0  0  0  0
 13 22  1  0  0  0  0
 14 32  1  0  0  0  0
 15 16  1  1  0  0  0
 15 17  1  0  0  0  0
 16 23  1  0  0  0  0
 17 18  1  1  0  0  0
 17 19  1  0  0  0  0
 19  2  1  6  0  0  0
 19 20  1  0  0  0  0
 20 21  1  6  0  0  0
 20 22  1  0  0  0  0
 23 24  1  0  0  0  0
 24 25  1  0  0  0  0
 25 26  1  0  0  0  0
 26 27  1  0  0  0  0
 27 28  1  0  0  0  0
 28 29  1  0  0  0  0
 29 30  1  0  0  0  0
 31 37  1  0  0  0  0
 32 33  2  0  0  0  0
 34 32  1  6  0  0  0
 34 35  1  0  0  0  0
 34 36  1  0  0  0  0
 36 37  1  0  0  0  0
M  END
>  <CHROM.1>
-160.89184683,-71.28561841,-176.43426548,-32.46692409,-52.46660601,96.12150164
175.11677107,-139.44711560,-37.07424775,-71.14492196,178.02176086,-169.32506951
-72.86959081,-168.33741864,-65.08880198,-8.10070022,17.54713564,5.32556030
0.71516269,0.01353754,-2.81073727

>  <Name>
1o9m_lig

>  <RI>
0

>  <Rbt.Current_Directory>
/home/itssahil/PROJECTS/Mol_Feturizer/New_Systems/rnas/1o9m

>  <Rbt.Executable>
rbdock ($Id: //depot/dev/client3/rdock/2013.1/src/exe/rbdock.cxx#4 $)

>  <Rbt.Library>
libRbt.so (2013.1, Build901 2013/11/27)

>  <Rbt.Parameter_File>
/export/apps/rDock/src/rDock_2013.1_src/data/scripts/dock_solv.prm

>  <Rbt.Receptor>
prm/pocket_docking_7.prm

>  <SCORE>
-14.7387

>  <SCORE.INTER>
-12.6172

>  <SCORE.INTER.CONST>
1

>  <SCORE.INTER.POLAR>
-1.64233

>  <SCORE.INTER.ROT>
15

>  <SCORE.INTER.SOLV>
15.3996

>  <SCORE.INTER.VDW>
-21.6702

>  <SCORE.INTER.norm>
-0.341006

>  <SCORE.INTRA>
-2.12145

>  <SCORE.INTRA.DIHEDRAL>
-7.61578

>  <SCORE.INTRA.DIHEDRAL.0>
21.5987

>  <SCORE.INTRA.POLAR>
0

>  <SCORE.INTRA.POLAR.0>
0

>  <SCORE.INTRA.REPUL>
0

>  <SCORE.INTRA.REPUL.0>
0

>  <SCORE.INTRA.SOLV>
2.77624

>  <SCORE.INTRA.SOLV.lig_0>
-108.715

>  <SCORE.INTRA.VDW>
0.298324

>  <SCORE.INTRA.VDW.0>
-3.9485

>  <SCORE.INTRA.norm>
-0.0573364

>  <SCORE.RESTR>
0

>  <SCORE.RESTR.CAVITY>
0

>  <SCORE.RESTR.norm>
0

>  <SCORE.SYSTEM>
0

>  <SCORE.SYSTEM.CONST>
0

>  <SCORE.SYSTEM.DIHEDRAL>
0

>  <SCORE.SYSTEM.SOLV>
0

>  <SCORE.SYSTEM.norm>
0

>  <SCORE.heavy>
37

>  <SCORE.norm>
-0.398342

>  <RMSD>
3.229

$$$$
1o9m_lig
 OpenBabel11021811403D
libRbt.so/2013.1/901 2013/11/27
 37 38  0  0  0  0  0  0  0  0999 V2000
   -4.1601   16.5457    3.4738 C   0  0  2  0  0  0  0  0  0  0  0  0
   -4.5480   17.4569    4.5469 O   0  0  0  0  0  0  0  0  0  0  0  0
   -4.7798   15.1455    3.8343 C   0  0  2  0  0  0  0  0  0  0  0  0
   -6.2464   15.2026    3.9639 N   0  0  0  0  0  0  0  0  0  0  0  0
   -4.1220   14.6192    5.1663 C   0  0  1  0  0  0  0  0  0  0  0  0
   -4.6686   13.3444    5.5150 O   0  0  0  0  0  0  0  0  0  0  0  0
   -2.5733   14.5608    4.9535 C   0  0  2  0  0  0  0  0  0  0  0  0
   -1.8669   14.1071    6.1197 O   0  0  0  0  0  0  0  0  0  0  0  0
   -2.0252   15.9508    4.5462 C   0  0  2  0  0  0  0  0  0  0  0  0
   -2.6994   16.4448    3.3796 O   0  0  0  0  0  0  0  0  0  0  0  0
   -0.5426   15.9092    4.2802 C   0  0  0  0  0  0  0  0  0  0  0  0
    0.1511   15.8273    5.4640 N   0  0  0  0  0  0  0  0  0  0  0  0
   -8.2565   19.3298    5.7955 C   0  0  1  0  0  0  0  0  0  0  0  0
   -9.6840   19.4813    6.1941 N   0  0  0  0  0  0  0  0  0  0  0  0
   -7.5688   18.3912    6.7775 C   0  0  2  0  0  0  0  0  0  0  0  0
   -7.7158   18.9274    8.0586 O   0  0  0  0  0  0  0  0  0  0  0  0
   -6.0616   18.2167    6.4090 C   0  0  1  0  0  0  0  0  0  0  0  0
   -5.4186   17.2981    7.3444 O   0  0  0  0  0  0  0  0  0  0  0  0
   -5.9385   17.6221    4.9471 C   0  0  1  0  0  0  0  0  0  0  0  0
   -6.6060   18.5610    3.9538 C   0  0  1  0  0  0  0  0  0  0  0  0
   -6.4683   18.0037    2.6166 N   0  0  0  0  0  0  0  0  0  0  0  0
   -8.0995   18.7501    4.3316 C   0  0  0  0  0  0  0  0  0  0  0  0
   -7.6623   19.0056    9.5000 C   0  0  0  0  0  0  0  0  0  0  0  0
   -7.8245   20.4467    9.9261 C   0  0  0  0  0  0  0  0  0  0  0  0
   -6.7565   21.3448    9.4406 N   0  0  0  0  0  0  0  0  0  0  0  0
   -5.8610   22.1157    8.5484 C   0  0  0  0  0  0  0  0  0  0  0  0
   -4.5461   21.4350    8.9492 C   0  0  0  0  0  0  0  0  0  0  0  0
   -3.3282   22.0455    8.2308 C   0  0  0  0  0  0  0  0  0  0  0  0
   -2.0366   21.3529    8.6546 C   0  0  0  0  0  0  0  0  0  0  0  0
   -1.7468   21.6462   10.0511 N   0  0  0  0  0  0  0  0  0  0  0  0
  -14.5010   19.9184    5.4892 N   0  0  0  0  0  0  0  0  0  0  0  0
  -10.5771   17.9607    6.0020 C   0  0  0  0  0  0  0  0  0  0  0  0
  -10.3236   16.9635    5.6776 O   0  0  0  0  0  0  0  0  0  0  0  0
  -11.7845   18.7336    6.4735 C   0  0  2  0  0  0  0  0  0  0  0  0
  -11.9075   18.6792    7.8388 O   0  0  0  0  0  0  0  0  0  0  0  0
  -13.0099   18.0364    5.8931 C   0  0  0  0  0  0  0  0  0  0  0  0
  -14.3823   18.6505    6.2237 C   0  0  0  0  0  0  0  0  0  0  0  0
  1  2  1  1  0  0  0
  1  3  1  0  0  0  0
  3  4  1  1  0  0  0
  3  5  1  0  0  0  0
  5  6  1  6  0  0  0
  5  7  1  0  0  0  0
  7  8  1  1  0  0  0
  9  7  1  0  0  0  0
  9 10  1  0  0  0  0
  9 11  1  6  0  0  0
 10  1  1  0  0  0  0
 11 12  1  0  0  0  0
 13 14  1  1  0  0  0
 13 15  1  0  0  0  0
 13 22  1  0  0  0  0
 14 32  1  0  0  0  0
 15 16  1  1  0  0  0
 15 17  1  0  0  0  0
 16 23  1  0  0  0  0
 17 18  1  1  0  0  0
 17 19  1  0  0  0  0
 19  2  1  6  0  0  0
 19 20  1  0  0  0  0
 20 21  1  6  0  0  0
 20 22  1  0  0  0  0
 23 24  1  0  0  0  0
 24 25  1  0  0  0  0
 25 26  1  0  0  0  0
 26 27  1  0  0  0  0
 27 28  1  0  0  0  0
 28 29  1  0  0  0  0
 29 30  1  0  0  0  0
 31 37  1  0  0  0  0
 32 33  2  0  0  0  0
 34 32  1  1  0  0  0
 34 35  1  0  0  0  0
 34 36  1  0  0  0  0
 36 37  1  0  0  0  0
M  END
>  <CHROM.1>
-53.36423636,-74.74141226,-66.62359383,171.29918968,164.52671406,159.28259630
-62.11898171,62.80873613,-117.43887110,-177.62753482,179.72667350,-67.61463511
-89.79686312,-179.44244821,70.80424795,-6.37111464,18.03374035,6.19716077
0.31558297,0.08142911,-2.44095738

>  <Name>
1o9m_lig

>  <RI>
0

>  <Rbt.Current_Directory>
/home/itssahil/PROJECTS/Mol_Feturizer/New_Systems/rnas/1o9m

>  <Rbt.Executable>
rbdock ($Id: //depot/dev/client3/rdock/2013.1/src/exe/rbdock.cxx#4 $)

>  <Rbt.Library>
libRbt.so (2013.1, Build901 2013/11/27)

>  <Rbt.Parameter_File>
/export/apps/rDock/src/rDock_2013.1_src/data/scripts/dock_solv.prm

>  <Rbt.Receptor>
prm/pocket_docking_5.prm

>  <SCORE>
-9.21472

>  <SCORE.INTER>
-5.99071

>  <SCORE.INTER.CONST>
1

>  <SCORE.INTER.POLAR>
-1.8307

>  <SCORE.INTER.ROT>
15

>  <SCORE.INTER.SOLV>
12.8493

>  <SCORE.INTER.VDW>
-15.7746

>  <SCORE.INTER.norm>
-0.161911

>  <SCORE.INTRA>
-3.224

>  <SCORE.INTRA.DIHEDRAL>
-13.8746

>  <SCORE.INTRA.DIHEDRAL.0>
21.5987

>  <SCORE.INTRA.POLAR>
0

>  <SCORE.INTRA.POLAR.0>
0

>  <SCORE.INTRA.REPUL>
0

>  <SCORE.INTRA.REPUL.0>
0

>  <SCORE.INTRA.SOLV>
6.8556

>  <SCORE.INTRA.SOLV.lig_0>
-108.715

>  <SCORE.INTRA.VDW>
0.285506

>  <SCORE.INTRA.VDW.0>
-3.9485

>  <SCORE.INTRA.norm>
-0.0871352

>  <SCORE.RESTR>
0

>  <SCORE.RESTR.CAVITY>
0

>  <SCORE.RESTR.norm>
0

>  <SCORE.SYSTEM>
0

>  <SCORE.SYSTEM.CONST>
0

>  <SCORE.SYSTEM.DIHEDRAL>
0

>  <SCORE.SYSTEM.SOLV>
0

>  <SCORE.SYSTEM.norm>
0

>  <SCORE.heavy>
37

>  <SCORE.norm>
-0.249046

>  <RMSD>
3.329

$$$$
1o9m_lig
 OpenBabel11021811403D
libRbt.so/2013.1/901 2013/11/27
 37 38  0  0  0  0  0  0  0  0999 V2000
   -7.2362   16.3488    4.7205 C   0  0  2  0  0  0  0  0  0  0  0  0
   -8.2523   15.6653    5.5158 O   0  0  0  0  0  0  0  0  0  0  0  0
   -6.4826   15.2321    3.9083 C   0  0  2  0  0  0  0  0  0  0  0  0
   -7.3932   14.4646    3.0407 N   0  0  0  0  0  0  0  0  0  0  0  0
   -5.7358   14.2780    4.9161 C   0  0  1  0  0  0  0  0  0  0  0  0
   -5.0403   13.2534    4.2005 O   0  0  0  0  0  0  0  0  0  0  0  0
   -4.7720   15.1498    5.7871 C   0  0  2  0  0  0  0  0  0  0  0  0
   -4.0474   14.3782    6.7590 O   0  0  0  0  0  0  0  0  0  0  0  0
   -5.5570   16.2661    6.5192 C   0  0  2  0  0  0  0  0  0  0  0  0
   -6.2953   17.0685    5.5863 O   0  0  0  0  0  0  0  0  0  0  0  0
   -4.6431   17.1555    7.3218 C   0  0  0  0  0  0  0  0  0  0  0  0
   -4.3762   16.5852    8.5436 N   0  0  0  0  0  0  0  0  0  0  0  0
  -10.5973   18.9521    7.1029 C   0  0  1  0  0  0  0  0  0  0  0  0
  -11.6158   19.6869    7.9043 N   0  0  0  0  0  0  0  0  0  0  0  0
   -9.6511   18.2305    8.0530 C   0  0  2  0  0  0  0  0  0  0  0  0
   -9.0834   19.1845    8.9002 O   0  0  0  0  0  0  0  0  0  0  0  0
   -8.5523   17.4596    7.2556 C   0  0  1  0  0  0  0  0  0  0  0  0
   -7.6647   16.7545    8.1762 O   0  0  0  0  0  0  0  0  0  0  0  0
   -9.2363   16.4007    6.2981 C   0  0  1  0  0  0  0  0  0  0  0  0
  -10.1704   17.1120    5.3311 C   0  0  1  0  0  0  0  0  0  0  0  0
  -10.7763   16.1235    4.4517 N   0  0  0  0  0  0  0  0  0  0  0  0
  -11.2511   17.8946    6.1242 C   0  0  0  0  0  0  0  0  0  0  0  0
   -8.2517   20.2887    9.3193 C   0  0  0  0  0  0  0  0  0  0  0  0
   -6.8133   19.8298    9.3879 C   0  0  0  0  0  0  0  0  0  0  0  0
   -6.0283   20.4596   10.4696 N   0  0  0  0  0  0  0  0  0  0  0  0
   -4.9253   20.7946   11.3989 C   0  0  0  0  0  0  0  0  0  0  0  0
   -4.7482   19.3986   12.0095 C   0  0  0  0  0  0  0  0  0  0  0  0
   -3.6071   19.3521   13.0428 C   0  0  0  0  0  0  0  0  0  0  0  0
   -2.9653   17.9689   13.0904 C   0  0  0  0  0  0  0  0  0  0  0  0
   -3.9629   16.9664   13.4367 N   0  0  0  0  0  0  0  0  0  0  0  0
  -13.9877   24.6223    7.0487 N   0  0  0  0  0  0  0  0  0  0  0  0
  -12.8404   20.4399    6.8651 C   0  0  0  0  0  0  0  0  0  0  0  0
  -13.0193   20.4775    5.8018 O   0  0  0  0  0  0  0  0  0  0  0  0
  -13.4425   20.9738    8.1419 C   0  0  2  0  0  0  0  0  0  0  0  0
  -14.4398   20.1522    8.6028 O   0  0  0  0  0  0  0  0  0  0  0  0
  -14.0950   22.3084    7.7987 C   0  0  0  0  0  0  0  0  0  0  0  0
  -13.1590   23.4476    7.3559 C   0  0  0  0  0  0  0  0  0  0  0  0
  1  2  1  1  0  0  0
  1  3  1  0  0  0  0
  3  4  1  1  0  0  0
  3  5  1  0  0  0  0
  5  6  1  6  0  0  0
  5  7  1  0  0  0  0
  7  8  1  1  0  0  0
  9  7  1  0  0  0  0
  9 10  1  0  0  0  0
  9 11  1  6  0  0  0
 10  1  1  0  0  0  0
 11 12  1  0  0  0  0
 13 14  1  1  0  0  0
 13 15  1  0  0  0  0
 13 22  1  0  0  0  0
 14 32  1  0  0  0  0
 15 16  1  1  0  0  0
 15 17  1  0  0  0  0
 16 23  1  0  0  0  0
 17 18  1  1  0  0  0
 17 19  1  0  0  0  0
 19  2  1  6  0  0  0
 19 20  1  0  0  0  0
 20 21  1  6  0  0  0
 20 22  1  0  0  0  0
 23 24  1  0  0  0  0
 24 25  1  0  0  0  0
 25 26  1  0  0  0  0
 26 27  1  0  0  0  0
 27 28  1  0  0  0  0
 28 29  1  0  0  0  0
 29 30  1  0  0  0  0
 31 37  1  0  0  0  0
 32 33  2  0  0  0  0
 34 32  1  6  0  0  0
 34 35  1  0  0  0  0
 34 36  1  0  0  0  0
 36 37  1  0  0  0  0
M  END
>  <CHROM.1>
-173.77746099,-83.05760126,-175.07208420,-71.36193190,-73.02109259,-52.60830364
-145.43285190,175.15742529,-58.55202147,178.48425764,-150.26400945,-59.02962391
-94.70140119,-65.41028611,178.80661658,-8.22353506,18.12397479,7.57814066
0.27877027,0.48390603,-2.25146457

>  <Name>
1o9m_lig

>  <RI>
0

>  <Rbt.Current_Directory>
/home/itssahil/PROJECTS/Mol_Feturizer/New_Systems/rnas/1o9m

>  <Rbt.Executable>
rbdock ($Id: //depot/dev/client3/rdock/2013.1/src/exe/rbdock.cxx#4 $)

>  <Rbt.Library>
libRbt.so (2013.1, Build901 2013/11/27)

>  <Rbt.Parameter_File>
/export/apps/rDock/src/rDock_2013.1_src/data/scripts/dock_solv.prm

>  <Rbt.Receptor>
prm/pocket_docking_3.prm

>  <SCORE>
-5.20908

>  <SCORE.INTER>
-1.62802

>  <SCORE.INTER.CONST>
1

>  <SCORE.INTER.POLAR>
-0.495931

>  <SCORE.INTER.ROT>
15

>  <SCORE.INTER.SOLV>
20.9481

>  <SCORE.INTER.VDW>
-20.0149

>  <SCORE.INTER.norm>
-0.0440004

>  <SCORE.INTRA>
-3.62535

>  <SCORE.INTRA.DIHEDRAL>
-9.79313

>  <SCORE.INTRA.DIHEDRAL.0>
21.5987

>  <SCORE.INTRA.POLAR>
0

>  <SCORE.INTRA.POLAR.0>
0

>  <SCORE.INTRA.REPUL>
0

>  <SCORE.INTRA.REPUL.0>
0

>  <SCORE.INTRA.SOLV>
2.21305

>  <SCORE.INTRA.SOLV.lig_0>
-108.715

>  <SCORE.INTRA.VDW>
0.164691

>  <SCORE.INTRA.VDW.0>
-3.9485

>  <SCORE.INTRA.norm>
-0.0979824

>  <SCORE.RESTR>
0.0442861

>  <SCORE.RESTR.CAVITY>
0.0442861

>  <SCORE.RESTR.norm>
0.00119692

>  <SCORE.SYSTEM>
0

>  <SCORE.SYSTEM.CONST>
0

>  <SCORE.SYSTEM.DIHEDRAL>
0

>  <SCORE.SYSTEM.SOLV>
0

>  <SCORE.SYSTEM.norm>
0

>  <SCORE.heavy>
37

>  <SCORE.norm>
-0.140786

>  <RMSD>
3.378

$$$$
1o9m_lig
 OpenBabel11021811403D
libRbt.so/2013.1/901 2013/11/27
 37 38  0  0  0  0  0  0  0  0999 V2000
   -5.4217   14.1616    6.8854 C   0  0  2  0  0  0  0  0  0  0  0  0
   -5.7886   15.5750    6.8939 O   0  0  0  0  0  0  0  0  0  0  0  0
   -4.1678   14.0226    7.8251 C   0  0  2  0  0  0  0  0  0  0  0  0
   -4.4475   14.4794    9.1977 N   0  0  0  0  0  0  0  0  0  0  0  0
   -2.9660   14.8299    7.2023 C   0  0  1  0  0  0  0  0  0  0  0  0
   -1.8114   14.7174    8.0389 O   0  0  0  0  0  0  0  0  0  0  0  0
   -2.7075   14.2813    5.7602 C   0  0  2  0  0  0  0  0  0  0  0  0
   -1.6355   14.9627    5.0883 O   0  0  0  0  0  0  0  0  0  0  0  0
   -3.9884   14.3905    4.8967 C   0  0  2  0  0  0  0  0  0  0  0  0
   -5.0889   13.7188    5.5268 O   0  0  0  0  0  0  0  0  0  0  0  0
   -3.7821   13.8167    3.5188 C   0  0  0  0  0  0  0  0  0  0  0  0
   -3.8522   12.4445    3.5593 N   0  0  0  0  0  0  0  0  0  0  0  0
   -9.4078   17.8749    6.2367 C   0  0  1  0  0  0  0  0  0  0  0  0
  -10.8344   18.2958    6.3218 N   0  0  0  0  0  0  0  0  0  0  0  0
   -8.8111   17.8740    7.6376 C   0  0  2  0  0  0  0  0  0  0  0  0
   -8.9631   19.1561    8.1699 O   0  0  0  0  0  0  0  0  0  0  0  0
   -7.3075   17.4557    7.5953 C   0  0  1  0  0  0  0  0  0  0  0  0
   -6.7526   17.4375    8.9460 O   0  0  0  0  0  0  0  0  0  0  0  0
   -7.1774   16.0060    6.9730 C   0  0  1  0  0  0  0  0  0  0  0  0
   -7.7535   15.9988    5.5652 C   0  0  1  0  0  0  0  0  0  0  0  0
   -7.6105   14.6626    5.0069 N   0  0  0  0  0  0  0  0  0  0  0  0
   -9.2430   16.4336    5.6048 C   0  0  0  0  0  0  0  0  0  0  0  0
   -8.8834   20.5956    8.2582 C   0  0  0  0  0  0  0  0  0  0  0  0
   -7.4349   21.0195    8.1759 C   0  0  0  0  0  0  0  0  0  0  0  0
   -7.2401   22.4470    7.8487 N   0  0  0  0  0  0  0  0  0  0  0  0
   -7.5047   23.8703    7.5378 C   0  0  0  0  0  0  0  0  0  0  0  0
   -6.0532   24.2896    7.2727 C   0  0  0  0  0  0  0  0  0  0  0  0
   -5.5520   23.8235    5.8929 C   0  0  0  0  0  0  0  0  0  0  0  0
   -4.0636   24.1120    5.7232 C   0  0  0  0  0  0  0  0  0  0  0  0
   -3.2797   23.1866    6.5291 N   0  0  0  0  0  0  0  0  0  0  0  0
  -12.9958   18.7662    2.2745 N   0  0  0  0  0  0  0  0  0  0  0  0
  -11.7376   17.8278    4.8685 C   0  0  0  0  0  0  0  0  0  0  0  0
  -11.4957   17.3061    3.9557 O   0  0  0  0  0  0  0  0  0  0  0  0
  -12.9217   18.5032    5.5160 C   0  0  2  0  0  0  0  0  0  0  0  0
  -13.9563   17.6216    5.7022 O   0  0  0  0  0  0  0  0  0  0  0  0
  -13.4165   19.5620    4.5369 C   0  0  0  0  0  0  0  0  0  0  0  0
  -14.0684   19.0577    3.2367 C   0  0  0  0  0  0  0  0  0  0  0  0
  1  2  1  6  0  0  0
  1  3  1  0  0  0  0
  3  4  1  1  0  0  0
  3  5  1  0  0  0  0
  5  6  1  1  0  0  0
  5  7  1  0  0  0  0
  7  8  1  6  0  0  0
  9  7  1  0  0  0  0
  9 10  1  0  0  0  0
  9 11  1  6  0  0  0
 10  1  1  0  0  0  0
 11 12  1  0  0  0  0
 13 14  1  1  0  0  0
 13 15  1  0  0  0  0
 13 22  1  0  0  0  0
 14 32  1  0  0  0  0
 15 16  1  6  0  0  0
 15 17  1  0  0  0  0
 16 23  1  0  0  0  0
 17 18  1  1  0  0  0
 17 19  1  0  0  0  0
 19  2  1  6  0  0  0
 19 20  1  0  0  0  0
 20 21  1  1  0  0  0
 20 22  1  0  0  0  0
 23 24  1  0  0  0  0
 24 25  1  0  0  0  0
 25 26  1  0  0  0  0
 26 27  1  0  0  0  0
 27 28  1  0  0  0  0
 28 29  1  0  0  0  0
 29 30  1  0  0  0  0
 31 37  1  0  0  0  0
 32 33  2  0  0  0  0
 34 32  1  6  0  0  0
 34 35  1  0  0  0  0
 34 36  1  0  0  0  0
 36 37  1  0  0  0  0
M  END
>  <CHROM.1>
-137.90767904,78.57811383,-161.42733358,-52.54330429,-59.31582487,154.74665833
162.55989353,2.49137518,-175.50335082,76.73924163,-173.44337708,73.29191668
-120.19914572,68.86273531,-83.64989056,-7.28729007,17.68629811,6.21822461
0.61378768,0.22985514,-2.94546589

>  <Name>
1o9m_lig

>  <RI>
0

>  <Rbt.Current_Directory>
/home/itssahil/PROJECTS/Mol_Feturizer/New_Systems/rnas/1o9m

>  <Rbt.Executable>
rbdock ($Id: //depot/dev/client3/rdock/2013.1/src/exe/rbdock.cxx#4 $)

>  <Rbt.Library>
libRbt.so (2013.1, Build901 2013/11/27)

>  <Rbt.Parameter_File>
/export/apps/rDock/src/rDock_2013.1_src/data/scripts/dock_solv.prm

>  <Rbt.Receptor>
prm/pocket_docking_7.prm

>  <SCORE>
-4.86157

>  <SCORE.INTER>
-7.59294

>  <SCORE.INTER.CONST>
1

>  <SCORE.INTER.POLAR>
-1.40082

>  <SCORE.INTER.ROT>
15

>  <SCORE.INTER.SOLV>
20.7309

>  <SCORE.INTER.VDW>
-20.9029

>  <SCORE.INTER.norm>
-0.205215

>  <SCORE.INTRA>
2.73137

>  <SCORE.INTRA.DIHEDRAL>
-2.78363

>  <SCORE.INTRA.DIHEDRAL.0>
21.5987

>  <SCORE.INTRA.POLAR>
0

>  <SCORE.INTRA.POLAR.0>
0

>  <SCORE.INTRA.REPUL>
0

>  <SCORE.INTRA.REPUL.0>
0

>  <SCORE.INTRA.SOLV>
6.57898

>  <SCORE.INTRA.SOLV.lig_0>
-108.715

>  <SCORE.INTRA.VDW>
0.833697

>  <SCORE.INTRA.VDW.0>
-3.9485

>  <SCORE.INTRA.norm>
0.0738209

>  <SCORE.RESTR>
0

>  <SCORE.RESTR.CAVITY>
0

>  <SCORE.RESTR.norm>
0

>  <SCORE.SYSTEM>
0

>  <SCORE.SYSTEM.CONST>
0

>  <SCORE.SYSTEM.DIHEDRAL>
0

>  <SCORE.SYSTEM.SOLV>
0

>  <SCORE.SYSTEM.norm>
0

>  <SCORE.heavy>
37

>  <SCORE.norm>
-0.131394

>  <RMSD>
3.752

$$$$
1o9m_lig
 OpenBabel11021811403D
libRbt.so/2013.1/901 2013/11/27
 37 38  0  0  0  0  0  0  0  0999 V2000
   -4.2185   12.6659    4.3698 C   0  0  2  0  0  0  0  0  0  0  0  0
   -4.8214   13.9894    4.2394 O   0  0  0  0  0  0  0  0  0  0  0  0
   -3.2055   12.5197    3.1752 C   0  0  2  0  0  0  0  0  0  0  0  0
   -2.1696   13.5674    3.1925 N   0  0  0  0  0  0  0  0  0  0  0  0
   -4.0041   12.5470    1.8168 C   0  0  1  0  0  0  0  0  0  0  0  0
   -3.1037   12.4137    0.7136 O   0  0  0  0  0  0  0  0  0  0  0  0
   -5.0671   11.3998    1.8549 C   0  0  2  0  0  0  0  0  0  0  0  0
   -5.8693   11.3432    0.6640 O   0  0  0  0  0  0  0  0  0  0  0  0
   -6.0010   11.5612    3.0797 C   0  0  2  0  0  0  0  0  0  0  0  0
   -5.2431   11.6182    4.2970 O   0  0  0  0  0  0  0  0  0  0  0  0
   -6.9996   10.4364    3.1711 C   0  0  0  0  0  0  0  0  0  0  0  0
   -6.4034    9.2427    2.8409 N   0  0  0  0  0  0  0  0  0  0  0  0
   -5.6979   16.9306    7.3056 C   0  0  1  0  0  0  0  0  0  0  0  0
   -6.3747   17.5994    8.4520 N   0  0  0  0  0  0  0  0  0  0  0  0
   -5.2093   15.5601    7.7546 C   0  0  2  0  0  0  0  0  0  0  0  0
   -4.3602   15.7440    8.8479 O   0  0  0  0  0  0  0  0  0  0  0  0
   -4.4751   14.8278    6.5874 C   0  0  1  0  0  0  0  0  0  0  0  0
   -4.0307   13.5069    7.0235 O   0  0  0  0  0  0  0  0  0  0  0  0
   -5.4652   14.6527    5.3648 C   0  0  1  0  0  0  0  0  0  0  0  0
   -5.9458   16.0173    4.8948 C   0  0  1  0  0  0  0  0  0  0  0  0
   -6.8416   15.8345    3.7627 N   0  0  0  0  0  0  0  0  0  0  0  0
   -6.6585   16.7535    6.0608 C   0  0  0  0  0  0  0  0  0  0  0  0
   -3.5222   15.4041    9.9743 C   0  0  0  0  0  0  0  0  0  0  0  0
   -2.6932   16.6081   10.3585 C   0  0  0  0  0  0  0  0  0  0  0  0
   -3.4221   17.6141   11.1584 N   0  0  0  0  0  0  0  0  0  0  0  0
   -4.1767   18.2674   12.2521 C   0  0  0  0  0  0  0  0  0  0  0  0
   -3.1600   19.3731   12.5629 C   0  0  0  0  0  0  0  0  0  0  0  0
   -1.8317   18.8118   13.1040 C   0  0  0  0  0  0  0  0  0  0  0  0
   -0.8204   19.9286   13.3430 C   0  0  0  0  0  0  0  0  0  0  0  0
   -0.3018   20.4143   12.0720 N   0  0  0  0  0  0  0  0  0  0  0  0
   -5.0374   21.6602    9.1840 N   0  0  0  0  0  0  0  0  0  0  0  0
   -6.5397   19.3446    8.1807 C   0  0  0  0  0  0  0  0  0  0  0  0
   -6.2755   20.0204    7.3822 O   0  0  0  0  0  0  0  0  0  0  0  0
   -7.1747   19.3898    9.5491 C   0  0  2  0  0  0  0  0  0  0  0  0
   -8.4814   18.9746    9.5047 O   0  0  0  0  0  0  0  0  0  0  0  0
   -7.1919   20.8522    9.9803 C   0  0  0  0  0  0  0  0  0  0  0  0
   -5.8454   21.4710   10.3975 C   0  0  0  0  0  0  0  0  0  0  0  0
  1  2  1  6  0  0  0
  1  3  1  0  0  0  0
  3  4  1  6  0  0  0
  3  5  1  0  0  0  0
  5  6  1  6  0  0  0
  5  7  1  0  0  0  0
  7  8  1  6  0  0  0
  9  7  1  0  0  0  0
  9 10  1  0  0  0  0
  9 11  1  1  0  0  0
 10  1  1  0  0  0  0
 11 12  1  0  0  0  0
 13 14  1  1  0  0  0
 13 15  1  0  0  0  0
 13 22  1  0  0  0  0
 14 32  1  0  0  0  0
 15 16  1  1  0  0  0
 15 17  1  0  0  0  0
 16 23  1  0  0  0  0
 17 18  1  1  0  0  0
 17 19  1  0  0  0  0
 19  2  1  6  0  0  0
 19 20  1  0  0  0  0
 20 21  1  6  0  0  0
 20 22  1  0  0  0  0
 23 24  1  0  0  0  0
 24 25  1  0  0  0  0
 25 26  1  0  0  0  0
 26 27  1  0  0  0  0
 27 28  1  0  0  0  0
 28 29  1  0  0  0  0
 29 30  1  0  0  0  0
 31 37  1  0  0  0  0
 32 33  2  0  0  0  0
 34 32  1  6  0  0  0
 34 35  1  0  0  0  0
 34 36  1  0  0  0  0
 36 37  1  0  0  0  0
M  END
>  <CHROM.1>
-159.73616450,39.76212179,162.99900139,172.44378080,165.47064875,57.68567408
79.36561537,62.38498986,119.47661857,-64.82432902,177.40814133,-73.77891584
-78.90784857,-73.57387357,72.44436265,-4.82858818,15.89796935,6.97182772
-1.66718572,-0.53676961,0.78669219

>  <Name>
1o9m_lig

>  <RI>
0

>  <Rbt.Current_Directory>
/home/itssahil/PROJECTS/Mol_Feturizer/New_Systems/rnas/1o9m

>  <Rbt.Executable>
rbdock ($Id: //depot/dev/client3/rdock/2013.1/src/exe/rbdock.cxx#4 $)

>  <Rbt.Library>
libRbt.so (2013.1, Build901 2013/11/27)

>  <Rbt.Parameter_File>
/export/apps/rDock/src/rDock_2013.1_src/data/scripts/dock_solv.prm

>  <Rbt.Receptor>
prm/pocket_docking_5.prm

>  <SCORE>
-10.0983

>  <SCORE.INTER>
-7.00366

>  <SCORE.INTER.CONST>
1

>  <SCORE.INTER.POLAR>
-0.884396

>  <SCORE.INTER.ROT>
15

>  <SCORE.INTER.SOLV>
21.5202

>  <SCORE.INTER.VDW>
-22.4945

>  <SCORE.INTER.norm>
-0.189288

>  <SCORE.INTRA>
-3.09463

>  <SCORE.INTRA.DIHEDRAL>
-11.3627

>  <SCORE.INTRA.DIHEDRAL.0>
21.5987

>  <SCORE.INTRA.POLAR>
0

>  <SCORE.INTRA.POLAR.0>
0

>  <SCORE.INTRA.REPUL>
0

>  <SCORE.INTRA.REPUL.0>
0

>  <SCORE.INTRA.SOLV>
4.5613

>  <SCORE.INTRA.SOLV.lig_0>
-108.715

>  <SCORE.INTRA.VDW>
0.306091

>  <SCORE.INTRA.VDW.0>
-3.9485

>  <SCORE.INTRA.norm>
-0.0836387

>  <SCORE.RESTR>
0

>  <SCORE.RESTR.CAVITY>
0

>  <SCORE.RESTR.norm>
0

>  <SCORE.SYSTEM>
0

>  <SCORE.SYSTEM.CONST>
0

>  <SCORE.SYSTEM.DIHEDRAL>
0

>  <SCORE.SYSTEM.SOLV>
0

>  <SCORE.SYSTEM.norm>
0

>  <SCORE.heavy>
37

>  <SCORE.norm>
-0.272927

>  <RMSD>
3.871

$$$$
1o9m_lig
 OpenBabel11021811403D
libRbt.so/2013.1/901 2013/11/27
 37 38  0  0  0  0  0  0  0  0999 V2000
   -5.3279   14.5543    6.4350 C   0  0  2  0  0  0  0  0  0  0  0  0
   -5.3673   15.9408    5.9789 O   0  0  0  0  0  0  0  0  0  0  0  0
   -3.9151   14.3434    7.0937 C   0  0  2  0  0  0  0  0  0  0  0  0
   -3.6811   15.2676    8.2171 N   0  0  0  0  0  0  0  0  0  0  0  0
   -2.8024   14.5130    5.9905 C   0  0  1  0  0  0  0  0  0  0  0  0
   -1.5065   14.3238    6.5652 O   0  0  0  0  0  0  0  0  0  0  0  0
   -3.0958   13.4908    4.8431 C   0  0  2  0  0  0  0  0  0  0  0  0
   -2.1453   13.5711    3.7684 O   0  0  0  0  0  0  0  0  0  0  0  0
   -4.5182   13.7068    4.2699 C   0  0  2  0  0  0  0  0  0  0  0  0
   -5.5054   13.6309    5.3087 O   0  0  0  0  0  0  0  0  0  0  0  0
   -4.8470   12.6977    3.2003 C   0  0  0  0  0  0  0  0  0  0  0  0
   -6.0954   12.9445    2.6808 N   0  0  0  0  0  0  0  0  0  0  0  0
   -8.2869   18.6698    4.2909 C   0  0  1  0  0  0  0  0  0  0  0  0
   -9.4078   19.1773    3.4509 N   0  0  0  0  0  0  0  0  0  0  0  0
   -8.7997   17.5275    5.1573 C   0  0  2  0  0  0  0  0  0  0  0  0
   -9.8662   18.0111    5.9182 O   0  0  0  0  0  0  0  0  0  0  0  0
   -7.6604   16.9748    6.0706 C   0  0  1  0  0  0  0  0  0  0  0  0
   -8.1585   15.8663    6.8803 O   0  0  0  0  0  0  0  0  0  0  0  0
   -6.4669   16.4515    5.1720 C   0  0  1  0  0  0  0  0  0  0  0  0
   -5.9333   17.5893    4.3150 C   0  0  1  0  0  0  0  0  0  0  0  0
   -4.8289   17.0910    3.5091 N   0  0  0  0  0  0  0  0  0  0  0  0
   -7.0708   18.1518    3.4211 C   0  0  0  0  0  0  0  0  0  0  0  0
  -11.1812   18.5282    6.2179 C   0  0  0  0  0  0  0  0  0  0  0  0
  -11.1379   19.2618    7.5387 C   0  0  0  0  0  0  0  0  0  0  0  0
  -12.4472   19.7799    7.9861 N   0  0  0  0  0  0  0  0  0  0  0  0
  -13.5069   20.6788    8.4976 C   0  0  0  0  0  0  0  0  0  0  0  0
  -13.2976   21.8230    7.4977 C   0  0  0  0  0  0  0  0  0  0  0  0
  -12.9113   23.1430    8.1909 C   0  0  0  0  0  0  0  0  0  0  0  0
  -11.9712   23.9675    7.3170 C   0  0  0  0  0  0  0  0  0  0  0  0
  -10.6317   23.3975    7.3471 N   0  0  0  0  0  0  0  0  0  0  0  0
  -14.1144   21.3133    3.8940 N   0  0  0  0  0  0  0  0  0  0  0  0
   -9.3151   20.9358    3.2374 C   0  0  0  0  0  0  0  0  0  0  0  0
   -8.6363   21.7086    3.5630 O   0  0  0  0  0  0  0  0  0  0  0  0
  -10.5903   20.7998    2.4417 C   0  0  2  0  0  0  0  0  0  0  0  0
  -10.6473   21.7265    1.4318 O   0  0  0  0  0  0  0  0  0  0  0  0
  -11.7401   21.1135    3.3926 C   0  0  0  0  0  0  0  0  0  0  0  0
  -13.1645   20.8394    2.8770 C   0  0  0  0  0  0  0  0  0  0  0  0
  1  2  1  6  0  0  0
  1  3  1  0  0  0  0
  3  4  1  1  0  0  0
  3  5  1  0  0  0  0
  5  6  1  1  0  0  0
  5  7  1  0  0  0  0
  7  8  1  6  0  0  0
  9  7  1  0  0  0  0
  9 10  1  0  0  0  0
  9 11  1  6  0  0  0
 10  1  1  0  0  0  0
 11 12  1  0  0  0  0
 13 14  1  6  0  0  0
 13 15  1  0  0  0  0
 13 22  1  0  0  0  0
 14 32  1  0  0  0  0
 15 16  1  1  0  0  0
 15 17  1  0  0  0  0
 16 23  1  0  0  0  0
 17 18  1  6  0  0  0
 17 19  1  0  0  0  0
 19  2  1  1  0  0  0
 19 20  1  0  0  0  0
 20 21  1  6  0  0  0
 20 22  1  0  0  0  0
 23 24  1  0  0  0  0
 24 25  1  0  0  0  0
 25 26  1  0  0  0  0
 26 27  1  0  0  0  0
 27 28  1  0  0  0  0
 28 29  1  0  0  0  0
 29 30  1  0  0  0  0
 31 37  1  0  0  0  0
 32 33  2  0  0  0  0
 34 32  1  1  0  0  0
 34 35  1  0  0  0  0
 34 36  1  0  0  0  0
 36 37  1  0  0  0  0
M  END
>  <CHROM.1>
172.42892954,-177.92816053,143.89796266,67.72135011,-157.49340804,87.22572096
-177.08813305,-131.71537361,53.68325844,-119.16096044,147.01463425,-75.52121824
-147.19957548,-171.10264583,-175.26343308,-8.11169161,17.92418732,5.24362906
0.04122786,-0.73399976,1.69710278

>  <Name>
1o9m_lig

>  <RI>
0

>  <Rbt.Current_Directory>
/home/itssahil/PROJECTS/Mol_Feturizer/New_Systems/rnas/1o9m

>  <Rbt.Executable>
rbdock ($Id: //depot/dev/client3/rdock/2013.1/src/exe/rbdock.cxx#4 $)

>  <Rbt.Library>
libRbt.so (2013.1, Build901 2013/11/27)

>  <Rbt.Parameter_File>
/export/apps/rDock/src/rDock_2013.1_src/data/scripts/dock_solv.prm

>  <Rbt.Receptor>
prm/pocket_docking_5.prm

>  <SCORE>
-9.57679

>  <SCORE.INTER>
-7.90015

>  <SCORE.INTER.CONST>
1

>  <SCORE.INTER.POLAR>
-2.36385

>  <SCORE.INTER.ROT>
15

>  <SCORE.INTER.SOLV>
15.7508

>  <SCORE.INTER.VDW>
-16.2375

>  <SCORE.INTER.norm>
-0.213518

>  <SCORE.INTRA>
-1.70624

>  <SCORE.INTRA.DIHEDRAL>
-1.55051

>  <SCORE.INTRA.DIHEDRAL.0>
21.5987

>  <SCORE.INTRA.POLAR>
0

>  <SCORE.INTRA.POLAR.0>
0

>  <SCORE.INTRA.REPUL>
0

>  <SCORE.INTRA.REPUL.0>
0

>  <SCORE.INTRA.SOLV>
1.86252

>  <SCORE.INTRA.SOLV.lig_0>
-108.715

>  <SCORE.INTRA.VDW>
-1.86225

>  <SCORE.INTRA.VDW.0>
-3.9485

>  <SCORE.INTRA.norm>
-0.0461147

>  <SCORE.RESTR>
0.0296048

>  <SCORE.RESTR.CAVITY>
0.0296048

>  <SCORE.RESTR.norm>
0.000800131

>  <SCORE.SYSTEM>
0

>  <SCORE.SYSTEM.CONST>
0

>  <SCORE.SYSTEM.DIHEDRAL>
0

>  <SCORE.SYSTEM.SOLV>
0

>  <SCORE.SYSTEM.norm>
0

>  <SCORE.heavy>
37

>  <SCORE.norm>
-0.258832

>  <RMSD>
4.936

$$$$
1o9m_lig
 OpenBabel11021811403D
libRbt.so/2013.1/901 2013/11/27
 37 38  0  0  0  0  0  0  0  0999 V2000
   -4.4706   13.4566    4.8045 C   0  0  2  0  0  0  0  0  0  0  0  0
   -5.5549   14.3498    4.4063 O   0  0  0  0  0  0  0  0  0  0  0  0
   -3.2316   13.8374    3.9132 C   0  0  2  0  0  0  0  0  0  0  0  0
   -2.8348   15.2460    4.0842 N   0  0  0  0  0  0  0  0  0  0  0  0
   -3.5696   13.5321    2.4044 C   0  0  1  0  0  0  0  0  0  0  0  0
   -2.4560   13.8689    1.5726 O   0  0  0  0  0  0  0  0  0  0  0  0
   -3.9584   12.0211    2.2896 C   0  0  2  0  0  0  0  0  0  0  0  0
   -4.3047   11.6348    0.9496 O   0  0  0  0  0  0  0  0  0  0  0  0
   -5.1449   11.6897    3.2281 C   0  0  2  0  0  0  0  0  0  0  0  0
   -4.8433   12.0550    4.5827 O   0  0  0  0  0  0  0  0  0  0  0  0
   -5.5030   10.2269    3.1782 C   0  0  0  0  0  0  0  0  0  0  0  0
   -6.0197    9.9052    1.9458 N   0  0  0  0  0  0  0  0  0  0  0  0
   -7.8233   16.3164    7.5379 C   0  0  1  0  0  0  0  0  0  0  0  0
   -8.3197   17.3893    8.4446 N   0  0  0  0  0  0  0  0  0  0  0  0
   -8.1016   16.7225    6.0971 C   0  0  2  0  0  0  0  0  0  0  0  0
   -9.4750   16.9415    5.9703 O   0  0  0  0  0  0  0  0  0  0  0  0
   -7.6135   15.6164    5.1092 C   0  0  1  0  0  0  0  0  0  0  0  0
   -7.8659   16.0268    3.7306 O   0  0  0  0  0  0  0  0  0  0  0  0
   -6.0581   15.3883    5.2947 C   0  0  1  0  0  0  0  0  0  0  0  0
   -5.7694   14.9635    6.7265 C   0  0  1  0  0  0  0  0  0  0  0  0
   -4.3380   14.7449    6.8711 N   0  0  0  0  0  0  0  0  0  0  0  0
   -6.2724   16.0542    7.7097 C   0  0  0  0  0  0  0  0  0  0  0  0
  -10.7520   17.6018    6.1109 C   0  0  0  0  0  0  0  0  0  0  0  0
  -10.7956   18.8009    5.1917 C   0  0  0  0  0  0  0  0  0  0  0  0
  -12.0390   19.5930    5.2894 N   0  0  0  0  0  0  0  0  0  0  0  0
  -13.4554   19.9728    5.4943 C   0  0  0  0  0  0  0  0  0  0  0  0
  -13.5226   19.6870    6.9999 C   0  0  0  0  0  0  0  0  0  0  0  0
  -12.7286   20.7154    7.8270 C   0  0  0  0  0  0  0  0  0  0  0  0
  -13.4112   22.0796    7.8084 C   0  0  0  0  0  0  0  0  0  0  0  0
  -14.6537   22.0276    8.5658 N   0  0  0  0  0  0  0  0  0  0  0  0
   -5.2280   20.6470    9.4175 N   0  0  0  0  0  0  0  0  0  0  0  0
   -7.4214   18.9015    8.2146 C   0  0  0  0  0  0  0  0  0  0  0  0
   -6.6169   19.2198    7.5699 O   0  0  0  0  0  0  0  0  0  0  0  0
   -8.2880   19.4600    9.3167 C   0  0  2  0  0  0  0  0  0  0  0  0
   -9.5348   19.7904    8.8496 O   0  0  0  0  0  0  0  0  0  0  0  0
   -7.6333   20.7568    9.7796 C   0  0  0  0  0  0  0  0  0  0  0  0
   -6.2599   20.6376   10.4646 C   0  0  0  0  0  0  0  0  0  0  0  0
  1  2  1  6  0  0  0
  1  3  1  0  0  0  0
  3  4  1  6  0  0  0
  3  5  1  0  0  0  0
  5  6  1  6  0  0  0
  5  7  1  0  0  0  0
  7  8  1  6  0  0  0
  9  7  1  0  0  0  0
  9 10  1  0  0  0  0
  9 11  1  1  0  0  0
 10  1  1  0  0  0  0
 11 12  1  0  0  0  0
 13 14  1  1  0  0  0
 13 15  1  0  0  0  0
 13 22  1  0  0  0  0
 14 32  1  0  0  0  0
 15 16  1  1  0  0  0
 15 17  1  0  0  0  0
 16 23  1  0  0  0  0
 17 18  1  6  0  0  0
 17 19  1  0  0  0  0
 19  2  1  6  0  0  0
 19 20  1  0  0  0  0
 20 21  1  6  0  0  0
 20 22  1  0  0  0  0
 23 24  1  0  0  0  0
 24 25  1  0  0  0  0
 25 26  1  0  0  0  0
 26 27  1  0  0  0  0
 27 28  1  0  0  0  0
 28 29  1  0  0  0  0
 29 30  1  0  0  0  0
 31 37  1  0  0  0  0
 32 33  2  0  0  0  0
 34 32  1  6  0  0  0
 34 35  1  0  0  0  0
 34 36  1  0  0  0  0
 36 37  1  0  0  0  0
M  END
>  <CHROM.1>
-111.31857869,-67.52255368,-64.74035995,73.94726854,73.19474988,-145.99786746
-177.58429235,-29.98195297,66.41546307,71.11123508,69.95579570,69.41315854
-78.49870341,-66.00313730,86.68416917,-7.45673368,16.53268498,5.85575953
-0.89817946,-0.29132287,0.77824543

>  <Name>
1o9m_lig

>  <RI>
0

>  <Rbt.Current_Directory>
/home/itssahil/PROJECTS/Mol_Feturizer/New_Systems/rnas/1o9m

>  <Rbt.Executable>
rbdock ($Id: //depot/dev/client3/rdock/2013.1/src/exe/rbdock.cxx#4 $)

>  <Rbt.Library>
libRbt.so (2013.1, Build901 2013/11/27)

>  <Rbt.Parameter_File>
/export/apps/rDock/src/rDock_2013.1_src/data/scripts/dock_solv.prm

>  <Rbt.Receptor>
prm/pocket_docking_2.prm

>  <SCORE>
-4.06553

>  <SCORE.INTER>
-12.3061

>  <SCORE.INTER.CONST>
1

>  <SCORE.INTER.POLAR>
-0.959166

>  <SCORE.INTER.ROT>
15

>  <SCORE.INTER.SOLV>
14.9474

>  <SCORE.INTER.VDW>
-23.5893

>  <SCORE.INTER.norm>
-0.332598

>  <SCORE.INTRA>
7.29517

>  <SCORE.INTRA.DIHEDRAL>
-3.16697

>  <SCORE.INTRA.DIHEDRAL.0>
21.5987

>  <SCORE.INTRA.POLAR>
0

>  <SCORE.INTRA.POLAR.0>
0

>  <SCORE.INTRA.REPUL>
0

>  <SCORE.INTRA.REPUL.0>
0

>  <SCORE.INTRA.SOLV>
8.29978

>  <SCORE.INTRA.SOLV.lig_0>
-108.715

>  <SCORE.INTRA.VDW>
4.72876

>  <SCORE.INTRA.VDW.0>
-3.9485

>  <SCORE.INTRA.norm>
0.197167

>  <SCORE.RESTR>
0.945439

>  <SCORE.RESTR.CAVITY>
0.945439

>  <SCORE.RESTR.norm>
0.0255524

>  <SCORE.SYSTEM>
0

>  <SCORE.SYSTEM.CONST>
0

>  <SCORE.SYSTEM.DIHEDRAL>
0

>  <SCORE.SYSTEM.SOLV>
0

>  <SCORE.SYSTEM.norm>
0

>  <SCORE.heavy>
37

>  <SCORE.norm>
-0.109879

>  <RMSD>
5.425

$$$$
1o9m_lig
 OpenBabel11021811403D
libRbt.so/2013.1/901 2013/11/27
 37 38  0  0  0  0  0  0  0  0999 V2000
   -4.0935   14.2842    6.2067 C   0  0  2  0  0  0  0  0  0  0  0  0
   -4.9219   15.3910    5.7368 O   0  0  0  0  0  0  0  0  0  0  0  0
   -2.6060   14.6680    5.8682 C   0  0  2  0  0  0  0  0  0  0  0  0
   -2.1978   15.9313    6.5073 N   0  0  0  0  0  0  0  0  0  0  0  0
   -2.4403   14.7553    4.3033 C   0  0  1  0  0  0  0  0  0  0  0  0
   -1.0934   15.1017    3.9694 O   0  0  0  0  0  0  0  0  0  0  0  0
   -2.8663   13.3797    3.6920 C   0  0  2  0  0  0  0  0  0  0  0  0
   -2.7700   13.3528    2.2585 O   0  0  0  0  0  0  0  0  0  0  0  0
   -4.3170   13.0255    4.1025 C   0  0  2  0  0  0  0  0  0  0  0  0
   -4.4616   13.0353    5.5302 O   0  0  0  0  0  0  0  0  0  0  0  0
   -4.7327   11.6776    3.5725 C   0  0  0  0  0  0  0  0  0  0  0  0
   -4.8378   11.7167    2.2025 N   0  0  0  0  0  0  0  0  0  0  0  0
   -6.6159   18.8728    7.6933 C   0  0  1  0  0  0  0  0  0  0  0  0
   -6.6963   20.1492    8.4574 N   0  0  0  0  0  0  0  0  0  0  0  0
   -5.7728   19.0988    6.4457 C   0  0  2  0  0  0  0  0  0  0  0  0
   -6.3617   20.1298    5.7106 O   0  0  0  0  0  0  0  0  0  0  0  0
   -5.6761   17.7887    5.6018 C   0  0  1  0  0  0  0  0  0  0  0  0
   -4.8477   18.0121    4.4201 O   0  0  0  0  0  0  0  0  0  0  0  0
   -5.0184   16.6432    6.4742 C   0  0  1  0  0  0  0  0  0  0  0  0
   -5.8626   16.3950    7.7150 C   0  0  1  0  0  0  0  0  0  0  0  0
   -5.2493   15.3297    8.4939 N   0  0  0  0  0  0  0  0  0  0  0  0
   -5.9752   17.7024    8.5439 C   0  0  0  0  0  0  0  0  0  0  0  0
   -7.3671   20.8420    4.9566 C   0  0  0  0  0  0  0  0  0  0  0  0
   -8.5905   21.0395    5.8218 C   0  0  0  0  0  0  0  0  0  0  0  0
   -9.4178   19.8263    5.9855 N   0  0  0  0  0  0  0  0  0  0  0  0
   -9.8586   18.4593    6.3451 C   0  0  0  0  0  0  0  0  0  0  0  0
   -8.9021   17.6924    5.4231 C   0  0  0  0  0  0  0  0  0  0  0  0
   -9.0182   16.1666    5.5979 C   0  0  0  0  0  0  0  0  0  0  0  0
   -7.8917   15.4429    4.8666 C   0  0  0  0  0  0  0  0  0  0  0  0
   -7.9389   15.7522    3.4445 N   0  0  0  0  0  0  0  0  0  0  0  0
   -4.0420   20.0137   11.0965 N   0  0  0  0  0  0  0  0  0  0  0  0
   -5.1067   20.9239    8.5972 C   0  0  0  0  0  0  0  0  0  0  0  0
   -4.1118   20.6906    8.2510 O   0  0  0  0  0  0  0  0  0  0  0  0
   -5.8129   21.9852    9.4050 C   0  0  2  0  0  0  0  0  0  0  0  0
   -5.8569   23.1778    8.7283 O   0  0  0  0  0  0  0  0  0  0  0  0
   -4.9738   22.2197   10.6562 C   0  0  0  0  0  0  0  0  0  0  0  0
   -4.8967   21.0636   11.6697 C   0  0  0  0  0  0  0  0  0  0  0  0
  1  2  1  6  0  0  0
  1  3  1  0  0  0  0
  3  4  1  1  0  0  0
  3  5  1  0  0  0  0
  5  6  1  1  0  0  0
  5  7  1  0  0  0  0
  7  8  1  6  0  0  0
  9  7  1  0  0  0  0
  9 10  1  0  0  0  0
  9 11  1  1  0  0  0
 10  1  1  0  0  0  0
 11 12  1  0  0  0  0
 13 14  1  1  0  0  0
 13 15  1  0  0  0  0
 13 22  1  0  0  0  0
 14 32  1  0  0  0  0
 15 16  1  6  0  0  0
 15 17  1  0  0  0  0
 16 23  1  0  0  0  0
 17 18  1  6  0  0  0
 17 19  1  0  0  0  0
 19  2  1  6  0  0  0
 19 20  1  0  0  0  0
 20 21  1  1  0  0  0
 20 22  1  0  0  0  0
 23 24  1  0  0  0  0
 24 25  1  0  0  0  0
 25 26  1  0  0  0  0
 26 27  1  0  0  0  0
 27 28  1  0  0  0  0
 28 29  1  0  0  0  0
 29 30  1  0  0  0  0
 31 37  1  0  0  0  0
 32 33  2  0  0  0  0
 34 32  1  6  0  0  0
 34 35  1  0  0  0  0
 34 36  1  0  0  0  0
 36 37  1  0  0  0  0
M  END
>  <CHROM.1>
-76.76391879,-67.96167180,-45.73380497,-60.18847103,60.09698697,166.07196172
-76.05378041,62.29775854,-64.94552302,176.33737032,-169.63275726,-59.66937407
-111.27585609,-67.22868390,72.89172704,-5.47535855,17.35013062,6.30622474
-1.30096919,-0.40180226,0.66351907

>  <Name>
1o9m_lig

>  <RI>
0

>  <Rbt.Current_Directory>
/home/itssahil/PROJECTS/Mol_Feturizer/New_Systems/rnas/1o9m

>  <Rbt.Executable>
rbdock ($Id: //depot/dev/client3/rdock/2013.1/src/exe/rbdock.cxx#4 $)

>  <Rbt.Library>
libRbt.so (2013.1, Build901 2013/11/27)

>  <Rbt.Parameter_File>
/export/apps/rDock/src/rDock_2013.1_src/data/scripts/dock_solv.prm

>  <Rbt.Receptor>
prm/pocket_docking_5.prm

>  <SCORE>
-15.4275

>  <SCORE.INTER>
-11.0546

>  <SCORE.INTER.CONST>
1

>  <SCORE.INTER.POLAR>
-1.42785

>  <SCORE.INTER.ROT>
15

>  <SCORE.INTER.SOLV>
14.592

>  <SCORE.INTER.VDW>
-21.0742

>  <SCORE.INTER.norm>
-0.298773

>  <SCORE.INTRA>
-4.3729

>  <SCORE.INTRA.DIHEDRAL>
-14.4977

>  <SCORE.INTRA.DIHEDRAL.0>
21.5987

>  <SCORE.INTRA.POLAR>
0

>  <SCORE.INTRA.POLAR.0>
0

>  <SCORE.INTRA.REPUL>
0

>  <SCORE.INTRA.REPUL.0>
0

>  <SCORE.INTRA.SOLV>
11.7172

>  <SCORE.INTRA.SOLV.lig_0>
-108.715

>  <SCORE.INTRA.VDW>
-2.98262

>  <SCORE.INTRA.VDW.0>
-3.9485

>  <SCORE.INTRA.norm>
-0.118187

>  <SCORE.RESTR>
0

>  <SCORE.RESTR.CAVITY>
0

>  <SCORE.RESTR.norm>
0

>  <SCORE.SYSTEM>
0

>  <SCORE.SYSTEM.CONST>
0

>  <SCORE.SYSTEM.DIHEDRAL>
0

>  <SCORE.SYSTEM.SOLV>
0

>  <SCORE.SYSTEM.norm>
0

>  <SCORE.heavy>
37

>  <SCORE.norm>
-0.41696

>  <RMSD>
5.481

$$$$
1o9m_lig
 OpenBabel11021811403D
libRbt.so/2013.1/901 2013/11/27
 37 38  0  0  0  0  0  0  0  0999 V2000
   -4.3409   13.1946    4.4387 C   0  0  2  0  0  0  0  0  0  0  0  0
   -4.7449   14.5352    4.0242 O   0  0  0  0  0  0  0  0  0  0  0  0
   -3.2382   12.7278    3.4186 C   0  0  2  0  0  0  0  0  0  0  0  0
   -2.0791   13.6372    3.3971 N   0  0  0  0  0  0  0  0  0  0  0  0
   -3.8809   12.6089    1.9846 C   0  0  1  0  0  0  0  0  0  0  0  0
   -2.8969   12.1834    1.0378 O   0  0  0  0  0  0  0  0  0  0  0  0
   -5.0857   11.6149    2.0729 C   0  0  2  0  0  0  0  0  0  0  0  0
   -5.7605   11.4436    0.8159 O   0  0  0  0  0  0  0  0  0  0  0  0
   -6.1115   12.0928    3.1301 C   0  0  2  0  0  0  0  0  0  0  0  0
   -5.4831   12.2742    4.4074 O   0  0  0  0  0  0  0  0  0  0  0  0
   -7.2554   11.1227    3.2750 C   0  0  0  0  0  0  0  0  0  0  0  0
   -6.7777    9.8546    3.5050 N   0  0  0  0  0  0  0  0  0  0  0  0
   -7.2727   16.0217    7.2212 C   0  0  1  0  0  0  0  0  0  0  0  0
   -7.9326   16.9755    8.1563 N   0  0  0  0  0  0  0  0  0  0  0  0
   -7.6359   16.4031    5.7925 C   0  0  2  0  0  0  0  0  0  0  0  0
   -9.0281   16.3865    5.6845 O   0  0  0  0  0  0  0  0  0  0  0  0
   -6.9797   15.4168    4.7756 C   0  0  1  0  0  0  0  0  0  0  0  0
   -7.3173   15.8055    3.4091 O   0  0  0  0  0  0  0  0  0  0  0  0
   -5.4058   15.4543    4.9404 C   0  0  1  0  0  0  0  0  0  0  0  0
   -5.0292   15.0565    6.3595 C   0  0  1  0  0  0  0  0  0  0  0  0
   -3.5797   15.0831    6.4848 N   0  0  0  0  0  0  0  0  0  0  0  0
   -5.6976   16.0252    7.3715 C   0  0  0  0  0  0  0  0  0  0  0  0
  -10.3920   16.8522    5.7815 C   0  0  0  0  0  0  0  0  0  0  0  0
  -10.5174   18.1770    5.0648 C   0  0  0  0  0  0  0  0  0  0  0  0
  -11.7775   18.8972    5.3408 N   0  0  0  0  0  0  0  0  0  0  0  0
  -13.2152   19.2058    5.5146 C   0  0  0  0  0  0  0  0  0  0  0  0
  -13.1038   19.9191    6.8681 C   0  0  0  0  0  0  0  0  0  0  0  0
  -14.4440   20.5281    7.3209 C   0  0  0  0  0  0  0  0  0  0  0  0
  -14.2790   21.3163    8.6166 C   0  0  0  0  0  0  0  0  0  0  0  0
  -15.5307   21.9738    8.9649 N   0  0  0  0  0  0  0  0  0  0  0  0
   -5.5633   20.5397   11.0810 N   0  0  0  0  0  0  0  0  0  0  0  0
   -7.5492   18.6581    7.7457 C   0  0  0  0  0  0  0  0  0  0  0  0
   -6.9648   19.1414    6.9783 O   0  0  0  0  0  0  0  0  0  0  0  0
   -8.3851   19.0300    8.9460 C   0  0  2  0  0  0  0  0  0  0  0  0
   -9.5163   19.7103    8.5724 O   0  0  0  0  0  0  0  0  0  0  0  0
   -7.5504   19.9910    9.7853 C   0  0  0  0  0  0  0  0  0  0  0  0
   -6.2406   19.4406   10.3779 C   0  0  0  0  0  0  0  0  0  0  0  0
  1  2  1  6  0  0  0
  1  3  1  0  0  0  0
  3  4  1  6  0  0  0
  3  5  1  0  0  0  0
  5  6  1  6  0  0  0
  5  7  1  0  0  0  0
  7  8  1  6  0  0  0
  9  7  1  0  0  0  0
  9 10  1  0  0  0  0
  9 11  1  1  0  0  0
 10  1  1  0  0  0  0
 11 12  1  0  0  0  0
 13 14  1  1  0  0  0
 13 15  1  0  0  0  0
 13 22  1  0  0  0  0
 14 32  1  0  0  0  0
 15 16  1  1  0  0  0
 15 17  1  0  0  0  0
 16 23  1  0  0  0  0
 17 18  1  6  0  0  0
 17 19  1  0  0  0  0
 19  2  1  6  0  0  0
 19 20  1  0  0  0  0
 20 21  1  6  0  0  0
 20 22  1  0  0  0  0
 23 24  1  0  0  0  0
 24 25  1  0  0  0  0
 25 26  1  0  0  0  0
 26 27  1  0  0  0  0
 27 28  1  0  0  0  0
 28 29  1  0  0  0  0
 29 30  1  0  0  0  0
 31 37  1  0  0  0  0
 32 33  2  0  0  0  0
 34 32  1  6  0  0  0
 34 35  1  0  0  0  0
 34 36  1  0  0  0  0
 36 37  1  0  0  0  0
M  END
>  <CHROM.1>
-159.64924756,52.65526280,-53.69190083,82.70734007,54.61986126,-96.37951452
-167.26377243,-49.45670221,132.54088064,174.21469083,-175.83820281,175.27752263
-114.16108267,-63.24056512,176.96275094,-7.53399534,16.19282732,5.71742784
-0.89288732,-0.27567413,0.80015600

>  <Name>
1o9m_lig

>  <RI>
0

>  <Rbt.Current_Directory>
/home/itssahil/PROJECTS/Mol_Feturizer/New_Systems/rnas/1o9m

>  <Rbt.Executable>
rbdock ($Id: //depot/dev/client3/rdock/2013.1/src/exe/rbdock.cxx#4 $)

>  <Rbt.Library>
libRbt.so (2013.1, Build901 2013/11/27)

>  <Rbt.Parameter_File>
/export/apps/rDock/src/rDock_2013.1_src/data/scripts/dock_solv.prm

>  <Rbt.Receptor>
prm/pocket_docking_2.prm

>  <SCORE>
-8.21375

>  <SCORE.INTER>
-6.65427

>  <SCORE.INTER.CONST>
1

>  <SCORE.INTER.POLAR>
-0.959166

>  <SCORE.INTER.ROT>
15

>  <SCORE.INTER.SOLV>
23.3513

>  <SCORE.INTER.VDW>
-22.6227

>  <SCORE.INTER.norm>
-0.179845

>  <SCORE.INTRA>
-2.47736

>  <SCORE.INTRA.DIHEDRAL>
-7.88378

>  <SCORE.INTRA.DIHEDRAL.0>
21.5987

>  <SCORE.INTRA.POLAR>
0

>  <SCORE.INTRA.POLAR.0>
0

>  <SCORE.INTRA.REPUL>
0.0158335

>  <SCORE.INTRA.REPUL.0>
0

>  <SCORE.INTRA.SOLV>
2.52253

>  <SCORE.INTRA.SOLV.lig_0>
-108.715

>  <SCORE.INTRA.VDW>
0.124093

>  <SCORE.INTRA.VDW.0>
-3.9485

>  <SCORE.INTRA.norm>
-0.0669558

>  <SCORE.RESTR>
0.91789

>  <SCORE.RESTR.CAVITY>
0.91789

>  <SCORE.RESTR.norm>
0.0248078

>  <SCORE.SYSTEM>
0

>  <SCORE.SYSTEM.CONST>
0

>  <SCORE.SYSTEM.DIHEDRAL>
0

>  <SCORE.SYSTEM.SOLV>
0

>  <SCORE.SYSTEM.norm>
0

>  <SCORE.heavy>
37

>  <SCORE.norm>
-0.221993

>  <RMSD>
5.671

$$$$
1o9m_lig
 OpenBabel11021811403D
libRbt.so/2013.1/901 2013/11/27
 37 38  0  0  0  0  0  0  0  0999 V2000
   -4.6201   13.8494    5.4809 C   0  0  2  0  0  0  0  0  0  0  0  0
   -5.5524   14.9447    5.2294 O   0  0  0  0  0  0  0  0  0  0  0  0
   -3.1797   14.4219    5.2127 C   0  0  2  0  0  0  0  0  0  0  0  0
   -2.8704   15.5766    6.0741 N   0  0  0  0  0  0  0  0  0  0  0  0
   -3.0560   14.8121    3.6908 C   0  0  1  0  0  0  0  0  0  0  0  0
   -1.7522   15.3344    3.4209 O   0  0  0  0  0  0  0  0  0  0  0  0
   -3.3726   13.5407    2.8359 C   0  0  2  0  0  0  0  0  0  0  0  0
   -3.3051   13.7885    1.4221 O   0  0  0  0  0  0  0  0  0  0  0  0
   -4.7774   12.9872    3.1801 C   0  0  2  0  0  0  0  0  0  0  0  0
   -4.8916   12.7194    4.5853 O   0  0  0  0  0  0  0  0  0  0  0  0
   -5.0845   11.7288    2.4102 C   0  0  0  0  0  0  0  0  0  0  0  0
   -3.9796   10.9121    2.3729 N   0  0  0  0  0  0  0  0  0  0  0  0
   -7.3340   17.7351    8.0330 C   0  0  1  0  0  0  0  0  0  0  0  0
   -7.4614   18.8714    8.9882 N   0  0  0  0  0  0  0  0  0  0  0  0
   -6.8808   18.2756    6.6836 C   0  0  2  0  0  0  0  0  0  0  0  0
   -7.8143   19.2270    6.2667 O   0  0  0  0  0  0  0  0  0  0  0  0
   -6.7512   17.1192    5.6426 C   0  0  1  0  0  0  0  0  0  0  0  0
   -6.2953   17.6467    4.3595 O   0  0  0  0  0  0  0  0  0  0  0  0
   -5.6972   16.0568    6.1586 C   0  0  1  0  0  0  0  0  0  0  0  0
   -6.1489   15.4953    7.4982 C   0  0  1  0  0  0  0  0  0  0  0  0
   -5.1750   14.5113    7.9464 N   0  0  0  0  0  0  0  0  0  0  0  0
   -6.2968   16.6474    8.5278 C   0  0  0  0  0  0  0  0  0  0  0  0
   -8.4532   20.2041    5.4161 C   0  0  0  0  0  0  0  0  0  0  0  0
   -8.8075   19.5585    4.0961 C   0  0  0  0  0  0  0  0  0  0  0  0
   -9.5982   18.3170    4.2230 N   0  0  0  0  0  0  0  0  0  0  0  0
   -9.9710   16.8977    4.4211 C   0  0  0  0  0  0  0  0  0  0  0  0
  -11.4931   17.0860    4.3953 C   0  0  0  0  0  0  0  0  0  0  0  0
  -11.9987   17.9301    5.5802 C   0  0  0  0  0  0  0  0  0  0  0  0
  -13.4874   18.2336    5.4425 C   0  0  0  0  0  0  0  0  0  0  0  0
  -13.9003   19.1857    6.4639 N   0  0  0  0  0  0  0  0  0  0  0  0
   -4.0927   21.9851    9.2994 N   0  0  0  0  0  0  0  0  0  0  0  0
   -5.8999   19.6666    9.2638 C   0  0  0  0  0  0  0  0  0  0  0  0
   -4.8962   19.5242    8.8946 O   0  0  0  0  0  0  0  0  0  0  0  0
   -6.6456   20.5628   10.2221 C   0  0  2  0  0  0  0  0  0  0  0  0
   -7.3354   21.5418    9.5528 O   0  0  0  0  0  0  0  0  0  0  0  0
   -5.5967   21.2680   11.0748 C   0  0  0  0  0  0  0  0  0  0  0  0
   -4.8797   22.4737   10.4409 C   0  0  0  0  0  0  0  0  0  0  0  0
  1  2  1  6  0  0  0
  1  3  1  0  0  0  0
  3  4  1  1  0  0  0
  3  5  1  0  0  0  0
  5  6  1  1  0  0  0
  5  7  1  0  0  0  0
  7  8  1  6  0  0  0
  9  7  1  0  0  0  0
  9 10  1  0  0  0  0
  9 11  1  6  0  0  0
 10  1  1  0  0  0  0
 11 12  1  0  0  0  0
 13 14  1  1  0  0  0
 13 15  1  0  0  0  0
 13 22  1  0  0  0  0
 14 32  1  0  0  0  0
 15 16  1  6  0  0  0
 15 17  1  0  0  0  0
 16 23  1  0  0  0  0
 17 18  1  6  0  0  0
 17 19  1  0  0  0  0
 19  2  1  6  0  0  0
 19 20  1  0  0  0  0
 20 21  1  1  0  0  0
 20 22  1  0  0  0  0
 23 24  1  0  0  0  0
 24 25  1  0  0  0  0
 25 26  1  0  0  0  0
 26 27  1  0  0  0  0
 27 28  1  0  0  0  0
 28 29  1  0  0  0  0
 29 30  1  0  0  0  0
 31 37  1  0  0  0  0
 32 33  2  0  0  0  0
 34 32  1  6  0  0  0
 34 35  1  0  0  0  0
 34 36  1  0  0  0  0
 36 37  1  0  0  0  0
M  END
>  <CHROM.1>
-73.86046660,41.68960126,-62.86155941,-176.91619949,58.12981690,179.03601053
53.12945125,-82.19431214,174.16261969,-64.89442661,173.52548227,-171.89610105
-79.27051237,79.35781813,-64.93865938,-6.45815752,17.05235362,6.04921447
-1.08256511,-0.26198697,0.74534352

>  <Name>
1o9m_lig

>  <RI>
0

>  <Rbt.Current_Directory>
/home/itssahil/PROJECTS/Mol_Feturizer/New_Systems/rnas/1o9m

>  <Rbt.Executable>
rbdock ($Id: //depot/dev/client3/rdock/2013.1/src/exe/rbdock.cxx#4 $)

>  <Rbt.Library>
libRbt.so (2013.1, Build901 2013/11/27)

>  <Rbt.Parameter_File>
/export/apps/rDock/src/rDock_2013.1_src/data/scripts/dock_solv.prm

>  <Rbt.Receptor>
prm/pocket_docking_3.prm

>  <SCORE>
-9.24709

>  <SCORE.INTER>
-8.12576

>  <SCORE.INTER.CONST>
1

>  <SCORE.INTER.POLAR>
-0.996972

>  <SCORE.INTER.ROT>
15

>  <SCORE.INTER.SOLV>
16.7427

>  <SCORE.INTER.VDW>
-21.2748

>  <SCORE.INTER.norm>
-0.219615

>  <SCORE.INTRA>
-1.12459

>  <SCORE.INTRA.DIHEDRAL>
-16.0825

>  <SCORE.INTRA.DIHEDRAL.0>
21.5987

>  <SCORE.INTRA.POLAR>
0

>  <SCORE.INTRA.POLAR.0>
0

>  <SCORE.INTRA.REPUL>
0

>  <SCORE.INTRA.REPUL.0>
0

>  <SCORE.INTRA.SOLV>
10.6728

>  <SCORE.INTRA.SOLV.lig_0>
-108.715

>  <SCORE.INTRA.VDW>
1.58028

>  <SCORE.INTRA.VDW.0>
-3.9485

>  <SCORE.INTRA.norm>
-0.0303943

>  <SCORE.RESTR>
0.00325757

>  <SCORE.RESTR.CAVITY>
0.00325757

>  <SCORE.RESTR.norm>
8.80423e-05

>  <SCORE.SYSTEM>
0

>  <SCORE.SYSTEM.CONST>
0

>  <SCORE.SYSTEM.DIHEDRAL>
0

>  <SCORE.SYSTEM.SOLV>
0

>  <SCORE.SYSTEM.norm>
0

>  <SCORE.heavy>
37

>  <SCORE.norm>
-0.249921

>  <RMSD>
5.828

$$$$
1o9m_lig
 OpenBabel11021811403D
libRbt.so/2013.1/901 2013/11/27
 37 38  0  0  0  0  0  0  0  0999 V2000
   -1.6083   13.8948    8.1949 C   0  0  2  0  0  0  0  0  0  0  0  0
   -2.4399   14.9757    8.7168 O   0  0  0  0  0  0  0  0  0  0  0  0
   -0.4444   13.6890    9.2330 C   0  0  2  0  0  0  0  0  0  0  0  0
   -0.9493   13.3551   10.5763 N   0  0  0  0  0  0  0  0  0  0  0  0
    0.4415   14.9917    9.2777 C   0  0  1  0  0  0  0  0  0  0  0  0
    1.5097   14.8286   10.2147 O   0  0  0  0  0  0  0  0  0  0  0  0
    0.9625   15.2750    7.8300 C   0  0  2  0  0  0  0  0  0  0  0  0
    1.7734   16.4587    7.7510 O   0  0  0  0  0  0  0  0  0  0  0  0
   -0.2211   15.4127    6.8409 C   0  0  2  0  0  0  0  0  0  0  0  0
   -1.0595   14.2487    6.8811 O   0  0  0  0  0  0  0  0  0  0  0  0
    0.2557   15.6304    5.4282 C   0  0  0  0  0  0  0  0  0  0  0  0
   -0.8159   15.7079    4.5708 N   0  0  0  0  0  0  0  0  0  0  0  0
   -5.4689   15.4363    5.6454 C   0  0  1  0  0  0  0  0  0  0  0  0
   -6.7163   15.8837    4.9646 N   0  0  0  0  0  0  0  0  0  0  0  0
   -4.6485   16.6619    6.0237 C   0  0  2  0  0  0  0  0  0  0  0  0
   -4.3947   17.3856    4.8566 O   0  0  0  0  0  0  0  0  0  0  0  0
   -3.3193   16.2396    6.7255 C   0  0  1  0  0  0  0  0  0  0  0  0
   -2.5519   17.4234    7.1026 O   0  0  0  0  0  0  0  0  0  0  0  0
   -3.6499   15.4106    8.0329 C   0  0  1  0  0  0  0  0  0  0  0  0
   -4.4538   14.1727    7.6654 C   0  0  1  0  0  0  0  0  0  0  0  0
   -4.7336   13.4184    8.8780 N   0  0  0  0  0  0  0  0  0  0  0  0
   -5.7661   14.5917    6.9501 C   0  0  0  0  0  0  0  0  0  0  0  0
   -3.9857   18.4882    4.0178 C   0  0  0  0  0  0  0  0  0  0  0  0
   -4.9621   19.6296    4.1858 C   0  0  0  0  0  0  0  0  0  0  0  0
   -5.1451   20.0682    5.5848 N   0  0  0  0  0  0  0  0  0  0  0  0
   -5.6816   20.7319    6.7948 C   0  0  0  0  0  0  0  0  0  0  0  0
   -5.5735   22.1776    6.2936 C   0  0  0  0  0  0  0  0  0  0  0  0
   -6.5171   23.1314    7.0498 C   0  0  0  0  0  0  0  0  0  0  0  0
   -7.9708   22.8956    6.6516 C   0  0  0  0  0  0  0  0  0  0  0  0
   -8.8508   23.7383    7.4489 N   0  0  0  0  0  0  0  0  0  0  0  0
  -11.6038   17.2756    3.9391 N   0  0  0  0  0  0  0  0  0  0  0  0
   -7.7630   16.8016    6.0639 C   0  0  0  0  0  0  0  0  0  0  0  0
   -7.6984   17.1144    7.0945 O   0  0  0  0  0  0  0  0  0  0  0  0
   -8.7230   16.8929    4.9030 C   0  0  2  0  0  0  0  0  0  0  0  0
   -9.1369   18.1851    4.7006 O   0  0  0  0  0  0  0  0  0  0  0  0
   -9.9603   16.0896    5.2885 C   0  0  0  0  0  0  0  0  0  0  0  0
  -11.0553   15.9403    4.2167 C   0  0  0  0  0  0  0  0  0  0  0  0
  1  2  1  1  0  0  0
  1  3  1  0  0  0  0
  3  4  1  1  0  0  0
  3  5  1  0  0  0  0
  5  6  1  1  0  0  0
  5  7  1  0  0  0  0
  7  8  1  1  0  0  0
  9  7  1  0  0  0  0
  9 10  1  0  0  0  0
  9 11  1  6  0  0  0
 10  1  1  0  0  0  0
 11 12  1  0  0  0  0
 13 14  1  1  0  0  0
 13 15  1  0  0  0  0
 13 22  1  0  0  0  0
 14 32  1  0  0  0  0
 15 16  1  6  0  0  0
 15 17  1  0  0  0  0
 16 23  1  0  0  0  0
 17 18  1  1  0  0  0
 17 19  1  0  0  0  0
 19  2  1  6  0  0  0
 19 20  1  0  0  0  0
 20 21  1  1  0  0  0
 20 22  1  0  0  0  0
 23 24  1  0  0  0  0
 24 25  1  0  0  0  0
 25 26  1  0  0  0  0
 26 27  1  0  0  0  0
 27 28  1  0  0  0  0
 28 29  1  0  0  0  0
 29 30  1  0  0  0  0
 31 37  1  0  0  0  0
 32 33  2  0  0  0  0
 34 32  1  1  0  0  0
 34 35  1  0  0  0  0
 34 36  1  0  0  0  0
 36 37  1  0  0  0  0
M  END
>  <CHROM.1>
-177.80136811,178.18049965,-65.09983615,167.56602742,-68.40846583,-73.70659618
55.09476662,-167.77683142,-57.83605930,158.18545103,-72.16381457,175.84748386
-130.13992873,-175.54757455,-64.65084863,-4.38107480,16.88928951,6.66851928
0.49752755,0.29324939,3.09003187

>  <Name>
1o9m_lig

>  <RI>
0

>  <Rbt.Current_Directory>
/home/itssahil/PROJECTS/Mol_Feturizer/New_Systems/rnas/1o9m

>  <Rbt.Executable>
rbdock ($Id: //depot/dev/client3/rdock/2013.1/src/exe/rbdock.cxx#4 $)

>  <Rbt.Library>
libRbt.so (2013.1, Build901 2013/11/27)

>  <Rbt.Parameter_File>
/export/apps/rDock/src/rDock_2013.1_src/data/scripts/dock_solv.prm

>  <Rbt.Receptor>
prm/pocket_docking_7.prm

>  <SCORE>
-10.1765

>  <SCORE.INTER>
-4.20616

>  <SCORE.INTER.CONST>
1

>  <SCORE.INTER.POLAR>
-1.36589

>  <SCORE.INTER.ROT>
15

>  <SCORE.INTER.SOLV>
19.368

>  <SCORE.INTER.VDW>
-18.3072

>  <SCORE.INTER.norm>
-0.11368

>  <SCORE.INTRA>
-5.97037

>  <SCORE.INTRA.DIHEDRAL>
-14.5049

>  <SCORE.INTRA.DIHEDRAL.0>
21.5987

>  <SCORE.INTRA.POLAR>
0

>  <SCORE.INTRA.POLAR.0>
0

>  <SCORE.INTRA.REPUL>
0

>  <SCORE.INTRA.REPUL.0>
0

>  <SCORE.INTRA.SOLV>
5.15079

>  <SCORE.INTRA.SOLV.lig_0>
-108.715

>  <SCORE.INTRA.VDW>
-1.29329

>  <SCORE.INTRA.VDW.0>
-3.9485

>  <SCORE.INTRA.norm>
-0.161361

>  <SCORE.RESTR>
0

>  <SCORE.RESTR.CAVITY>
0

>  <SCORE.RESTR.norm>
0

>  <SCORE.SYSTEM>
0

>  <SCORE.SYSTEM.CONST>
0

>  <SCORE.SYSTEM.DIHEDRAL>
0

>  <SCORE.SYSTEM.SOLV>
0

>  <SCORE.SYSTEM.norm>
0

>  <SCORE.heavy>
37

>  <SCORE.norm>
-0.275041

>  <RMSD>
5.930

$$$$
1o9m_lig
 OpenBabel11021811403D
libRbt.so/2013.1/901 2013/11/27
 37 38  0  0  0  0  0  0  0  0999 V2000
   -3.9645   17.2886    5.0819 C   0  0  2  0  0  0  0  0  0  0  0  0
   -4.7347   17.3406    3.8424 O   0  0  0  0  0  0  0  0  0  0  0  0
   -2.6469   16.4946    4.7530 C   0  0  2  0  0  0  0  0  0  0  0  0
   -1.8646   17.1341    3.6807 N   0  0  0  0  0  0  0  0  0  0  0  0
   -3.0218   15.0142    4.3633 C   0  0  1  0  0  0  0  0  0  0  0  0
   -1.8385   14.2701    4.0610 O   0  0  0  0  0  0  0  0  0  0  0  0
   -3.8274   14.3886    5.5496 C   0  0  2  0  0  0  0  0  0  0  0  0
   -4.2377   13.0356    5.2927 O   0  0  0  0  0  0  0  0  0  0  0  0
   -5.0816   15.2398    5.8669 C   0  0  2  0  0  0  0  0  0  0  0  0
   -4.7205   16.6025    6.1356 O   0  0  0  0  0  0  0  0  0  0  0  0
   -5.8455   14.6894    7.0434 C   0  0  0  0  0  0  0  0  0  0  0  0
   -5.1559   14.9217    8.2095 N   0  0  0  0  0  0  0  0  0  0  0  0
   -8.2285   19.6414    4.9914 C   0  0  1  0  0  0  0  0  0  0  0  0
   -9.5105   20.3919    4.8780 N   0  0  0  0  0  0  0  0  0  0  0  0
   -8.4464   18.2181    4.4962 C   0  0  2  0  0  0  0  0  0  0  0  0
   -9.4710   17.6510    5.2569 O   0  0  0  0  0  0  0  0  0  0  0  0
   -7.1302   17.3866    4.6141 C   0  0  1  0  0  0  0  0  0  0  0  0
   -7.3460   16.0308    4.1162 O   0  0  0  0  0  0  0  0  0  0  0  0
   -5.9922   18.0695    3.7513 C   0  0  1  0  0  0  0  0  0  0  0  0
   -5.7521   19.4867    4.2492 C   0  0  1  0  0  0  0  0  0  0  0  0
   -4.6936   20.0901    3.4535 N   0  0  0  0  0  0  0  0  0  0  0  0
   -7.0656   20.3079    4.1504 C   0  0  0  0  0  0  0  0  0  0  0  0
  -10.7882   17.4737    5.8227 C   0  0  0  0  0  0  0  0  0  0  0  0
  -11.0707   18.6017    6.7882 C   0  0  0  0  0  0  0  0  0  0  0  0
  -12.4505   18.6145    7.3165 N   0  0  0  0  0  0  0  0  0  0  0  0
  -13.9224   18.7452    7.4101 C   0  0  0  0  0  0  0  0  0  0  0  0
  -14.2856   17.4974    6.5952 C   0  0  0  0  0  0  0  0  0  0  0  0
  -15.8041   17.2423    6.5607 C   0  0  0  0  0  0  0  0  0  0  0  0
  -16.4729   18.0575    5.4582 C   0  0  0  0  0  0  0  0  0  0  0  0
  -16.4673   19.4710    5.8079 N   0  0  0  0  0  0  0  0  0  0  0  0
  -13.4464   24.3853    7.0959 N   0  0  0  0  0  0  0  0  0  0  0  0
   -9.4733   21.8889    5.8288 C   0  0  0  0  0  0  0  0  0  0  0  0
   -8.7411   22.3780    6.4523 O   0  0  0  0  0  0  0  0  0  0  0  0
  -10.8938   22.0951    5.3626 C   0  0  2  0  0  0  0  0  0  0  0  0
  -10.9301   22.6955    4.1296 O   0  0  0  0  0  0  0  0  0  0  0  0
  -11.5446   23.0642    6.3434 C   0  0  0  0  0  0  0  0  0  0  0  0
  -13.0621   23.2823    6.2032 C   0  0  0  0  0  0  0  0  0  0  0  0
  1  2  1  6  0  0  0
  1  3  1  0  0  0  0
  3  4  1  6  0  0  0
  3  5  1  0  0  0  0
  5  6  1  1  0  0  0
  5  7  1  0  0  0  0
  7  8  1  6  0  0  0
  9  7  1  0  0  0  0
  9 10  1  0  0  0  0
  9 11  1  1  0  0  0
 10  1  1  0  0  0  0
 11 12  1  0  0  0  0
 13 14  1  6  0  0  0
 13 15  1  0  0  0  0
 13 22  1  0  0  0  0
 14 32  1  0  0  0  0
 15 16  1  1  0  0  0
 15 17  1  0  0  0  0
 16 23  1  0  0  0  0
 17 18  1  6  0  0  0
 17 19  1  0  0  0  0
 19  2  1  1  0  0  0
 19 20  1  0  0  0  0
 20 21  1  6  0  0  0
 20 22  1  0  0  0  0
 23 24  1  0  0  0  0
 24 25  1  0  0  0  0
 25 26  1  0  0  0  0
 26 27  1  0  0  0  0
 27 28  1  0  0  0  0
 28 29  1  0  0  0  0
 29 30  1  0  0  0  0
 31 37  1  0  0  0  0
 32 33  2  0  0  0  0
 34 32  1  1  0  0  0
 34 35  1  0  0  0  0
 34 36  1  0  0  0  0
 36 37  1  0  0  0  0
M  END
>  <CHROM.1>
-176.52367811,72.12021888,164.33002824,60.64768379,-68.59414382,-68.14815263
173.39712288,-69.62854981,70.92032430,175.81469126,84.43018019,-70.42455735
-84.59386548,-171.47587893,-171.71354474,-8.36779430,18.33320004,5.42825820
-0.42792547,0.20432873,-0.15155393

>  <Name>
1o9m_lig

>  <RI>
0

>  <Rbt.Current_Directory>
/home/itssahil/PROJECTS/Mol_Feturizer/New_Systems/rnas/1o9m

>  <Rbt.Executable>
rbdock ($Id: //depot/dev/client3/rdock/2013.1/src/exe/rbdock.cxx#4 $)

>  <Rbt.Library>
libRbt.so (2013.1, Build901 2013/11/27)

>  <Rbt.Parameter_File>
/export/apps/rDock/src/rDock_2013.1_src/data/scripts/dock_solv.prm

>  <Rbt.Receptor>
prm/pocket_docking_7.prm

>  <SCORE>
-11.9622

>  <SCORE.INTER>
-5.05044

>  <SCORE.INTER.CONST>
1

>  <SCORE.INTER.POLAR>
-2.02664

>  <SCORE.INTER.ROT>
15

>  <SCORE.INTER.SOLV>
11.8913

>  <SCORE.INTER.VDW>
-14.1753

>  <SCORE.INTER.norm>
-0.136498

>  <SCORE.INTRA>
-6.91177

>  <SCORE.INTRA.DIHEDRAL>
-15.4122

>  <SCORE.INTRA.DIHEDRAL.0>
21.5987

>  <SCORE.INTRA.POLAR>
0

>  <SCORE.INTRA.POLAR.0>
0

>  <SCORE.INTRA.REPUL>
0

>  <SCORE.INTRA.REPUL.0>
0

>  <SCORE.INTRA.SOLV>
2.58972

>  <SCORE.INTRA.SOLV.lig_0>
-108.715

>  <SCORE.INTRA.VDW>
-0.500515

>  <SCORE.INTRA.VDW.0>
-3.9485

>  <SCORE.INTRA.norm>
-0.186805

>  <SCORE.RESTR>
0

>  <SCORE.RESTR.CAVITY>
0

>  <SCORE.RESTR.norm>
0

>  <SCORE.SYSTEM>
0

>  <SCORE.SYSTEM.CONST>
0

>  <SCORE.SYSTEM.DIHEDRAL>
0

>  <SCORE.SYSTEM.SOLV>
0

>  <SCORE.SYSTEM.norm>
0

>  <SCORE.heavy>
37

>  <SCORE.norm>
-0.323303

>  <RMSD>
6.022

$$$$
1o9m_lig
 OpenBabel11021811403D
libRbt.so/2013.1/901 2013/11/27
 37 38  0  0  0  0  0  0  0  0999 V2000
   -5.6066   15.6044    7.9251 C   0  0  2  0  0  0  0  0  0  0  0  0
   -5.5184   17.0323    7.6322 O   0  0  0  0  0  0  0  0  0  0  0  0
   -4.1562   15.1419    8.3211 C   0  0  2  0  0  0  0  0  0  0  0  0
   -3.6346   15.8805    9.4845 N   0  0  0  0  0  0  0  0  0  0  0  0
   -3.2034   15.3145    7.0776 C   0  0  1  0  0  0  0  0  0  0  0  0
   -1.8767   14.8982    7.4124 O   0  0  0  0  0  0  0  0  0  0  0  0
   -3.8003   14.4897    5.8899 C   0  0  2  0  0  0  0  0  0  0  0  0
   -3.0147   14.5902    4.6909 O   0  0  0  0  0  0  0  0  0  0  0  0
   -5.2469   14.9475    5.5797 C   0  0  2  0  0  0  0  0  0  0  0  0
   -6.0731   14.8602    6.7498 O   0  0  0  0  0  0  0  0  0  0  0  0
   -5.8654   14.1299    4.4754 C   0  0  0  0  0  0  0  0  0  0  0  0
   -5.8548   12.7962    4.8075 N   0  0  0  0  0  0  0  0  0  0  0  0
   -9.6807   18.2528    7.5560 C   0  0  1  0  0  0  0  0  0  0  0  0
  -10.8860   19.1087    7.3702 N   0  0  0  0  0  0  0  0  0  0  0  0
   -8.9496   18.1377    6.2253 C   0  0  2  0  0  0  0  0  0  0  0  0
   -9.8428   17.6133    5.2887 O   0  0  0  0  0  0  0  0  0  0  0  0
   -7.6859   17.2319    6.3680 C   0  0  1  0  0  0  0  0  0  0  0  0
   -6.9817   17.1469    5.0915 O   0  0  0  0  0  0  0  0  0  0  0  0
   -6.7080   17.8518    7.4475 C   0  0  1  0  0  0  0  0  0  0  0  0
   -7.4217   17.9544    8.7869 C   0  0  1  0  0  0  0  0  0  0  0  0
   -6.5016   18.5119    9.7668 N   0  0  0  0  0  0  0  0  0  0  0  0
   -8.6888   18.8389    8.6406 C   0  0  0  0  0  0  0  0  0  0  0  0
  -10.3313   17.1259    4.0197 C   0  0  0  0  0  0  0  0  0  0  0  0
  -11.7633   16.6695    4.1801 C   0  0  0  0  0  0  0  0  0  0  0  0
  -12.7423   17.7719    4.2760 N   0  0  0  0  0  0  0  0  0  0  0  0
  -13.4651   18.9783    4.7393 C   0  0  0  0  0  0  0  0  0  0  0  0
  -14.6563   18.2606    5.3865 C   0  0  0  0  0  0  0  0  0  0  0  0
  -15.7439   19.2426    5.8610 C   0  0  0  0  0  0  0  0  0  0  0  0
  -16.9461   18.4966    6.4315 C   0  0  0  0  0  0  0  0  0  0  0  0
  -17.9958   19.4398    6.7903 N   0  0  0  0  0  0  0  0  0  0  0  0
  -14.5282   21.6087    8.8302 N   0  0  0  0  0  0  0  0  0  0  0  0
  -10.4984   20.8284    7.5677 C   0  0  0  0  0  0  0  0  0  0  0  0
   -9.6003   21.3882    7.7777 O   0  0  0  0  0  0  0  0  0  0  0  0
  -11.9671   21.0781    7.3266 C   0  0  2  0  0  0  0  0  0  0  0  0
  -12.2182   21.3255    6.0008 O   0  0  0  0  0  0  0  0  0  0  0  0
  -12.3303   22.3481    8.0880 C   0  0  0  0  0  0  0  0  0  0  0  0
  -13.8241   22.7126    8.1618 C   0  0  0  0  0  0  0  0  0  0  0  0
  1  2  1  6  0  0  0
  1  3  1  0  0  0  0
  3  4  1  1  0  0  0
  3  5  1  0  0  0  0
  5  6  1  1  0  0  0
  5  7  1  0  0  0  0
  7  8  1  6  0  0  0
  9  7  1  0  0  0  0
  9 10  1  0  0  0  0
  9 11  1  6  0  0  0
 10  1  1  0  0  0  0
 11 12  1  0  0  0  0
 13 14  1  6  0  0  0
 13 15  1  0  0  0  0
 13 22  1  0  0  0  0
 14 32  1  0  0  0  0
 15 16  1  6  0  0  0
 15 17  1  0  0  0  0
 16 23  1  0  0  0  0
 17 18  1  6  0  0  0
 17 19  1  0  0  0  0
 19  2  1  1  0  0  0
 19 20  1  0  0  0  0
 20 21  1  1  0  0  0
 20 22  1  0  0  0  0
 23 24  1  0  0  0  0
 24 25  1  0  0  0  0
 25 26  1  0  0  0  0
 26 27  1  0  0  0  0
 27 28  1  0  0  0  0
 28 29  1  0  0  0  0
 29 30  1  0  0  0  0
 31 37  1  0  0  0  0
 32 33  2  0  0  0  0
 34 32  1  6  0  0  0
 34 35  1  0  0  0  0
 34 36  1  0  0  0  0
 36 37  1  0  0  0  0
M  END
>  <CHROM.1>
-169.47775194,57.33374458,-86.57663671,-179.57879299,177.91203111,-52.69711766
75.24896734,-60.05080710,-103.13643210,-173.46049832,176.97340401,-176.21957083
-93.24688632,-171.76872160,60.01065671,-9.05305840,17.76712857,6.67936790
-0.33246629,-0.32521462,0.73134462

>  <Name>
1o9m_lig

>  <RI>
0

>  <Rbt.Current_Directory>
/home/itssahil/PROJECTS/Mol_Feturizer/New_Systems/rnas/1o9m

>  <Rbt.Executable>
rbdock ($Id: //depot/dev/client3/rdock/2013.1/src/exe/rbdock.cxx#4 $)

>  <Rbt.Library>
libRbt.so (2013.1, Build901 2013/11/27)

>  <Rbt.Parameter_File>
/export/apps/rDock/src/rDock_2013.1_src/data/scripts/dock_solv.prm

>  <Rbt.Receptor>
prm/pocket_docking_6.prm

>  <SCORE>
-10.5041

>  <SCORE.INTER>
-3.90513

>  <SCORE.INTER.CONST>
1

>  <SCORE.INTER.POLAR>
-1.2084

>  <SCORE.INTER.ROT>
15

>  <SCORE.INTER.SOLV>
15.2459

>  <SCORE.INTER.VDW>
-17.2574

>  <SCORE.INTER.norm>
-0.105544

>  <SCORE.INTRA>
-6.599

>  <SCORE.INTRA.DIHEDRAL>
-16.3664

>  <SCORE.INTRA.DIHEDRAL.0>
21.5987

>  <SCORE.INTRA.POLAR>
0

>  <SCORE.INTRA.POLAR.0>
0

>  <SCORE.INTRA.REPUL>
0

>  <SCORE.INTRA.REPUL.0>
0

>  <SCORE.INTRA.SOLV>
4.17026

>  <SCORE.INTRA.SOLV.lig_0>
-108.715

>  <SCORE.INTRA.VDW>
-0.500932

>  <SCORE.INTRA.VDW.0>
-3.9485

>  <SCORE.INTRA.norm>
-0.178351

>  <SCORE.RESTR>
0

>  <SCORE.RESTR.CAVITY>
0

>  <SCORE.RESTR.norm>
0

>  <SCORE.SYSTEM>
0

>  <SCORE.SYSTEM.CONST>
0

>  <SCORE.SYSTEM.DIHEDRAL>
0

>  <SCORE.SYSTEM.SOLV>
0

>  <SCORE.SYSTEM.norm>
0

>  <SCORE.heavy>
37

>  <SCORE.norm>
-0.283895

>  <RMSD>
6.242

$$$$
1o9m_lig
 OpenBabel11021811403D
libRbt.so/2013.1/901 2013/11/27
 37 38  0  0  0  0  0  0  0  0999 V2000
   -5.7942   17.3991    5.0602 C   0  0  2  0  0  0  0  0  0  0  0  0
   -6.0315   18.3605    6.1333 O   0  0  0  0  0  0  0  0  0  0  0  0
   -5.4876   18.2424    3.7682 C   0  0  2  0  0  0  0  0  0  0  0  0
   -4.3209   19.1250    3.9435 N   0  0  0  0  0  0  0  0  0  0  0  0
   -6.7670   19.0784    3.3836 C   0  0  1  0  0  0  0  0  0  0  0  0
   -6.5137   19.8537    2.2088 O   0  0  0  0  0  0  0  0  0  0  0  0
   -7.9581   18.0826    3.1900 C   0  0  2  0  0  0  0  0  0  0  0  0
   -9.1881   18.7438    2.8512 O   0  0  0  0  0  0  0  0  0  0  0  0
   -8.1793   17.2403    4.4706 C   0  0  2  0  0  0  0  0  0  0  0  0
   -6.9756   16.5556    4.8469 O   0  0  0  0  0  0  0  0  0  0  0  0
   -9.2857   16.2333    4.2910 C   0  0  0  0  0  0  0  0  0  0  0  0
  -10.5021   16.8698    4.2227 N   0  0  0  0  0  0  0  0  0  0  0  0
   -5.9304   17.8066   10.4349 C   0  0  1  0  0  0  0  0  0  0  0  0
   -6.3358   17.3710   11.8007 N   0  0  0  0  0  0  0  0  0  0  0  0
   -5.7618   16.5749    9.5558 C   0  0  2  0  0  0  0  0  0  0  0  0
   -4.8154   15.7435   10.1585 O   0  0  0  0  0  0  0  0  0  0  0  0
   -5.3179   16.9830    8.1156 C   0  0  1  0  0  0  0  0  0  0  0  0
   -5.1808   15.7956    7.2766 O   0  0  0  0  0  0  0  0  0  0  0  0
   -6.4079   17.9351    7.4743 C   0  0  1  0  0  0  0  0  0  0  0  0
   -6.5718   19.1790    8.3343 C   0  0  1  0  0  0  0  0  0  0  0  0
   -7.5659   20.0461    7.7198 N   0  0  0  0  0  0  0  0  0  0  0  0
   -6.9940   18.7723    9.7715 C   0  0  0  0  0  0  0  0  0  0  0  0
   -3.8945   14.6413   10.3124 C   0  0  0  0  0  0  0  0  0  0  0  0
   -3.3798   14.6178   11.7333 C   0  0  0  0  0  0  0  0  0  0  0  0
   -2.3341   15.6229   12.0145 N   0  0  0  0  0  0  0  0  0  0  0  0
   -1.2247   16.3587   12.6628 C   0  0  0  0  0  0  0  0  0  0  0  0
   -1.8029   16.3799   14.0834 C   0  0  0  0  0  0  0  0  0  0  0  0
   -1.7686   14.9919   14.7501 C   0  0  0  0  0  0  0  0  0  0  0  0
   -0.3414   14.5906   15.1096 C   0  0  0  0  0  0  0  0  0  0  0  0
   -0.3279   13.2538   15.6866 N   0  0  0  0  0  0  0  0  0  0  0  0
   -8.1230   15.8827   16.0655 N   0  0  0  0  0  0  0  0  0  0  0  0
   -7.8681   16.4779   11.7697 C   0  0  0  0  0  0  0  0  0  0  0  0
   -8.5575   16.1734   10.9976 O   0  0  0  0  0  0  0  0  0  0  0  0
   -7.7249   16.3901   13.2695 C   0  0  2  0  0  0  0  0  0  0  0  0
   -6.6630   15.5962   13.6218 O   0  0  0  0  0  0  0  0  0  0  0  0
   -8.9811   15.7032   13.7939 C   0  0  0  0  0  0  0  0  0  0  0  0
   -8.8719   15.0003   15.1591 C   0  0  0  0  0  0  0  0  0  0  0  0
  1  2  1  1  0  0  0
  1  3  1  0  0  0  0
  3  4  1  1  0  0  0
  3  5  1  0  0  0  0
  5  6  1  6  0  0  0
  5  7  1  0  0  0  0
  7  8  1  1  0  0  0
  9  7  1  0  0  0  0
  9 10  1  0  0  0  0
  9 11  1  6  0  0  0
 10  1  1  0  0  0  0
 11 12  1  0  0  0  0
 13 14  1  1  0  0  0
 13 15  1  0  0  0  0
 13 22  1  0  0  0  0
 14 32  1  0  0  0  0
 15 16  1  1  0  0  0
 15 17  1  0  0  0  0
 16 23  1  0  0  0  0
 17 18  1  6  0  0  0
 17 19  1  0  0  0  0
 19  2  1  6  0  0  0
 19 20  1  0  0  0  0
 20 21  1  6  0  0  0
 20 22  1  0  0  0  0
 23 24  1  0  0  0  0
 24 25  1  0  0  0  0
 25 26  1  0  0  0  0
 26 27  1  0  0  0  0
 27 28  1  0  0  0  0
 28 29  1  0  0  0  0
 29 30  1  0  0  0  0
 31 37  1  0  0  0  0
 32 33  2  0  0  0  0
 34 32  1  6  0  0  0
 34 35  1  0  0  0  0
 34 36  1  0  0  0  0
 36 37  1  0  0  0  0
M  END
>  <CHROM.1>
177.16274744,-70.25079556,-60.02543927,-170.75169615,-172.95191142,59.11326003
-77.78259401,-164.11471443,-47.71536634,71.50149871,71.43079178,-177.63707506
-67.45547267,156.62510778,43.26484134,-5.94333618,16.84658135,9.16817294
-1.89600040,-0.08810601,1.82740857

>  <Name>
1o9m_lig

>  <RI>
0

>  <Rbt.Current_Directory>
/home/itssahil/PROJECTS/Mol_Feturizer/New_Systems/rnas/1o9m

>  <Rbt.Executable>
rbdock ($Id: //depot/dev/client3/rdock/2013.1/src/exe/rbdock.cxx#4 $)

>  <Rbt.Library>
libRbt.so (2013.1, Build901 2013/11/27)

>  <Rbt.Parameter_File>
/export/apps/rDock/src/rDock_2013.1_src/data/scripts/dock_solv.prm

>  <Rbt.Receptor>
prm/pocket_docking_8.prm

>  <SCORE>
-7.2341

>  <SCORE.INTER>
-3.07402

>  <SCORE.INTER.CONST>
1

>  <SCORE.INTER.POLAR>
0

>  <SCORE.INTER.ROT>
15

>  <SCORE.INTER.SOLV>
12.055

>  <SCORE.INTER.VDW>
-19.6677

>  <SCORE.INTER.norm>
-0.0830815

>  <SCORE.INTRA>
-4.21249

>  <SCORE.INTRA.DIHEDRAL>
-14.5473

>  <SCORE.INTRA.DIHEDRAL.0>
21.5987

>  <SCORE.INTRA.POLAR>
0

>  <SCORE.INTRA.POLAR.0>
0

>  <SCORE.INTRA.REPUL>
0.0175439

>  <SCORE.INTRA.REPUL.0>
0

>  <SCORE.INTRA.SOLV>
2.61648

>  <SCORE.INTRA.SOLV.lig_0>
-108.715

>  <SCORE.INTRA.VDW>
1.66518

>  <SCORE.INTRA.VDW.0>
-3.9485

>  <SCORE.INTRA.norm>
-0.113851

>  <SCORE.RESTR>
0.0524046

>  <SCORE.RESTR.CAVITY>
0.0524046

>  <SCORE.RESTR.norm>
0.00141634

>  <SCORE.SYSTEM>
0

>  <SCORE.SYSTEM.CONST>
0

>  <SCORE.SYSTEM.DIHEDRAL>
0

>  <SCORE.SYSTEM.SOLV>
0

>  <SCORE.SYSTEM.norm>
0

>  <SCORE.heavy>
37

>  <SCORE.norm>
-0.195516

>  <RMSD>
6.375

$$$$
1o9m_lig
 OpenBabel11021811403D
libRbt.so/2013.1/901 2013/11/27
 37 38  0  0  0  0  0  0  0  0999 V2000
   -6.1884   14.7803    3.8840 C   0  0  2  0  0  0  0  0  0  0  0  0
   -6.4051   14.7349    5.3274 O   0  0  0  0  0  0  0  0  0  0  0  0
   -5.8064   13.3186    3.4461 C   0  0  2  0  0  0  0  0  0  0  0  0
   -6.8580   12.3435    3.7839 N   0  0  0  0  0  0  0  0  0  0  0  0
   -4.4386   12.9202    4.1202 C   0  0  1  0  0  0  0  0  0  0  0  0
   -4.0681   11.5935    3.7353 O   0  0  0  0  0  0  0  0  0  0  0  0
   -3.3649   13.9788    3.7034 C   0  0  2  0  0  0  0  0  0  0  0  0
   -2.0742   13.7206    4.2798 O   0  0  0  0  0  0  0  0  0  0  0  0
   -3.8171   15.4037    4.1078 C   0  0  2  0  0  0  0  0  0  0  0  0
   -5.1034   15.7098    3.5500 O   0  0  0  0  0  0  0  0  0  0  0  0
   -2.8255   16.4492    3.6671 C   0  0  0  0  0  0  0  0  0  0  0  0
   -1.7311   16.4476    4.4988 N   0  0  0  0  0  0  0  0  0  0  0  0
   -7.7486   17.6869    8.2085 C   0  0  1  0  0  0  0  0  0  0  0  0
   -7.7774   18.9281    9.0320 N   0  0  0  0  0  0  0  0  0  0  0  0
   -7.7631   18.0735    6.7358 C   0  0  2  0  0  0  0  0  0  0  0  0
   -8.9037   18.8456    6.5058 O   0  0  0  0  0  0  0  0  0  0  0  0
   -7.7524   16.8003    5.8322 C   0  0  1  0  0  0  0  0  0  0  0  0
   -7.7444   17.1840    4.4232 O   0  0  0  0  0  0  0  0  0  0  0  0
   -6.4539   15.9466    6.1337 C   0  0  1  0  0  0  0  0  0  0  0  0
   -6.4376   15.5382    7.5989 C   0  0  1  0  0  0  0  0  0  0  0  0
   -5.2452   14.7430    7.8507 N   0  0  0  0  0  0  0  0  0  0  0  0
   -6.4681   16.8035    8.4974 C   0  0  0  0  0  0  0  0  0  0  0  0
  -10.2969   19.2270    6.5190 C   0  0  0  0  0  0  0  0  0  0  0  0
  -10.7844   19.2802    7.9486 C   0  0  0  0  0  0  0  0  0  0  0  0
  -12.0305   20.0521    8.1344 N   0  0  0  0  0  0  0  0  0  0  0  0
  -13.0262   21.1478    8.1109 C   0  0  0  0  0  0  0  0  0  0  0  0
  -14.2146   20.3490    8.6609 C   0  0  0  0  0  0  0  0  0  0  0  0
  -15.5642   21.0301    8.3664 C   0  0  0  0  0  0  0  0  0  0  0  0
  -15.5521   22.4887    8.8133 C   0  0  0  0  0  0  0  0  0  0  0  0
  -16.6064   23.2287    8.1342 N   0  0  0  0  0  0  0  0  0  0  0  0
   -4.0208   21.6322    9.3420 N   0  0  0  0  0  0  0  0  0  0  0  0
   -6.1438   19.4309    9.5067 C   0  0  0  0  0  0  0  0  0  0  0  0
   -5.1484   19.0546    9.3286 O   0  0  0  0  0  0  0  0  0  0  0  0
   -6.8207   20.5588   10.2464 C   0  0  2  0  0  0  0  0  0  0  0  0
   -7.3562   21.4737    9.3757 O   0  0  0  0  0  0  0  0  0  0  0  0
   -5.7358   21.2841   11.0349 C   0  0  0  0  0  0  0  0  0  0  0  0
   -4.9102   22.3383   10.2756 C   0  0  0  0  0  0  0  0  0  0  0  0
  1  2  1  1  0  0  0
  1  3  1  0  0  0  0
  3  4  1  1  0  0  0
  3  5  1  0  0  0  0
  5  6  1  6  0  0  0
  5  7  1  0  0  0  0
  7  8  1  1  0  0  0
  9  7  1  0  0  0  0
  9 10  1  0  0  0  0
  9 11  1  6  0  0  0
 10  1  1  0  0  0  0
 11 12  1  0  0  0  0
 13 14  1  1  0  0  0
 13 15  1  0  0  0  0
 13 22  1  0  0  0  0
 14 32  1  0  0  0  0
 15 16  1  1  0  0  0
 15 17  1  0  0  0  0
 16 23  1  0  0  0  0
 17 18  1  6  0  0  0
 17 19  1  0  0  0  0
 19  2  1  6  0  0  0
 19 20  1  0  0  0  0
 20 21  1  6  0  0  0
 20 22  1  0  0  0  0
 23 24  1  0  0  0  0
 24 25  1  0  0  0  0
 25 26  1  0  0  0  0
 26 27  1  0  0  0  0
 27 28  1  0  0  0  0
 28 29  1  0  0  0  0
 29 30  1  0  0  0  0
 31 37  1  0  0  0  0
 32 33  2  0  0  0  0
 34 32  1  6  0  0  0
 34 35  1  0  0  0  0
 34 36  1  0  0  0  0
 36 37  1  0  0  0  0
M  END
>  <CHROM.1>
164.72824257,-76.49192393,-95.03580263,-50.43827771,58.28147214,69.35279548
161.65786592,-54.74720996,174.01005325,-161.58627188,-51.62125958,160.26375605
-70.20346354,83.16074724,-71.71767831,-7.36998973,17.68607167,6.81057520
0.77437671,0.14371454,-2.44260779

>  <Name>
1o9m_lig

>  <RI>
0

>  <Rbt.Current_Directory>
/home/itssahil/PROJECTS/Mol_Feturizer/New_Systems/rnas/1o9m

>  <Rbt.Executable>
rbdock ($Id: //depot/dev/client3/rdock/2013.1/src/exe/rbdock.cxx#4 $)

>  <Rbt.Library>
libRbt.so (2013.1, Build901 2013/11/27)

>  <Rbt.Parameter_File>
/export/apps/rDock/src/rDock_2013.1_src/data/scripts/dock_solv.prm

>  <Rbt.Receptor>
prm/pocket_docking_2.prm

>  <SCORE>
-2.32688

>  <SCORE.INTER>
-4.10874

>  <SCORE.INTER.CONST>
1

>  <SCORE.INTER.POLAR>
-0.472714

>  <SCORE.INTER.ROT>
15

>  <SCORE.INTER.SOLV>
19.6915

>  <SCORE.INTER.VDW>
-21.3273

>  <SCORE.INTER.norm>
-0.111047

>  <SCORE.INTRA>
-0.27904

>  <SCORE.INTRA.DIHEDRAL>
-10.8901

>  <SCORE.INTRA.DIHEDRAL.0>
21.5987

>  <SCORE.INTRA.POLAR>
0

>  <SCORE.INTRA.POLAR.0>
0

>  <SCORE.INTRA.REPUL>
0

>  <SCORE.INTRA.REPUL.0>
0

>  <SCORE.INTRA.SOLV>
3.73972

>  <SCORE.INTRA.SOLV.lig_0>
-108.715

>  <SCORE.INTRA.VDW>
3.29615

>  <SCORE.INTRA.VDW.0>
-3.9485

>  <SCORE.INTRA.norm>
-0.00754161

>  <SCORE.RESTR>
2.0609

>  <SCORE.RESTR.CAVITY>
2.0609

>  <SCORE.RESTR.norm>
0.0557

>  <SCORE.SYSTEM>
0

>  <SCORE.SYSTEM.CONST>
0

>  <SCORE.SYSTEM.DIHEDRAL>
0

>  <SCORE.SYSTEM.SOLV>
0

>  <SCORE.SYSTEM.norm>
0

>  <SCORE.heavy>
37

>  <SCORE.norm>
-0.0628886

>  <RMSD>
6.414

$$$$
1o9m_lig
 OpenBabel11021811403D
libRbt.so/2013.1/901 2013/11/27
 37 38  0  0  0  0  0  0  0  0999 V2000
   -3.1017   10.6053    0.5754 C   0  0  2  0  0  0  0  0  0  0  0  0
   -4.1576   11.5509    0.9264 O   0  0  0  0  0  0  0  0  0  0  0  0
   -2.8386   10.7851   -0.9650 C   0  0  2  0  0  0  0  0  0  0  0  0
   -2.4381   12.1618   -1.3044 N   0  0  0  0  0  0  0  0  0  0  0  0
   -4.1339   10.3687   -1.7604 C   0  0  1  0  0  0  0  0  0  0  0  0
   -3.9190   10.5219   -3.1661 O   0  0  0  0  0  0  0  0  0  0  0  0
   -4.4892    8.8952   -1.3734 C   0  0  2  0  0  0  0  0  0  0  0  0
   -5.6724    8.4153   -2.0327 O   0  0  0  0  0  0  0  0  0  0  0  0
   -4.6819    8.7641    0.1577 C   0  0  2  0  0  0  0  0  0  0  0  0
   -3.5205    9.2285    0.8611 O   0  0  0  0  0  0  0  0  0  0  0  0
   -4.9700    7.3417    0.5633 C   0  0  0  0  0  0  0  0  0  0  0  0
   -3.9471    6.5159    0.1620 N   0  0  0  0  0  0  0  0  0  0  0  0
   -5.4724   13.8041    4.3927 C   0  0  1  0  0  0  0  0  0  0  0  0
   -5.7650   14.1441    5.8134 N   0  0  0  0  0  0  0  0  0  0  0  0
   -3.9826   13.5230    4.2512 C   0  0  2  0  0  0  0  0  0  0  0  0
   -3.2890   14.6538    4.6878 O   0  0  0  0  0  0  0  0  0  0  0  0
   -3.6253   13.1792    2.7707 C   0  0  1  0  0  0  0  0  0  0  0  0
   -2.1987   12.8905    2.6520 O   0  0  0  0  0  0  0  0  0  0  0  0
   -4.4418   11.9035    2.3106 C   0  0  1  0  0  0  0  0  0  0  0  0
   -5.9331   12.1788    2.4296 C   0  0  1  0  0  0  0  0  0  0  0  0
   -6.6641   11.0006    1.9881 N   0  0  0  0  0  0  0  0  0  0  0  0
   -6.2851   12.5399    3.8976 C   0  0  0  0  0  0  0  0  0  0  0  0
   -2.7921   15.6618    5.5953 C   0  0  0  0  0  0  0  0  0  0  0  0
   -1.9126   15.0053    6.6345 C   0  0  0  0  0  0  0  0  0  0  0  0
   -1.2272   15.9556    7.5345 N   0  0  0  0  0  0  0  0  0  0  0  0
   -0.4196   17.0924    8.0324 C   0  0  0  0  0  0  0  0  0  0  0  0
    0.9093   16.3415    8.1841 C   0  0  0  0  0  0  0  0  0  0  0  0
    2.0682   17.2763    8.5784 C   0  0  0  0  0  0  0  0  0  0  0  0
    1.8478   17.8685    9.9669 C   0  0  0  0  0  0  0  0  0  0  0  0
    1.8393   16.8098   10.9666 N   0  0  0  0  0  0  0  0  0  0  0  0
   -6.6439   17.0955   10.1928 N   0  0  0  0  0  0  0  0  0  0  0  0
   -5.9534   15.8937    6.0371 C   0  0  0  0  0  0  0  0  0  0  0  0
   -5.9158   16.7538    5.3868 O   0  0  0  0  0  0  0  0  0  0  0  0
   -6.1585   15.5776    7.4984 C   0  0  2  0  0  0  0  0  0  0  0  0
   -7.4437   15.8536    7.8912 O   0  0  0  0  0  0  0  0  0  0  0  0
   -5.2473   16.5132    8.2852 C   0  0  0  0  0  0  0  0  0  0  0  0
   -5.3655   16.4729    9.8195 C   0  0  0  0  0  0  0  0  0  0  0  0
  1  2  1  6  0  0  0
  1  3  1  0  0  0  0
  3  4  1  1  0  0  0
  3  5  1  0  0  0  0
  5  6  1  6  0  0  0
  5  7  1  0  0  0  0
  7  8  1  6  0  0  0
  9  7  1  0  0  0  0
  9 10  1  0  0  0  0
  9 11  1  6  0  0  0
 10  1  1  0  0  0  0
 11 12  1  0  0  0  0
 13 14  1  1  0  0  0
 13 15  1  0  0  0  0
 13 22  1  0  0  0  0
 14 32  1  0  0  0  0
 15 16  1  6  0  0  0
 15 17  1  0  0  0  0
 16 23  1  0  0  0  0
 17 18  1  1  0  0  0
 17 19  1  0  0  0  0
 19  2  1  6  0  0  0
 19 20  1  0  0  0  0
 20 21  1  1  0  0  0
 20 22  1  0  0  0  0
 23 24  1  0  0  0  0
 24 25  1  0  0  0  0
 25 26  1  0  0  0  0
 26 27  1  0  0  0  0
 27 28  1  0  0  0  0
 28 29  1  0  0  0  0
 29 30  1  0  0  0  0
 31 37  1  0  0  0  0
 32 33  2  0  0  0  0
 34 32  1  6  0  0  0
 34 35  1  0  0  0  0
 34 36  1  0  0  0  0
 36 37  1  0  0  0  0
M  END
>  <CHROM.1>
-164.78668697,58.27023259,101.75604495,66.50495510,63.11073967,91.71561776
173.74734499,-51.46696813,-94.45070289,174.59184827,65.20175001,63.31354314
-112.74336464,174.71726347,-71.54795273,-3.72824011,13.27181935,3.99358166
-1.75946756,0.05044088,0.92181182

>  <Name>
1o9m_lig

>  <RI>
0

>  <Rbt.Current_Directory>
/home/itssahil/PROJECTS/Mol_Feturizer/New_Systems/rnas/1o9m

>  <Rbt.Executable>
rbdock ($Id: //depot/dev/client3/rdock/2013.1/src/exe/rbdock.cxx#4 $)

>  <Rbt.Library>
libRbt.so (2013.1, Build901 2013/11/27)

>  <Rbt.Parameter_File>
/export/apps/rDock/src/rDock_2013.1_src/data/scripts/dock_solv.prm

>  <Rbt.Receptor>
prm/pocket_docking_6.prm

>  <SCORE>
-10.0409

>  <SCORE.INTER>
-6.30385

>  <SCORE.INTER.CONST>
1

>  <SCORE.INTER.POLAR>
-0.809273

>  <SCORE.INTER.ROT>
15

>  <SCORE.INTER.SOLV>
17.7652

>  <SCORE.INTER.VDW>
-21.0267

>  <SCORE.INTER.norm>
-0.170374

>  <SCORE.INTRA>
-3.7512

>  <SCORE.INTRA.DIHEDRAL>
-11.2652

>  <SCORE.INTRA.DIHEDRAL.0>
21.5987

>  <SCORE.INTRA.POLAR>
0

>  <SCORE.INTRA.POLAR.0>
0

>  <SCORE.INTRA.REPUL>
0

>  <SCORE.INTRA.REPUL.0>
0

>  <SCORE.INTRA.SOLV>
4.68889

>  <SCORE.INTRA.SOLV.lig_0>
-108.715

>  <SCORE.INTRA.VDW>
-0.463058

>  <SCORE.INTRA.VDW.0>
-3.9485

>  <SCORE.INTRA.norm>
-0.101384

>  <SCORE.RESTR>
0.0141638

>  <SCORE.RESTR.CAVITY>
0.0141638

>  <SCORE.RESTR.norm>
0.000382804

>  <SCORE.SYSTEM>
0

>  <SCORE.SYSTEM.CONST>
0

>  <SCORE.SYSTEM.DIHEDRAL>
0

>  <SCORE.SYSTEM.SOLV>
0

>  <SCORE.SYSTEM.norm>
0

>  <SCORE.heavy>
37

>  <SCORE.norm>
-0.271376

>  <RMSD>
6.455

$$$$
1o9m_lig
 OpenBabel11021811403D
libRbt.so/2013.1/901 2013/11/27
 37 38  0  0  0  0  0  0  0  0999 V2000
   -5.9953   14.9740    6.3053 C   0  0  2  0  0  0  0  0  0  0  0  0
   -6.0310   16.2285    5.5589 O   0  0  0  0  0  0  0  0  0  0  0  0
   -4.7518   15.0634    7.2647 C   0  0  2  0  0  0  0  0  0  0  0  0
   -4.8384   16.2127    8.1826 N   0  0  0  0  0  0  0  0  0  0  0  0
   -3.4376   15.1389    6.3982 C   0  0  1  0  0  0  0  0  0  0  0  0
   -2.2908   15.2192    7.2491 O   0  0  0  0  0  0  0  0  0  0  0  0
   -3.3966   13.8825    5.4669 C   0  0  2  0  0  0  0  0  0  0  0  0
   -2.2400   13.8579    4.6145 O   0  0  0  0  0  0  0  0  0  0  0  0
   -4.6685   13.8140    4.5861 C   0  0  2  0  0  0  0  0  0  0  0  0
   -5.8531   13.8315    5.3959 O   0  0  0  0  0  0  0  0  0  0  0  0
   -4.6802   12.5816    3.7191 C   0  0  0  0  0  0  0  0  0  0  0  0
   -5.0046   11.4758    4.4683 N   0  0  0  0  0  0  0  0  0  0  0  0
   -9.0637   18.2404    3.1977 C   0  0  1  0  0  0  0  0  0  0  0  0
  -10.0758   18.4836    2.1318 N   0  0  0  0  0  0  0  0  0  0  0  0
   -9.4863   17.0228    4.0084 C   0  0  2  0  0  0  0  0  0  0  0  0
  -10.7607   17.2707    4.5228 O   0  0  0  0  0  0  0  0  0  0  0  0
   -8.4618   16.7402    5.1521 C   0  0  1  0  0  0  0  0  0  0  0  0
   -8.8661   15.5582    5.9084 O   0  0  0  0  0  0  0  0  0  0  0  0
   -7.0300   16.4797    4.5294 C   0  0  1  0  0  0  0  0  0  0  0  0
   -6.5884   17.6976    3.7320 C   0  0  1  0  0  0  0  0  0  0  0  0
   -5.2656   17.4431    3.1816 N   0  0  0  0  0  0  0  0  0  0  0  0
   -7.6171   17.9904    2.6072 C   0  0  0  0  0  0  0  0  0  0  0  0
  -12.1924   17.4621    4.5396 C   0  0  0  0  0  0  0  0  0  0  0  0
  -12.6131   17.9478    5.9077 C   0  0  0  0  0  0  0  0  0  0  0  0
  -14.0313   17.6892    6.2316 N   0  0  0  0  0  0  0  0  0  0  0  0
  -15.2885   17.0030    6.6069 C   0  0  0  0  0  0  0  0  0  0  0  0
  -16.2446   18.1679    6.3205 C   0  0  0  0  0  0  0  0  0  0  0  0
  -16.4170   19.0963    7.5372 C   0  0  0  0  0  0  0  0  0  0  0  0
  -15.1803   19.9651    7.7446 C   0  0  0  0  0  0  0  0  0  0  0  0
  -15.3879   20.8713    8.8653 N   0  0  0  0  0  0  0  0  0  0  0  0
  -12.6757   21.8318    1.3524 N   0  0  0  0  0  0  0  0  0  0  0  0
   -9.5891   19.8151    1.0654 C   0  0  0  0  0  0  0  0  0  0  0  0
   -8.7351   20.4718    1.0070 O   0  0  0  0  0  0  0  0  0  0  0  0
  -10.8978   19.5806    0.3513 C   0  0  2  0  0  0  0  0  0  0  0  0
  -10.7719   18.6118   -0.6118 O   0  0  0  0  0  0  0  0  0  0  0  0
  -11.2454   20.8773   -0.3715 C   0  0  0  0  0  0  0  0  0  0  0  0
  -11.5076   22.1148    0.5058 C   0  0  0  0  0  0  0  0  0  0  0  0
  1  2  1  6  0  0  0
  1  3  1  0  0  0  0
  3  4  1  6  0  0  0
  3  5  1  0  0  0  0
  5  6  1  1  0  0  0
  5  7  1  0  0  0  0
  7  8  1  6  0  0  0
  9  7  1  0  0  0  0
  9 10  1  0  0  0  0
  9 11  1  1  0  0  0
 10  1  1  0  0  0  0
 11 12  1  0  0  0  0
 13 14  1  6  0  0  0
 13 15  1  0  0  0  0
 13 22  1  0  0  0  0
 14 32  1  0  0  0  0
 15 16  1  1  0  0  0
 15 17  1  0  0  0  0
 16 23  1  0  0  0  0
 17 18  1  6  0  0  0
 17 19  1  0  0  0  0
 19  2  1  1  0  0  0
 19 20  1  0  0  0  0
 20 21  1  6  0  0  0
 20 22  1  0  0  0  0
 23 24  1  0  0  0  0
 24 25  1  0  0  0  0
 25 26  1  0  0  0  0
 26 27  1  0  0  0  0
 27 28  1  0  0  0  0
 28 29  1  0  0  0  0
 29 30  1  0  0  0  0
 31 37  1  0  0  0  0
 32 33  2  0  0  0  0
 34 32  1  6  0  0  0
 34 35  1  0  0  0  0
 34 36  1  0  0  0  0
 36 37  1  0  0  0  0
M  END
>  <CHROM.1>
177.57032078,76.15926292,-175.67545180,71.13783827,-171.40244311,72.85646507
-157.50190833,74.95535469,-171.01136745,-87.91361391,74.20608469,177.69024871
-86.45452913,-63.71330050,-62.23328242,-8.88136080,17.19379366,4.46729044
0.30865456,-0.40190817,2.06243998

>  <Name>
1o9m_lig

>  <RI>
0

>  <Rbt.Current_Directory>
/home/itssahil/PROJECTS/Mol_Feturizer/New_Systems/rnas/1o9m

>  <Rbt.Executable>
rbdock ($Id: //depot/dev/client3/rdock/2013.1/src/exe/rbdock.cxx#4 $)

>  <Rbt.Library>
libRbt.so (2013.1, Build901 2013/11/27)

>  <Rbt.Parameter_File>
/export/apps/rDock/src/rDock_2013.1_src/data/scripts/dock_solv.prm

>  <Rbt.Receptor>
prm/pocket_docking_8.prm

>  <SCORE>
-15.5336

>  <SCORE.INTER>
-10.7796

>  <SCORE.INTER.CONST>
1

>  <SCORE.INTER.POLAR>
-1.20198

>  <SCORE.INTER.ROT>
15

>  <SCORE.INTER.SOLV>
19.2952

>  <SCORE.INTER.VDW>
-23.2115

>  <SCORE.INTER.norm>
-0.291339

>  <SCORE.INTRA>
-4.75409

>  <SCORE.INTRA.DIHEDRAL>
-12.3022

>  <SCORE.INTRA.DIHEDRAL.0>
21.5987

>  <SCORE.INTRA.POLAR>
0

>  <SCORE.INTRA.POLAR.0>
0

>  <SCORE.INTRA.REPUL>
0

>  <SCORE.INTRA.REPUL.0>
0

>  <SCORE.INTRA.SOLV>
1.79537

>  <SCORE.INTRA.SOLV.lig_0>
-108.715

>  <SCORE.INTRA.VDW>
0.499318

>  <SCORE.INTRA.VDW.0>
-3.9485

>  <SCORE.INTRA.norm>
-0.128489

>  <SCORE.RESTR>
0

>  <SCORE.RESTR.CAVITY>
0

>  <SCORE.RESTR.norm>
0

>  <SCORE.SYSTEM>
0

>  <SCORE.SYSTEM.CONST>
0

>  <SCORE.SYSTEM.DIHEDRAL>
0

>  <SCORE.SYSTEM.SOLV>
0

>  <SCORE.SYSTEM.norm>
0

>  <SCORE.heavy>
37

>  <SCORE.norm>
-0.419828

>  <RMSD>
6.508

$$$$
1o9m_lig
 OpenBabel11021811403D
libRbt.so/2013.1/901 2013/11/27
 37 38  0  0  0  0  0  0  0  0999 V2000
   -5.6474   14.0570    4.7213 C   0  0  2  0  0  0  0  0  0  0  0  0
   -4.7711   13.7272    5.8418 O   0  0  0  0  0  0  0  0  0  0  0  0
   -5.5638   12.8461    3.7207 C   0  0  2  0  0  0  0  0  0  0  0  0
   -5.9749   11.5773    4.3468 N   0  0  0  0  0  0  0  0  0  0  0  0
   -4.0944   12.7417    3.1607 C   0  0  1  0  0  0  0  0  0  0  0  0
   -3.9929   11.6472    2.2456 O   0  0  0  0  0  0  0  0  0  0  0  0
   -3.7311   14.1082    2.4914 C   0  0  2  0  0  0  0  0  0  0  0  0
   -2.3970   14.1306    1.9580 O   0  0  0  0  0  0  0  0  0  0  0  0
   -3.8844   15.2700    3.5039 C   0  0  2  0  0  0  0  0  0  0  0  0
   -5.2063   15.2913    4.0619 O   0  0  0  0  0  0  0  0  0  0  0  0
   -3.5943   16.6050    2.8682 C   0  0  0  0  0  0  0  0  0  0  0  0
   -3.7856   17.6171    3.7784 N   0  0  0  0  0  0  0  0  0  0  0  0
   -3.8391   15.7770    9.5499 C   0  0  1  0  0  0  0  0  0  0  0  0
   -3.3387   16.8248   10.4833 N   0  0  0  0  0  0  0  0  0  0  0  0
   -4.9012   16.3896    8.6469 C   0  0  2  0  0  0  0  0  0  0  0  0
   -5.9088   16.9104    9.4615 O   0  0  0  0  0  0  0  0  0  0  0  0
   -5.4693   15.3203    7.6613 C   0  0  1  0  0  0  0  0  0  0  0  0
   -6.4705   15.9245    6.7867 O   0  0  0  0  0  0  0  0  0  0  0  0
   -4.2955   14.7450    6.7685 C   0  0  1  0  0  0  0  0  0  0  0  0
   -3.2365   14.1131    7.6590 C   0  0  1  0  0  0  0  0  0  0  0  0
   -2.1757   13.5782    6.8186 N   0  0  0  0  0  0  0  0  0  0  0  0
   -2.6856   15.1712    8.6521 C   0  0  0  0  0  0  0  0  0  0  0  0
   -7.0383   16.9280   10.3618 C   0  0  0  0  0  0  0  0  0  0  0  0
   -8.3030   16.6613    9.5782 C   0  0  0  0  0  0  0  0  0  0  0  0
   -8.5658   17.6397    8.5027 N   0  0  0  0  0  0  0  0  0  0  0  0
   -8.4740   18.8308    7.6280 C   0  0  0  0  0  0  0  0  0  0  0  0
   -8.9463   19.8685    8.6541 C   0  0  0  0  0  0  0  0  0  0  0  0
   -7.8286   20.2749    9.6327 C   0  0  0  0  0  0  0  0  0  0  0  0
   -6.9213   21.3371    9.0195 C   0  0  0  0  0  0  0  0  0  0  0  0
   -6.1324   20.7588    7.9408 N   0  0  0  0  0  0  0  0  0  0  0  0
    0.3170   17.6076   12.0104 N   0  0  0  0  0  0  0  0  0  0  0  0
   -2.6404   18.1982    9.6042 C   0  0  0  0  0  0  0  0  0  0  0  0
   -2.5074   18.4490    8.5633 O   0  0  0  0  0  0  0  0  0  0  0  0
   -2.3368   18.7778   10.9641 C   0  0  2  0  0  0  0  0  0  0  0  0
   -3.1873   19.8112   11.2653 O   0  0  0  0  0  0  0  0  0  0  0  0
   -0.9338   19.3701   10.8889 C   0  0  0  0  0  0  0  0  0  0  0  0
    0.2353   18.3769   10.7603 C   0  0  0  0  0  0  0  0  0  0  0  0
  1  2  1  1  0  0  0
  1  3  1  0  0  0  0
  3  4  1  1  0  0  0
  3  5  1  0  0  0  0
  5  6  1  6  0  0  0
  5  7  1  0  0  0  0
  7  8  1  1  0  0  0
  9  7  1  0  0  0  0
  9 10  1  0  0  0  0
  9 11  1  6  0  0  0
 10  1  1  0  0  0  0
 11 12  1  0  0  0  0
 13 14  1  1  0  0  0
 13 15  1  0  0  0  0
 13 22  1  0  0  0  0
 14 32  1  0  0  0  0
 15 16  1  1  0  0  0
 15 17  1  0  0  0  0
 16 23  1  0  0  0  0
 17 18  1  6  0  0  0
 17 19  1  0  0  0  0
 19  2  1  6  0  0  0
 19 20  1  0  0  0  0
 20 21  1  6  0  0  0
 20 22  1  0  0  0  0
 23 24  1  0  0  0  0
 24 25  1  0  0  0  0
 25 26  1  0  0  0  0
 26 27  1  0  0  0  0
 27 28  1  0  0  0  0
 28 29  1  0  0  0  0
 29 30  1  0  0  0  0
 31 37  1  0  0  0  0
 32 33  2  0  0  0  0
 34 32  1  6  0  0  0
 34 35  1  0  0  0  0
 34 36  1  0  0  0  0
 36 37  1  0  0  0  0
M  END
>  <CHROM.1>
162.24128077,177.83739651,-59.33909228,-72.06858860,-77.98372175,68.49785992
-59.18893387,-8.36151584,-69.24018473,79.47800600,82.15491319,-69.56874213
-105.96612381,-69.32299343,-66.83437780,-4.55265008,16.41679972,7.29443324
1.55791152,0.26872955,-2.24639417

>  <Name>
1o9m_lig

>  <RI>
0

>  <Rbt.Current_Directory>
/home/itssahil/PROJECTS/Mol_Feturizer/New_Systems/rnas/1o9m

>  <Rbt.Executable>
rbdock ($Id: //depot/dev/client3/rdock/2013.1/src/exe/rbdock.cxx#4 $)

>  <Rbt.Library>
libRbt.so (2013.1, Build901 2013/11/27)

>  <Rbt.Parameter_File>
/export/apps/rDock/src/rDock_2013.1_src/data/scripts/dock_solv.prm

>  <Rbt.Receptor>
prm/pocket_docking_4.prm

>  <SCORE>
-9.86314

>  <SCORE.INTER>
-5.46448

>  <SCORE.INTER.CONST>
1

>  <SCORE.INTER.POLAR>
-1.12382

>  <SCORE.INTER.ROT>
15

>  <SCORE.INTER.SOLV>
17.7175

>  <SCORE.INTER.VDW>
-19.4028

>  <SCORE.INTER.norm>
-0.147689

>  <SCORE.INTRA>
-4.40173

>  <SCORE.INTRA.DIHEDRAL>
-10.3072

>  <SCORE.INTRA.DIHEDRAL.0>
21.5987

>  <SCORE.INTRA.POLAR>
0

>  <SCORE.INTRA.POLAR.0>
0

>  <SCORE.INTRA.REPUL>
0

>  <SCORE.INTRA.REPUL.0>
0

>  <SCORE.INTRA.SOLV>
4.83291

>  <SCORE.INTRA.SOLV.lig_0>
-108.715

>  <SCORE.INTRA.VDW>
-1.66459

>  <SCORE.INTRA.VDW.0>
-3.9485

>  <SCORE.INTRA.norm>
-0.118966

>  <SCORE.RESTR>
0.00306896

>  <SCORE.RESTR.CAVITY>
0.00306896

>  <SCORE.RESTR.norm>
8.29448e-05

>  <SCORE.SYSTEM>
0

>  <SCORE.SYSTEM.CONST>
0

>  <SCORE.SYSTEM.DIHEDRAL>
0

>  <SCORE.SYSTEM.SOLV>
0

>  <SCORE.SYSTEM.norm>
0

>  <SCORE.heavy>
37

>  <SCORE.norm>
-0.266571

>  <RMSD>
6.549

$$$$
1o9m_lig
 OpenBabel11021811403D
libRbt.so/2013.1/901 2013/11/27
 37 38  0  0  0  0  0  0  0  0999 V2000
   -5.5110   14.9719    4.6131 C   0  0  2  0  0  0  0  0  0  0  0  0
   -5.1766   14.7344    6.0146 O   0  0  0  0  0  0  0  0  0  0  0  0
   -5.1761   13.6407    3.8449 C   0  0  2  0  0  0  0  0  0  0  0  0
   -5.9296   12.4894    4.3716 N   0  0  0  0  0  0  0  0  0  0  0  0
   -3.6245   13.3763    3.9256 C   0  0  1  0  0  0  0  0  0  0  0  0
   -3.2940   12.1702    3.2316 O   0  0  0  0  0  0  0  0  0  0  0  0
   -2.8877   14.6218    3.3312 C   0  0  2  0  0  0  0  0  0  0  0  0
   -1.4569   14.4946    3.3708 O   0  0  0  0  0  0  0  0  0  0  0  0
   -3.2962   15.9101    4.0873 C   0  0  2  0  0  0  0  0  0  0  0  0
   -4.7208   16.0829    4.0710 O   0  0  0  0  0  0  0  0  0  0  0  0
   -2.6428   17.1332    3.4977 C   0  0  0  0  0  0  0  0  0  0  0  0
   -2.7851   18.2048    4.3466 N   0  0  0  0  0  0  0  0  0  0  0  0
   -6.0458   17.0900    9.5523 C   0  0  1  0  0  0  0  0  0  0  0  0
   -5.9914   18.2016   10.5429 N   0  0  0  0  0  0  0  0  0  0  0  0
   -6.4650   17.6549    8.2019 C   0  0  2  0  0  0  0  0  0  0  0  0
   -7.6978   18.2900    8.3662 O   0  0  0  0  0  0  0  0  0  0  0  0
   -6.5537   16.5196    7.1338 C   0  0  1  0  0  0  0  0  0  0  0  0
   -6.9351   17.0766    5.8388 O   0  0  0  0  0  0  0  0  0  0  0  0
   -5.1429   15.8164    6.9887 C   0  0  1  0  0  0  0  0  0  0  0  0
   -4.7215   15.2313    8.3281 C   0  0  1  0  0  0  0  0  0  0  0  0
   -3.4312   14.5777    8.1690 N   0  0  0  0  0  0  0  0  0  0  0  0
   -4.6525   16.3568    9.3947 C   0  0  0  0  0  0  0  0  0  0  0  0
   -9.1036   18.4465    8.6592 C   0  0  0  0  0  0  0  0  0  0  0  0
   -9.5041   19.8844    8.4211 C   0  0  0  0  0  0  0  0  0  0  0  0
  -10.7811   20.0444    7.6953 N   0  0  0  0  0  0  0  0  0  0  0  0
  -11.8855   19.8534    6.7277 C   0  0  0  0  0  0  0  0  0  0  0  0
  -12.6199   21.1722    7.0007 C   0  0  0  0  0  0  0  0  0  0  0  0
  -13.4558   21.1199    8.2933 C   0  0  0  0  0  0  0  0  0  0  0  0
  -14.6023   20.1216    8.1657 C   0  0  0  0  0  0  0  0  0  0  0  0
  -14.0806   18.7627    8.1294 N   0  0  0  0  0  0  0  0  0  0  0  0
   -3.6278   17.3406   12.2953 N   0  0  0  0  0  0  0  0  0  0  0  0
   -4.5153   19.1672   10.3554 C   0  0  0  0  0  0  0  0  0  0  0  0
   -3.6659   19.1403    9.6906 O   0  0  0  0  0  0  0  0  0  0  0  0
   -5.0186   19.9704   11.5298 C   0  0  2  0  0  0  0  0  0  0  0  0
   -4.9616   21.3167   11.2723 O   0  0  0  0  0  0  0  0  0  0  0  0
   -4.0652   19.7032   12.6892 C   0  0  0  0  0  0  0  0  0  0  0  0
   -4.1003   18.2946   13.3091 C   0  0  0  0  0  0  0  0  0  0  0  0
  1  2  1  1  0  0  0
  1  3  1  0  0  0  0
  3  4  1  1  0  0  0
  3  5  1  0  0  0  0
  5  6  1  6  0  0  0
  5  7  1  0  0  0  0
  7  8  1  1  0  0  0
  9  7  1  0  0  0  0
  9 10  1  0  0  0  0
  9 11  1  6  0  0  0
 10  1  1  0  0  0  0
 11 12  1  0  0  0  0
 13 14  1  1  0  0  0
 13 15  1  0  0  0  0
 13 22  1  0  0  0  0
 14 32  1  0  0  0  0
 15 16  1  1  0  0  0
 15 17  1  0  0  0  0
 16 23  1  0  0  0  0
 17 18  1  6  0  0  0
 17 19  1  0  0  0  0
 19  2  1  6  0  0  0
 19 20  1  0  0  0  0
 20 21  1  6  0  0  0
 20 22  1  0  0  0  0
 23 24  1  0  0  0  0
 24 25  1  0  0  0  0
 25 26  1  0  0  0  0
 26 27  1  0  0  0  0
 27 28  1  0  0  0  0
 28 29  1  0  0  0  0
 29 30  1  0  0  0  0
 31 37  1  0  0  0  0
 32 33  2  0  0  0  0
 34 32  1  6  0  0  0
 34 35  1  0  0  0  0
 34 36  1  0  0  0  0
 36 37  1  0  0  0  0
M  END
>  <CHROM.1>
169.46762558,-167.01925133,-77.88641847,-62.62414726,-177.59330068,60.94290869
135.88244569,-40.90125275,-166.29991186,-78.13393447,-65.75100114,69.46471459
-131.33264810,-69.62711201,65.68011703,-6.20826813,17.27347885,7.42426546
0.71555628,0.32262346,-2.10418833

>  <Name>
1o9m_lig

>  <RI>
0

>  <Rbt.Current_Directory>
/home/itssahil/PROJECTS/Mol_Feturizer/New_Systems/rnas/1o9m

>  <Rbt.Executable>
rbdock ($Id: //depot/dev/client3/rdock/2013.1/src/exe/rbdock.cxx#4 $)

>  <Rbt.Library>
libRbt.so (2013.1, Build901 2013/11/27)

>  <Rbt.Parameter_File>
/export/apps/rDock/src/rDock_2013.1_src/data/scripts/dock_solv.prm

>  <Rbt.Receptor>
prm/pocket_docking_3.prm

>  <SCORE>
-10.9929

>  <SCORE.INTER>
-10.0308

>  <SCORE.INTER.CONST>
1

>  <SCORE.INTER.POLAR>
-1.53858

>  <SCORE.INTER.ROT>
15

>  <SCORE.INTER.SOLV>
17.285

>  <SCORE.INTER.VDW>
-20.9203

>  <SCORE.INTER.norm>
-0.271104

>  <SCORE.INTRA>
-1.05488

>  <SCORE.INTRA.DIHEDRAL>
-10.6361

>  <SCORE.INTRA.DIHEDRAL.0>
21.5987

>  <SCORE.INTRA.POLAR>
0

>  <SCORE.INTRA.POLAR.0>
0

>  <SCORE.INTRA.REPUL>
0

>  <SCORE.INTRA.REPUL.0>
0

>  <SCORE.INTRA.SOLV>
7.09946

>  <SCORE.INTRA.SOLV.lig_0>
-108.715

>  <SCORE.INTRA.VDW>
0.713428

>  <SCORE.INTRA.VDW.0>
-3.9485

>  <SCORE.INTRA.norm>
-0.0285102

>  <SCORE.RESTR>
0.0928333

>  <SCORE.RESTR.CAVITY>
0.0928333

>  <SCORE.RESTR.norm>
0.00250901

>  <SCORE.SYSTEM>
0

>  <SCORE.SYSTEM.CONST>
0

>  <SCORE.SYSTEM.DIHEDRAL>
0

>  <SCORE.SYSTEM.SOLV>
0

>  <SCORE.SYSTEM.norm>
0

>  <SCORE.heavy>
37

>  <SCORE.norm>
-0.297105

>  <RMSD>
6.630

$$$$
1o9m_lig
 OpenBabel11021811403D
libRbt.so/2013.1/901 2013/11/27
 37 38  0  0  0  0  0  0  0  0999 V2000
   -4.1535   15.5563    8.4650 C   0  0  2  0  0  0  0  0  0  0  0  0
   -5.3955   14.8395    8.1895 O   0  0  0  0  0  0  0  0  0  0  0  0
   -3.2616   14.5857    9.3235 C   0  0  2  0  0  0  0  0  0  0  0  0
   -2.9868   13.3180    8.6247 N   0  0  0  0  0  0  0  0  0  0  0  0
   -3.9732   14.3190   10.7042 C   0  0  1  0  0  0  0  0  0  0  0  0
   -3.1797   13.4390   11.5051 O   0  0  0  0  0  0  0  0  0  0  0  0
   -4.2136   15.6986   11.4016 C   0  0  2  0  0  0  0  0  0  0  0  0
   -4.8772   15.5741   12.6700 O   0  0  0  0  0  0  0  0  0  0  0  0
   -5.0475   16.6330   10.4906 C   0  0  2  0  0  0  0  0  0  0  0  0
   -4.4203   16.7920    9.2097 O   0  0  0  0  0  0  0  0  0  0  0  0
   -5.2457   17.9895   11.1160 C   0  0  0  0  0  0  0  0  0  0  0  0
   -6.0466   18.7698   10.3166 N   0  0  0  0  0  0  0  0  0  0  0  0
   -7.1818   17.1958    5.0150 C   0  0  1  0  0  0  0  0  0  0  0  0
   -8.1835   17.6796    4.0240 N   0  0  0  0  0  0  0  0  0  0  0  0
   -7.7717   17.3237    6.4129 C   0  0  2  0  0  0  0  0  0  0  0  0
   -8.1215   18.6612    6.6105 O   0  0  0  0  0  0  0  0  0  0  0  0
   -6.7471   16.8441    7.4889 C   0  0  1  0  0  0  0  0  0  0  0  0
   -7.3318   16.9511    8.8227 O   0  0  0  0  0  0  0  0  0  0  0  0
   -6.3658   15.3313    7.2212 C   0  0  1  0  0  0  0  0  0  0  0  0
   -5.7575   15.1936    5.8337 C   0  0  1  0  0  0  0  0  0  0  0  0
   -5.4010   13.8000    5.6143 N   0  0  0  0  0  0  0  0  0  0  0  0
   -6.7687   15.6889    4.7653 C   0  0  0  0  0  0  0  0  0  0  0  0
   -7.9715   20.0962    6.6806 C   0  0  0  0  0  0  0  0  0  0  0  0
   -9.2544   20.7055    7.1978 C   0  0  0  0  0  0  0  0  0  0  0  0
   -9.2537   22.1827    7.2267 N   0  0  0  0  0  0  0  0  0  0  0  0
   -9.0538   23.5995    6.8457 C   0  0  0  0  0  0  0  0  0  0  0  0
  -10.3319   23.7643    6.0136 C   0  0  0  0  0  0  0  0  0  0  0  0
  -11.5954   23.8435    6.8908 C   0  0  0  0  0  0  0  0  0  0  0  0
  -12.8581   23.6763    6.0512 C   0  0  0  0  0  0  0  0  0  0  0  0
  -14.0385   23.7766    6.8977 N   0  0  0  0  0  0  0  0  0  0  0  0
  -11.6006   19.4806    3.0985 N   0  0  0  0  0  0  0  0  0  0  0  0
   -7.3986   18.4058    2.6086 C   0  0  0  0  0  0  0  0  0  0  0  0
   -6.3766   18.5647    2.3013 O   0  0  0  0  0  0  0  0  0  0  0  0
   -8.7954   18.6803    2.1073 C   0  0  2  0  0  0  0  0  0  0  0  0
   -8.8064   18.8789    0.7500 O   0  0  0  0  0  0  0  0  0  0  0  0
   -9.2454   19.9890    2.7473 C   0  0  0  0  0  0  0  0  0  0  0  0
  -10.6887   20.4429    2.4632 C   0  0  0  0  0  0  0  0  0  0  0  0
  1  2  1  1  0  0  0
  1  3  1  0  0  0  0
  3  4  1  6  0  0  0
  3  5  1  0  0  0  0
  5  6  1  1  0  0  0
  5  7  1  0  0  0  0
  7  8  1  1  0  0  0
  9  7  1  0  0  0  0
  9 10  1  0  0  0  0
  9 11  1  1  0  0  0
 10  1  1  0  0  0  0
 11 12  1  0  0  0  0
 13 14  1  6  0  0  0
 13 15  1  0  0  0  0
 13 22  1  0  0  0  0
 14 32  1  0  0  0  0
 15 16  1  1  0  0  0
 15 17  1  0  0  0  0
 16 23  1  0  0  0  0
 17 18  1  1  0  0  0
 17 19  1  0  0  0  0
 19  2  1  1  0  0  0
 19 20  1  0  0  0  0
 20 21  1  6  0  0  0
 20 22  1  0  0  0  0
 23 24  1  0  0  0  0
 24 25  1  0  0  0  0
 25 26  1  0  0  0  0
 26 27  1  0  0  0  0
 27 28  1  0  0  0  0
 28 29  1  0  0  0  0
 29 30  1  0  0  0  0
 31 37  1  0  0  0  0
 32 33  2  0  0  0  0
 34 32  1  1  0  0  0
 34 35  1  0  0  0  0
 34 36  1  0  0  0  0
 36 37  1  0  0  0  0
M  END
>  <CHROM.1>
-168.87942419,-176.85343599,148.54723196,-54.73556721,-175.21112064,-51.52807383
-176.05843966,42.53695993,84.85593257,73.69465413,-166.63969297,-179.06738700
-159.44460572,-176.05929841,66.58962859,-7.28413196,18.06031252,6.87561666
-0.27450000,0.90138508,-1.88699955

>  <Name>
1o9m_lig

>  <RI>
0

>  <Rbt.Current_Directory>
/home/itssahil/PROJECTS/Mol_Feturizer/New_Systems/rnas/1o9m

>  <Rbt.Executable>
rbdock ($Id: //depot/dev/client3/rdock/2013.1/src/exe/rbdock.cxx#4 $)

>  <Rbt.Library>
libRbt.so (2013.1, Build901 2013/11/27)

>  <Rbt.Parameter_File>
/export/apps/rDock/src/rDock_2013.1_src/data/scripts/dock_solv.prm

>  <Rbt.Receptor>
prm/pocket_docking_8.prm

>  <SCORE>
-9.13255

>  <SCORE.INTER>
-2.32556

>  <SCORE.INTER.CONST>
1

>  <SCORE.INTER.POLAR>
-1.89255

>  <SCORE.INTER.ROT>
15

>  <SCORE.INTER.SOLV>
11.4424

>  <SCORE.INTER.VDW>
-12.656

>  <SCORE.INTER.norm>
-0.0628529

>  <SCORE.INTRA>
-6.807

>  <SCORE.INTRA.DIHEDRAL>
-15.946

>  <SCORE.INTRA.DIHEDRAL.0>
21.5987

>  <SCORE.INTRA.POLAR>
0

>  <SCORE.INTRA.POLAR.0>
0

>  <SCORE.INTRA.REPUL>
0

>  <SCORE.INTRA.REPUL.0>
0

>  <SCORE.INTRA.SOLV>
3.38234

>  <SCORE.INTRA.SOLV.lig_0>
-108.715

>  <SCORE.INTRA.VDW>
-0.525147

>  <SCORE.INTRA.VDW.0>
-3.9485

>  <SCORE.INTRA.norm>
-0.183973

>  <SCORE.RESTR>
0

>  <SCORE.RESTR.CAVITY>
0

>  <SCORE.RESTR.norm>
0

>  <SCORE.SYSTEM>
0

>  <SCORE.SYSTEM.CONST>
0

>  <SCORE.SYSTEM.DIHEDRAL>
0

>  <SCORE.SYSTEM.SOLV>
0

>  <SCORE.SYSTEM.norm>
0

>  <SCORE.heavy>
37

>  <SCORE.norm>
-0.246826

>  <RMSD>
6.684

$$$$
1o9m_lig
 OpenBabel11021811403D
libRbt.so/2013.1/901 2013/11/27
 37 38  0  0  0  0  0  0  0  0999 V2000
   -5.4820   16.9790    4.7717 C   0  0  2  0  0  0  0  0  0  0  0  0
   -5.2887   18.0767    5.7150 O   0  0  0  0  0  0  0  0  0  0  0  0
   -4.1777   16.1021    4.8374 C   0  0  2  0  0  0  0  0  0  0  0  0
   -3.9229   15.5842    6.1931 N   0  0  0  0  0  0  0  0  0  0  0  0
   -2.9561   16.9576    4.3280 C   0  0  1  0  0  0  0  0  0  0  0  0
   -1.7565   16.1803    4.3766 O   0  0  0  0  0  0  0  0  0  0  0  0
   -3.2808   17.4548    2.8807 C   0  0  2  0  0  0  0  0  0  0  0  0
   -2.2339   18.2649    2.3215 O   0  0  0  0  0  0  0  0  0  0  0  0
   -4.6015   18.2633    2.8645 C   0  0  2  0  0  0  0  0  0  0  0  0
   -5.6807   17.4914    3.4112 O   0  0  0  0  0  0  0  0  0  0  0  0
   -4.9666   18.7065    1.4714 C   0  0  0  0  0  0  0  0  0  0  0  0
   -4.0484   19.6173    1.0058 N   0  0  0  0  0  0  0  0  0  0  0  0
   -8.1330   20.9669    7.2570 C   0  0  1  0  0  0  0  0  0  0  0  0
   -9.0602   22.1320    7.3027 N   0  0  0  0  0  0  0  0  0  0  0  0
   -8.6153   19.9962    6.1876 C   0  0  2  0  0  0  0  0  0  0  0  0
   -9.9258   19.6291    6.5006 O   0  0  0  0  0  0  0  0  0  0  0  0
   -7.6815   18.7469    6.1164 C   0  0  1  0  0  0  0  0  0  0  0  0
   -8.1415   17.8344    5.0732 O   0  0  0  0  0  0  0  0  0  0  0  0
   -6.2057   19.2065    5.7750 C   0  0  1  0  0  0  0  0  0  0  0  0
   -5.7055   20.1626    6.8471 C   0  0  1  0  0  0  0  0  0  0  0  0
   -4.3439   20.5604    6.5222 N   0  0  0  0  0  0  0  0  0  0  0  0
   -6.6449   21.3953    6.9315 C   0  0  0  0  0  0  0  0  0  0  0  0
  -11.3206   19.7791    6.8450 C   0  0  0  0  0  0  0  0  0  0  0  0
  -11.9952   18.4278    6.7871 C   0  0  0  0  0  0  0  0  0  0  0  0
  -13.4154   18.4428    7.1945 N   0  0  0  0  0  0  0  0  0  0  0  0
  -14.8025   18.0142    7.4856 C   0  0  0  0  0  0  0  0  0  0  0  0
  -15.2303   19.2524    8.2836 C   0  0  0  0  0  0  0  0  0  0  0  0
  -16.7189   19.2099    8.6767 C   0  0  0  0  0  0  0  0  0  0  0  0
  -17.1015   20.4283    9.5111 C   0  0  0  0  0  0  0  0  0  0  0  0
  -18.5336   20.4246    9.7743 N   0  0  0  0  0  0  0  0  0  0  0  0
  -12.7218   25.4754    6.1269 N   0  0  0  0  0  0  0  0  0  0  0  0
   -9.2287   22.8911    5.7083 C   0  0  0  0  0  0  0  0  0  0  0  0
   -8.8274   22.6977    4.7256 O   0  0  0  0  0  0  0  0  0  0  0  0
  -10.1389   23.8810    6.3933 C   0  0  2  0  0  0  0  0  0  0  0  0
  -11.3297   23.2990    6.7473 O   0  0  0  0  0  0  0  0  0  0  0  0
  -10.4649   24.9633    5.3701 C   0  0  0  0  0  0  0  0  0  0  0  0
  -11.4188   26.0839    5.8218 C   0  0  0  0  0  0  0  0  0  0  0  0
  1  2  1  1  0  0  0
  1  3  1  0  0  0  0
  3  4  1  1  0  0  0
  3  5  1  0  0  0  0
  5  6  1  6  0  0  0
  5  7  1  0  0  0  0
  7  8  1  1  0  0  0
  9  7  1  0  0  0  0
  9 10  1  0  0  0  0
  9 11  1  6  0  0  0
 10  1  1  0  0  0  0
 11 12  1  0  0  0  0
 13 14  1  6  0  0  0
 13 15  1  0  0  0  0
 13 22  1  0  0  0  0
 14 32  1  0  0  0  0
 15 16  1  1  0  0  0
 15 17  1  0  0  0  0
 16 23  1  0  0  0  0
 17 18  1  6  0  0  0
 17 19  1  0  0  0  0
 19  2  1  1  0  0  0
 19 20  1  0  0  0  0
 20 21  1  6  0  0  0
 20 22  1  0  0  0  0
 23 24  1  0  0  0  0
 24 25  1  0  0  0  0
 25 26  1  0  0  0  0
 26 27  1  0  0  0  0
 27 28  1  0  0  0  0
 28 29  1  0  0  0  0
 29 30  1  0  0  0  0
 31 37  1  0  0  0  0
 32 33  2  0  0  0  0
 34 32  1  6  0  0  0
 34 35  1  0  0  0  0
 34 36  1  0  0  0  0
 36 37  1  0  0  0  0
M  END
>  <CHROM.1>
170.40255356,-66.45617944,-54.86603686,51.47839684,172.37777677,59.78198046
176.78572167,177.04596901,166.53261575,175.40912747,177.94539655,175.19603469
-70.80936214,178.47878124,-63.13599142,-8.53521423,19.81315873,5.77010867
0.24911437,-0.38786320,3.01837549

>  <Name>
1o9m_lig

>  <RI>
0

>  <Rbt.Current_Directory>
/home/itssahil/PROJECTS/Mol_Feturizer/New_Systems/rnas/1o9m

>  <Rbt.Executable>
rbdock ($Id: //depot/dev/client3/rdock/2013.1/src/exe/rbdock.cxx#4 $)

>  <Rbt.Library>
libRbt.so (2013.1, Build901 2013/11/27)

>  <Rbt.Parameter_File>
/export/apps/rDock/src/rDock_2013.1_src/data/scripts/dock_solv.prm

>  <Rbt.Receptor>
prm/pocket_docking_6.prm

>  <SCORE>
-7.02567

>  <SCORE.INTER>
1.19327

>  <SCORE.INTER.CONST>
1

>  <SCORE.INTER.POLAR>
-0.91497

>  <SCORE.INTER.ROT>
15

>  <SCORE.INTER.SOLV>
5.77108

>  <SCORE.INTER.VDW>
-11.6783

>  <SCORE.INTER.norm>
0.0322506

>  <SCORE.INTRA>
-8.23629

>  <SCORE.INTRA.DIHEDRAL>
-19.0641

>  <SCORE.INTRA.DIHEDRAL.0>
21.5987

>  <SCORE.INTRA.POLAR>
0

>  <SCORE.INTRA.POLAR.0>
0

>  <SCORE.INTRA.REPUL>
0

>  <SCORE.INTRA.REPUL.0>
0

>  <SCORE.INTRA.SOLV>
1.67034

>  <SCORE.INTRA.SOLV.lig_0>
-108.715

>  <SCORE.INTRA.VDW>
0.460602

>  <SCORE.INTRA.VDW.0>
-3.9485

>  <SCORE.INTRA.norm>
-0.222602

>  <SCORE.RESTR>
0.0173472

>  <SCORE.RESTR.CAVITY>
0.0173472

>  <SCORE.RESTR.norm>
0.000468843

>  <SCORE.SYSTEM>
0

>  <SCORE.SYSTEM.CONST>
0

>  <SCORE.SYSTEM.DIHEDRAL>
0

>  <SCORE.SYSTEM.SOLV>
0

>  <SCORE.SYSTEM.norm>
0

>  <SCORE.heavy>
37

>  <SCORE.norm>
-0.189883

>  <RMSD>
6.723

$$$$
1o9m_lig
 OpenBabel11021811403D
libRbt.so/2013.1/901 2013/11/27
 37 38  0  0  0  0  0  0  0  0999 V2000
   -4.9880   11.6095    2.9097 C   0  0  2  0  0  0  0  0  0  0  0  0
   -5.1042   13.0197    2.5490 O   0  0  0  0  0  0  0  0  0  0  0  0
   -4.3305   10.8882    1.6760 C   0  0  2  0  0  0  0  0  0  0  0  0
   -3.0102   11.4502    1.3413 N   0  0  0  0  0  0  0  0  0  0  0  0
   -5.3070   10.9850    0.4428 C   0  0  1  0  0  0  0  0  0  0  0  0
   -4.7315   10.3337   -0.6931 O   0  0  0  0  0  0  0  0  0  0  0  0
   -6.6766   10.3522    0.8566 C   0  0  2  0  0  0  0  0  0  0  0  0
   -7.6546   10.4026   -0.1950 O   0  0  0  0  0  0  0  0  0  0  0  0
   -7.2505   11.0624    2.1075 C   0  0  2  0  0  0  0  0  0  0  0  0
   -6.3082   11.0337    3.1895 O   0  0  0  0  0  0  0  0  0  0  0  0
   -8.5432   10.4347    2.5607 C   0  0  0  0  0  0  0  0  0  0  0  0
   -8.3570    9.0985    2.8237 N   0  0  0  0  0  0  0  0  0  0  0  0
   -5.9864   14.9715    6.3216 C   0  0  1  0  0  0  0  0  0  0  0  0
   -6.1216   16.0464    7.3443 N   0  0  0  0  0  0  0  0  0  0  0  0
   -6.8515   15.3249    5.1194 C   0  0  2  0  0  0  0  0  0  0  0  0
   -8.1653   15.4800    5.5667 O   0  0  0  0  0  0  0  0  0  0  0  0
   -6.7554   14.2141    4.0264 C   0  0  1  0  0  0  0  0  0  0  0  0
   -7.5716   14.5747    2.8704 O   0  0  0  0  0  0  0  0  0  0  0  0
   -5.2512   14.0595    3.5580 C   0  0  1  0  0  0  0  0  0  0  0  0
   -4.3794   13.6876    4.7478 C   0  0  1  0  0  0  0  0  0  0  0  0
   -3.0055   13.5359    4.2930 N   0  0  0  0  0  0  0  0  0  0  0  0
   -4.4902   14.7822    5.8428 C   0  0  0  0  0  0  0  0  0  0  0  0
   -9.5780   15.7775    5.5184 C   0  0  0  0  0  0  0  0  0  0  0  0
   -9.7720   17.1891    5.0142 C   0  0  0  0  0  0  0  0  0  0  0  0
  -11.1424   17.7119    5.1922 N   0  0  0  0  0  0  0  0  0  0  0  0
  -12.3500   18.5629    5.0923 C   0  0  0  0  0  0  0  0  0  0  0  0
  -12.8761   18.3299    6.5142 C   0  0  0  0  0  0  0  0  0  0  0  0
  -14.2492   18.9882    6.7455 C   0  0  0  0  0  0  0  0  0  0  0  0
  -15.3518   18.2308    6.0120 C   0  0  0  0  0  0  0  0  0  0  0  0
  -15.5068   16.8991    6.5800 N   0  0  0  0  0  0  0  0  0  0  0  0
   -6.5421   17.4166   13.0012 N   0  0  0  0  0  0  0  0  0  0  0  0
   -4.9868   15.8118    8.6873 C   0  0  0  0  0  0  0  0  0  0  0  0
   -4.2249   15.0853    8.9236 O   0  0  0  0  0  0  0  0  0  0  0  0
   -5.6069   17.0497    9.2879 C   0  0  2  0  0  0  0  0  0  0  0  0
   -4.7679   18.1295    9.1781 O   0  0  0  0  0  0  0  0  0  0  0  0
   -5.7819   16.7779   10.7780 C   0  0  0  0  0  0  0  0  0  0  0  0
   -6.5680   17.8240   11.5889 C   0  0  0  0  0  0  0  0  0  0  0  0
  1  2  1  6  0  0  0
  1  3  1  0  0  0  0
  3  4  1  6  0  0  0
  3  5  1  0  0  0  0
  5  6  1  6  0  0  0
  5  7  1  0  0  0  0
  7  8  1  6  0  0  0
  9  7  1  0  0  0  0
  9 10  1  0  0  0  0
  9 11  1  1  0  0  0
 10  1  1  0  0  0  0
 11 12  1  0  0  0  0
 13 14  1  1  0  0  0
 13 15  1  0  0  0  0
 13 22  1  0  0  0  0
 14 32  1  0  0  0  0
 15 16  1  1  0  0  0
 15 17  1  0  0  0  0
 16 23  1  0  0  0  0
 17 18  1  6  0  0  0
 17 19  1  0  0  0  0
 19  2  1  6  0  0  0
 19 20  1  0  0  0  0
 20 21  1  6  0  0  0
 20 22  1  0  0  0  0
 23 24  1  0  0  0  0
 24 25  1  0  0  0  0
 25 26  1  0  0  0  0
 26 27  1  0  0  0  0
 27 28  1  0  0  0  0
 28 29  1  0  0  0  0
 29 30  1  0  0  0  0
 31 37  1  0  0  0  0
 32 33  2  0  0  0  0
 34 32  1  6  0  0  0
 34 35  1  0  0  0  0
 34 36  1  0  0  0  0
 36 37  1  0  0  0  0
M  END
>  <CHROM.1>
-159.56746350,57.41156714,-172.76574955,175.54212498,-56.40352341,-82.85285945
-167.53026251,-168.32901685,-146.00079144,-174.70622649,72.52614900,65.66526164
-105.72347823,-172.21983093,-176.33823687,-7.30538880,14.51141405,5.04373360
-1.09991471,-0.30982243,0.93533251

>  <Name>
1o9m_lig

>  <RI>
0

>  <Rbt.Current_Directory>
/home/itssahil/PROJECTS/Mol_Feturizer/New_Systems/rnas/1o9m

>  <Rbt.Executable>
rbdock ($Id: //depot/dev/client3/rdock/2013.1/src/exe/rbdock.cxx#4 $)

>  <Rbt.Library>
libRbt.so (2013.1, Build901 2013/11/27)

>  <Rbt.Parameter_File>
/export/apps/rDock/src/rDock_2013.1_src/data/scripts/dock_solv.prm

>  <Rbt.Receptor>
prm/pocket_docking_6.prm

>  <SCORE>
-8.60681

>  <SCORE.INTER>
-4.65568

>  <SCORE.INTER.CONST>
1

>  <SCORE.INTER.POLAR>
0

>  <SCORE.INTER.ROT>
15

>  <SCORE.INTER.SOLV>
28.286

>  <SCORE.INTER.VDW>
-26.1325

>  <SCORE.INTER.norm>
-0.125829

>  <SCORE.INTRA>
-3.95113

>  <SCORE.INTRA.DIHEDRAL>
-12.589

>  <SCORE.INTRA.DIHEDRAL.0>
21.5987

>  <SCORE.INTRA.POLAR>
0

>  <SCORE.INTRA.POLAR.0>
0

>  <SCORE.INTRA.REPUL>
0

>  <SCORE.INTRA.REPUL.0>
0

>  <SCORE.INTRA.SOLV>
2.47633

>  <SCORE.INTRA.SOLV.lig_0>
-108.715

>  <SCORE.INTRA.VDW>
1.10519

>  <SCORE.INTRA.VDW.0>
-3.9485

>  <SCORE.INTRA.norm>
-0.106787

>  <SCORE.RESTR>
0

>  <SCORE.RESTR.CAVITY>
0

>  <SCORE.RESTR.norm>
0

>  <SCORE.SYSTEM>
0

>  <SCORE.SYSTEM.CONST>
0

>  <SCORE.SYSTEM.DIHEDRAL>
0

>  <SCORE.SYSTEM.SOLV>
0

>  <SCORE.SYSTEM.norm>
0

>  <SCORE.heavy>
37

>  <SCORE.norm>
-0.232616

>  <RMSD>
6.861

$$$$
1o9m_lig
 OpenBabel11021811403D
libRbt.so/2013.1/901 2013/11/27
 37 38  0  0  0  0  0  0  0  0999 V2000
   -3.8717   16.8608    9.1728 C   0  0  2  0  0  0  0  0  0  0  0  0
   -4.4058   17.9519    8.3626 O   0  0  0  0  0  0  0  0  0  0  0  0
   -2.5627   17.4104    9.8504 C   0  0  2  0  0  0  0  0  0  0  0  0
   -2.8233   18.5976   10.6832 N   0  0  0  0  0  0  0  0  0  0  0  0
   -1.5015   17.7356    8.7315 C   0  0  1  0  0  0  0  0  0  0  0  0
   -0.2996   18.2361    9.3234 O   0  0  0  0  0  0  0  0  0  0  0  0
   -1.2545   16.4322    7.9024 C   0  0  2  0  0  0  0  0  0  0  0  0
   -0.3094   16.6201    6.8364 O   0  0  0  0  0  0  0  0  0  0  0  0
   -2.5827   15.9045    7.3059 C   0  0  2  0  0  0  0  0  0  0  0  0
   -3.5594   15.6965    8.3364 O   0  0  0  0  0  0  0  0  0  0  0  0
   -2.3809   14.6174    6.5486 C   0  0  0  0  0  0  0  0  0  0  0  0
   -1.6196   14.8401    5.4261 N   0  0  0  0  0  0  0  0  0  0  0  0
   -8.0421   16.2327    6.7373 C   0  0  1  0  0  0  0  0  0  0  0  0
   -9.3364   16.1267    6.0071 N   0  0  0  0  0  0  0  0  0  0  0  0
   -6.9579   16.6591    5.7570 C   0  0  2  0  0  0  0  0  0  0  0  0
   -6.9182   15.7189    4.7252 O   0  0  0  0  0  0  0  0  0  0  0  0
   -5.5762   16.7655    6.4762 C   0  0  1  0  0  0  0  0  0  0  0  0
   -4.5495   17.1959    5.5311 O   0  0  0  0  0  0  0  0  0  0  0  0
   -5.6675   17.8281    7.6460 C   0  0  1  0  0  0  0  0  0  0  0  0
   -6.7352   17.4029    8.6426 C   0  0  1  0  0  0  0  0  0  0  0  0
   -6.7921   18.3841    9.7157 N   0  0  0  0  0  0  0  0  0  0  0  0
   -8.1051   17.2780    7.9235 C   0  0  0  0  0  0  0  0  0  0  0  0
   -6.8642   14.4264    4.0823 C   0  0  0  0  0  0  0  0  0  0  0  0
   -5.6169   13.6998    4.5305 C   0  0  0  0  0  0  0  0  0  0  0  0
   -5.6543   12.2398    4.3071 N   0  0  0  0  0  0  0  0  0  0  0  0
   -5.3165   10.8772    3.8364 C   0  0  0  0  0  0  0  0  0  0  0  0
   -6.0733   10.9335    2.5033 C   0  0  0  0  0  0  0  0  0  0  0  0
   -7.6001   10.8648    2.6936 C   0  0  0  0  0  0  0  0  0  0  0  0
   -8.3212   10.8574    1.3492 C   0  0  0  0  0  0  0  0  0  0  0  0
   -8.0290   12.0824    0.6183 N   0  0  0  0  0  0  0  0  0  0  0  0
  -12.1593   18.6303    7.3463 N   0  0  0  0  0  0  0  0  0  0  0  0
   -9.9953   17.7269    5.6173 C   0  0  0  0  0  0  0  0  0  0  0  0
   -9.6721   18.7439    5.7765 O   0  0  0  0  0  0  0  0  0  0  0  0
  -11.1603   16.9826    5.0120 C   0  0  2  0  0  0  0  0  0  0  0  0
  -10.9180   16.6619    3.7004 O   0  0  0  0  0  0  0  0  0  0  0  0
  -12.3477   17.9389    5.0193 C   0  0  0  0  0  0  0  0  0  0  0  0
  -13.1029   18.1013    6.3509 C   0  0  0  0  0  0  0  0  0  0  0  0
  1  2  1  6  0  0  0
  1  3  1  0  0  0  0
  3  4  1  6  0  0  0
  3  5  1  0  0  0  0
  5  6  1  1  0  0  0
  5  7  1  0  0  0  0
  7  8  1  6  0  0  0
  9  7  1  0  0  0  0
  9 10  1  0  0  0  0
  9 11  1  1  0  0  0
 10  1  1  0  0  0  0
 11 12  1  0  0  0  0
 13 14  1  6  0  0  0
 13 15  1  0  0  0  0
 13 22  1  0  0  0  0
 14 32  1  0  0  0  0
 15 16  1  6  0  0  0
 15 17  1  0  0  0  0
 16 23  1  0  0  0  0
 17 18  1  6  0  0  0
 17 19  1  0  0  0  0
 19  2  1  1  0  0  0
 19 20  1  0  0  0  0
 20 21  1  1  0  0  0
 20 22  1  0  0  0  0
 23 24  1  0  0  0  0
 24 25  1  0  0  0  0
 25 26  1  0  0  0  0
 26 27  1  0  0  0  0
 27 28  1  0  0  0  0
 28 29  1  0  0  0  0
 29 30  1  0  0  0  0
 31 37  1  0  0  0  0
 32 33  2  0  0  0  0
 34 32  1  6  0  0  0
 34 35  1  0  0  0  0
 34 36  1  0  0  0  0
 36 37  1  0  0  0  0
M  END
>  <CHROM.1>
-176.33693323,-66.77765372,-73.65671140,-49.40727270,-58.45936041,-67.06253162
161.23904530,121.59199761,-86.96071155,-72.63669118,-177.36085068,-61.19795948
-87.47366638,-79.78450561,61.05056272,-6.15574219,15.98716855,6.21096836
0.49503928,-0.25126589,0.72134511

>  <Name>
1o9m_lig

>  <RI>
0

>  <Rbt.Current_Directory>
/home/itssahil/PROJECTS/Mol_Feturizer/New_Systems/rnas/1o9m

>  <Rbt.Executable>
rbdock ($Id: //depot/dev/client3/rdock/2013.1/src/exe/rbdock.cxx#4 $)

>  <Rbt.Library>
libRbt.so (2013.1, Build901 2013/11/27)

>  <Rbt.Parameter_File>
/export/apps/rDock/src/rDock_2013.1_src/data/scripts/dock_solv.prm

>  <Rbt.Receptor>
prm/pocket_docking_7.prm

>  <SCORE>
-13.9038

>  <SCORE.INTER>
-9.4695

>  <SCORE.INTER.CONST>
1

>  <SCORE.INTER.POLAR>
-1.83095

>  <SCORE.INTER.ROT>
15

>  <SCORE.INTER.SOLV>
17.3932

>  <SCORE.INTER.VDW>
-19.6076

>  <SCORE.INTER.norm>
-0.255932

>  <SCORE.INTRA>
-4.43433

>  <SCORE.INTRA.DIHEDRAL>
-14.2622

>  <SCORE.INTRA.DIHEDRAL.0>
21.5987

>  <SCORE.INTRA.POLAR>
0

>  <SCORE.INTRA.POLAR.0>
0

>  <SCORE.INTRA.REPUL>
0

>  <SCORE.INTRA.REPUL.0>
0

>  <SCORE.INTRA.SOLV>
6.36257

>  <SCORE.INTRA.SOLV.lig_0>
-108.715

>  <SCORE.INTRA.VDW>
-0.484533

>  <SCORE.INTRA.VDW.0>
-3.9485

>  <SCORE.INTRA.norm>
-0.119847

>  <SCORE.RESTR>
0

>  <SCORE.RESTR.CAVITY>
0

>  <SCORE.RESTR.norm>
0

>  <SCORE.SYSTEM>
0

>  <SCORE.SYSTEM.CONST>
0

>  <SCORE.SYSTEM.DIHEDRAL>
0

>  <SCORE.SYSTEM.SOLV>
0

>  <SCORE.SYSTEM.norm>
0

>  <SCORE.heavy>
37

>  <SCORE.norm>
-0.375779

>  <RMSD>
6.960

$$$$
1o9m_lig
 OpenBabel11021811403D
libRbt.so/2013.1/901 2013/11/27
 37 38  0  0  0  0  0  0  0  0999 V2000
   -4.6249   16.2772   10.3899 C   0  0  2  0  0  0  0  0  0  0  0  0
   -6.0416   16.1793   10.0497 O   0  0  0  0  0  0  0  0  0  0  0  0
   -4.3674   15.2217   11.5275 C   0  0  2  0  0  0  0  0  0  0  0  0
   -4.7073   13.8522   11.1034 N   0  0  0  0  0  0  0  0  0  0  0  0
   -5.1932   15.6311   12.8059 C   0  0  1  0  0  0  0  0  0  0  0  0
   -4.9741   14.6861   13.8569 O   0  0  0  0  0  0  0  0  0  0  0  0
   -4.7687   17.0801   13.2152 C   0  0  2  0  0  0  0  0  0  0  0  0
   -5.4771   17.5640   14.3679 O   0  0  0  0  0  0  0  0  0  0  0  0
   -4.9904   18.0660   12.0417 C   0  0  2  0  0  0  0  0  0  0  0  0
   -4.2962   17.6257   10.8654 O   0  0  0  0  0  0  0  0  0  0  0  0
   -4.5365   19.4597   12.3914 C   0  0  0  0  0  0  0  0  0  0  0  0
   -3.1737   19.4859   12.5685 N   0  0  0  0  0  0  0  0  0  0  0  0
   -8.7226   18.2008    7.3026 C   0  0  1  0  0  0  0  0  0  0  0  0
   -9.4283   19.3030    6.5908 N   0  0  0  0  0  0  0  0  0  0  0  0
   -7.2249   18.3436    7.0681 C   0  0  2  0  0  0  0  0  0  0  0  0
   -7.0023   18.3233    5.6896 O   0  0  0  0  0  0  0  0  0  0  0  0
   -6.4439   17.1957    7.7823 C   0  0  1  0  0  0  0  0  0  0  0  0
   -5.0082   17.3558    7.5683 O   0  0  0  0  0  0  0  0  0  0  0  0
   -6.7343   17.2443    9.3376 C   0  0  1  0  0  0  0  0  0  0  0  0
   -8.2264   17.0836    9.5858 C   0  0  1  0  0  0  0  0  0  0  0  0
   -8.4692   17.1160   11.0203 N   0  0  0  0  0  0  0  0  0  0  0  0
   -9.0045   18.2134    8.8596 C   0  0  0  0  0  0  0  0  0  0  0  0
   -6.9647   18.7940    4.3245 C   0  0  0  0  0  0  0  0  0  0  0  0
   -6.6146   17.6421    3.4107 C   0  0  0  0  0  0  0  0  0  0  0  0
   -5.2959   17.0337    3.6824 N   0  0  0  0  0  0  0  0  0  0  0  0
   -4.1403   16.4297    4.3839 C   0  0  0  0  0  0  0  0  0  0  0  0
   -3.0428   16.9576    3.4513 C   0  0  0  0  0  0  0  0  0  0  0  0
   -2.3399   18.2039    4.0212 C   0  0  0  0  0  0  0  0  0  0  0  0
   -3.2727   19.4111    4.0158 C   0  0  0  0  0  0  0  0  0  0  0  0
   -2.5574   20.5980    4.4628 N   0  0  0  0  0  0  0  0  0  0  0  0
  -10.7681   21.1003    3.0817 N   0  0  0  0  0  0  0  0  0  0  0  0
  -11.1254   19.4193    7.0936 C   0  0  0  0  0  0  0  0  0  0  0  0
  -11.7509   18.8889    7.7947 O   0  0  0  0  0  0  0  0  0  0  0  0
  -11.2338   20.5452    6.0945 C   0  0  2  0  0  0  0  0  0  0  0  0
  -11.9949   21.5750    6.5867 O   0  0  0  0  0  0  0  0  0  0  0  0
  -11.9742   19.9909    4.8825 C   0  0  0  0  0  0  0  0  0  0  0  0
  -12.1065   20.9202    3.6624 C   0  0  0  0  0  0  0  0  0  0  0  0
  1  2  1  1  0  0  0
  1  3  1  0  0  0  0
  3  4  1  6  0  0  0
  3  5  1  0  0  0  0
  5  6  1  1  0  0  0
  5  7  1  0  0  0  0
  7  8  1  1  0  0  0
  9  7  1  0  0  0  0
  9 10  1  0  0  0  0
  9 11  1  1  0  0  0
 10  1  1  0  0  0  0
 11 12  1  0  0  0  0
 13 14  1  6  0  0  0
 13 15  1  0  0  0  0
 13 22  1  0  0  0  0
 14 32  1  0  0  0  0
 15 16  1  6  0  0  0
 15 17  1  0  0  0  0
 16 23  1  0  0  0  0
 17 18  1  1  0  0  0
 17 19  1  0  0  0  0
 19  2  1  1  0  0  0
 19 20  1  0  0  0  0
 20 21  1  1  0  0  0
 20 22  1  0  0  0  0
 23 24  1  0  0  0  0
 24 25  1  0  0  0  0
 25 26  1  0  0  0  0
 26 27  1  0  0  0  0
 27 28  1  0  0  0  0
 28 29  1  0  0  0  0
 29 30  1  0  0  0  0
 31 37  1  0  0  0  0
 32 33  2  0  0  0  0
 34 32  1  1  0  0  0
 34 35  1  0  0  0  0
 34 36  1  0  0  0  0
 36 37  1  0  0  0  0
M  END
>  <CHROM.1>
161.49406237,65.93279325,-167.65657798,75.72575081,-171.73300725,79.63166860
-60.86751004,48.84358802,-149.16120214,99.54037269,-69.67325132,-175.70603349
-139.50544048,-174.85185866,68.39459789,-6.71516094,18.02873254,8.04017014
-1.03743431,0.29894001,-1.35521138

>  <Name>
1o9m_lig

>  <RI>
0

>  <Rbt.Current_Directory>
/home/itssahil/PROJECTS/Mol_Feturizer/New_Systems/rnas/1o9m

>  <Rbt.Executable>
rbdock ($Id: //depot/dev/client3/rdock/2013.1/src/exe/rbdock.cxx#4 $)

>  <Rbt.Library>
libRbt.so (2013.1, Build901 2013/11/27)

>  <Rbt.Parameter_File>
/export/apps/rDock/src/rDock_2013.1_src/data/scripts/dock_solv.prm

>  <Rbt.Receptor>
prm/pocket_docking_6.prm

>  <SCORE>
-4.94888

>  <SCORE.INTER>
-1.26173

>  <SCORE.INTER.CONST>
1

>  <SCORE.INTER.POLAR>
-1.64176

>  <SCORE.INTER.ROT>
15

>  <SCORE.INTER.SOLV>
15.8877

>  <SCORE.INTER.VDW>
-14.2645

>  <SCORE.INTER.norm>
-0.0341008

>  <SCORE.INTRA>
-3.68715

>  <SCORE.INTRA.DIHEDRAL>
-8.72179

>  <SCORE.INTRA.DIHEDRAL.0>
21.5987

>  <SCORE.INTRA.POLAR>
0

>  <SCORE.INTRA.POLAR.0>
0

>  <SCORE.INTRA.REPUL>
0

>  <SCORE.INTRA.REPUL.0>
0

>  <SCORE.INTRA.SOLV>
3.11563

>  <SCORE.INTRA.SOLV.lig_0>
-108.715

>  <SCORE.INTRA.VDW>
-0.884067

>  <SCORE.INTRA.VDW.0>
-3.9485

>  <SCORE.INTRA.norm>
-0.0996526

>  <SCORE.RESTR>
0

>  <SCORE.RESTR.CAVITY>
0

>  <SCORE.RESTR.norm>
0

>  <SCORE.SYSTEM>
0

>  <SCORE.SYSTEM.CONST>
0

>  <SCORE.SYSTEM.DIHEDRAL>
0

>  <SCORE.SYSTEM.SOLV>
0

>  <SCORE.SYSTEM.norm>
0

>  <SCORE.heavy>
37

>  <SCORE.norm>
-0.133753

>  <RMSD>
7.093

$$$$
1o9m_lig
 OpenBabel11021811403D
libRbt.so/2013.1/901 2013/11/27
 37 38  0  0  0  0  0  0  0  0999 V2000
   -6.5390   11.2870    2.3963 C   0  0  2  0  0  0  0  0  0  0  0  0
   -5.8186   12.5176    2.0817 O   0  0  0  0  0  0  0  0  0  0  0  0
   -5.8783   10.1519    1.5305 C   0  0  2  0  0  0  0  0  0  0  0  0
   -4.4406   10.0004    1.8149 N   0  0  0  0  0  0  0  0  0  0  0  0
   -6.1152   10.4649    0.0042 C   0  0  1  0  0  0  0  0  0  0  0  0
   -5.5244    9.4445   -0.8051 O   0  0  0  0  0  0  0  0  0  0  0  0
   -7.6566   10.5896   -0.2328 C   0  0  2  0  0  0  0  0  0  0  0  0
   -7.9881   10.8931   -1.5977 O   0  0  0  0  0  0  0  0  0  0  0  0
   -8.2635   11.6806    0.6837 C   0  0  2  0  0  0  0  0  0  0  0  0
   -7.9616   11.4171    2.0617 O   0  0  0  0  0  0  0  0  0  0  0  0
   -9.7574   11.7820    0.5152 C   0  0  0  0  0  0  0  0  0  0  0  0
  -10.3508   10.5737    0.7931 N   0  0  0  0  0  0  0  0  0  0  0  0
   -6.1247   14.7639    5.7804 C   0  0  1  0  0  0  0  0  0  0  0  0
   -5.9771   15.8778    6.7587 N   0  0  0  0  0  0  0  0  0  0  0  0
   -6.9085   15.2678    4.5762 C   0  0  2  0  0  0  0  0  0  0  0  0
   -8.1372   15.7483    5.0340 O   0  0  0  0  0  0  0  0  0  0  0  0
   -7.1043   14.1259    3.5296 C   0  0  1  0  0  0  0  0  0  0  0  0
   -7.8378   14.6268    2.3705 O   0  0  0  0  0  0  0  0  0  0  0  0
   -5.6911   13.5996    3.0480 C   0  0  1  0  0  0  0  0  0  0  0  0
   -4.9055   13.0758    4.2406 C   0  0  1  0  0  0  0  0  0  0  0  0
   -3.6178   12.5840    3.7742 N   0  0  0  0  0  0  0  0  0  0  0  0
   -4.7278   14.2056    5.2900 C   0  0  0  0  0  0  0  0  0  0  0  0
   -9.4331   15.7404    5.6721 C   0  0  0  0  0  0  0  0  0  0  0  0
  -10.0032   17.1401    5.6574 C   0  0  0  0  0  0  0  0  0  0  0  0
  -10.4456   17.5991    4.3245 N   0  0  0  0  0  0  0  0  0  0  0  0
  -10.8808   18.4652    3.2051 C   0  0  0  0  0  0  0  0  0  0  0  0
  -12.3911   18.2449    3.3582 C   0  0  0  0  0  0  0  0  0  0  0  0
  -13.0364   19.2615    4.3186 C   0  0  0  0  0  0  0  0  0  0  0  0
  -12.7561   18.8971    5.7733 C   0  0  0  0  0  0  0  0  0  0  0  0
  -13.4520   19.8166    6.6623 N   0  0  0  0  0  0  0  0  0  0  0  0
   -4.6701   17.8591   12.3343 N   0  0  0  0  0  0  0  0  0  0  0  0
   -5.0223   15.3816    8.1690 C   0  0  0  0  0  0  0  0  0  0  0  0
   -4.5224   14.4741    8.4702 O   0  0  0  0  0  0  0  0  0  0  0  0
   -5.2705   16.7745    8.6942 C   0  0  2  0  0  0  0  0  0  0  0  0
   -4.4352   17.6861    8.0998 O   0  0  0  0  0  0  0  0  0  0  0  0
   -4.9186   16.7567   10.1776 C   0  0  0  0  0  0  0  0  0  0  0  0
   -5.1993   18.0431   10.9752 C   0  0  0  0  0  0  0  0  0  0  0  0
  1  2  1  6  0  0  0
  1  3  1  0  0  0  0
  3  4  1  6  0  0  0
  3  5  1  0  0  0  0
  5  6  1  6  0  0  0
  5  7  1  0  0  0  0
  7  8  1  6  0  0  0
  9  7  1  0  0  0  0
  9 10  1  0  0  0  0
  9 11  1  1  0  0  0
 10  1  1  0  0  0  0
 11 12  1  0  0  0  0
 13 14  1  1  0  0  0
 13 15  1  0  0  0  0
 13 22  1  0  0  0  0
 14 32  1  0  0  0  0
 15 16  1  1  0  0  0
 15 17  1  0  0  0  0
 16 23  1  0  0  0  0
 17 18  1  6  0  0  0
 17 19  1  0  0  0  0
 19  2  1  6  0  0  0
 19 20  1  0  0  0  0
 20 21  1  6  0  0  0
 20 22  1  0  0  0  0
 23 24  1  0  0  0  0
 24 25  1  0  0  0  0
 25 26  1  0  0  0  0
 26 27  1  0  0  0  0
 27 28  1  0  0  0  0
 28 29  1  0  0  0  0
 29 30  1  0  0  0  0
 31 37  1  0  0  0  0
 32 33  2  0  0  0  0
 34 32  1  6  0  0  0
 34 35  1  0  0  0  0
 34 36  1  0  0  0  0
 36 37  1  0  0  0  0
M  END
>  <CHROM.1>
-151.37627200,58.26668803,-178.00618431,-59.24735284,175.55434464,-57.78641313
71.99867126,-164.74108899,-96.88931606,89.27687643,-77.40004777,-176.06142270
-79.01543883,-175.09378745,-174.49561623,-7.40290063,14.50450551,4.28898689
-1.49041092,-0.51256022,0.87231037

>  <Name>
1o9m_lig

>  <RI>
0

>  <Rbt.Current_Directory>
/home/itssahil/PROJECTS/Mol_Feturizer/New_Systems/rnas/1o9m

>  <Rbt.Executable>
rbdock ($Id: //depot/dev/client3/rdock/2013.1/src/exe/rbdock.cxx#4 $)

>  <Rbt.Library>
libRbt.so (2013.1, Build901 2013/11/27)

>  <Rbt.Parameter_File>
/export/apps/rDock/src/rDock_2013.1_src/data/scripts/dock_solv.prm

>  <Rbt.Receptor>
prm/pocket_docking_6.prm

>  <SCORE>
-3.71316

>  <SCORE.INTER>
0.179482

>  <SCORE.INTER.CONST>
1

>  <SCORE.INTER.POLAR>
0

>  <SCORE.INTER.ROT>
15

>  <SCORE.INTER.SOLV>
21.4119

>  <SCORE.INTER.VDW>
-20.6177

>  <SCORE.INTER.norm>
0.00485086

>  <SCORE.INTRA>
-3.89264

>  <SCORE.INTRA.DIHEDRAL>
-11.4489

>  <SCORE.INTRA.DIHEDRAL.0>
21.5987

>  <SCORE.INTRA.POLAR>
0

>  <SCORE.INTRA.POLAR.0>
0

>  <SCORE.INTRA.REPUL>
0

>  <SCORE.INTRA.REPUL.0>
0

>  <SCORE.INTRA.SOLV>
3.06311

>  <SCORE.INTRA.SOLV.lig_0>
-108.715

>  <SCORE.INTRA.VDW>
0.300275

>  <SCORE.INTRA.VDW.0>
-3.9485

>  <SCORE.INTRA.norm>
-0.105207

>  <SCORE.RESTR>
0

>  <SCORE.RESTR.CAVITY>
0

>  <SCORE.RESTR.norm>
0

>  <SCORE.SYSTEM>
0

>  <SCORE.SYSTEM.CONST>
0

>  <SCORE.SYSTEM.DIHEDRAL>
0

>  <SCORE.SYSTEM.SOLV>
0

>  <SCORE.SYSTEM.norm>
0

>  <SCORE.heavy>
37

>  <SCORE.norm>
-0.100356

>  <RMSD>
7.099

$$$$
1o9m_lig
 OpenBabel11021811403D
libRbt.so/2013.1/901 2013/11/27
 37 38  0  0  0  0  0  0  0  0999 V2000
   -5.5814    9.6360    2.0117 C   0  0  2  0  0  0  0  0  0  0  0  0
   -4.3894   10.4491    1.7875 O   0  0  0  0  0  0  0  0  0  0  0  0
   -5.5016    8.4404    0.9926 C   0  0  2  0  0  0  0  0  0  0  0  0
   -4.2809    7.6353    1.1735 N   0  0  0  0  0  0  0  0  0  0  0  0
   -5.5826    9.0089   -0.4751 C   0  0  1  0  0  0  0  0  0  0  0  0
   -5.5138    7.9392   -1.4219 O   0  0  0  0  0  0  0  0  0  0  0  0
   -6.9077    9.8302   -0.6057 C   0  0  2  0  0  0  0  0  0  0  0  0
   -7.0767   10.4125   -1.9085 O   0  0  0  0  0  0  0  0  0  0  0  0
   -6.9588   10.9566    0.4559 C   0  0  2  0  0  0  0  0  0  0  0  0
   -6.7983   10.4215    1.7778 O   0  0  0  0  0  0  0  0  0  0  0  0
   -8.2514   11.7280    0.3881 C   0  0  0  0  0  0  0  0  0  0  0  0
   -9.3190   10.8865    0.5914 N   0  0  0  0  0  0  0  0  0  0  0  0
   -2.9631   14.1023    3.6423 C   0  0  1  0  0  0  0  0  0  0  0  0
   -2.9046   15.5322    4.0564 N   0  0  0  0  0  0  0  0  0  0  0  0
   -4.2475   13.4867    4.1806 C   0  0  2  0  0  0  0  0  0  0  0  0
   -4.2513   13.6457    5.5680 O   0  0  0  0  0  0  0  0  0  0  0  0
   -4.3432   11.9792    3.7857 C   0  0  1  0  0  0  0  0  0  0  0  0
   -5.5886   11.4060    4.2886 O   0  0  0  0  0  0  0  0  0  0  0  0
   -4.3208   11.8414    2.2089 C   0  0  1  0  0  0  0  0  0  0  0  0
   -3.0328   12.4365    1.6605 C   0  0  1  0  0  0  0  0  0  0  0  0
   -3.0259   12.2861    0.2131 N   0  0  0  0  0  0  0  0  0  0  0  0
   -2.9280   13.9301    2.0698 C   0  0  0  0  0  0  0  0  0  0  0  0
   -3.7727   13.5991    6.9301 C   0  0  0  0  0  0  0  0  0  0  0  0
   -4.7846   14.2626    7.8358 C   0  0  0  0  0  0  0  0  0  0  0  0
   -4.3765   14.3267    9.2543 N   0  0  0  0  0  0  0  0  0  0  0  0
   -3.6521   14.6750   10.4979 C   0  0  0  0  0  0  0  0  0  0  0  0
   -4.1267   13.4870   11.3443 C   0  0  0  0  0  0  0  0  0  0  0  0
   -3.3768   13.3877   12.6860 C   0  0  0  0  0  0  0  0  0  0  0  0
   -3.6296   14.6201   13.5488 C   0  0  0  0  0  0  0  0  0  0  0  0
   -2.6485   14.6887   14.6226 N   0  0  0  0  0  0  0  0  0  0  0  0
   -3.5912   19.2163    0.9576 N   0  0  0  0  0  0  0  0  0  0  0  0
   -4.5037   16.2963    3.9813 C   0  0  0  0  0  0  0  0  0  0  0  0
   -5.4959   15.9639    3.7186 O   0  0  0  0  0  0  0  0  0  0  0  0
   -3.8041   17.5584    4.4233 C   0  0  2  0  0  0  0  0  0  0  0  0
   -4.6831   18.4364    5.0051 O   0  0  0  0  0  0  0  0  0  0  0  0
   -3.2752   18.2350    3.1634 C   0  0  0  0  0  0  0  0  0  0  0  0
   -4.3012   18.5525    2.0606 C   0  0  0  0  0  0  0  0  0  0  0  0
  1  2  1  6  0  0  0
  1  3  1  0  0  0  0
  3  4  1  6  0  0  0
  3  5  1  0  0  0  0
  5  6  1  6  0  0  0
  5  7  1  0  0  0  0
  7  8  1  6  0  0  0
  9  7  1  0  0  0  0
  9 10  1  0  0  0  0
  9 11  1  1  0  0  0
 10  1  1  0  0  0  0
 11 12  1  0  0  0  0
 13 14  1  6  0  0  0
 13 15  1  0  0  0  0
 13 22  1  0  0  0  0
 14 32  1  0  0  0  0
 15 16  1  1  0  0  0
 15 17  1  0  0  0  0
 16 23  1  0  0  0  0
 17 18  1  6  0  0  0
 17 19  1  0  0  0  0
 19  2  1  1  0  0  0
 19 20  1  0  0  0  0
 20 21  1  6  0  0  0
 20 22  1  0  0  0  0
 23 24  1  0  0  0  0
 24 25  1  0  0  0  0
 25 26  1  0  0  0  0
 26 27  1  0  0  0  0
 27 28  1  0  0  0  0
 28 29  1  0  0  0  0
 29 30  1  0  0  0  0
 31 37  1  0  0  0  0
 32 33  2  0  0  0  0
 34 32  1  6  0  0  0
 34 35  1  0  0  0  0
 34 36  1  0  0  0  0
 36 37  1  0  0  0  0
M  END
>  <CHROM.1>
159.32065721,59.19979000,-38.46428253,-50.34617035,175.01638467,66.79240287
-177.55082821,66.72828640,-160.55103930,170.75152011,62.45553841,-164.35235535
-157.78448852,55.99494842,179.04885485,-4.71834520,13.10903230,3.95094060
2.60529611,-1.33060669,-0.99970452

>  <Name>
1o9m_lig

>  <RI>
0

>  <Rbt.Current_Directory>
/home/itssahil/PROJECTS/Mol_Feturizer/New_Systems/rnas/1o9m

>  <Rbt.Executable>
rbdock ($Id: //depot/dev/client3/rdock/2013.1/src/exe/rbdock.cxx#4 $)

>  <Rbt.Library>
libRbt.so (2013.1, Build901 2013/11/27)

>  <Rbt.Parameter_File>
/export/apps/rDock/src/rDock_2013.1_src/data/scripts/dock_solv.prm

>  <Rbt.Receptor>
prm/pocket_docking_7.prm

>  <SCORE>
-19.119

>  <SCORE.INTER>
-13.2614

>  <SCORE.INTER.CONST>
1

>  <SCORE.INTER.POLAR>
-1.43934

>  <SCORE.INTER.ROT>
15

>  <SCORE.INTER.SOLV>
23.7165

>  <SCORE.INTER.VDW>
-25.5486

>  <SCORE.INTER.norm>
-0.358416

>  <SCORE.INTRA>
-5.85764

>  <SCORE.INTRA.DIHEDRAL>
-15.4241

>  <SCORE.INTRA.DIHEDRAL.0>
21.5987

>  <SCORE.INTRA.POLAR>
0

>  <SCORE.INTRA.POLAR.0>
0

>  <SCORE.INTRA.REPUL>
0

>  <SCORE.INTRA.REPUL.0>
0

>  <SCORE.INTRA.SOLV>
1.0284

>  <SCORE.INTRA.SOLV.lig_0>
-108.715

>  <SCORE.INTRA.VDW>
1.34022

>  <SCORE.INTRA.VDW.0>
-3.9485

>  <SCORE.INTRA.norm>
-0.158315

>  <SCORE.RESTR>
0

>  <SCORE.RESTR.CAVITY>
0

>  <SCORE.RESTR.norm>
0

>  <SCORE.SYSTEM>
0

>  <SCORE.SYSTEM.CONST>
0

>  <SCORE.SYSTEM.DIHEDRAL>
0

>  <SCORE.SYSTEM.SOLV>
0

>  <SCORE.SYSTEM.norm>
0

>  <SCORE.heavy>
37

>  <SCORE.norm>
-0.516731

>  <RMSD>
7.105

$$$$
1o9m_lig
 OpenBabel11021811403D
libRbt.so/2013.1/901 2013/11/27
 37 38  0  0  0  0  0  0  0  0999 V2000
   -5.5408    9.9254    2.2688 C   0  0  2  0  0  0  0  0  0  0  0  0
   -4.3289   10.6499    1.8963 O   0  0  0  0  0  0  0  0  0  0  0  0
   -5.6675    8.7241    1.2612 C   0  0  2  0  0  0  0  0  0  0  0  0
   -4.4944    7.8337    1.3062 N   0  0  0  0  0  0  0  0  0  0  0  0
   -5.8810    9.2925   -0.1932 C   0  0  1  0  0  0  0  0  0  0  0  0
   -6.0010    8.2177   -1.1291 O   0  0  0  0  0  0  0  0  0  0  0  0
   -7.1504   10.2067   -0.1761 C   0  0  2  0  0  0  0  0  0  0  0  0
   -7.4306   10.7957   -1.4565 O   0  0  0  0  0  0  0  0  0  0  0  0
   -6.9952   11.3371    0.8711 C   0  0  2  0  0  0  0  0  0  0  0  0
   -6.7179   10.7958    2.1709 O   0  0  0  0  0  0  0  0  0  0  0  0
   -8.2286   12.1993    0.9472 C   0  0  0  0  0  0  0  0  0  0  0  0
   -8.0012   13.2847    1.7593 N   0  0  0  0  0  0  0  0  0  0  0  0
   -2.4524   14.3177    3.2551 C   0  0  1  0  0  0  0  0  0  0  0  0
   -2.2730   15.7582    3.5900 N   0  0  0  0  0  0  0  0  0  0  0  0
   -3.6041   13.7606    4.0808 C   0  0  2  0  0  0  0  0  0  0  0  0
   -3.3045   13.9664    5.4292 O   0  0  0  0  0  0  0  0  0  0  0  0
   -3.8174   12.2443    3.7757 C   0  0  1  0  0  0  0  0  0  0  0  0
   -4.9376   11.7272    4.5568 O   0  0  0  0  0  0  0  0  0  0  0  0
   -4.1391   12.0529    2.2376 C   0  0  1  0  0  0  0  0  0  0  0  0
   -2.9865   12.5889    1.4021 C   0  0  1  0  0  0  0  0  0  0  0  0
   -3.2957   12.3897   -0.0058 N   0  0  0  0  0  0  0  0  0  0  0  0
   -2.7616   14.0915    1.7199 C   0  0  0  0  0  0  0  0  0  0  0  0
   -2.5271   13.9992    6.6462 C   0  0  0  0  0  0  0  0  0  0  0  0
   -1.4318   15.0317    6.5089 C   0  0  0  0  0  0  0  0  0  0  0  0
   -0.8279   15.4470    7.7918 N   0  0  0  0  0  0  0  0  0  0  0  0
    0.1165   15.9914    8.7939 C   0  0  0  0  0  0  0  0  0  0  0  0
    1.0676   14.7890    8.8451 C   0  0  0  0  0  0  0  0  0  0  0  0
    0.7284   13.8229    9.9957 C   0  0  0  0  0  0  0  0  0  0  0  0
    1.0667   14.4405   11.3490 C   0  0  0  0  0  0  0  0  0  0  0  0
    0.7438   13.5076   12.4194 N   0  0  0  0  0  0  0  0  0  0  0  0
   -5.9462   20.3318    4.1670 N   0  0  0  0  0  0  0  0  0  0  0  0
   -3.8262   16.6140    3.6310 C   0  0  0  0  0  0  0  0  0  0  0  0
   -4.8567   16.3312    3.4817 O   0  0  0  0  0  0  0  0  0  0  0  0
   -3.0166   17.8495    3.9404 C   0  0  2  0  0  0  0  0  0  0  0  0
   -2.6497   17.8855    5.2618 O   0  0  0  0  0  0  0  0  0  0  0  0
   -3.9303   19.0472    3.7044 C   0  0  0  0  0  0  0  0  0  0  0  0
   -5.1576   19.1786    4.6244 C   0  0  0  0  0  0  0  0  0  0  0  0
  1  2  1  6  0  0  0
  1  3  1  0  0  0  0
  3  4  1  6  0  0  0
  3  5  1  0  0  0  0
  5  6  1  6  0  0  0
  5  7  1  0  0  0  0
  7  8  1  6  0  0  0
  9  7  1  0  0  0  0
  9 10  1  0  0  0  0
  9 11  1  1  0  0  0
 10  1  1  0  0  0  0
 11 12  1  0  0  0  0
 13 14  1  6  0  0  0
 13 15  1  0  0  0  0
 13 22  1  0  0  0  0
 14 32  1  0  0  0  0
 15 16  1  1  0  0  0
 15 17  1  0  0  0  0
 16 23  1  0  0  0  0
 17 18  1  1  0  0  0
 17 19  1  0  0  0  0
 19  2  1  1  0  0  0
 19 20  1  0  0  0  0
 20 21  1  6  0  0  0
 20 22  1  0  0  0  0
 23 24  1  0  0  0  0
 24 25  1  0  0  0  0
 25 26  1  0  0  0  0
 26 27  1  0  0  0  0
 27 28  1  0  0  0  0
 28 29  1  0  0  0  0
 29 30  1  0  0  0  0
 31 37  1  0  0  0  0
 32 33  2  0  0  0  0
 34 32  1  1  0  0  0
 34 35  1  0  0  0  0
 34 36  1  0  0  0  0
 36 37  1  0  0  0  0
M  END
>  <CHROM.1>
156.44837823,-172.60980476,-45.56015955,-44.58966363,66.11354167,74.25262461
162.83982663,159.40682540,-78.33792671,-95.32489106,-70.57914982,-179.72547429
-79.21977331,64.57661342,-175.93619932,-3.81504616,13.51519447,3.80225690
-2.49727433,-0.90768433,0.15529945

>  <Name>
1o9m_lig

>  <RI>
0

>  <Rbt.Current_Directory>
/home/itssahil/PROJECTS/Mol_Feturizer/New_Systems/rnas/1o9m

>  <Rbt.Executable>
rbdock ($Id: //depot/dev/client3/rdock/2013.1/src/exe/rbdock.cxx#4 $)

>  <Rbt.Library>
libRbt.so (2013.1, Build901 2013/11/27)

>  <Rbt.Parameter_File>
/export/apps/rDock/src/rDock_2013.1_src/data/scripts/dock_solv.prm

>  <Rbt.Receptor>
prm/pocket_docking_6.prm

>  <SCORE>
-15.5491

>  <SCORE.INTER>
-11.3167

>  <SCORE.INTER.CONST>
1

>  <SCORE.INTER.POLAR>
-1.12614

>  <SCORE.INTER.ROT>
15

>  <SCORE.INTER.SOLV>
21.9349

>  <SCORE.INTER.VDW>
-24.7023

>  <SCORE.INTER.norm>
-0.305856

>  <SCORE.INTRA>
-4.23244

>  <SCORE.INTRA.DIHEDRAL>
-9.79227

>  <SCORE.INTRA.DIHEDRAL.0>
21.5987

>  <SCORE.INTRA.POLAR>
0

>  <SCORE.INTRA.POLAR.0>
0

>  <SCORE.INTRA.REPUL>
0

>  <SCORE.INTRA.REPUL.0>
0

>  <SCORE.INTRA.SOLV>
1.19684

>  <SCORE.INTRA.SOLV.lig_0>
-108.715

>  <SCORE.INTRA.VDW>
0.0652795

>  <SCORE.INTRA.VDW.0>
-3.9485

>  <SCORE.INTRA.norm>
-0.11439

>  <SCORE.RESTR>
0

>  <SCORE.RESTR.CAVITY>
0

>  <SCORE.RESTR.norm>
0

>  <SCORE.SYSTEM>
0

>  <SCORE.SYSTEM.CONST>
0

>  <SCORE.SYSTEM.DIHEDRAL>
0

>  <SCORE.SYSTEM.SOLV>
0

>  <SCORE.SYSTEM.norm>
0

>  <SCORE.heavy>
37

>  <SCORE.norm>
-0.420246

>  <RMSD>
7.137

$$$$
1o9m_lig
 OpenBabel11021811403D
libRbt.so/2013.1/901 2013/11/27
 37 38  0  0  0  0  0  0  0  0999 V2000
   -7.4707   17.2345    4.1720 C   0  0  2  0  0  0  0  0  0  0  0  0
   -7.2871   18.0892    5.3416 O   0  0  0  0  0  0  0  0  0  0  0  0
   -6.9856   18.0701    2.9307 C   0  0  2  0  0  0  0  0  0  0  0  0
   -5.5776   18.4859    3.0554 N   0  0  0  0  0  0  0  0  0  0  0  0
   -7.9243   19.3239    2.7557 C   0  0  1  0  0  0  0  0  0  0  0  0
   -7.5041   20.1001    1.6303 O   0  0  0  0  0  0  0  0  0  0  0  0
   -9.3952   18.8126    2.6058 C   0  0  2  0  0  0  0  0  0  0  0  0
  -10.3444   19.8810    2.4561 O   0  0  0  0  0  0  0  0  0  0  0  0
   -9.8008   17.9507    3.8268 C   0  0  2  0  0  0  0  0  0  0  0  0
   -8.8818   16.8647    4.0145 O   0  0  0  0  0  0  0  0  0  0  0  0
  -11.1954   17.3989    3.6809 C   0  0  0  0  0  0  0  0  0  0  0  0
  -11.6102   16.8347    4.8636 N   0  0  0  0  0  0  0  0  0  0  0  0
   -6.6579   17.4862    9.5914 C   0  0  1  0  0  0  0  0  0  0  0  0
   -6.8402   16.9603   10.9734 N   0  0  0  0  0  0  0  0  0  0  0  0
   -6.3619   16.3211    8.6570 C   0  0  2  0  0  0  0  0  0  0  0  0
   -5.2270   15.6637    9.1366 O   0  0  0  0  0  0  0  0  0  0  0  0
   -6.1445   16.8282    7.1964 C   0  0  1  0  0  0  0  0  0  0  0  0
   -5.8831   15.7002    6.3064 O   0  0  0  0  0  0  0  0  0  0  0  0
   -7.4453   17.5790    6.6964 C   0  0  1  0  0  0  0  0  0  0  0  0
   -7.7408   18.7574    7.6118 C   0  0  1  0  0  0  0  0  0  0  0  0
   -8.9299   19.4415    7.1263 N   0  0  0  0  0  0  0  0  0  0  0  0
   -7.9375   18.2555    9.0674 C   0  0  0  0  0  0  0  0  0  0  0  0
   -3.9267   15.0348    9.1189 C   0  0  0  0  0  0  0  0  0  0  0  0
   -3.9915   13.7823    8.2753 C   0  0  0  0  0  0  0  0  0  0  0  0
   -3.6946   14.0007    6.8446 N   0  0  0  0  0  0  0  0  0  0  0  0
   -3.4959   13.7703    5.3955 C   0  0  0  0  0  0  0  0  0  0  0  0
   -2.3125   14.7270    5.2020 C   0  0  0  0  0  0  0  0  0  0  0  0
   -2.7177   16.2024    5.3787 C   0  0  0  0  0  0  0  0  0  0  0  0
   -1.5000   17.1186    5.3059 C   0  0  0  0  0  0  0  0  0  0  0  0
   -0.9605   17.1269    3.9535 N   0  0  0  0  0  0  0  0  0  0  0  0
   -3.3405   14.7334   13.2596 N   0  0  0  0  0  0  0  0  0  0  0  0
   -5.9641   17.9421   12.1630 C   0  0  0  0  0  0  0  0  0  0  0  0
   -5.3476   18.8263   12.1160 O   0  0  0  0  0  0  0  0  0  0  0  0
   -6.4752   16.9621   13.1906 C   0  0  2  0  0  0  0  0  0  0  0  0
   -6.3885   17.4802   14.4579 O   0  0  0  0  0  0  0  0  0  0  0  0
   -5.5494   15.7515   13.1456 C   0  0  0  0  0  0  0  0  0  0  0  0
   -4.0591   16.0034   13.4381 C   0  0  0  0  0  0  0  0  0  0  0  0
  1  2  1  1  0  0  0
  1  3  1  0  0  0  0
  3  4  1  1  0  0  0
  3  5  1  0  0  0  0
  5  6  1  6  0  0  0
  5  7  1  0  0  0  0
  7  8  1  1  0  0  0
  9  7  1  0  0  0  0
  9 10  1  0  0  0  0
  9 11  1  6  0  0  0
 10  1  1  0  0  0  0
 11 12  1  0  0  0  0
 13 14  1  1  0  0  0
 13 15  1  0  0  0  0
 13 22  1  0  0  0  0
 14 32  1  0  0  0  0
 15 16  1  1  0  0  0
 15 17  1  0  0  0  0
 16 23  1  0  0  0  0
 17 18  1  6  0  0  0
 17 19  1  0  0  0  0
 19  2  1  6  0  0  0
 19 20  1  0  0  0  0
 20 21  1  6  0  0  0
 20 22  1  0  0  0  0
 23 24  1  0  0  0  0
 24 25  1  0  0  0  0
 25 26  1  0  0  0  0
 26 27  1  0  0  0  0
 27 28  1  0  0  0  0
 28 29  1  0  0  0  0
 29 30  1  0  0  0  0
 31 37  1  0  0  0  0
 32 33  2  0  0  0  0
 34 32  1  6  0  0  0
 34 35  1  0  0  0  0
 34 36  1  0  0  0  0
 36 37  1  0  0  0  0
M  END
>  <CHROM.1>
-170.77970427,-169.81720525,134.82503527,-131.71529008,-65.22088342,81.51339385
89.57873652,-177.12613948,-143.79415222,-67.83505027,174.86676929,68.42665067
-162.17812842,59.29704939,-176.45588530,-6.29434409,17.07259104,7.15276747
-1.97704203,-0.43092829,1.62846821

>  <Name>
1o9m_lig

>  <RI>
0

>  <Rbt.Current_Directory>
/home/itssahil/PROJECTS/Mol_Feturizer/New_Systems/rnas/1o9m

>  <Rbt.Executable>
rbdock ($Id: //depot/dev/client3/rdock/2013.1/src/exe/rbdock.cxx#4 $)

>  <Rbt.Library>
libRbt.so (2013.1, Build901 2013/11/27)

>  <Rbt.Parameter_File>
/export/apps/rDock/src/rDock_2013.1_src/data/scripts/dock_solv.prm

>  <Rbt.Receptor>
prm/pocket_docking_7.prm

>  <SCORE>
-7.38433

>  <SCORE.INTER>
-4.73346

>  <SCORE.INTER.CONST>
1

>  <SCORE.INTER.POLAR>
-0.665045

>  <SCORE.INTER.ROT>
15

>  <SCORE.INTER.SOLV>
13.9283

>  <SCORE.INTER.VDW>
-19.1816

>  <SCORE.INTER.norm>
-0.127931

>  <SCORE.INTRA>
-2.65088

>  <SCORE.INTRA.DIHEDRAL>
-5.60359

>  <SCORE.INTRA.DIHEDRAL.0>
21.5987

>  <SCORE.INTRA.POLAR>
0

>  <SCORE.INTRA.POLAR.0>
0

>  <SCORE.INTRA.REPUL>
0

>  <SCORE.INTRA.REPUL.0>
0

>  <SCORE.INTRA.SOLV>
2.43357

>  <SCORE.INTRA.SOLV.lig_0>
-108.715

>  <SCORE.INTRA.VDW>
-1.06587

>  <SCORE.INTRA.VDW.0>
-3.9485

>  <SCORE.INTRA.norm>
-0.0716453

>  <SCORE.RESTR>
0

>  <SCORE.RESTR.CAVITY>
0

>  <SCORE.RESTR.norm>
0

>  <SCORE.SYSTEM>
0

>  <SCORE.SYSTEM.CONST>
0

>  <SCORE.SYSTEM.DIHEDRAL>
0

>  <SCORE.SYSTEM.SOLV>
0

>  <SCORE.SYSTEM.norm>
0

>  <SCORE.heavy>
37

>  <SCORE.norm>
-0.199577

>  <RMSD>
7.201

$$$$
1o9m_lig
 OpenBabel11021811403D
libRbt.so/2013.1/901 2013/11/27
 37 38  0  0  0  0  0  0  0  0999 V2000
   -5.8410   20.4356    1.4038 C   0  0  2  0  0  0  0  0  0  0  0  0
   -7.0250   19.5853    1.4911 O   0  0  0  0  0  0  0  0  0  0  0  0
   -5.3046   20.3003   -0.0687 C   0  0  2  0  0  0  0  0  0  0  0  0
   -6.3103   20.7046   -1.0668 N   0  0  0  0  0  0  0  0  0  0  0  0
   -4.8419   18.8137   -0.3134 C   0  0  1  0  0  0  0  0  0  0  0  0
   -4.3475   18.6652   -1.6472 O   0  0  0  0  0  0  0  0  0  0  0  0
   -3.7619   18.4578    0.7610 C   0  0  2  0  0  0  0  0  0  0  0  0
   -3.2790   17.1097    0.6410 O   0  0  0  0  0  0  0  0  0  0  0  0
   -4.3245   18.6622    2.1893 C   0  0  2  0  0  0  0  0  0  0  0  0
   -4.8162   19.9997    2.3590 O   0  0  0  0  0  0  0  0  0  0  0  0
   -3.2852   18.3798    3.2433 C   0  0  0  0  0  0  0  0  0  0  0  0
   -2.2814   19.3170    3.1849 N   0  0  0  0  0  0  0  0  0  0  0  0
  -10.5814   19.5829    3.9754 C   0  0  1  0  0  0  0  0  0  0  0  0
  -11.4385   19.5651    5.1939 N   0  0  0  0  0  0  0  0  0  0  0  0
   -9.6801   20.8091    4.0261 C   0  0  2  0  0  0  0  0  0  0  0  0
  -10.4962   21.9379    4.1266 O   0  0  0  0  0  0  0  0  0  0  0  0
   -8.7743   20.8795    2.7564 C   0  0  1  0  0  0  0  0  0  0  0  0
   -7.8998   22.0469    2.8270 O   0  0  0  0  0  0  0  0  0  0  0  0
   -7.8778   19.5776    2.6715 C   0  0  1  0  0  0  0  0  0  0  0  0
   -8.7678   18.3460    2.6013 C   0  0  1  0  0  0  0  0  0  0  0  0
   -7.9251   17.1632    2.5088 N   0  0  0  0  0  0  0  0  0  0  0  0
   -9.6824   18.2865    3.8540 C   0  0  0  0  0  0  0  0  0  0  0  0
  -11.4950   22.8343    4.6608 C   0  0  0  0  0  0  0  0  0  0  0  0
  -12.8547   22.1823    4.5575 C   0  0  0  0  0  0  0  0  0  0  0  0
  -13.8579   22.7232    5.4976 N   0  0  0  0  0  0  0  0  0  0  0  0
  -14.5274   23.1710    6.7401 C   0  0  0  0  0  0  0  0  0  0  0  0
  -14.5294   21.8186    7.4640 C   0  0  0  0  0  0  0  0  0  0  0  0
  -14.9015   21.9521    8.9526 C   0  0  0  0  0  0  0  0  0  0  0  0
  -16.3796   22.2902    9.1209 C   0  0  0  0  0  0  0  0  0  0  0  0
  -16.5960   22.9687   10.3909 N   0  0  0  0  0  0  0  0  0  0  0  0
  -16.5641   17.3112    6.0980 N   0  0  0  0  0  0  0  0  0  0  0  0
  -12.4323   18.0976    5.2677 C   0  0  0  0  0  0  0  0  0  0  0  0
  -12.5479   17.2230    4.6465 O   0  0  0  0  0  0  0  0  0  0  0  0
  -13.0002   18.6740    6.5416 C   0  0  2  0  0  0  0  0  0  0  0  0
  -12.6431   17.9203    7.6308 O   0  0  0  0  0  0  0  0  0  0  0  0
  -14.5182   18.5899    6.4266 C   0  0  0  0  0  0  0  0  0  0  0  0
  -15.1408   17.1821    6.4427 C   0  0  0  0  0  0  0  0  0  0  0  0
  1  2  1  6  0  0  0
  1  3  1  0  0  0  0
  3  4  1  6  0  0  0
  3  5  1  0  0  0  0
  5  6  1  6  0  0  0
  5  7  1  0  0  0  0
  7  8  1  1  0  0  0
  9  7  1  0  0  0  0
  9 10  1  0  0  0  0
  9 11  1  1  0  0  0
 10  1  1  0  0  0  0
 11 12  1  0  0  0  0
 13 14  1  1  0  0  0
 13 15  1  0  0  0  0
 13 22  1  0  0  0  0
 14 32  1  0  0  0  0
 15 16  1  6  0  0  0
 15 17  1  0  0  0  0
 16 23  1  0  0  0  0
 17 18  1  1  0  0  0
 17 19  1  0  0  0  0
 19  2  1  6  0  0  0
 19 20  1  0  0  0  0
 20 21  1  1  0  0  0
 20 22  1  0  0  0  0
 23 24  1  0  0  0  0
 24 25  1  0  0  0  0
 25 26  1  0  0  0  0
 26 27  1  0  0  0  0
 27 28  1  0  0  0  0
 28 29  1  0  0  0  0
 29 30  1  0  0  0  0
 31 37  1  0  0  0  0
 32 33  2  0  0  0  0
 34 32  1  6  0  0  0
 34 35  1  0  0  0  0
 34 36  1  0  0  0  0
 36 37  1  0  0  0  0
M  END
>  <CHROM.1>
-172.90103285,66.86167782,-175.69265129,57.72353126,-66.78274615,74.45320036
157.73516357,-52.46091329,-61.51215201,167.98858625,71.14854056,-155.23847865
-113.26105378,68.02169575,-170.68769152,-9.72425514,19.82396289,3.96846498
-0.16947039,0.55250769,0.06358430

>  <Name>
1o9m_lig

>  <RI>
0

>  <Rbt.Current_Directory>
/home/itssahil/PROJECTS/Mol_Feturizer/New_Systems/rnas/1o9m

>  <Rbt.Executable>
rbdock ($Id: //depot/dev/client3/rdock/2013.1/src/exe/rbdock.cxx#4 $)

>  <Rbt.Library>
libRbt.so (2013.1, Build901 2013/11/27)

>  <Rbt.Parameter_File>
/export/apps/rDock/src/rDock_2013.1_src/data/scripts/dock_solv.prm

>  <Rbt.Receptor>
prm/pocket_docking_8.prm

>  <SCORE>
-7.9615

>  <SCORE.INTER>
-2.01148

>  <SCORE.INTER.CONST>
1

>  <SCORE.INTER.POLAR>
-1.46366

>  <SCORE.INTER.ROT>
15

>  <SCORE.INTER.SOLV>
20.4232

>  <SCORE.INTER.VDW>
-16.8699

>  <SCORE.INTER.norm>
-0.0543644

>  <SCORE.INTRA>
-5.97385

>  <SCORE.INTRA.DIHEDRAL>
-12.285

>  <SCORE.INTRA.DIHEDRAL.0>
21.5987

>  <SCORE.INTRA.POLAR>
0

>  <SCORE.INTRA.POLAR.0>
0

>  <SCORE.INTRA.REPUL>
0

>  <SCORE.INTRA.REPUL.0>
0

>  <SCORE.INTRA.SOLV>
0.853768

>  <SCORE.INTRA.SOLV.lig_0>
-108.715

>  <SCORE.INTRA.VDW>
-0.258241

>  <SCORE.INTRA.VDW.0>
-3.9485

>  <SCORE.INTRA.norm>
-0.161455

>  <SCORE.RESTR>
0.0238306

>  <SCORE.RESTR.CAVITY>
0.0238306

>  <SCORE.RESTR.norm>
0.000644069

>  <SCORE.SYSTEM>
0

>  <SCORE.SYSTEM.CONST>
0

>  <SCORE.SYSTEM.DIHEDRAL>
0

>  <SCORE.SYSTEM.SOLV>
0

>  <SCORE.SYSTEM.norm>
0

>  <SCORE.heavy>
37

>  <SCORE.norm>
-0.215176

>  <RMSD>
7.208

$$$$
1o9m_lig
 OpenBabel11021811403D
libRbt.so/2013.1/901 2013/11/27
 37 38  0  0  0  0  0  0  0  0999 V2000
   -5.5402    9.9910    2.0064 C   0  0  2  0  0  0  0  0  0  0  0  0
   -4.4382   10.8875    1.6686 O   0  0  0  0  0  0  0  0  0  0  0  0
   -5.4936    8.8165    0.9609 C   0  0  2  0  0  0  0  0  0  0  0  0
   -4.2088    8.0958    0.9903 N   0  0  0  0  0  0  0  0  0  0  0  0
   -5.7755    9.3961   -0.4773 C   0  0  1  0  0  0  0  0  0  0  0  0
   -5.7403    8.3455   -1.4470 O   0  0  0  0  0  0  0  0  0  0  0  0
   -7.1593   10.1251   -0.4447 C   0  0  2  0  0  0  0  0  0  0  0  0
   -7.5111   10.7103   -1.7091 O   0  0  0  0  0  0  0  0  0  0  0  0
   -7.1681   11.2320    0.6383 C   0  0  2  0  0  0  0  0  0  0  0  0
   -6.8259   10.6930    1.9235 O   0  0  0  0  0  0  0  0  0  0  0  0
   -8.5094   11.9127    0.7287 C   0  0  0  0  0  0  0  0  0  0  0  0
   -9.4841   11.0016    1.0591 N   0  0  0  0  0  0  0  0  0  0  0  0
   -2.6984   13.9965    4.1441 C   0  0  1  0  0  0  0  0  0  0  0  0
   -2.5200   15.3111    4.8218 N   0  0  0  0  0  0  0  0  0  0  0  0
   -4.0198   13.3873    4.5927 C   0  0  2  0  0  0  0  0  0  0  0  0
   -3.9906   13.2757    5.9844 O   0  0  0  0  0  0  0  0  0  0  0  0
   -4.2411   11.9958    3.9200 C   0  0  1  0  0  0  0  0  0  0  0  0
   -5.5207   11.4319    4.3409 O   0  0  0  0  0  0  0  0  0  0  0  0
   -4.2528   12.1633    2.3460 C   0  0  1  0  0  0  0  0  0  0  0  0
   -2.9295   12.7540    1.8834 C   0  0  1  0  0  0  0  0  0  0  0  0
   -2.9558   12.8854    0.4344 N   0  0  0  0  0  0  0  0  0  0  0  0
   -2.7001   14.1285    2.5673 C   0  0  0  0  0  0  0  0  0  0  0  0
   -3.8664   13.6802    7.3655 C   0  0  0  0  0  0  0  0  0  0  0  0
   -4.9672   14.6614    7.6972 C   0  0  0  0  0  0  0  0  0  0  0  0
   -4.8330   15.2948    9.0252 N   0  0  0  0  0  0  0  0  0  0  0  0
   -4.3823   16.1742   10.1279 C   0  0  0  0  0  0  0  0  0  0  0  0
   -5.7333   16.3061   10.8425 C   0  0  0  0  0  0  0  0  0  0  0  0
   -5.6471   17.1938   12.0982 C   0  0  0  0  0  0  0  0  0  0  0  0
   -6.9533   17.1595   12.8856 C   0  0  0  0  0  0  0  0  0  0  0  0
   -7.1073   15.8694   13.5429 N   0  0  0  0  0  0  0  0  0  0  0  0
    0.1906   18.8023    3.3883 N   0  0  0  0  0  0  0  0  0  0  0  0
   -3.6164   16.5379    4.1588 C   0  0  0  0  0  0  0  0  0  0  0  0
   -4.3790   16.5462    3.3956 O   0  0  0  0  0  0  0  0  0  0  0  0
   -2.9642   17.4923    5.1290 C   0  0  2  0  0  0  0  0  0  0  0  0
   -3.8888   18.3292    5.7006 O   0  0  0  0  0  0  0  0  0  0  0  0
   -2.0184   18.3703    4.3170 C   0  0  0  0  0  0  0  0  0  0  0  0
   -0.6995   17.7276    3.8509 C   0  0  0  0  0  0  0  0  0  0  0  0
  1  2  1  6  0  0  0
  1  3  1  0  0  0  0
  3  4  1  6  0  0  0
  3  5  1  0  0  0  0
  5  6  1  6  0  0  0
  5  7  1  0  0  0  0
  7  8  1  6  0  0  0
  9  7  1  0  0  0  0
  9 10  1  0  0  0  0
  9 11  1  1  0  0  0
 10  1  1  0  0  0  0
 11 12  1  0  0  0  0
 13 14  1  1  0  0  0
 13 15  1  0  0  0  0
 13 22  1  0  0  0  0
 14 32  1  0  0  0  0
 15 16  1  1  0  0  0
 15 17  1  0  0  0  0
 16 23  1  0  0  0  0
 17 18  1  1  0  0  0
 17 19  1  0  0  0  0
 19  2  1  6  0  0  0
 19 20  1  0  0  0  0
 20 21  1  6  0  0  0
 20 22  1  0  0  0  0
 23 24  1  0  0  0  0
 24 25  1  0  0  0  0
 25 26  1  0  0  0  0
 26 27  1  0  0  0  0
 27 28  1  0  0  0  0
 28 29  1  0  0  0  0
 29 30  1  0  0  0  0
 31 37  1  0  0  0  0
 32 33  2  0  0  0  0
 34 32  1  6  0  0  0
 34 35  1  0  0  0  0
 34 36  1  0  0  0  0
 36 37  1  0  0  0  0
M  END
>  <CHROM.1>
173.74385547,60.46805642,-72.29509542,56.18519194,62.98951424,52.14829144
-171.72929139,77.14606475,145.83119992,-179.99527774,-172.58932616,71.90685016
-139.60425214,-75.09494623,-166.38376381,-4.73842348,13.57743752,4.16423596
1.74893305,-0.78034521,-2.07046613

>  <Name>
1o9m_lig

>  <RI>
0

>  <Rbt.Current_Directory>
/home/itssahil/PROJECTS/Mol_Feturizer/New_Systems/rnas/1o9m

>  <Rbt.Executable>
rbdock ($Id: //depot/dev/client3/rdock/2013.1/src/exe/rbdock.cxx#4 $)

>  <Rbt.Library>
libRbt.so (2013.1, Build901 2013/11/27)

>  <Rbt.Parameter_File>
/export/apps/rDock/src/rDock_2013.1_src/data/scripts/dock_solv.prm

>  <Rbt.Receptor>
prm/pocket_docking_8.prm

>  <SCORE>
-23.6646

>  <SCORE.INTER>
-16.0289

>  <SCORE.INTER.CONST>
1

>  <SCORE.INTER.POLAR>
-1.91816

>  <SCORE.INTER.ROT>
15

>  <SCORE.INTER.SOLV>
25.878

>  <SCORE.INTER.VDW>
-26.5181

>  <SCORE.INTER.norm>
-0.433215

>  <SCORE.INTRA>
-7.63561

>  <SCORE.INTRA.DIHEDRAL>
-15.2569

>  <SCORE.INTRA.DIHEDRAL.0>
21.5987

>  <SCORE.INTRA.POLAR>
0

>  <SCORE.INTRA.POLAR.0>
0

>  <SCORE.INTRA.REPUL>
0

>  <SCORE.INTRA.REPUL.0>
0

>  <SCORE.INTRA.SOLV>
0.423909

>  <SCORE.INTRA.SOLV.lig_0>
-108.715

>  <SCORE.INTRA.VDW>
-0.219123

>  <SCORE.INTRA.VDW.0>
-3.9485

>  <SCORE.INTRA.norm>
-0.206368

>  <SCORE.RESTR>
0

>  <SCORE.RESTR.CAVITY>
0

>  <SCORE.RESTR.norm>
0

>  <SCORE.SYSTEM>
0

>  <SCORE.SYSTEM.CONST>
0

>  <SCORE.SYSTEM.DIHEDRAL>
0

>  <SCORE.SYSTEM.SOLV>
0

>  <SCORE.SYSTEM.norm>
0

>  <SCORE.heavy>
37

>  <SCORE.norm>
-0.639582

>  <RMSD>
7.239

$$$$
1o9m_lig
 OpenBabel11021811403D
libRbt.so/2013.1/901 2013/11/27
 37 38  0  0  0  0  0  0  0  0999 V2000
   -4.4563   17.7418   10.3239 C   0  0  2  0  0  0  0  0  0  0  0  0
   -5.7219   18.4607   10.4399 O   0  0  0  0  0  0  0  0  0  0  0  0
   -3.7486   17.8596   11.7238 C   0  0  2  0  0  0  0  0  0  0  0  0
   -4.5686   17.2973   12.8111 N   0  0  0  0  0  0  0  0  0  0  0  0
   -3.4118   19.3734   12.0044 C   0  0  1  0  0  0  0  0  0  0  0  0
   -2.7650   19.5068   13.2730 O   0  0  0  0  0  0  0  0  0  0  0  0
   -2.5235   19.8996   10.8291 C   0  0  2  0  0  0  0  0  0  0  0  0
   -2.1691   21.2846   10.9749 O   0  0  0  0  0  0  0  0  0  0  0  0
   -3.2442   19.7081    9.4718 C   0  0  2  0  0  0  0  0  0  0  0  0
   -3.6149   18.3353    9.2786 O   0  0  0  0  0  0  0  0  0  0  0  0
   -2.3859   20.1559    8.3171 C   0  0  0  0  0  0  0  0  0  0  0  0
   -1.2112   19.4426    8.2926 N   0  0  0  0  0  0  0  0  0  0  0  0
   -9.1315   18.8867    7.7916 C   0  0  1  0  0  0  0  0  0  0  0  0
   -9.9353   19.2491    6.5907 N   0  0  0  0  0  0  0  0  0  0  0  0
   -8.0188   17.9366    7.3701 C   0  0  2  0  0  0  0  0  0  0  0  0
   -8.6094   16.8264    6.7628 O   0  0  0  0  0  0  0  0  0  0  0  0
   -7.1592   17.5140    8.6031 C   0  0  1  0  0  0  0  0  0  0  0  0
   -6.0830   16.6208    8.1830 O   0  0  0  0  0  0  0  0  0  0  0  0
   -6.5210   18.7997    9.2705 C   0  0  1  0  0  0  0  0  0  0  0  0
   -7.6243   19.7488    9.7132 C   0  0  1  0  0  0  0  0  0  0  0  0
   -7.0172   20.9151   10.3366 N   0  0  0  0  0  0  0  0  0  0  0  0
   -8.4910   20.1535    8.4907 C   0  0  0  0  0  0  0  0  0  0  0  0
   -9.3836   16.0658    5.8096 C   0  0  0  0  0  0  0  0  0  0  0  0
   -8.7306   16.1608    4.4497 C   0  0  0  0  0  0  0  0  0  0  0  0
   -7.3083   15.7613    4.4325 N   0  0  0  0  0  0  0  0  0  0  0  0
   -5.8992   15.5846    4.0133 C   0  0  0  0  0  0  0  0  0  0  0  0
   -5.4551   14.6914    5.1786 C   0  0  0  0  0  0  0  0  0  0  0  0
   -4.0843   14.0366    4.9247 C   0  0  0  0  0  0  0  0  0  0  0  0
   -4.1925   12.9192    3.8917 C   0  0  0  0  0  0  0  0  0  0  0  0
   -5.0529   11.8566    4.3924 N   0  0  0  0  0  0  0  0  0  0  0  0
  -13.4125   19.7802    2.7946 N   0  0  0  0  0  0  0  0  0  0  0  0
  -11.6616   18.9283    6.8433 C   0  0  0  0  0  0  0  0  0  0  0  0
  -12.2545   18.5466    7.6599 O   0  0  0  0  0  0  0  0  0  0  0  0
  -11.8502   19.4116    5.4261 C   0  0  2  0  0  0  0  0  0  0  0  0
  -12.4102   20.6637    5.3983 O   0  0  0  0  0  0  0  0  0  0  0  0
  -12.8494   18.4677    4.7665 C   0  0  0  0  0  0  0  0  0  0  0  0
  -12.9004   18.4722    3.2279 C   0  0  0  0  0  0  0  0  0  0  0  0
  1  2  1  1  0  0  0
  1  3  1  0  0  0  0
  3  4  1  1  0  0  0
  3  5  1  0  0  0  0
  5  6  1  1  0  0  0
  5  7  1  0  0  0  0
  7  8  1  1  0  0  0
  9  7  1  0  0  0  0
  9 10  1  0  0  0  0
  9 11  1  6  0  0  0
 10  1  1  0  0  0  0
 11 12  1  0  0  0  0
 13 14  1  6  0  0  0
 13 15  1  0  0  0  0
 13 22  1  0  0  0  0
 14 32  1  0  0  0  0
 15 16  1  1  0  0  0
 15 17  1  0  0  0  0
 16 23  1  0  0  0  0
 17 18  1  6  0  0  0
 17 19  1  0  0  0  0
 19  2  1  1  0  0  0
 19 20  1  0  0  0  0
 20 21  1  6  0  0  0
 20 22  1  0  0  0  0
 23 24  1  0  0  0  0
 24 25  1  0  0  0  0
 25 26  1  0  0  0  0
 26 27  1  0  0  0  0
 27 28  1  0  0  0  0
 28 29  1  0  0  0  0
 29 30  1  0  0  0  0
 31 37  1  0  0  0  0
 32 33  2  0  0  0  0
 34 32  1  1  0  0  0
 34 35  1  0  0  0  0
 34 36  1  0  0  0  0
 36 37  1  0  0  0  0
M  END
>  <CHROM.1>
167.19930749,59.22495313,126.14502151,60.96974371,64.30031821,69.30131018
54.47770727,-163.57375551,-175.80080854,167.37695639,-73.49365663,-63.13281326
-105.90032114,-162.15119651,-66.76049865,-6.90647987,18.03153022,7.68569810
-0.51061452,0.39975001,-2.33512367

>  <Name>
1o9m_lig

>  <RI>
0

>  <Rbt.Current_Directory>
/home/itssahil/PROJECTS/Mol_Feturizer/New_Systems/rnas/1o9m

>  <Rbt.Executable>
rbdock ($Id: //depot/dev/client3/rdock/2013.1/src/exe/rbdock.cxx#4 $)

>  <Rbt.Library>
libRbt.so (2013.1, Build901 2013/11/27)

>  <Rbt.Parameter_File>
/export/apps/rDock/src/rDock_2013.1_src/data/scripts/dock_solv.prm

>  <Rbt.Receptor>
prm/pocket_docking_6.prm

>  <SCORE>
-13.1275

>  <SCORE.INTER>
-6.76598

>  <SCORE.INTER.CONST>
1

>  <SCORE.INTER.POLAR>
-1.83095

>  <SCORE.INTER.ROT>
15

>  <SCORE.INTER.SOLV>
17.7295

>  <SCORE.INTER.VDW>
-17.9173

>  <SCORE.INTER.norm>
-0.182864

>  <SCORE.INTRA>
-6.36151

>  <SCORE.INTRA.DIHEDRAL>
-14.1234

>  <SCORE.INTRA.DIHEDRAL.0>
21.5987

>  <SCORE.INTRA.POLAR>
0

>  <SCORE.INTRA.POLAR.0>
0

>  <SCORE.INTRA.REPUL>
0

>  <SCORE.INTRA.REPUL.0>
0

>  <SCORE.INTRA.SOLV>
3.65545

>  <SCORE.INTRA.SOLV.lig_0>
-108.715

>  <SCORE.INTRA.VDW>
-1.12755

>  <SCORE.INTRA.VDW.0>
-3.9485

>  <SCORE.INTRA.norm>
-0.171933

>  <SCORE.RESTR>
0

>  <SCORE.RESTR.CAVITY>
0

>  <SCORE.RESTR.norm>
0

>  <SCORE.SYSTEM>
0

>  <SCORE.SYSTEM.CONST>
0

>  <SCORE.SYSTEM.DIHEDRAL>
0

>  <SCORE.SYSTEM.SOLV>
0

>  <SCORE.SYSTEM.norm>
0

>  <SCORE.heavy>
37

>  <SCORE.norm>
-0.354797

>  <RMSD>
7.271

$$$$
1o9m_lig
 OpenBabel11021811403D
libRbt.so/2013.1/901 2013/11/27
 37 38  0  0  0  0  0  0  0  0999 V2000
   -4.8748   15.3160    5.4714 C   0  0  2  0  0  0  0  0  0  0  0  0
   -4.2709   14.7731    6.6850 O   0  0  0  0  0  0  0  0  0  0  0  0
   -5.0171   14.1118    4.4692 C   0  0  2  0  0  0  0  0  0  0  0  0
   -5.8440   13.0239    5.0201 N   0  0  0  0  0  0  0  0  0  0  0  0
   -3.5808   13.5845    4.0911 C   0  0  1  0  0  0  0  0  0  0  0  0
   -3.6834   12.4887    3.1778 O   0  0  0  0  0  0  0  0  0  0  0  0
   -2.7665   14.7789    3.4930 C   0  0  2  0  0  0  0  0  0  0  0  0
   -1.4262   14.4120    3.1268 O   0  0  0  0  0  0  0  0  0  0  0  0
   -2.7059   15.9559    4.4977 C   0  0  2  0  0  0  0  0  0  0  0  0
   -4.0252   16.3616    4.8905 O   0  0  0  0  0  0  0  0  0  0  0  0
   -1.9742   17.1415    3.9237 C   0  0  0  0  0  0  0  0  0  0  0  0
   -1.7756   18.0939    4.8946 N   0  0  0  0  0  0  0  0  0  0  0  0
   -2.3242   16.4519   10.1796 C   0  0  1  0  0  0  0  0  0  0  0  0
   -1.3827   17.2577   11.0065 N   0  0  0  0  0  0  0  0  0  0  0  0
   -3.1304   17.3928    9.2946 C   0  0  2  0  0  0  0  0  0  0  0  0
   -3.7873   18.3045   10.1238 O   0  0  0  0  0  0  0  0  0  0  0  0
   -4.1465   16.5916    8.4210 C   0  0  1  0  0  0  0  0  0  0  0  0
   -4.8979   17.5022    7.5616 O   0  0  0  0  0  0  0  0  0  0  0  0
   -3.3645   15.5610    7.5087 C   0  0  1  0  0  0  0  0  0  0  0  0
   -2.5696   14.6029    8.3828 C   0  0  1  0  0  0  0  0  0  0  0  0
   -1.8714   13.6563    7.5260 N   0  0  0  0  0  0  0  0  0  0  0  0
   -1.5731   15.4010    9.2657 C   0  0  0  0  0  0  0  0  0  0  0  0
   -4.6000   19.4369   10.5028 C   0  0  0  0  0  0  0  0  0  0  0  0
   -4.7397   19.4674   12.0075 C   0  0  0  0  0  0  0  0  0  0  0  0
   -5.5976   18.3973   12.5571 N   0  0  0  0  0  0  0  0  0  0  0  0
   -6.1095   17.0659   12.9539 C   0  0  0  0  0  0  0  0  0  0  0  0
   -6.3779   16.5269   11.5431 C   0  0  0  0  0  0  0  0  0  0  0  0
   -7.5058   17.2942   10.8282 C   0  0  0  0  0  0  0  0  0  0  0  0
   -7.6739   16.8104    9.3912 C   0  0  0  0  0  0  0  0  0  0  0  0
   -8.6082   17.6712    8.6796 N   0  0  0  0  0  0  0  0  0  0  0  0
   -0.1161   20.4324   10.8461 N   0  0  0  0  0  0  0  0  0  0  0  0
   -1.9250   17.3627   12.6922 C   0  0  0  0  0  0  0  0  0  0  0  0
   -2.7627   16.9728   13.2492 O   0  0  0  0  0  0  0  0  0  0  0  0
   -0.7097   18.2286   12.9180 C   0  0  2  0  0  0  0  0  0  0  0  0
   -0.1663   18.0090   14.1583 O   0  0  0  0  0  0  0  0  0  0  0  0
   -1.1884   19.6761   12.8971 C   0  0  0  0  0  0  0  0  0  0  0  0
   -1.4198   20.3131   11.5149 C   0  0  0  0  0  0  0  0  0  0  0  0
  1  2  1  1  0  0  0
  1  3  1  0  0  0  0
  3  4  1  1  0  0  0
  3  5  1  0  0  0  0
  5  6  1  6  0  0  0
  5  7  1  0  0  0  0
  7  8  1  1  0  0  0
  9  7  1  0  0  0  0
  9 10  1  0  0  0  0
  9 11  1  6  0  0  0
 10  1  1  0  0  0  0
 11 12  1  0  0  0  0
 13 14  1  6  0  0  0
 13 15  1  0  0  0  0
 13 22  1  0  0  0  0
 14 32  1  0  0  0  0
 15 16  1  1  0  0  0
 15 17  1  0  0  0  0
 16 23  1  0  0  0  0
 17 18  1  6  0  0  0
 17 19  1  0  0  0  0
 19  2  1  1  0  0  0
 19 20  1  0  0  0  0
 20 21  1  6  0  0  0
 20 22  1  0  0  0  0
 23 24  1  0  0  0  0
 24 25  1  0  0  0  0
 25 26  1  0  0  0  0
 26 27  1  0  0  0  0
 27 28  1  0  0  0  0
 28 29  1  0  0  0  0
 29 30  1  0  0  0  0
 31 37  1  0  0  0  0
 32 33  2  0  0  0  0
 34 32  1  1  0  0  0
 34 35  1  0  0  0  0
 34 36  1  0  0  0  0
 36 37  1  0  0  0  0
M  END
>  <CHROM.1>
146.75095915,-171.69314482,105.51679593,175.58626400,176.40289628,78.12711428
-71.16256085,67.11260193,-68.87299116,-66.30188837,175.46790646,-171.97442089
-144.19035289,-79.94357746,-66.75244010,-3.52787997,16.66123286,8.63450092
1.64161544,-0.12513574,-2.01231254

>  <Name>
1o9m_lig

>  <RI>
0

>  <Rbt.Current_Directory>
/home/itssahil/PROJECTS/Mol_Feturizer/New_Systems/rnas/1o9m

>  <Rbt.Executable>
rbdock ($Id: //depot/dev/client3/rdock/2013.1/src/exe/rbdock.cxx#4 $)

>  <Rbt.Library>
libRbt.so (2013.1, Build901 2013/11/27)

>  <Rbt.Parameter_File>
/export/apps/rDock/src/rDock_2013.1_src/data/scripts/dock_solv.prm

>  <Rbt.Receptor>
prm/pocket_docking_4.prm

>  <SCORE>
-9.67385

>  <SCORE.INTER>
-3.43676

>  <SCORE.INTER.CONST>
1

>  <SCORE.INTER.POLAR>
-0.959166

>  <SCORE.INTER.ROT>
15

>  <SCORE.INTER.SOLV>
16.335

>  <SCORE.INTER.VDW>
-18.139

>  <SCORE.INTER.norm>
-0.0928854

>  <SCORE.INTRA>
-6.71878

>  <SCORE.INTRA.DIHEDRAL>
-9.88907

>  <SCORE.INTRA.DIHEDRAL.0>
21.5987

>  <SCORE.INTRA.POLAR>
0

>  <SCORE.INTRA.POLAR.0>
0

>  <SCORE.INTRA.REPUL>
0

>  <SCORE.INTRA.REPUL.0>
0

>  <SCORE.INTRA.SOLV>
4.89628

>  <SCORE.INTRA.SOLV.lig_0>
-108.715

>  <SCORE.INTRA.VDW>
-4.22238

>  <SCORE.INTRA.VDW.0>
-3.9485

>  <SCORE.INTRA.norm>
-0.181589

>  <SCORE.RESTR>
0.481687

>  <SCORE.RESTR.CAVITY>
0.481687

>  <SCORE.RESTR.norm>
0.0130186

>  <SCORE.SYSTEM>
0

>  <SCORE.SYSTEM.CONST>
0

>  <SCORE.SYSTEM.DIHEDRAL>
0

>  <SCORE.SYSTEM.SOLV>
0

>  <SCORE.SYSTEM.norm>
0

>  <SCORE.heavy>
37

>  <SCORE.norm>
-0.261456

>  <RMSD>
7.311

$$$$
1o9m_lig
 OpenBabel11021811403D
libRbt.so/2013.1/901 2013/11/27
 37 38  0  0  0  0  0  0  0  0999 V2000
   -6.4820   10.9501    0.6471 C   0  0  2  0  0  0  0  0  0  0  0  0
   -6.3274   11.2366    2.0706 O   0  0  0  0  0  0  0  0  0  0  0  0
   -6.8176    9.4172    0.5365 C   0  0  2  0  0  0  0  0  0  0  0  0
   -8.0418    9.0608    1.2749 N   0  0  0  0  0  0  0  0  0  0  0  0
   -5.5876    8.5820    1.0591 C   0  0  1  0  0  0  0  0  0  0  0  0
   -5.8680    7.1825    0.9670 O   0  0  0  0  0  0  0  0  0  0  0  0
   -4.3315    8.9902    0.2207 C   0  0  2  0  0  0  0  0  0  0  0  0
   -3.1403    8.2968    0.6273 O   0  0  0  0  0  0  0  0  0  0  0  0
   -4.0808   10.5152    0.3199 C   0  0  2  0  0  0  0  0  0  0  0  0
   -5.2448   11.2523   -0.0815 O   0  0  0  0  0  0  0  0  0  0  0  0
   -2.9086   10.9434   -0.5246 C   0  0  0  0  0  0  0  0  0  0  0  0
   -2.7341   12.3042   -0.4416 N   0  0  0  0  0  0  0  0  0  0  0  0
   -6.4215   14.7336    4.6363 C   0  0  1  0  0  0  0  0  0  0  0  0
   -6.1729   16.1186    5.1255 N   0  0  0  0  0  0  0  0  0  0  0  0
   -7.1622   14.8068    3.3079 C   0  0  2  0  0  0  0  0  0  0  0  0
   -8.3422   15.5248    3.5134 O   0  0  0  0  0  0  0  0  0  0  0  0
   -7.4615   13.3739    2.7647 C   0  0  1  0  0  0  0  0  0  0  0  0
   -8.1522   13.4573    1.4808 O   0  0  0  0  0  0  0  0  0  0  0  0
   -6.1018   12.5895    2.5601 C   0  0  1  0  0  0  0  0  0  0  0  0
   -5.3610   12.4933    3.8852 C   0  0  1  0  0  0  0  0  0  0  0  0
   -4.1232   11.7567    3.6779 N   0  0  0  0  0  0  0  0  0  0  0  0
   -5.0808   13.9175    4.4351 C   0  0  0  0  0  0  0  0  0  0  0  0
   -9.2122   16.5834    3.9708 C   0  0  0  0  0  0  0  0  0  0  0  0
   -9.4619   16.4166    5.4521 C   0  0  0  0  0  0  0  0  0  0  0  0
  -10.2341   17.5182    6.0630 N   0  0  0  0  0  0  0  0  0  0  0  0
  -10.5881   18.7379    6.8243 C   0  0  0  0  0  0  0  0  0  0  0  0
  -11.9215   19.0296    6.1245 C   0  0  0  0  0  0  0  0  0  0  0  0
  -13.0636   18.1371    6.6454 C   0  0  0  0  0  0  0  0  0  0  0  0
  -14.3771   18.4580    5.9390 C   0  0  0  0  0  0  0  0  0  0  0  0
  -15.4820   17.7858    6.6081 N   0  0  0  0  0  0  0  0  0  0  0  0
   -2.5222   20.8780    5.5528 N   0  0  0  0  0  0  0  0  0  0  0  0
   -5.0032   16.9700    4.0991 C   0  0  0  0  0  0  0  0  0  0  0  0
   -4.4473   16.7211    3.2085 O   0  0  0  0  0  0  0  0  0  0  0  0
   -5.1643   18.1255    5.0565 C   0  0  2  0  0  0  0  0  0  0  0  0
   -6.2680   18.8786    4.7455 O   0  0  0  0  0  0  0  0  0  0  0  0
   -3.9492   19.0272    4.8696 C   0  0  0  0  0  0  0  0  0  0  0  0
   -3.7623   20.1643    5.8903 C   0  0  0  0  0  0  0  0  0  0  0  0
  1  2  1  1  0  0  0
  1  3  1  0  0  0  0
  3  4  1  1  0  0  0
  3  5  1  0  0  0  0
  5  6  1  6  0  0  0
  5  7  1  0  0  0  0
  7  8  1  1  0  0  0
  9  7  1  0  0  0  0
  9 10  1  0  0  0  0
  9 11  1  6  0  0  0
 10  1  1  0  0  0  0
 11 12  1  0  0  0  0
 13 14  1  6  0  0  0
 13 15  1  0  0  0  0
 13 22  1  0  0  0  0
 14 32  1  0  0  0  0
 15 16  1  1  0  0  0
 15 17  1  0  0  0  0
 16 23  1  0  0  0  0
 17 18  1  6  0  0  0
 17 19  1  0  0  0  0
 19  2  1  1  0  0  0
 19 20  1  0  0  0  0
 20 21  1  6  0  0  0
 20 22  1  0  0  0  0
 23 24  1  0  0  0  0
 24 25  1  0  0  0  0
 25 26  1  0  0  0  0
 26 27  1  0  0  0  0
 27 28  1  0  0  0  0
 28 29  1  0  0  0  0
 29 30  1  0  0  0  0
 31 37  1  0  0  0  0
 32 33  2  0  0  0  0
 34 32  1  6  0  0  0
 34 35  1  0  0  0  0
 34 36  1  0  0  0  0
 36 37  1  0  0  0  0
M  END
>  <CHROM.1>
-175.64855359,178.47093370,-68.32110919,47.03209494,-76.51994726,85.43851167
174.33698319,-102.97978277,158.77114390,78.96369272,179.55691110,-169.63463522
-83.17620898,-170.58848221,178.32737487,-6.79551247,14.33790808,3.30845415
1.10137725,-0.17403041,-2.69224917

>  <Name>
1o9m_lig

>  <RI>
0

>  <Rbt.Current_Directory>
/home/itssahil/PROJECTS/Mol_Feturizer/New_Systems/rnas/1o9m

>  <Rbt.Executable>
rbdock ($Id: //depot/dev/client3/rdock/2013.1/src/exe/rbdock.cxx#4 $)

>  <Rbt.Library>
libRbt.so (2013.1, Build901 2013/11/27)

>  <Rbt.Parameter_File>
/export/apps/rDock/src/rDock_2013.1_src/data/scripts/dock_solv.prm

>  <Rbt.Receptor>
prm/pocket_docking_5.prm

>  <SCORE>
-8.07334

>  <SCORE.INTER>
-1.25964

>  <SCORE.INTER.CONST>
1

>  <SCORE.INTER.POLAR>
-0.415555

>  <SCORE.INTER.ROT>
15

>  <SCORE.INTER.SOLV>
21.6864

>  <SCORE.INTER.VDW>
-20.2834

>  <SCORE.INTER.norm>
-0.0340444

>  <SCORE.INTRA>
-6.91692

>  <SCORE.INTRA.DIHEDRAL>
-12.0447

>  <SCORE.INTRA.DIHEDRAL.0>
21.5987

>  <SCORE.INTRA.POLAR>
0

>  <SCORE.INTRA.POLAR.0>
0

>  <SCORE.INTRA.REPUL>
0

>  <SCORE.INTRA.REPUL.0>
0

>  <SCORE.INTRA.SOLV>
-0.0751421

>  <SCORE.INTRA.SOLV.lig_0>
-108.715

>  <SCORE.INTRA.VDW>
-0.857014

>  <SCORE.INTRA.VDW.0>
-3.9485

>  <SCORE.INTRA.norm>
-0.186944

>  <SCORE.RESTR>
0.10322

>  <SCORE.RESTR.CAVITY>
0.10322

>  <SCORE.RESTR.norm>
0.00278972

>  <SCORE.SYSTEM>
0

>  <SCORE.SYSTEM.CONST>
0

>  <SCORE.SYSTEM.DIHEDRAL>
0

>  <SCORE.SYSTEM.SOLV>
0

>  <SCORE.SYSTEM.norm>
0

>  <SCORE.heavy>
37

>  <SCORE.norm>
-0.218198

>  <RMSD>
7.325

$$$$
1o9m_lig
 OpenBabel11021811403D
libRbt.so/2013.1/901 2013/11/27
 37 38  0  0  0  0  0  0  0  0999 V2000
   -5.4402   10.3368    0.9878 C   0  0  2  0  0  0  0  0  0  0  0  0
   -4.6187   10.6299    2.1588 O   0  0  0  0  0  0  0  0  0  0  0  0
   -6.9119   10.7458    1.3640 C   0  0  2  0  0  0  0  0  0  0  0  0
   -7.0175   12.1690    1.7307 N   0  0  0  0  0  0  0  0  0  0  0  0
   -7.4164    9.8273    2.5411 C   0  0  1  0  0  0  0  0  0  0  0  0
   -8.7552   10.1791    2.9008 O   0  0  0  0  0  0  0  0  0  0  0  0
   -7.3000    8.3372    2.0790 C   0  0  2  0  0  0  0  0  0  0  0  0
   -7.7208    7.4057    3.0890 O   0  0  0  0  0  0  0  0  0  0  0  0
   -5.8443    8.0052    1.6677 C   0  0  2  0  0  0  0  0  0  0  0  0
   -5.3801    8.9092    0.6545 O   0  0  0  0  0  0  0  0  0  0  0  0
   -5.7162    6.5905    1.1648 C   0  0  0  0  0  0  0  0  0  0  0  0
   -6.4498    6.4263    0.0141 N   0  0  0  0  0  0  0  0  0  0  0  0
   -2.2710   14.0289    3.4837 C   0  0  1  0  0  0  0  0  0  0  0  0
   -1.9130   15.4312    3.8375 N   0  0  0  0  0  0  0  0  0  0  0  0
   -3.4313   13.5811    4.3621 C   0  0  2  0  0  0  0  0  0  0  0  0
   -3.0375   13.7160    5.6952 O   0  0  0  0  0  0  0  0  0  0  0  0
   -3.8298   12.1066    4.0385 C   0  0  1  0  0  0  0  0  0  0  0  0
   -4.9568   11.6962    4.8714 O   0  0  0  0  0  0  0  0  0  0  0  0
   -4.2542   11.9935    2.5176 C   0  0  1  0  0  0  0  0  0  0  0  0
   -3.0959   12.4206    1.6290 C   0  0  1  0  0  0  0  0  0  0  0  0
   -3.5018   12.2949    0.2372 N   0  0  0  0  0  0  0  0  0  0  0  0
   -2.6867   13.8799    1.9643 C   0  0  0  0  0  0  0  0  0  0  0  0
   -2.6582   14.3660    6.9281 C   0  0  0  0  0  0  0  0  0  0  0  0
   -3.8559   15.0918    7.4966 C   0  0  0  0  0  0  0  0  0  0  0  0
   -3.6423   15.6436    8.8504 N   0  0  0  0  0  0  0  0  0  0  0  0
   -3.4224   15.7482   10.3109 C   0  0  0  0  0  0  0  0  0  0  0  0
   -4.0316   17.1426   10.5048 C   0  0  0  0  0  0  0  0  0  0  0  0
   -3.8519   17.6651   11.9425 C   0  0  0  0  0  0  0  0  0  0  0  0
   -4.4647   19.0529   12.1029 C   0  0  0  0  0  0  0  0  0  0  0  0
   -4.1720   19.5787   13.4289 N   0  0  0  0  0  0  0  0  0  0  0  0
    0.0695   19.1805    3.1776 N   0  0  0  0  0  0  0  0  0  0  0  0
   -3.3076   16.5164    3.6830 C   0  0  0  0  0  0  0  0  0  0  0  0
   -4.3429   16.3926    3.4059 O   0  0  0  0  0  0  0  0  0  0  0  0
   -2.3606   17.6186    4.0905 C   0  0  2  0  0  0  0  0  0  0  0  0
   -2.8538   18.3295    5.1551 O   0  0  0  0  0  0  0  0  0  0  0  0
   -2.2772   18.5866    2.9155 C   0  0  0  0  0  0  0  0  0  0  0  0
   -1.2785   19.7512    3.0423 C   0  0  0  0  0  0  0  0  0  0  0  0
  1  2  1  1  0  0  0
  1  3  1  0  0  0  0
  3  4  1  1  0  0  0
  3  5  1  0  0  0  0
  5  6  1  6  0  0  0
  5  7  1  0  0  0  0
  7  8  1  1  0  0  0
  9  7  1  0  0  0  0
  9 10  1  0  0  0  0
  9 11  1  6  0  0  0
 10  1  1  0  0  0  0
 11 12  1  0  0  0  0
 13 14  1  1  0  0  0
 13 15  1  0  0  0  0
 13 22  1  0  0  0  0
 14 32  1  0  0  0  0
 15 16  1  1  0  0  0
 15 17  1  0  0  0  0
 16 23  1  0  0  0  0
 17 18  1  1  0  0  0
 17 19  1  0  0  0  0
 19  2  1  6  0  0  0
 19 20  1  0  0  0  0
 20 21  1  6  0  0  0
 20 22  1  0  0  0  0
 23 24  1  0  0  0  0
 24 25  1  0  0  0  0
 25 26  1  0  0  0  0
 26 27  1  0  0  0  0
 27 28  1  0  0  0  0
 28 29  1  0  0  0  0
 29 30  1  0  0  0  0
 31 37  1  0  0  0  0
 32 33  2  0  0  0  0
 34 32  1  6  0  0  0
 34 35  1  0  0  0  0
 34 36  1  0  0  0  0
 36 37  1  0  0  0  0
M  END
>  <CHROM.1>
-74.58139080,64.02972479,-56.41469779,68.41215916,68.58395903,159.68466571
172.12724175,-68.56606000,-154.25439637,-174.33299995,179.88301604,-174.58971195
-126.84295995,-175.30996169,61.33798129,-4.29246389,13.53559101,4.33854423
-2.07343854,0.99780897,1.10154438

>  <Name>
1o9m_lig

>  <RI>
0

>  <Rbt.Current_Directory>
/home/itssahil/PROJECTS/Mol_Feturizer/New_Systems/rnas/1o9m

>  <Rbt.Executable>
rbdock ($Id: //depot/dev/client3/rdock/2013.1/src/exe/rbdock.cxx#4 $)

>  <Rbt.Library>
libRbt.so (2013.1, Build901 2013/11/27)

>  <Rbt.Parameter_File>
/export/apps/rDock/src/rDock_2013.1_src/data/scripts/dock_solv.prm

>  <Rbt.Receptor>
prm/pocket_docking_7.prm

>  <SCORE>
-15.8479

>  <SCORE.INTER>
-10.3889

>  <SCORE.INTER.CONST>
1

>  <SCORE.INTER.POLAR>
-0.872628

>  <SCORE.INTER.ROT>
15

>  <SCORE.INTER.SOLV>
23.4445

>  <SCORE.INTER.VDW>
-25.4321

>  <SCORE.INTER.norm>
-0.280782

>  <SCORE.INTRA>
-5.45895

>  <SCORE.INTRA.DIHEDRAL>
-14.4416

>  <SCORE.INTRA.DIHEDRAL.0>
21.5987

>  <SCORE.INTRA.POLAR>
0

>  <SCORE.INTRA.POLAR.0>
0

>  <SCORE.INTRA.REPUL>
0

>  <SCORE.INTRA.REPUL.0>
0

>  <SCORE.INTRA.SOLV>
4.71633

>  <SCORE.INTRA.SOLV.lig_0>
-108.715

>  <SCORE.INTRA.VDW>
-0.596329

>  <SCORE.INTRA.VDW.0>
-3.9485

>  <SCORE.INTRA.norm>
-0.147539

>  <SCORE.RESTR>
0

>  <SCORE.RESTR.CAVITY>
0

>  <SCORE.RESTR.norm>
0

>  <SCORE.SYSTEM>
0

>  <SCORE.SYSTEM.CONST>
0

>  <SCORE.SYSTEM.DIHEDRAL>
0

>  <SCORE.SYSTEM.SOLV>
0

>  <SCORE.SYSTEM.norm>
0

>  <SCORE.heavy>
37

>  <SCORE.norm>
-0.428321

>  <RMSD>
7.328

$$$$
1o9m_lig
 OpenBabel11021811403D
libRbt.so/2013.1/901 2013/11/27
 37 38  0  0  0  0  0  0  0  0999 V2000
   -6.2103   18.8421    5.0480 C   0  0  2  0  0  0  0  0  0  0  0  0
   -6.7465   17.4966    5.2337 O   0  0  0  0  0  0  0  0  0  0  0  0
   -6.7784   19.3611    3.6759 C   0  0  2  0  0  0  0  0  0  0  0  0
   -8.2515   19.3806    3.6550 N   0  0  0  0  0  0  0  0  0  0  0  0
   -6.2157   18.4598    2.5119 C   0  0  1  0  0  0  0  0  0  0  0  0
   -6.7172   18.9135    1.2517 O   0  0  0  0  0  0  0  0  0  0  0  0
   -4.6531   18.5019    2.5768 C   0  0  2  0  0  0  0  0  0  0  0  0
   -4.0311   17.6949    1.5634 O   0  0  0  0  0  0  0  0  0  0  0  0
   -4.1515   18.0351    3.9656 C   0  0  2  0  0  0  0  0  0  0  0  0
   -4.7437   18.8172    5.0129 O   0  0  0  0  0  0  0  0  0  0  0  0
   -2.6508   18.1197    4.0733 C   0  0  0  0  0  0  0  0  0  0  0  0
   -2.2417   19.4300    4.0026 N   0  0  0  0  0  0  0  0  0  0  0  0
   -5.4999   16.5327    9.2756 C   0  0  1  0  0  0  0  0  0  0  0  0
   -5.3520   15.7823   10.5541 N   0  0  0  0  0  0  0  0  0  0  0  0
   -4.9470   15.6826    8.1397 C   0  0  2  0  0  0  0  0  0  0  0  0
   -3.6159   15.3825    8.4367 O   0  0  0  0  0  0  0  0  0  0  0  0
   -5.0644   16.4386    6.7787 C   0  0  1  0  0  0  0  0  0  0  0  0
   -4.5513   15.6051    5.6949 O   0  0  0  0  0  0  0  0  0  0  0  0
   -6.5840   16.7728    6.4869 C   0  0  1  0  0  0  0  0  0  0  0  0
   -7.1427   17.6381    7.6063 C   0  0  1  0  0  0  0  0  0  0  0  0
   -8.5340   17.9457    7.3111 N   0  0  0  0  0  0  0  0  0  0  0  0
   -7.0080   16.8947    8.9622 C   0  0  0  0  0  0  0  0  0  0  0  0
   -2.4813   14.8809    9.1767 C   0  0  0  0  0  0  0  0  0  0  0  0
   -1.2342   15.0290    8.3357 C   0  0  0  0  0  0  0  0  0  0  0  0
    0.0138   14.6571    9.0337 N   0  0  0  0  0  0  0  0  0  0  0  0
    0.9812   14.2985   10.0958 C   0  0  0  0  0  0  0  0  0  0  0  0
    0.3460   12.9625   10.5012 C   0  0  0  0  0  0  0  0  0  0  0  0
    1.1457   12.2452   11.6050 C   0  0  0  0  0  0  0  0  0  0  0  0
    1.0446   12.9934   12.9306 C   0  0  0  0  0  0  0  0  0  0  0  0
    1.7971   12.2906   13.9602 N   0  0  0  0  0  0  0  0  0  0  0  0
   -3.1379   13.5434   12.9823 N   0  0  0  0  0  0  0  0  0  0  0  0
   -5.8051   16.7799   11.9491 C   0  0  0  0  0  0  0  0  0  0  0  0
   -6.1682   17.7874   12.0801 O   0  0  0  0  0  0  0  0  0  0  0  0
   -5.4292   15.5853   12.7912 C   0  0  2  0  0  0  0  0  0  0  0  0
   -6.2043   15.5094   13.9205 O   0  0  0  0  0  0  0  0  0  0  0  0
   -3.9941   15.8062   13.2562 C   0  0  0  0  0  0  0  0  0  0  0  0
   -3.3016   14.6266   13.9625 C   0  0  0  0  0  0  0  0  0  0  0  0
  1  2  1  6  0  0  0
  1  3  1  0  0  0  0
  3  4  1  1  0  0  0
  3  5  1  0  0  0  0
  5  6  1  6  0  0  0
  5  7  1  0  0  0  0
  7  8  1  6  0  0  0
  9  7  1  0  0  0  0
  9 10  1  0  0  0  0
  9 11  1  6  0  0  0
 10  1  1  0  0  0  0
 11 12  1  0  0  0  0
 13 14  1  1  0  0  0
 13 15  1  0  0  0  0
 13 22  1  0  0  0  0
 14 32  1  0  0  0  0
 15 16  1  1  0  0  0
 15 17  1  0  0  0  0
 16 23  1  0  0  0  0
 17 18  1  6  0  0  0
 17 19  1  0  0  0  0
 19  2  1  6  0  0  0
 19 20  1  0  0  0  0
 20 21  1  6  0  0  0
 20 22  1  0  0  0  0
 23 24  1  0  0  0  0
 24 25  1  0  0  0  0
 25 26  1  0  0  0  0
 26 27  1  0  0  0  0
 27 28  1  0  0  0  0
 28 29  1  0  0  0  0
 29 30  1  0  0  0  0
 31 37  1  0  0  0  0
 32 33  2  0  0  0  0
 34 32  1  6  0  0  0
 34 35  1  0  0  0  0
 34 36  1  0  0  0  0
 36 37  1  0  0  0  0
M  END
>  <CHROM.1>
-171.28675514,65.23923530,173.55881901,56.56291607,175.14536593,-65.32742777
174.92875833,-12.66121381,64.86452730,178.11136749,69.17697997,179.46527788
-147.71553205,-171.18752142,65.99837713,-4.16233589,16.39712692,8.04513691
2.02318119,0.38290152,-1.27818300

>  <Name>
1o9m_lig

>  <RI>
0

>  <Rbt.Current_Directory>
/home/itssahil/PROJECTS/Mol_Feturizer/New_Systems/rnas/1o9m

>  <Rbt.Executable>
rbdock ($Id: //depot/dev/client3/rdock/2013.1/src/exe/rbdock.cxx#4 $)

>  <Rbt.Library>
libRbt.so (2013.1, Build901 2013/11/27)

>  <Rbt.Parameter_File>
/export/apps/rDock/src/rDock_2013.1_src/data/scripts/dock_solv.prm

>  <Rbt.Receptor>
prm/pocket_docking_8.prm

>  <SCORE>
-6.97164

>  <SCORE.INTER>
0.308431

>  <SCORE.INTER.CONST>
1

>  <SCORE.INTER.POLAR>
-0.748331

>  <SCORE.INTER.ROT>
15

>  <SCORE.INTER.SOLV>
8.73614

>  <SCORE.INTER.VDW>
-13.812

>  <SCORE.INTER.norm>
0.00833597

>  <SCORE.INTRA>
-7.28007

>  <SCORE.INTRA.DIHEDRAL>
-16.9042

>  <SCORE.INTRA.DIHEDRAL.0>
21.5987

>  <SCORE.INTRA.POLAR>
0

>  <SCORE.INTRA.POLAR.0>
0

>  <SCORE.INTRA.REPUL>
0

>  <SCORE.INTRA.REPUL.0>
0

>  <SCORE.INTRA.SOLV>
3.21858

>  <SCORE.INTRA.SOLV.lig_0>
-108.715

>  <SCORE.INTRA.VDW>
-0.437274

>  <SCORE.INTRA.VDW.0>
-3.9485

>  <SCORE.INTRA.norm>
-0.196759

>  <SCORE.RESTR>
0

>  <SCORE.RESTR.CAVITY>
0

>  <SCORE.RESTR.norm>
0

>  <SCORE.SYSTEM>
0

>  <SCORE.SYSTEM.CONST>
0

>  <SCORE.SYSTEM.DIHEDRAL>
0

>  <SCORE.SYSTEM.SOLV>
0

>  <SCORE.SYSTEM.norm>
0

>  <SCORE.heavy>
37

>  <SCORE.norm>
-0.188423

>  <RMSD>
7.384

$$$$
1o9m_lig
 OpenBabel11021811403D
libRbt.so/2013.1/901 2013/11/27
 37 38  0  0  0  0  0  0  0  0999 V2000
   -4.7618   17.0176    9.5060 C   0  0  2  0  0  0  0  0  0  0  0  0
   -6.1238   17.4553    9.7988 O   0  0  0  0  0  0  0  0  0  0  0  0
   -4.2510   16.2664   10.7902 C   0  0  2  0  0  0  0  0  0  0  0  0
   -5.1037   15.1163   11.1384 N   0  0  0  0  0  0  0  0  0  0  0  0
   -4.1754   17.2878   11.9881 C   0  0  1  0  0  0  0  0  0  0  0  0
   -3.7111   16.6280   13.1690 O   0  0  0  0  0  0  0  0  0  0  0  0
   -3.2399   18.4673   11.5627 C   0  0  2  0  0  0  0  0  0  0  0  0
   -3.1120   19.4727   12.5813 O   0  0  0  0  0  0  0  0  0  0  0  0
   -3.7578   19.1339   10.2643 C   0  0  2  0  0  0  0  0  0  0  0  0
   -3.8978   18.1668    9.2134 O   0  0  0  0  0  0  0  0  0  0  0  0
   -2.8427   20.2381    9.8016 C   0  0  0  0  0  0  0  0  0  0  0  0
   -2.9609   21.3312   10.6266 N   0  0  0  0  0  0  0  0  0  0  0  0
   -9.6809   18.4374    7.5178 C   0  0  1  0  0  0  0  0  0  0  0  0
  -10.5478   19.0328    6.4626 N   0  0  0  0  0  0  0  0  0  0  0  0
   -8.6310   17.5576    6.8530 C   0  0  2  0  0  0  0  0  0  0  0  0
   -9.2973   16.5918    6.0956 O   0  0  0  0  0  0  0  0  0  0  0  0
   -7.7084   16.8958    7.9247 C   0  0  1  0  0  0  0  0  0  0  0  0
   -6.6928   16.0724    7.2743 O   0  0  0  0  0  0  0  0  0  0  0  0
   -6.9848   18.0219    8.7698 C   0  0  1  0  0  0  0  0  0  0  0  0
   -8.0239   18.8965    9.4546 C   0  0  1  0  0  0  0  0  0  0  0  0
   -7.3382   19.9142   10.2368 N   0  0  0  0  0  0  0  0  0  0  0  0
   -8.9535   19.5389    8.3904 C   0  0  0  0  0  0  0  0  0  0  0  0
  -10.2162   16.0361    5.1296 C   0  0  0  0  0  0  0  0  0  0  0  0
  -10.1944   16.8831    3.8780 C   0  0  0  0  0  0  0  0  0  0  0  0
   -8.8462   17.0863    3.3086 N   0  0  0  0  0  0  0  0  0  0  0  0
   -7.4080   17.4114    3.1733 C   0  0  0  0  0  0  0  0  0  0  0  0
   -7.4948   18.8815    3.6026 C   0  0  0  0  0  0  0  0  0  0  0  0
   -8.4057   19.7089    2.6765 C   0  0  0  0  0  0  0  0  0  0  0  0
   -7.8337   19.7799    1.2640 C   0  0  0  0  0  0  0  0  0  0  0  0
   -8.6851   20.6069    0.4206 N   0  0  0  0  0  0  0  0  0  0  0  0
  -15.8910   19.3682    3.6999 N   0  0  0  0  0  0  0  0  0  0  0  0
  -12.2647   18.9266    6.8959 C   0  0  0  0  0  0  0  0  0  0  0  0
  -12.8154   18.5447    7.7415 O   0  0  0  0  0  0  0  0  0  0  0  0
  -12.5325   19.5799    5.5621 C   0  0  2  0  0  0  0  0  0  0  0  0
  -12.3718   20.9404    5.6338 O   0  0  0  0  0  0  0  0  0  0  0  0
  -13.9995   19.3267    5.2325 C   0  0  0  0  0  0  0  0  0  0  0  0
  -14.4344   19.5528    3.7732 C   0  0  0  0  0  0  0  0  0  0  0  0
  1  2  1  1  0  0  0
  1  3  1  0  0  0  0
  3  4  1  1  0  0  0
  3  5  1  0  0  0  0
  5  6  1  1  0  0  0
  5  7  1  0  0  0  0
  7  8  1  1  0  0  0
  9  7  1  0  0  0  0
  9 10  1  0  0  0  0
  9 11  1  6  0  0  0
 10  1  1  0  0  0  0
 11 12  1  0  0  0  0
 13 14  1  6  0  0  0
 13 15  1  0  0  0  0
 13 22  1  0  0  0  0
 14 32  1  0  0  0  0
 15 16  1  1  0  0  0
 15 17  1  0  0  0  0
 16 23  1  0  0  0  0
 17 18  1  6  0  0  0
 17 19  1  0  0  0  0
 19  2  1  1  0  0  0
 19 20  1  0  0  0  0
 20 21  1  6  0  0  0
 20 22  1  0  0  0  0
 23 24  1  0  0  0  0
 24 25  1  0  0  0  0
 25 26  1  0  0  0  0
 26 27  1  0  0  0  0
 27 28  1  0  0  0  0
 28 29  1  0  0  0  0
 29 30  1  0  0  0  0
 31 37  1  0  0  0  0
 32 33  2  0  0  0  0
 34 32  1  1  0  0  0
 34 35  1  0  0  0  0
 34 36  1  0  0  0  0
 36 37  1  0  0  0  0
M  END
>  <CHROM.1>
-171.13602837,-72.63373574,134.85379867,52.19517273,42.45394229,83.52930622
53.67212784,-50.86385310,-60.19501437,-60.54752603,-64.42790602,-177.91222760
-81.67089689,-163.97596513,-175.18639175,-7.96653246,18.37775469,7.34818814
-0.73868154,0.03836121,-1.48132648

>  <Name>
1o9m_lig

>  <RI>
0

>  <Rbt.Current_Directory>
/home/itssahil/PROJECTS/Mol_Feturizer/New_Systems/rnas/1o9m

>  <Rbt.Executable>
rbdock ($Id: //depot/dev/client3/rdock/2013.1/src/exe/rbdock.cxx#4 $)

>  <Rbt.Library>
libRbt.so (2013.1, Build901 2013/11/27)

>  <Rbt.Parameter_File>
/export/apps/rDock/src/rDock_2013.1_src/data/scripts/dock_solv.prm

>  <Rbt.Receptor>
prm/pocket_docking_6.prm

>  <SCORE>
-8.37927

>  <SCORE.INTER>
-2.07791

>  <SCORE.INTER.CONST>
1

>  <SCORE.INTER.POLAR>
-1.62011

>  <SCORE.INTER.ROT>
15

>  <SCORE.INTER.SOLV>
14.7314

>  <SCORE.INTER.VDW>
-14.4954

>  <SCORE.INTER.norm>
-0.0561596

>  <SCORE.INTRA>
-6.30137

>  <SCORE.INTRA.DIHEDRAL>
-13.1436

>  <SCORE.INTRA.DIHEDRAL.0>
21.5987

>  <SCORE.INTRA.POLAR>
0

>  <SCORE.INTRA.POLAR.0>
0

>  <SCORE.INTRA.REPUL>
0

>  <SCORE.INTRA.REPUL.0>
0

>  <SCORE.INTRA.SOLV>
1.54114

>  <SCORE.INTRA.SOLV.lig_0>
-108.715

>  <SCORE.INTRA.VDW>
-0.500113

>  <SCORE.INTRA.VDW.0>
-3.9485

>  <SCORE.INTRA.norm>
-0.170307

>  <SCORE.RESTR>
0

>  <SCORE.RESTR.CAVITY>
0

>  <SCORE.RESTR.norm>
0

>  <SCORE.SYSTEM>
0

>  <SCORE.SYSTEM.CONST>
0

>  <SCORE.SYSTEM.DIHEDRAL>
0

>  <SCORE.SYSTEM.SOLV>
0

>  <SCORE.SYSTEM.norm>
0

>  <SCORE.heavy>
37

>  <SCORE.norm>
-0.226467

>  <RMSD>
7.387

$$$$
1o9m_lig
 OpenBabel11021811403D
libRbt.so/2013.1/901 2013/11/27
 37 38  0  0  0  0  0  0  0  0999 V2000
   -5.6612   10.5254    1.0622 C   0  0  2  0  0  0  0  0  0  0  0  0
   -4.7832   10.8023    2.1957 O   0  0  0  0  0  0  0  0  0  0  0  0
   -6.5082    9.2596    1.4554 C   0  0  2  0  0  0  0  0  0  0  0  0
   -7.2949    9.4754    2.6824 N   0  0  0  0  0  0  0  0  0  0  0  0
   -5.5423    8.0253    1.6217 C   0  0  1  0  0  0  0  0  0  0  0  0
   -6.2902    6.8595    1.9780 O   0  0  0  0  0  0  0  0  0  0  0  0
   -4.7578    7.8382    0.2812 C   0  0  2  0  0  0  0  0  0  0  0  0
   -3.8290    6.7426    0.3270 O   0  0  0  0  0  0  0  0  0  0  0  0
   -3.9884    9.1310   -0.0863 C   0  0  2  0  0  0  0  0  0  0  0  0
   -4.8778   10.2555   -0.1486 O   0  0  0  0  0  0  0  0  0  0  0  0
   -3.2688    8.9959   -1.4033 C   0  0  0  0  0  0  0  0  0  0  0  0
   -2.2864    8.0388   -1.3129 N   0  0  0  0  0  0  0  0  0  0  0  0
   -2.1686   14.0550    3.3810 C   0  0  1  0  0  0  0  0  0  0  0  0
   -1.6945   15.4389    3.6630 N   0  0  0  0  0  0  0  0  0  0  0  0
   -3.3803   13.7625    4.2556 C   0  0  2  0  0  0  0  0  0  0  0  0
   -3.0011   13.9404    5.5878 O   0  0  0  0  0  0  0  0  0  0  0  0
   -3.9018   12.3121    4.0067 C   0  0  1  0  0  0  0  0  0  0  0  0
   -5.0761   12.0512    4.8346 O   0  0  0  0  0  0  0  0  0  0  0  0
   -4.3061   12.1475    2.4851 C   0  0  1  0  0  0  0  0  0  0  0  0
   -3.0981   12.4189    1.6014 C   0  0  1  0  0  0  0  0  0  0  0  0
   -3.4873   12.2477    0.2097 N   0  0  0  0  0  0  0  0  0  0  0  0
   -2.5675   13.8540    1.8630 C   0  0  0  0  0  0  0  0  0  0  0  0
   -2.4751   14.5969    6.7620 C   0  0  0  0  0  0  0  0  0  0  0  0
   -2.6649   13.6973    7.9617 C   0  0  0  0  0  0  0  0  0  0  0  0
   -2.0477   14.2070    9.2036 N   0  0  0  0  0  0  0  0  0  0  0  0
   -1.5832   14.3136   10.6055 C   0  0  0  0  0  0  0  0  0  0  0  0
   -2.9341   14.6748   11.2361 C   0  0  0  0  0  0  0  0  0  0  0  0
   -3.2961   16.1582   11.0349 C   0  0  0  0  0  0  0  0  0  0  0  0
   -4.6612   16.4769   11.6369 C   0  0  0  0  0  0  0  0  0  0  0  0
   -5.6954   15.6967   10.9721 N   0  0  0  0  0  0  0  0  0  0  0  0
   -3.8914   20.8744    2.8991 N   0  0  0  0  0  0  0  0  0  0  0  0
   -2.9564   16.6392    3.3263 C   0  0  0  0  0  0  0  0  0  0  0  0
   -3.9771   16.5955    2.9795 O   0  0  0  0  0  0  0  0  0  0  0  0
   -1.9322   17.6724    3.7281 C   0  0  2  0  0  0  0  0  0  0  0  0
   -1.9307   17.8690    5.0858 O   0  0  0  0  0  0  0  0  0  0  0  0
   -2.3612   18.9903    3.0929 C   0  0  0  0  0  0  0  0  0  0  0  0
   -3.7467   19.5342    3.4858 C   0  0  0  0  0  0  0  0  0  0  0  0
  1  2  1  1  0  0  0
  1  3  1  0  0  0  0
  3  4  1  1  0  0  0
  3  5  1  0  0  0  0
  5  6  1  6  0  0  0
  5  7  1  0  0  0  0
  7  8  1  1  0  0  0
  9  7  1  0  0  0  0
  9 10  1  0  0  0  0
  9 11  1  6  0  0  0
 10  1  1  0  0  0  0
 11 12  1  0  0  0  0
 13 14  1  6  0  0  0
 13 15  1  0  0  0  0
 13 22  1  0  0  0  0
 14 32  1  0  0  0  0
 15 16  1  1  0  0  0
 15 17  1  0  0  0  0
 16 23  1  0  0  0  0
 17 18  1  1  0  0  0
 17 19  1  0  0  0  0
 19  2  1  1  0  0  0
 19 20  1  0  0  0  0
 20 21  1  6  0  0  0
 20 22  1  0  0  0  0
 23 24  1  0  0  0  0
 24 25  1  0  0  0  0
 25 26  1  0  0  0  0
 26 27  1  0  0  0  0
 27 28  1  0  0  0  0
 28 29  1  0  0  0  0
 29 30  1  0  0  0  0
 31 37  1  0  0  0  0
 32 33  2  0  0  0  0
 34 32  1  1  0  0  0
 34 35  1  0  0  0  0
 34 36  1  0  0  0  0
 36 37  1  0  0  0  0
M  END
>  <CHROM.1>
-152.18738336,-64.89126720,-59.62259358,55.14119655,175.44290526,156.51835730
174.42830811,-176.52347199,-77.72373524,-78.84262270,178.35604923,-61.87433544
-85.91367887,59.58944418,173.21114135,-3.73733891,13.12193254,3.91421572
2.21402651,-1.33414172,-1.74647801

>  <Name>
1o9m_lig

>  <RI>
0

>  <Rbt.Current_Directory>
/home/itssahil/PROJECTS/Mol_Feturizer/New_Systems/rnas/1o9m

>  <Rbt.Executable>
rbdock ($Id: //depot/dev/client3/rdock/2013.1/src/exe/rbdock.cxx#4 $)

>  <Rbt.Library>
libRbt.so (2013.1, Build901 2013/11/27)

>  <Rbt.Parameter_File>
/export/apps/rDock/src/rDock_2013.1_src/data/scripts/dock_solv.prm

>  <Rbt.Receptor>
prm/pocket_docking_8.prm

>  <SCORE>
-10.9097

>  <SCORE.INTER>
-8.1413

>  <SCORE.INTER.CONST>
1

>  <SCORE.INTER.POLAR>
-1.20347

>  <SCORE.INTER.ROT>
15

>  <SCORE.INTER.SOLV>
17.3152

>  <SCORE.INTER.VDW>
-20.7877

>  <SCORE.INTER.norm>
-0.220035

>  <SCORE.INTRA>
-2.76841

>  <SCORE.INTRA.DIHEDRAL>
-12.6177

>  <SCORE.INTRA.DIHEDRAL.0>
21.5987

>  <SCORE.INTRA.POLAR>
0

>  <SCORE.INTRA.POLAR.0>
0

>  <SCORE.INTRA.REPUL>
0

>  <SCORE.INTRA.REPUL.0>
0

>  <SCORE.INTRA.SOLV>
4.50182

>  <SCORE.INTRA.SOLV.lig_0>
-108.715

>  <SCORE.INTRA.VDW>
1.28955

>  <SCORE.INTRA.VDW.0>
-3.9485

>  <SCORE.INTRA.norm>
-0.0748219

>  <SCORE.RESTR>
0

>  <SCORE.RESTR.CAVITY>
0

>  <SCORE.RESTR.norm>
0

>  <SCORE.SYSTEM>
0

>  <SCORE.SYSTEM.CONST>
0

>  <SCORE.SYSTEM.DIHEDRAL>
0

>  <SCORE.SYSTEM.SOLV>
0

>  <SCORE.SYSTEM.norm>
0

>  <SCORE.heavy>
37

>  <SCORE.norm>
-0.294857

>  <RMSD>
7.463

$$$$
1o9m_lig
 OpenBabel11021811403D
libRbt.so/2013.1/901 2013/11/27
 37 38  0  0  0  0  0  0  0  0999 V2000
   -5.0657   15.9862   11.5684 C   0  0  2  0  0  0  0  0  0  0  0  0
   -4.0668   16.7682   10.8454 O   0  0  0  0  0  0  0  0  0  0  0  0
   -4.6107   15.9677   13.0741 C   0  0  2  0  0  0  0  0  0  0  0  0
   -4.5025   17.3240   13.6395 N   0  0  0  0  0  0  0  0  0  0  0  0
   -3.2363   15.2048   13.1870 C   0  0  1  0  0  0  0  0  0  0  0  0
   -2.8015   15.1729   14.5492 O   0  0  0  0  0  0  0  0  0  0  0  0
   -3.4265   13.7702   12.5929 C   0  0  2  0  0  0  0  0  0  0  0  0
   -2.2222   12.9871   12.6299 O   0  0  0  0  0  0  0  0  0  0  0  0
   -3.9282   13.8472   11.1298 C   0  0  2  0  0  0  0  0  0  0  0  0
   -5.1355   14.6181   11.0428 O   0  0  0  0  0  0  0  0  0  0  0  0
   -4.1734   12.4773   10.5519 C   0  0  0  0  0  0  0  0  0  0  0  0
   -4.3449   12.5588    9.1906 N   0  0  0  0  0  0  0  0  0  0  0  0
   -6.3625   19.2937    8.1673 C   0  0  1  0  0  0  0  0  0  0  0  0
   -6.7045   20.1394    6.9894 N   0  0  0  0  0  0  0  0  0  0  0  0
   -5.9816   17.9024    7.6798 C   0  0  2  0  0  0  0  0  0  0  0  0
   -7.0567   17.3950    6.9470 O   0  0  0  0  0  0  0  0  0  0  0  0
   -5.6321   16.9732    8.8848 C   0  0  1  0  0  0  0  0  0  0  0  0
   -5.2477   15.6492    8.4035 O   0  0  0  0  0  0  0  0  0  0  0  0
   -4.4211   17.5901    9.6965 C   0  0  1  0  0  0  0  0  0  0  0  0
   -4.7967   18.9736   10.2053 C   0  0  1  0  0  0  0  0  0  0  0  0
   -3.6769   19.5154   10.9602 N   0  0  0  0  0  0  0  0  0  0  0  0
   -5.1633   19.8918    9.0087 C   0  0  0  0  0  0  0  0  0  0  0  0
   -8.4146   17.0109    6.6389 C   0  0  0  0  0  0  0  0  0  0  0  0
   -9.3158   18.2165    6.7763 C   0  0  0  0  0  0  0  0  0  0  0  0
  -10.6713   18.0249    6.2204 N   0  0  0  0  0  0  0  0  0  0  0  0
  -11.7853   17.7738    5.2779 C   0  0  0  0  0  0  0  0  0  0  0  0
  -12.9329   18.1681    6.2161 C   0  0  0  0  0  0  0  0  0  0  0  0
  -14.3070   18.0914    5.5245 C   0  0  0  0  0  0  0  0  0  0  0  0
  -15.4280   18.4715    6.4869 C   0  0  0  0  0  0  0  0  0  0  0  0
  -15.5297   17.4835    7.5516 N   0  0  0  0  0  0  0  0  0  0  0  0
  -11.2953   23.2761    5.7178 N   0  0  0  0  0  0  0  0  0  0  0  0
   -7.7185   21.5192    7.4528 C   0  0  0  0  0  0  0  0  0  0  0  0
   -8.1288   21.8861    8.3807 O   0  0  0  0  0  0  0  0  0  0  0  0
   -7.7229   21.8727    5.9856 C   0  0  2  0  0  0  0  0  0  0  0  0
   -6.5945   22.5718    5.6393 O   0  0  0  0  0  0  0  0  0  0  0  0
   -8.9064   22.8071    5.7597 C   0  0  0  0  0  0  0  0  0  0  0  0
  -10.3078   22.2370    6.0440 C   0  0  0  0  0  0  0  0  0  0  0  0
  1  2  1  6  0  0  0
  1  3  1  0  0  0  0
  3  4  1  6  0  0  0
  3  5  1  0  0  0  0
  5  6  1  1  0  0  0
  5  7  1  0  0  0  0
  7  8  1  6  0  0  0
  9  7  1  0  0  0  0
  9 10  1  0  0  0  0
  9 11  1  1  0  0  0
 10  1  1  0  0  0  0
 11 12  1  0  0  0  0
 13 14  1  6  0  0  0
 13 15  1  0  0  0  0
 13 22  1  0  0  0  0
 14 32  1  0  0  0  0
 15 16  1  1  0  0  0
 15 17  1  0  0  0  0
 16 23  1  0  0  0  0
 17 18  1  6  0  0  0
 17 19  1  0  0  0  0
 19  2  1  1  0  0  0
 19 20  1  0  0  0  0
 20 21  1  6  0  0  0
 20 22  1  0  0  0  0
 23 24  1  0  0  0  0
 24 25  1  0  0  0  0
 25 26  1  0  0  0  0
 26 27  1  0  0  0  0
 27 28  1  0  0  0  0
 28 29  1  0  0  0  0
 29 30  1  0  0  0  0
 31 37  1  0  0  0  0
 32 33  2  0  0  0  0
 34 32  1  1  0  0  0
 34 35  1  0  0  0  0
 34 36  1  0  0  0  0
 36 37  1  0  0  0  0
M  END
>  <CHROM.1>
-146.92137450,-167.51715711,158.44427473,-52.30692239,57.16420423,-31.50612334
167.92060924,-61.37472128,-169.43215611,177.26706526,179.27181954,-66.03569387
-82.93531994,-62.45040927,-177.97100217,-7.05367248,17.80348064,8.83329380
0.68384744,0.43403544,2.77157442

>  <Name>
1o9m_lig

>  <RI>
0

>  <Rbt.Current_Directory>
/home/itssahil/PROJECTS/Mol_Feturizer/New_Systems/rnas/1o9m

>  <Rbt.Executable>
rbdock ($Id: //depot/dev/client3/rdock/2013.1/src/exe/rbdock.cxx#4 $)

>  <Rbt.Library>
libRbt.so (2013.1, Build901 2013/11/27)

>  <Rbt.Parameter_File>
/export/apps/rDock/src/rDock_2013.1_src/data/scripts/dock_solv.prm

>  <Rbt.Receptor>
prm/pocket_docking_6.prm

>  <SCORE>
-8.12063

>  <SCORE.INTER>
-3.13335

>  <SCORE.INTER.CONST>
1

>  <SCORE.INTER.POLAR>
-2.00993

>  <SCORE.INTER.ROT>
15

>  <SCORE.INTER.SOLV>
19.3624

>  <SCORE.INTER.VDW>
-15.4433

>  <SCORE.INTER.norm>
-0.0846852

>  <SCORE.INTRA>
-4.98728

>  <SCORE.INTRA.DIHEDRAL>
-10.8694

>  <SCORE.INTRA.DIHEDRAL.0>
21.5987

>  <SCORE.INTRA.POLAR>
0

>  <SCORE.INTRA.POLAR.0>
0

>  <SCORE.INTRA.REPUL>
0

>  <SCORE.INTRA.REPUL.0>
0

>  <SCORE.INTRA.SOLV>
2.01412

>  <SCORE.INTRA.SOLV.lig_0>
-108.715

>  <SCORE.INTRA.VDW>
-0.559624

>  <SCORE.INTRA.VDW.0>
-3.9485

>  <SCORE.INTRA.norm>
-0.134791

>  <SCORE.RESTR>
0

>  <SCORE.RESTR.CAVITY>
0

>  <SCORE.RESTR.norm>
0

>  <SCORE.SYSTEM>
0

>  <SCORE.SYSTEM.CONST>
0

>  <SCORE.SYSTEM.DIHEDRAL>
0

>  <SCORE.SYSTEM.SOLV>
0

>  <SCORE.SYSTEM.norm>
0

>  <SCORE.heavy>
37

>  <SCORE.norm>
-0.219477

>  <RMSD>
7.572

$$$$
1o9m_lig
 OpenBabel11021811403D
libRbt.so/2013.1/901 2013/11/27
 37 38  0  0  0  0  0  0  0  0999 V2000
  -10.4128   19.9114    4.2944 C   0  0  2  0  0  0  0  0  0  0  0  0
  -11.0653   20.3629    5.5202 O   0  0  0  0  0  0  0  0  0  0  0  0
  -11.5615   19.6339    3.2562 C   0  0  2  0  0  0  0  0  0  0  0  0
  -12.3806   20.8313    2.9989 N   0  0  0  0  0  0  0  0  0  0  0  0
  -12.4563   18.4484    3.7832 C   0  0  1  0  0  0  0  0  0  0  0  0
  -13.5087   18.1753    2.8541 O   0  0  0  0  0  0  0  0  0  0  0  0
  -11.5324   17.2069    4.0125 C   0  0  2  0  0  0  0  0  0  0  0  0
  -12.2469   16.0650    4.5129 O   0  0  0  0  0  0  0  0  0  0  0  0
  -10.3884   17.5521    4.9976 C   0  0  2  0  0  0  0  0  0  0  0  0
   -9.6412   18.6872    4.5365 O   0  0  0  0  0  0  0  0  0  0  0  0
   -9.4507   16.3887    5.1923 C   0  0  0  0  0  0  0  0  0  0  0  0
   -8.7995   16.1004    4.0167 N   0  0  0  0  0  0  0  0  0  0  0  0
   -7.8324   20.3888    8.4130 C   0  0  1  0  0  0  0  0  0  0  0  0
   -7.0716   20.6801    9.6604 N   0  0  0  0  0  0  0  0  0  0  0  0
   -9.1062   19.6386    8.7777 C   0  0  2  0  0  0  0  0  0  0  0  0
   -8.7400   18.4808    9.4674 O   0  0  0  0  0  0  0  0  0  0  0  0
   -9.9289   19.2949    7.4961 C   0  0  1  0  0  0  0  0  0  0  0  0
  -11.1578   18.5952    7.8603 O   0  0  0  0  0  0  0  0  0  0  0  0
  -10.3105   20.6304    6.7367 C   0  0  1  0  0  0  0  0  0  0  0  0
   -9.0446   21.3800    6.3501 C   0  0  1  0  0  0  0  0  0  0  0  0
   -9.4173   22.5950    5.6412 N   0  0  0  0  0  0  0  0  0  0  0  0
   -8.2169   21.7045    7.6225 C   0  0  0  0  0  0  0  0  0  0  0  0
   -7.9952   17.2873    9.7952 C   0  0  0  0  0  0  0  0  0  0  0  0
   -7.9211   16.3969    8.5762 C   0  0  0  0  0  0  0  0  0  0  0  0
   -7.0161   16.8930    7.5189 N   0  0  0  0  0  0  0  0  0  0  0  0
   -6.2754   17.0195    6.2430 C   0  0  0  0  0  0  0  0  0  0  0  0
   -5.6127   15.6362    6.2593 C   0  0  0  0  0  0  0  0  0  0  0  0
   -4.7294   15.3957    5.0207 C   0  0  0  0  0  0  0  0  0  0  0  0
   -4.1422   13.9877    5.0301 C   0  0  0  0  0  0  0  0  0  0  0  0
   -3.3062   13.7866    3.8550 N   0  0  0  0  0  0  0  0  0  0  0  0
   -3.4128   18.6801   12.3310 N   0  0  0  0  0  0  0  0  0  0  0  0
   -5.6931   21.7512    9.3455 C   0  0  0  0  0  0  0  0  0  0  0  0
   -5.2924   22.2412    8.4719 O   0  0  0  0  0  0  0  0  0  0  0  0
   -5.3870   21.6146   10.8170 C   0  0  2  0  0  0  0  0  0  0  0  0
   -4.6536   22.6805   11.2732 O   0  0  0  0  0  0  0  0  0  0  0  0
   -4.5094   20.3776   10.9729 C   0  0  0  0  0  0  0  0  0  0  0  0
   -4.3375   19.8210   12.3979 C   0  0  0  0  0  0  0  0  0  0  0  0
  1  2  1  1  0  0  0
  1  3  1  0  0  0  0
  3  4  1  1  0  0  0
  3  5  1  0  0  0  0
  5  6  1  6  0  0  0
  5  7  1  0  0  0  0
  7  8  1  1  0  0  0
  9  7  1  0  0  0  0
  9 10  1  0  0  0  0
  9 11  1  6  0  0  0
 10  1  1  0  0  0  0
 11 12  1  0  0  0  0
 13 14  1  1  0  0  0
 13 15  1  0  0  0  0
 13 22  1  0  0  0  0
 14 32  1  0  0  0  0
 15 16  1  6  0  0  0
 15 17  1  0  0  0  0
 16 23  1  0  0  0  0
 17 18  1  1  0  0  0
 17 19  1  0  0  0  0
 19  2  1  6  0  0  0
 19 20  1  0  0  0  0
 20 21  1  1  0  0  0
 20 22  1  0  0  0  0
 23 24  1  0  0  0  0
 24 25  1  0  0  0  0
 25 26  1  0  0  0  0
 26 27  1  0  0  0  0
 27 28  1  0  0  0  0
 28 29  1  0  0  0  0
 29 30  1  0  0  0  0
 31 37  1  0  0  0  0
 32 33  2  0  0  0  0
 34 32  1  6  0  0  0
 34 35  1  0  0  0  0
 34 36  1  0  0  0  0
 36 37  1  0  0  0  0
M  END
>  <CHROM.1>
175.87202192,64.96808890,-171.89252519,-41.84507560,-53.37337799,-78.23417741
72.52420508,-176.32338021,-56.18651144,179.60637964,-177.09904011,-179.69037893
-156.23551908,-165.60348763,-177.35351939,-8.24715267,18.80934787,6.91781297
2.52093419,0.55975391,-2.49555417

>  <Name>
1o9m_lig

>  <RI>
0

>  <Rbt.Current_Directory>
/home/itssahil/PROJECTS/Mol_Feturizer/New_Systems/rnas/1o9m

>  <Rbt.Executable>
rbdock ($Id: //depot/dev/client3/rdock/2013.1/src/exe/rbdock.cxx#4 $)

>  <Rbt.Library>
libRbt.so (2013.1, Build901 2013/11/27)

>  <Rbt.Parameter_File>
/export/apps/rDock/src/rDock_2013.1_src/data/scripts/dock_solv.prm

>  <Rbt.Receptor>
prm/pocket_docking_6.prm

>  <SCORE>
-14.526

>  <SCORE.INTER>
-7.17191

>  <SCORE.INTER.CONST>
1

>  <SCORE.INTER.POLAR>
-0.63324

>  <SCORE.INTER.ROT>
15

>  <SCORE.INTER.SOLV>
14.8261

>  <SCORE.INTER.VDW>
-21.2125

>  <SCORE.INTER.norm>
-0.193835

>  <SCORE.INTRA>
-7.35412

>  <SCORE.INTRA.DIHEDRAL>
-15.2169

>  <SCORE.INTRA.DIHEDRAL.0>
21.5987

>  <SCORE.INTRA.POLAR>
0

>  <SCORE.INTRA.POLAR.0>
0

>  <SCORE.INTRA.REPUL>
0

>  <SCORE.INTRA.REPUL.0>
0

>  <SCORE.INTRA.SOLV>
3.66532

>  <SCORE.INTRA.SOLV.lig_0>
-108.715

>  <SCORE.INTRA.VDW>
-1.57831

>  <SCORE.INTRA.VDW.0>
-3.9485

>  <SCORE.INTRA.norm>
-0.19876

>  <SCORE.RESTR>
0

>  <SCORE.RESTR.CAVITY>
0

>  <SCORE.RESTR.norm>
0

>  <SCORE.SYSTEM>
0

>  <SCORE.SYSTEM.CONST>
0

>  <SCORE.SYSTEM.DIHEDRAL>
0

>  <SCORE.SYSTEM.SOLV>
0

>  <SCORE.SYSTEM.norm>
0

>  <SCORE.heavy>
37

>  <SCORE.norm>
-0.392596

>  <RMSD>
7.617

$$$$
1o9m_lig
 OpenBabel11021811403D
libRbt.so/2013.1/901 2013/11/27
 37 38  0  0  0  0  0  0  0  0999 V2000
    0.4914   17.6800    9.0891 C   0  0  2  0  0  0  0  0  0  0  0  0
   -0.9617   17.7759    9.1962 O   0  0  0  0  0  0  0  0  0  0  0  0
    0.8066   17.3849    7.5764 C   0  0  2  0  0  0  0  0  0  0  0  0
    0.2873   18.4362    6.6842 N   0  0  0  0  0  0  0  0  0  0  0  0
    0.2073   15.9793    7.1905 C   0  0  1  0  0  0  0  0  0  0  0  0
    0.4828   15.6868    5.8179 O   0  0  0  0  0  0  0  0  0  0  0  0
    0.8152   14.9098    8.1569 C   0  0  2  0  0  0  0  0  0  0  0  0
    0.3209   13.5845    7.9038 O   0  0  0  0  0  0  0  0  0  0  0  0
    0.5239   15.2789    9.6325 C   0  0  2  0  0  0  0  0  0  0  0  0
    1.0049   16.5966    9.9349 O   0  0  0  0  0  0  0  0  0  0  0  0
    1.1475   14.2936   10.5869 C   0  0  0  0  0  0  0  0  0  0  0  0
    0.6987   14.5207   11.8660 N   0  0  0  0  0  0  0  0  0  0  0  0
   -3.8279   20.9962    8.7114 C   0  0  1  0  0  0  0  0  0  0  0  0
   -4.5696   22.1291    8.0902 N   0  0  0  0  0  0  0  0  0  0  0  0
   -3.9906   19.7622    7.8344 C   0  0  2  0  0  0  0  0  0  0  0  0
   -5.3570   19.5044    7.7052 O   0  0  0  0  0  0  0  0  0  0  0  0
   -3.2431   18.5413    8.4576 C   0  0  1  0  0  0  0  0  0  0  0  0
   -3.3882   17.3704    7.5971 O   0  0  0  0  0  0  0  0  0  0  0  0
   -1.7032   18.8789    8.6008 C   0  0  1  0  0  0  0  0  0  0  0  0
   -1.5266   20.0997    9.4910 C   0  0  1  0  0  0  0  0  0  0  0  0
   -0.1052   20.3832    9.6213 N   0  0  0  0  0  0  0  0  0  0  0  0
   -2.2861   21.3085    8.8816 C   0  0  0  0  0  0  0  0  0  0  0  0
   -6.5669   18.8115    7.3276 C   0  0  0  0  0  0  0  0  0  0  0  0
   -6.5373   18.5323    5.8425 C   0  0  0  0  0  0  0  0  0  0  0  0
   -7.8202   18.0482    5.2923 N   0  0  0  0  0  0  0  0  0  0  0  0
   -9.0984   17.9807    4.5478 C   0  0  0  0  0  0  0  0  0  0  0  0
   -9.5846   16.6380    5.1080 C   0  0  0  0  0  0  0  0  0  0  0  0
  -10.7724   16.0670    4.3109 C   0  0  0  0  0  0  0  0  0  0  0  0
  -12.0163   16.9333    4.4829 C   0  0  0  0  0  0  0  0  0  0  0  0
  -11.8806   18.1619    3.7133 N   0  0  0  0  0  0  0  0  0  0  0  0
   -7.7076   24.1959    5.0123 N   0  0  0  0  0  0  0  0  0  0  0  0
   -6.2566   22.1785    8.6363 C   0  0  0  0  0  0  0  0  0  0  0  0
   -6.8561   21.5906    9.3139 O   0  0  0  0  0  0  0  0  0  0  0  0
   -6.4083   23.3658    7.7171 C   0  0  2  0  0  0  0  0  0  0  0  0
   -6.1232   24.5387    8.3690 O   0  0  0  0  0  0  0  0  0  0  0  0
   -7.8782   23.4304    7.3174 C   0  0  0  0  0  0  0  0  0  0  0  0
   -8.2815   24.5340    6.3228 C   0  0  0  0  0  0  0  0  0  0  0  0
  1  2  1  6  0  0  0
  1  3  1  0  0  0  0
  3  4  1  6  0  0  0
  3  5  1  0  0  0  0
  5  6  1  6  0  0  0
  5  7  1  0  0  0  0
  7  8  1  6  0  0  0
  9  7  1  0  0  0  0
  9 10  1  0  0  0  0
  9 11  1  1  0  0  0
 10  1  1  0  0  0  0
 11 12  1  0  0  0  0
 13 14  1  6  0  0  0
 13 15  1  0  0  0  0
 13 22  1  0  0  0  0
 14 32  1  0  0  0  0
 15 16  1  1  0  0  0
 15 17  1  0  0  0  0
 16 23  1  0  0  0  0
 17 18  1  6  0  0  0
 17 19  1  0  0  0  0
 19  2  1  1  0  0  0
 19 20  1  0  0  0  0
 20 21  1  6  0  0  0
 20 22  1  0  0  0  0
 23 24  1  0  0  0  0
 24 25  1  0  0  0  0
 25 26  1  0  0  0  0
 26 27  1  0  0  0  0
 27 28  1  0  0  0  0
 28 29  1  0  0  0  0
 29 30  1  0  0  0  0
 31 37  1  0  0  0  0
 32 33  2  0  0  0  0
 34 32  1  1  0  0  0
 34 35  1  0  0  0  0
 34 36  1  0  0  0  0
 36 37  1  0  0  0  0
M  END
>  <CHROM.1>
-68.59932590,-170.41266649,88.69736742,-173.78008815,-53.98461482,162.29796915
-169.49104513,110.02017784,-173.41736983,-166.93712709,-67.22011325,74.45625047
-89.86556461,-177.45434447,69.86218937,-3.99856087,18.79381821,7.61794552
-0.31487880,-0.40890121,0.25168870

>  <Name>
1o9m_lig

>  <RI>
0

>  <Rbt.Current_Directory>
/home/itssahil/PROJECTS/Mol_Feturizer/New_Systems/rnas/1o9m

>  <Rbt.Executable>
rbdock ($Id: //depot/dev/client3/rdock/2013.1/src/exe/rbdock.cxx#4 $)

>  <Rbt.Library>
libRbt.so (2013.1, Build901 2013/11/27)

>  <Rbt.Parameter_File>
/export/apps/rDock/src/rDock_2013.1_src/data/scripts/dock_solv.prm

>  <Rbt.Receptor>
prm/pocket_docking_8.prm

>  <SCORE>
-2.79864

>  <SCORE.INTER>
0.514336

>  <SCORE.INTER.CONST>
1

>  <SCORE.INTER.POLAR>
0

>  <SCORE.INTER.ROT>
15

>  <SCORE.INTER.SOLV>
7.92266

>  <SCORE.INTER.VDW>
-15.898

>  <SCORE.INTER.norm>
0.013901

>  <SCORE.INTRA>
-3.31298

>  <SCORE.INTRA.DIHEDRAL>
-13.5519

>  <SCORE.INTRA.DIHEDRAL.0>
21.5987

>  <SCORE.INTRA.POLAR>
0

>  <SCORE.INTRA.POLAR.0>
0

>  <SCORE.INTRA.REPUL>
0

>  <SCORE.INTRA.REPUL.0>
0

>  <SCORE.INTRA.SOLV>
5.69964

>  <SCORE.INTRA.SOLV.lig_0>
-108.715

>  <SCORE.INTRA.VDW>
0.613157

>  <SCORE.INTRA.VDW.0>
-3.9485

>  <SCORE.INTRA.norm>
-0.08954

>  <SCORE.RESTR>
0

>  <SCORE.RESTR.CAVITY>
0

>  <SCORE.RESTR.norm>
0

>  <SCORE.SYSTEM>
0

>  <SCORE.SYSTEM.CONST>
0

>  <SCORE.SYSTEM.DIHEDRAL>
0

>  <SCORE.SYSTEM.SOLV>
0

>  <SCORE.SYSTEM.norm>
0

>  <SCORE.heavy>
37

>  <SCORE.norm>
-0.075639

>  <RMSD>
7.621

$$$$
1o9m_lig
 OpenBabel11021811403D
libRbt.so/2013.1/901 2013/11/27
 37 38  0  0  0  0  0  0  0  0999 V2000
   -3.0299   17.0747   11.3778 C   0  0  2  0  0  0  0  0  0  0  0  0
   -4.1403   17.4740   12.2380 O   0  0  0  0  0  0  0  0  0  0  0  0
   -1.8833   16.5792   12.3340 C   0  0  2  0  0  0  0  0  0  0  0  0
   -2.3139   15.4549   13.1834 N   0  0  0  0  0  0  0  0  0  0  0  0
   -1.3905   17.7884   13.2164 C   0  0  1  0  0  0  0  0  0  0  0  0
   -0.3448   17.3631   14.0946 O   0  0  0  0  0  0  0  0  0  0  0  0
   -0.9276   18.9337   12.2564 C   0  0  2  0  0  0  0  0  0  0  0  0
   -0.4710   20.1005   12.9600 O   0  0  0  0  0  0  0  0  0  0  0  0
   -2.0760   19.3431   11.3014 C   0  0  2  0  0  0  0  0  0  0  0  0
   -2.5634   18.2080   10.5712 O   0  0  0  0  0  0  0  0  0  0  0  0
   -1.6385   20.4069   10.3279 C   0  0  0  0  0  0  0  0  0  0  0  0
   -1.4157   21.5924   10.9867 N   0  0  0  0  0  0  0  0  0  0  0  0
   -7.0338   19.0356    9.4079 C   0  0  1  0  0  0  0  0  0  0  0  0
   -8.3168   19.5616    8.8633 N   0  0  0  0  0  0  0  0  0  0  0  0
   -6.5546   19.9612   10.5180 C   0  0  2  0  0  0  0  0  0  0  0  0
   -6.4259   21.2441    9.9816 O   0  0  0  0  0  0  0  0  0  0  0  0
   -5.1994   19.4581   11.1078 C   0  0  1  0  0  0  0  0  0  0  0  0
   -4.7615   20.3411   12.1853 O   0  0  0  0  0  0  0  0  0  0  0  0
   -5.3840   17.9980   11.6907 C   0  0  1  0  0  0  0  0  0  0  0  0
   -5.8447   17.0593   10.5860 C   0  0  1  0  0  0  0  0  0  0  0  0
   -5.9935   15.7216   11.1392 N   0  0  0  0  0  0  0  0  0  0  0  0
   -7.1820   17.5702    9.9862 C   0  0  0  0  0  0  0  0  0  0  0  0
   -5.9022   22.3180    9.1697 C   0  0  0  0  0  0  0  0  0  0  0  0
   -6.0057   21.9348    7.7113 C   0  0  0  0  0  0  0  0  0  0  0  0
   -5.3641   22.8926    6.7873 N   0  0  0  0  0  0  0  0  0  0  0  0
   -4.8491   23.5331    5.5556 C   0  0  0  0  0  0  0  0  0  0  0  0
   -4.2540   22.2750    4.9105 C   0  0  0  0  0  0  0  0  0  0  0  0
   -3.6829   22.5511    3.5071 C   0  0  0  0  0  0  0  0  0  0  0  0
   -3.1670   21.2684    2.8621 C   0  0  0  0  0  0  0  0  0  0  0  0
   -2.6426   21.5523    1.5338 N   0  0  0  0  0  0  0  0  0  0  0  0
   -9.8255   20.2415    3.6806 N   0  0  0  0  0  0  0  0  0  0  0  0
   -8.9381   18.5341    7.5575 C   0  0  0  0  0  0  0  0  0  0  0  0
   -8.6093   17.6229    7.0824 O   0  0  0  0  0  0  0  0  0  0  0  0
  -10.0666   19.5307    7.4538 C   0  0  2  0  0  0  0  0  0  0  0  0
  -11.1967   19.0688    8.0796 O   0  0  0  0  0  0  0  0  0  0  0  0
  -10.4058   19.6619    5.9732 C   0  0  0  0  0  0  0  0  0  0  0  0
   -9.3237   20.2693    5.0621 C   0  0  0  0  0  0  0  0  0  0  0  0
  1  2  1  1  0  0  0
  1  3  1  0  0  0  0
  3  4  1  1  0  0  0
  3  5  1  0  0  0  0
  5  6  1  6  0  0  0
  5  7  1  0  0  0  0
  7  8  1  1  0  0  0
  9  7  1  0  0  0  0
  9 10  1  0  0  0  0
  9 11  1  6  0  0  0
 10  1  1  0  0  0  0
 11 12  1  0  0  0  0
 13 14  1  1  0  0  0
 13 15  1  0  0  0  0
 13 22  1  0  0  0  0
 14 32  1  0  0  0  0
 15 16  1  6  0  0  0
 15 17  1  0  0  0  0
 16 23  1  0  0  0  0
 17 18  1  1  0  0  0
 17 19  1  0  0  0  0
 19  2  1  6  0  0  0
 19 20  1  0  0  0  0
 20 21  1  1  0  0  0
 20 22  1  0  0  0  0
 23 24  1  0  0  0  0
 24 25  1  0  0  0  0
 25 26  1  0  0  0  0
 26 27  1  0  0  0  0
 27 28  1  0  0  0  0
 28 29  1  0  0  0  0
 29 30  1  0  0  0  0
 31 37  1  0  0  0  0
 32 33  2  0  0  0  0
 34 32  1  6  0  0  0
 34 35  1  0  0  0  0
 34 36  1  0  0  0  0
 36 37  1  0  0  0  0
M  END
>  <CHROM.1>
179.62752865,-68.75719336,179.85989281,-67.75116274,59.12541007,-71.65531450
-173.59877686,176.26859437,-42.66648582,176.20346888,-176.95127313,179.54297203
-100.72842767,-65.38312859,177.20847034,-5.10088630,19.50973309,9.13435051
0.93216537,0.26607452,2.12581477

>  <Name>
1o9m_lig

>  <RI>
0

>  <Rbt.Current_Directory>
/home/itssahil/PROJECTS/Mol_Feturizer/New_Systems/rnas/1o9m

>  <Rbt.Executable>
rbdock ($Id: //depot/dev/client3/rdock/2013.1/src/exe/rbdock.cxx#4 $)

>  <Rbt.Library>
libRbt.so (2013.1, Build901 2013/11/27)

>  <Rbt.Parameter_File>
/export/apps/rDock/src/rDock_2013.1_src/data/scripts/dock_solv.prm

>  <Rbt.Receptor>
prm/pocket_docking_7.prm

>  <SCORE>
-7.13838

>  <SCORE.INTER>
1.80824

>  <SCORE.INTER.CONST>
1

>  <SCORE.INTER.POLAR>
-1.02011

>  <SCORE.INTER.ROT>
15

>  <SCORE.INTER.SOLV>
9.79028

>  <SCORE.INTER.VDW>
-12.2576

>  <SCORE.INTER.norm>
0.0488714

>  <SCORE.INTRA>
-8.94662

>  <SCORE.INTRA.DIHEDRAL>
-17.8497

>  <SCORE.INTRA.DIHEDRAL.0>
21.5987

>  <SCORE.INTRA.POLAR>
0

>  <SCORE.INTRA.POLAR.0>
0

>  <SCORE.INTRA.REPUL>
0

>  <SCORE.INTRA.REPUL.0>
0

>  <SCORE.INTRA.SOLV>
0.638061

>  <SCORE.INTRA.SOLV.lig_0>
-108.715

>  <SCORE.INTRA.VDW>
-0.340813

>  <SCORE.INTRA.VDW.0>
-3.9485

>  <SCORE.INTRA.norm>
-0.241801

>  <SCORE.RESTR>
0

>  <SCORE.RESTR.CAVITY>
0

>  <SCORE.RESTR.norm>
0

>  <SCORE.SYSTEM>
0

>  <SCORE.SYSTEM.CONST>
0

>  <SCORE.SYSTEM.DIHEDRAL>
0

>  <SCORE.SYSTEM.SOLV>
0

>  <SCORE.SYSTEM.norm>
0

>  <SCORE.heavy>
37

>  <SCORE.norm>
-0.192929

>  <RMSD>
7.662

$$$$
1o9m_lig
 OpenBabel11021811403D
libRbt.so/2013.1/901 2013/11/27
 37 38  0  0  0  0  0  0  0  0999 V2000
   -5.2119   19.8766   10.5126 C   0  0  2  0  0  0  0  0  0  0  0  0
   -5.0639   18.9443    9.3985 O   0  0  0  0  0  0  0  0  0  0  0  0
   -3.9899   20.8638   10.4309 C   0  0  2  0  0  0  0  0  0  0  0  0
   -3.9444   21.5883    9.1487 N   0  0  0  0  0  0  0  0  0  0  0  0
   -2.6577   20.0540   10.6619 C   0  0  1  0  0  0  0  0  0  0  0  0
   -1.5303   20.9313   10.5941 O   0  0  0  0  0  0  0  0  0  0  0  0
   -2.7623   19.3308   12.0452 C   0  0  2  0  0  0  0  0  0  0  0  0
   -1.6000   18.5435   12.3520 O   0  0  0  0  0  0  0  0  0  0  0  0
   -4.0116   18.4167   12.0904 C   0  0  2  0  0  0  0  0  0  0  0  0
   -5.2017   19.1617   11.7938 O   0  0  0  0  0  0  0  0  0  0  0  0
   -4.1666   17.7509   13.4333 C   0  0  0  0  0  0  0  0  0  0  0  0
   -3.1290   16.8768   13.6537 N   0  0  0  0  0  0  0  0  0  0  0  0
   -7.9277   16.5109    7.2310 C   0  0  1  0  0  0  0  0  0  0  0  0
   -9.0917   16.1459    6.3757 N   0  0  0  0  0  0  0  0  0  0  0  0
   -6.9743   17.3781    6.4200 C   0  0  2  0  0  0  0  0  0  0  0  0
   -6.6017   16.6585    5.2827 O   0  0  0  0  0  0  0  0  0  0  0  0
   -5.7267   17.7706    7.2727 C   0  0  1  0  0  0  0  0  0  0  0  0
   -4.8311   18.6194    6.4917 O   0  0  0  0  0  0  0  0  0  0  0  0
   -6.1923   18.5697    8.5574 C   0  0  1  0  0  0  0  0  0  0  0  0
   -7.1310   17.7061    9.3861 C   0  0  1  0  0  0  0  0  0  0  0  0
   -7.5345   18.4531   10.5680 N   0  0  0  0  0  0  0  0  0  0  0  0
   -8.3619   17.2995    8.5323 C   0  0  0  0  0  0  0  0  0  0  0  0
   -6.0313   15.5950    4.4889 C   0  0  0  0  0  0  0  0  0  0  0  0
   -6.7269   14.2959    4.8247 C   0  0  0  0  0  0  0  0  0  0  0  0
   -6.1891   13.1196    4.1105 N   0  0  0  0  0  0  0  0  0  0  0  0
   -5.3211   11.9877    3.7131 C   0  0  0  0  0  0  0  0  0  0  0  0
   -3.9848   12.7402    3.7460 C   0  0  0  0  0  0  0  0  0  0  0  0
   -3.8198   13.6928    2.5470 C   0  0  0  0  0  0  0  0  0  0  0  0
   -2.8678   14.8369    2.8817 C   0  0  0  0  0  0  0  0  0  0  0  0
   -1.5680   14.3083    3.2709 N   0  0  0  0  0  0  0  0  0  0  0  0
  -13.6539   17.5964    6.0443 N   0  0  0  0  0  0  0  0  0  0  0  0
   -9.8642   17.5840    5.6817 C   0  0  0  0  0  0  0  0  0  0  0  0
   -9.6796   18.6460    5.7282 O   0  0  0  0  0  0  0  0  0  0  0  0
  -10.8474   16.6242    5.0575 C   0  0  2  0  0  0  0  0  0  0  0  0
  -10.2478   15.8567    4.0913 O   0  0  0  0  0  0  0  0  0  0  0  0
  -11.9048   17.4690    4.3553 C   0  0  0  0  0  0  0  0  0  0  0  0
  -12.7381   18.4160    5.2376 C   0  0  0  0  0  0  0  0  0  0  0  0
  1  2  1  6  0  0  0
  1  3  1  0  0  0  0
  3  4  1  6  0  0  0
  3  5  1  0  0  0  0
  5  6  1  1  0  0  0
  5  7  1  0  0  0  0
  7  8  1  6  0  0  0
  9  7  1  0  0  0  0
  9 10  1  0  0  0  0
  9 11  1  1  0  0  0
 10  1  1  0  0  0  0
 11 12  1  0  0  0  0
 13 14  1  6  0  0  0
 13 15  1  0  0  0  0
 13 22  1  0  0  0  0
 14 32  1  0  0  0  0
 15 16  1  6  0  0  0
 15 17  1  0  0  0  0
 16 23  1  0  0  0  0
 17 18  1  6  0  0  0
 17 19  1  0  0  0  0
 19  2  1  1  0  0  0
 19 20  1  0  0  0  0
 20 21  1  1  0  0  0
 20 22  1  0  0  0  0
 23 24  1  0  0  0  0
 24 25  1  0  0  0  0
 25 26  1  0  0  0  0
 26 27  1  0  0  0  0
 27 28  1  0  0  0  0
 28 29  1  0  0  0  0
 29 30  1  0  0  0  0
 31 37  1  0  0  0  0
 32 33  2  0  0  0  0
 34 32  1  6  0  0  0
 34 35  1  0  0  0  0
 34 36  1  0  0  0  0
 36 37  1  0  0  0  0
M  END
>  <CHROM.1>
-135.79248761,-65.82593877,-54.16108600,-61.17495001,60.61546673,169.39215859
-177.66741346,77.21823253,-47.04343622,-74.15086775,154.58313947,58.28802380
-68.35297078,-61.53813033,-71.49204629,-6.16823671,17.31138412,7.50927254
1.00144090,-0.22480655,0.95163480

>  <Name>
1o9m_lig

>  <RI>
0

>  <Rbt.Current_Directory>
/home/itssahil/PROJECTS/Mol_Feturizer/New_Systems/rnas/1o9m

>  <Rbt.Executable>
rbdock ($Id: //depot/dev/client3/rdock/2013.1/src/exe/rbdock.cxx#4 $)

>  <Rbt.Library>
libRbt.so (2013.1, Build901 2013/11/27)

>  <Rbt.Parameter_File>
/export/apps/rDock/src/rDock_2013.1_src/data/scripts/dock_solv.prm

>  <Rbt.Receptor>
prm/pocket_docking_3.prm

>  <SCORE>
-5.83489

>  <SCORE.INTER>
-4.51809

>  <SCORE.INTER.CONST>
1

>  <SCORE.INTER.POLAR>
0

>  <SCORE.INTER.ROT>
15

>  <SCORE.INTER.SOLV>
24.3734

>  <SCORE.INTER.VDW>
-24.7365

>  <SCORE.INTER.norm>
-0.122111

>  <SCORE.INTRA>
-1.53093

>  <SCORE.INTRA.DIHEDRAL>
-10.083

>  <SCORE.INTRA.DIHEDRAL.0>
21.5987

>  <SCORE.INTRA.POLAR>
0

>  <SCORE.INTRA.POLAR.0>
0

>  <SCORE.INTRA.REPUL>
0

>  <SCORE.INTRA.REPUL.0>
0

>  <SCORE.INTRA.SOLV>
5.0335

>  <SCORE.INTRA.SOLV.lig_0>
-108.715

>  <SCORE.INTRA.VDW>
0.99383

>  <SCORE.INTRA.VDW.0>
-3.9485

>  <SCORE.INTRA.norm>
-0.0413764

>  <SCORE.RESTR>
0.214127

>  <SCORE.RESTR.CAVITY>
0.214127

>  <SCORE.RESTR.norm>
0.00578723

>  <SCORE.SYSTEM>
0

>  <SCORE.SYSTEM.CONST>
0

>  <SCORE.SYSTEM.DIHEDRAL>
0

>  <SCORE.SYSTEM.SOLV>
0

>  <SCORE.SYSTEM.norm>
0

>  <SCORE.heavy>
37

>  <SCORE.norm>
-0.1577

>  <RMSD>
7.695

$$$$
1o9m_lig
 OpenBabel11021811403D
libRbt.so/2013.1/901 2013/11/27
 37 38  0  0  0  0  0  0  0  0999 V2000
   -3.8078   10.5392   -0.3811 C   0  0  2  0  0  0  0  0  0  0  0  0
   -5.0238   10.8398    0.3694 O   0  0  0  0  0  0  0  0  0  0  0  0
   -4.1916   10.6309   -1.9038 C   0  0  2  0  0  0  0  0  0  0  0  0
   -4.7124   11.9603   -2.2676 N   0  0  0  0  0  0  0  0  0  0  0  0
   -5.2461    9.5081   -2.2373 C   0  0  1  0  0  0  0  0  0  0  0  0
   -5.6104    9.5695   -3.6189 O   0  0  0  0  0  0  0  0  0  0  0  0
   -4.6233    8.1261   -1.8504 C   0  0  2  0  0  0  0  0  0  0  0  0
   -5.5125    7.0248   -2.0985 O   0  0  0  0  0  0  0  0  0  0  0  0
   -4.2129    8.1109   -0.3572 C   0  0  2  0  0  0  0  0  0  0  0  0
   -3.3186    9.1934   -0.0614 O   0  0  0  0  0  0  0  0  0  0  0  0
   -3.5584    6.8093    0.0275 C   0  0  0  0  0  0  0  0  0  0  0  0
   -3.0276    6.8991    1.2922 N   0  0  0  0  0  0  0  0  0  0  0  0
   -5.3327   13.3081    3.9236 C   0  0  1  0  0  0  0  0  0  0  0  0
   -5.2922   13.7094    5.3578 N   0  0  0  0  0  0  0  0  0  0  0  0
   -3.9475   12.8331    3.5066 C   0  0  2  0  0  0  0  0  0  0  0  0
   -3.0462   13.8719    3.7495 O   0  0  0  0  0  0  0  0  0  0  0  0
   -3.9375   12.4186    2.0014 C   0  0  1  0  0  0  0  0  0  0  0  0
   -2.6101   11.9447    1.6193 O   0  0  0  0  0  0  0  0  0  0  0  0
   -4.9809   11.2517    1.7656 C   0  0  1  0  0  0  0  0  0  0  0  0
   -6.3727   11.7208    2.1611 C   0  0  1  0  0  0  0  0  0  0  0  0
   -7.3172   10.6397    1.9227 N   0  0  0  0  0  0  0  0  0  0  0  0
   -6.3780   12.1516    3.6523 C   0  0  0  0  0  0  0  0  0  0  0  0
   -2.4246   15.1705    3.6321 C   0  0  0  0  0  0  0  0  0  0  0  0
   -1.1978   15.2161    4.5137 C   0  0  0  0  0  0  0  0  0  0  0  0
   -0.2322   16.2744    4.1524 N   0  0  0  0  0  0  0  0  0  0  0  0
    0.3510   17.5880    3.7965 C   0  0  0  0  0  0  0  0  0  0  0  0
   -0.3772   18.4233    4.8571 C   0  0  0  0  0  0  0  0  0  0  0  0
    0.0076   19.9134    4.7943 C   0  0  0  0  0  0  0  0  0  0  0  0
   -0.7310   20.7166    5.8604 C   0  0  0  0  0  0  0  0  0  0  0  0
   -2.1560   20.7507    5.5632 N   0  0  0  0  0  0  0  0  0  0  0  0
   -1.9541   15.0825    8.7605 N   0  0  0  0  0  0  0  0  0  0  0  0
   -5.5854   15.4478    5.5545 C   0  0  0  0  0  0  0  0  0  0  0  0
   -5.7940   16.2665    4.8835 O   0  0  0  0  0  0  0  0  0  0  0  0
   -5.3876   15.2062    7.0310 C   0  0  2  0  0  0  0  0  0  0  0  0
   -5.9710   16.1969    7.7794 O   0  0  0  0  0  0  0  0  0  0  0  0
   -3.8876   15.2812    7.2941 C   0  0  0  0  0  0  0  0  0  0  0  0
   -3.4021   14.8396    8.6866 C   0  0  0  0  0  0  0  0  0  0  0  0
  1  2  1  1  0  0  0
  1  3  1  0  0  0  0
  3  4  1  1  0  0  0
  3  5  1  0  0  0  0
  5  6  1  6  0  0  0
  5  7  1  0  0  0  0
  7  8  1  1  0  0  0
  9  7  1  0  0  0  0
  9 10  1  0  0  0  0
  9 11  1  6  0  0  0
 10  1  1  0  0  0  0
 11 12  1  0  0  0  0
 13 14  1  1  0  0  0
 13 15  1  0  0  0  0
 13 22  1  0  0  0  0
 14 32  1  0  0  0  0
 15 16  1  6  0  0  0
 15 17  1  0  0  0  0
 16 23  1  0  0  0  0
 17 18  1  1  0  0  0
 17 19  1  0  0  0  0
 19  2  1  6  0  0  0
 19 20  1  0  0  0  0
 20 21  1  1  0  0  0
 20 22  1  0  0  0  0
 23 24  1  0  0  0  0
 24 25  1  0  0  0  0
 25 26  1  0  0  0  0
 26 27  1  0  0  0  0
 27 28  1  0  0  0  0
 28 29  1  0  0  0  0
 29 30  1  0  0  0  0
 31 37  1  0  0  0  0
 32 33  2  0  0  0  0
 34 32  1  6  0  0  0
 34 35  1  0  0  0  0
 34 36  1  0  0  0  0
 36 37  1  0  0  0  0
M  END
>  <CHROM.1>
-160.77382164,170.96341972,114.71166984,-63.55947598,-176.56245438,49.21941776
160.15261739,49.12044876,45.62492836,179.56781456,-179.95986242,-67.37052260
-158.30604536,-170.20875664,-175.91428947,-3.80336196,13.11264184,2.78885107
-1.86906387,0.76521373,0.90032698

>  <Name>
1o9m_lig

>  <RI>
0

>  <Rbt.Current_Directory>
/home/itssahil/PROJECTS/Mol_Feturizer/New_Systems/rnas/1o9m

>  <Rbt.Executable>
rbdock ($Id: //depot/dev/client3/rdock/2013.1/src/exe/rbdock.cxx#4 $)

>  <Rbt.Library>
libRbt.so (2013.1, Build901 2013/11/27)

>  <Rbt.Parameter_File>
/export/apps/rDock/src/rDock_2013.1_src/data/scripts/dock_solv.prm

>  <Rbt.Receptor>
prm/pocket_docking_7.prm

>  <SCORE>
-22.669

>  <SCORE.INTER>
-15.2414

>  <SCORE.INTER.CONST>
1

>  <SCORE.INTER.POLAR>
-2.60638

>  <SCORE.INTER.ROT>
15

>  <SCORE.INTER.SOLV>
21.265

>  <SCORE.INTER.VDW>
-22.1613

>  <SCORE.INTER.norm>
-0.411931

>  <SCORE.INTRA>
-7.52834

>  <SCORE.INTRA.DIHEDRAL>
-14.1015

>  <SCORE.INTRA.DIHEDRAL.0>
21.5987

>  <SCORE.INTRA.POLAR>
0

>  <SCORE.INTRA.POLAR.0>
0

>  <SCORE.INTRA.REPUL>
0

>  <SCORE.INTRA.REPUL.0>
0

>  <SCORE.INTRA.SOLV>
-0.89082

>  <SCORE.INTRA.SOLV.lig_0>
-108.715

>  <SCORE.INTRA.VDW>
-0.0321592

>  <SCORE.INTRA.VDW.0>
-3.9485

>  <SCORE.INTRA.norm>
-0.203469

>  <SCORE.RESTR>
0.100742

>  <SCORE.RESTR.CAVITY>
0.100742

>  <SCORE.RESTR.norm>
0.00272277

>  <SCORE.SYSTEM>
0

>  <SCORE.SYSTEM.CONST>
0

>  <SCORE.SYSTEM.DIHEDRAL>
0

>  <SCORE.SYSTEM.SOLV>
0

>  <SCORE.SYSTEM.norm>
0

>  <SCORE.heavy>
37

>  <SCORE.norm>
-0.612676

>  <RMSD>
7.698

$$$$
1o9m_lig
 OpenBabel11021811403D
libRbt.so/2013.1/901 2013/11/27
 37 38  0  0  0  0  0  0  0  0999 V2000
   -5.1316   20.4085   10.5564 C   0  0  2  0  0  0  0  0  0  0  0  0
   -5.8060   19.5568    9.5807 O   0  0  0  0  0  0  0  0  0  0  0  0
   -3.6027   20.3822   10.1873 C   0  0  2  0  0  0  0  0  0  0  0  0
   -3.3526   20.8621    8.8168 N   0  0  0  0  0  0  0  0  0  0  0  0
   -3.0532   18.9170   10.3745 C   0  0  1  0  0  0  0  0  0  0  0  0
   -1.6620   18.8673   10.0463 O   0  0  0  0  0  0  0  0  0  0  0  0
   -3.3287   18.4797   11.8511 C   0  0  2  0  0  0  0  0  0  0  0  0
   -2.8801   17.1432   12.1297 O   0  0  0  0  0  0  0  0  0  0  0  0
   -4.8394   18.5782   12.1770 C   0  0  2  0  0  0  0  0  0  0  0  0
   -5.3335   19.9004   11.9179 O   0  0  0  0  0  0  0  0  0  0  0  0
   -5.1249   18.2158   13.6115 C   0  0  0  0  0  0  0  0  0  0  0  0
   -5.0842   16.8516   13.7747 N   0  0  0  0  0  0  0  0  0  0  0  0
   -9.7590   19.2800    7.8151 C   0  0  1  0  0  0  0  0  0  0  0  0
  -11.2445   19.2544    7.7040 N   0  0  0  0  0  0  0  0  0  0  0  0
   -9.3325   20.6215    8.3957 C   0  0  2  0  0  0  0  0  0  0  0  0
   -9.8272   21.6268    7.5622 O   0  0  0  0  0  0  0  0  0  0  0  0
   -7.7777   20.7011    8.5134 C   0  0  1  0  0  0  0  0  0  0  0  0
   -7.3823   21.9826    9.0912 O   0  0  0  0  0  0  0  0  0  0  0  0
   -7.2565   19.5381    9.4524 C   0  0  1  0  0  0  0  0  0  0  0  0
   -7.6606   18.1911    8.8725 C   0  0  1  0  0  0  0  0  0  0  0  0
   -7.1594   17.1371    9.7418 N   0  0  0  0  0  0  0  0  0  0  0  0
   -9.2052   18.1194    8.7370 C   0  0  0  0  0  0  0  0  0  0  0  0
  -10.7699   22.3593    6.7489 C   0  0  0  0  0  0  0  0  0  0  0  0
  -11.9768   22.7161    7.5858 C   0  0  0  0  0  0  0  0  0  0  0  0
  -12.8323   23.7667    6.9966 N   0  0  0  0  0  0  0  0  0  0  0  0
  -13.3621   25.0874    6.5874 C   0  0  0  0  0  0  0  0  0  0  0  0
  -12.0208   25.7358    6.2219 C   0  0  0  0  0  0  0  0  0  0  0  0
  -11.4470   25.1890    4.9013 C   0  0  0  0  0  0  0  0  0  0  0  0
  -10.0950   25.8217    4.5864 C   0  0  0  0  0  0  0  0  0  0  0  0
   -9.5795   25.3000    3.3285 N   0  0  0  0  0  0  0  0  0  0  0  0
  -16.0290   19.2410    5.8749 N   0  0  0  0  0  0  0  0  0  0  0  0
  -11.7807   18.1598    6.4152 C   0  0  0  0  0  0  0  0  0  0  0  0
  -11.2845   17.5099    5.7114 O   0  0  0  0  0  0  0  0  0  0  0  0
  -13.1809   18.5923    6.7760 C   0  0  2  0  0  0  0  0  0  0  0  0
  -13.4471   18.3594    8.1015 O   0  0  0  0  0  0  0  0  0  0  0  0
  -14.1351   17.7139    5.9744 C   0  0  0  0  0  0  0  0  0  0  0  0
  -15.6388   17.8772    6.2611 C   0  0  0  0  0  0  0  0  0  0  0  0
  1  2  1  6  0  0  0
  1  3  1  0  0  0  0
  3  4  1  6  0  0  0
  3  5  1  0  0  0  0
  5  6  1  1  0  0  0
  5  7  1  0  0  0  0
  7  8  1  6  0  0  0
  9  7  1  0  0  0  0
  9 10  1  0  0  0  0
  9 11  1  1  0  0  0
 10  1  1  0  0  0  0
 11 12  1  0  0  0  0
 13 14  1  1  0  0  0
 13 15  1  0  0  0  0
 13 22  1  0  0  0  0
 14 32  1  0  0  0  0
 15 16  1  6  0  0  0
 15 17  1  0  0  0  0
 16 23  1  0  0  0  0
 17 18  1  1  0  0  0
 17 19  1  0  0  0  0
 19  2  1  6  0  0  0
 19 20  1  0  0  0  0
 20 21  1  1  0  0  0
 20 22  1  0  0  0  0
 23 24  1  0  0  0  0
 24 25  1  0  0  0  0
 25 26  1  0  0  0  0
 26 27  1  0  0  0  0
 27 28  1  0  0  0  0
 28 29  1  0  0  0  0
 29 30  1  0  0  0  0
 31 37  1  0  0  0  0
 32 33  2  0  0  0  0
 34 32  1  1  0  0  0
 34 35  1  0  0  0  0
 34 36  1  0  0  0  0
 36 37  1  0  0  0  0
M  END
>  <CHROM.1>
-168.25073266,-77.07003980,153.34212734,46.39662530,57.33124827,84.52512762
164.02335503,-80.47941959,39.66438037,73.37583661,-178.31002571,-179.43027284
-56.49966069,174.76166710,64.15116439,-8.72266644,20.21645905,8.46837388
-0.47411064,-0.39634879,-0.39833359

>  <Name>
1o9m_lig

>  <RI>
0

>  <Rbt.Current_Directory>
/home/itssahil/PROJECTS/Mol_Feturizer/New_Systems/rnas/1o9m

>  <Rbt.Executable>
rbdock ($Id: //depot/dev/client3/rdock/2013.1/src/exe/rbdock.cxx#4 $)

>  <Rbt.Library>
libRbt.so (2013.1, Build901 2013/11/27)

>  <Rbt.Parameter_File>
/export/apps/rDock/src/rDock_2013.1_src/data/scripts/dock_solv.prm

>  <Rbt.Receptor>
prm/pocket_docking_6.prm

>  <SCORE>
-11.326

>  <SCORE.INTER>
-6.41505

>  <SCORE.INTER.CONST>
1

>  <SCORE.INTER.POLAR>
-1.61008

>  <SCORE.INTER.ROT>
15

>  <SCORE.INTER.SOLV>
12.8173

>  <SCORE.INTER.VDW>
-16.7822

>  <SCORE.INTER.norm>
-0.17338

>  <SCORE.INTRA>
-4.92003

>  <SCORE.INTRA.DIHEDRAL>
-12.74

>  <SCORE.INTRA.DIHEDRAL.0>
21.5987

>  <SCORE.INTRA.POLAR>
0

>  <SCORE.INTRA.POLAR.0>
0

>  <SCORE.INTRA.REPUL>
0

>  <SCORE.INTRA.REPUL.0>
0

>  <SCORE.INTRA.SOLV>
1.4295

>  <SCORE.INTRA.SOLV.lig_0>
-108.715

>  <SCORE.INTRA.VDW>
0.735236

>  <SCORE.INTRA.VDW.0>
-3.9485

>  <SCORE.INTRA.norm>
-0.132974

>  <SCORE.RESTR>
0.00907159

>  <SCORE.RESTR.CAVITY>
0.00907159

>  <SCORE.RESTR.norm>
0.000245178

>  <SCORE.SYSTEM>
0

>  <SCORE.SYSTEM.CONST>
0

>  <SCORE.SYSTEM.DIHEDRAL>
0

>  <SCORE.SYSTEM.SOLV>
0

>  <SCORE.SYSTEM.norm>
0

>  <SCORE.heavy>
37

>  <SCORE.norm>
-0.306108

>  <RMSD>
7.719

$$$$
1o9m_lig
 OpenBabel11021811403D
libRbt.so/2013.1/901 2013/11/27
 37 38  0  0  0  0  0  0  0  0999 V2000
  -11.7017   17.6606    4.4694 C   0  0  2  0  0  0  0  0  0  0  0  0
  -10.9435   18.6203    5.2670 O   0  0  0  0  0  0  0  0  0  0  0  0
  -12.2316   18.4468    3.2141 C   0  0  2  0  0  0  0  0  0  0  0  0
  -11.1365   19.0323    2.4211 N   0  0  0  0  0  0  0  0  0  0  0  0
  -13.2338   19.5650    3.6925 C   0  0  1  0  0  0  0  0  0  0  0  0
  -13.7317   20.2939    2.5672 O   0  0  0  0  0  0  0  0  0  0  0  0
  -14.3794   18.8756    4.5048 C   0  0  2  0  0  0  0  0  0  0  0  0
  -15.3478   19.8110    5.0069 O   0  0  0  0  0  0  0  0  0  0  0  0
  -13.7981   18.0711    5.6936 C   0  0  2  0  0  0  0  0  0  0  0  0
  -12.8263   17.1177    5.2396 O   0  0  0  0  0  0  0  0  0  0  0  0
  -14.8773   17.3508    6.4598 C   0  0  0  0  0  0  0  0  0  0  0  0
  -15.6439   18.2504    7.1615 N   0  0  0  0  0  0  0  0  0  0  0  0
   -7.7541   18.2147    8.1797 C   0  0  1  0  0  0  0  0  0  0  0  0
   -7.0286   17.8015    9.4136 N   0  0  0  0  0  0  0  0  0  0  0  0
   -8.1888   16.9666    7.4237 C   0  0  2  0  0  0  0  0  0  0  0  0
   -7.0468   16.2114    7.1491 O   0  0  0  0  0  0  0  0  0  0  0  0
   -8.9392   17.3520    6.1099 C   0  0  1  0  0  0  0  0  0  0  0  0
   -9.3699   16.1477    5.4052 O   0  0  0  0  0  0  0  0  0  0  0  0
  -10.2163   18.2182    6.4630 C   0  0  1  0  0  0  0  0  0  0  0  0
   -9.7928   19.4782    7.2026 C   0  0  1  0  0  0  0  0  0  0  0  0
  -10.9787   20.2659    7.5039 N   0  0  0  0  0  0  0  0  0  0  0  0
   -9.0296   19.0951    8.4987 C   0  0  0  0  0  0  0  0  0  0  0  0
   -6.2290   15.1636    6.5833 C   0  0  0  0  0  0  0  0  0  0  0  0
   -4.8415   15.2399    7.1778 C   0  0  0  0  0  0  0  0  0  0  0  0
   -4.1750   16.5454    6.9925 N   0  0  0  0  0  0  0  0  0  0  0  0
   -3.3930   17.7769    7.2461 C   0  0  0  0  0  0  0  0  0  0  0  0
   -4.2383   18.3141    8.4080 C   0  0  0  0  0  0  0  0  0  0  0  0
   -3.7275   19.6722    8.9245 C   0  0  0  0  0  0  0  0  0  0  0  0
   -4.6266   20.2116   10.0326 C   0  0  0  0  0  0  0  0  0  0  0  0
   -4.0973   21.4705   10.5379 N   0  0  0  0  0  0  0  0  0  0  0  0
   -5.9460   17.8567   14.0191 N   0  0  0  0  0  0  0  0  0  0  0  0
   -7.9804   16.6523   10.3728 C   0  0  0  0  0  0  0  0  0  0  0  0
   -8.9456   16.1829   10.2626 O   0  0  0  0  0  0  0  0  0  0  0  0
   -6.8346   16.6858   11.3544 C   0  0  2  0  0  0  0  0  0  0  0  0
   -5.9350   15.6810   11.1030 O   0  0  0  0  0  0  0  0  0  0  0  0
   -7.4256   16.4126   12.7331 C   0  0  0  0  0  0  0  0  0  0  0  0
   -6.4608   16.4826   13.9306 C   0  0  0  0  0  0  0  0  0  0  0  0
  1  2  1  1  0  0  0
  1  3  1  0  0  0  0
  3  4  1  1  0  0  0
  3  5  1  0  0  0  0
  5  6  1  6  0  0  0
  5  7  1  0  0  0  0
  7  8  1  1  0  0  0
  9  7  1  0  0  0  0
  9 10  1  0  0  0  0
  9 11  1  6  0  0  0
 10  1  1  0  0  0  0
 11 12  1  0  0  0  0
 13 14  1  1  0  0  0
 13 15  1  0  0  0  0
 13 22  1  0  0  0  0
 14 32  1  0  0  0  0
 15 16  1  6  0  0  0
 15 17  1  0  0  0  0
 16 23  1  0  0  0  0
 17 18  1  1  0  0  0
 17 19  1  0  0  0  0
 19  2  1  6  0  0  0
 19 20  1  0  0  0  0
 20 21  1  1  0  0  0
 20 22  1  0  0  0  0
 23 24  1  0  0  0  0
 24 25  1  0  0  0  0
 25 26  1  0  0  0  0
 26 27  1  0  0  0  0
 27 28  1  0  0  0  0
 28 29  1  0  0  0  0
 29 30  1  0  0  0  0
 31 37  1  0  0  0  0
 32 33  2  0  0  0  0
 34 32  1  6  0  0  0
 34 35  1  0  0  0  0
 34 36  1  0  0  0  0
 36 37  1  0  0  0  0
M  END
>  <CHROM.1>
-175.29639728,-70.88109829,-52.66577835,-171.89011602,-173.47180945,70.95651663
-56.84930612,136.89764900,-58.78332466,-178.04977352,177.25307879,177.93190591
-93.01658835,-176.22644174,62.74429661,-9.01653285,17.91171823,7.51880602
-2.51580014,-0.05605364,1.69986814

>  <Name>
1o9m_lig

>  <RI>
0

>  <Rbt.Current_Directory>
/home/itssahil/PROJECTS/Mol_Feturizer/New_Systems/rnas/1o9m

>  <Rbt.Executable>
rbdock ($Id: //depot/dev/client3/rdock/2013.1/src/exe/rbdock.cxx#4 $)

>  <Rbt.Library>
libRbt.so (2013.1, Build901 2013/11/27)

>  <Rbt.Parameter_File>
/export/apps/rDock/src/rDock_2013.1_src/data/scripts/dock_solv.prm

>  <Rbt.Receptor>
prm/pocket_docking_8.prm

>  <SCORE>
-13.8192

>  <SCORE.INTER>
-4.4206

>  <SCORE.INTER.CONST>
1

>  <SCORE.INTER.POLAR>
-0.486774

>  <SCORE.INTER.ROT>
15

>  <SCORE.INTER.SOLV>
19.4808

>  <SCORE.INTER.VDW>
-21.4181

>  <SCORE.INTER.norm>
-0.119476

>  <SCORE.INTRA>
-9.39863

>  <SCORE.INTRA.DIHEDRAL>
-17.1891

>  <SCORE.INTRA.DIHEDRAL.0>
21.5987

>  <SCORE.INTRA.POLAR>
0

>  <SCORE.INTRA.POLAR.0>
0

>  <SCORE.INTRA.REPUL>
0

>  <SCORE.INTRA.REPUL.0>
0

>  <SCORE.INTRA.SOLV>
2.19952

>  <SCORE.INTRA.SOLV.lig_0>
-108.715

>  <SCORE.INTRA.VDW>
-1.90384

>  <SCORE.INTRA.VDW.0>
-3.9485

>  <SCORE.INTRA.norm>
-0.254017

>  <SCORE.RESTR>
0

>  <SCORE.RESTR.CAVITY>
0

>  <SCORE.RESTR.norm>
0

>  <SCORE.SYSTEM>
0

>  <SCORE.SYSTEM.CONST>
0

>  <SCORE.SYSTEM.DIHEDRAL>
0

>  <SCORE.SYSTEM.SOLV>
0

>  <SCORE.SYSTEM.norm>
0

>  <SCORE.heavy>
37

>  <SCORE.norm>
-0.373493

>  <RMSD>
7.745

$$$$
1o9m_lig
 OpenBabel11021811403D
libRbt.so/2013.1/901 2013/11/27
 37 38  0  0  0  0  0  0  0  0999 V2000
   -4.0443   10.0468   -0.0205 C   0  0  2  0  0  0  0  0  0  0  0  0
   -4.9907   11.0373    0.4851 O   0  0  0  0  0  0  0  0  0  0  0  0
   -3.8318   10.3731   -1.5446 C   0  0  2  0  0  0  0  0  0  0  0  0
   -3.3187   11.7381   -1.7553 N   0  0  0  0  0  0  0  0  0  0  0  0
   -5.1933   10.1643   -2.3103 C   0  0  1  0  0  0  0  0  0  0  0  0
   -5.0254   10.4535   -3.7009 O   0  0  0  0  0  0  0  0  0  0  0  0
   -5.6685    8.6941   -2.0649 C   0  0  2  0  0  0  0  0  0  0  0  0
   -6.9187    8.3975   -2.7084 O   0  0  0  0  0  0  0  0  0  0  0  0
   -5.8069    8.4109   -0.5487 C   0  0  2  0  0  0  0  0  0  0  0  0
   -4.5779    8.6893    0.1380 O   0  0  0  0  0  0  0  0  0  0  0  0
   -6.2096    6.9834   -0.2830 C   0  0  0  0  0  0  0  0  0  0  0  0
   -5.1897    6.1291   -0.6282 N   0  0  0  0  0  0  0  0  0  0  0  0
   -5.4529   13.4359    4.0702 C   0  0  1  0  0  0  0  0  0  0  0  0
   -5.4926   13.8043    5.5132 N   0  0  0  0  0  0  0  0  0  0  0  0
   -4.0587   12.9265    3.7310 C   0  0  2  0  0  0  0  0  0  0  0  0
   -3.1439   13.9305    4.0555 O   0  0  0  0  0  0  0  0  0  0  0  0
   -3.9644   12.5448    2.2200 C   0  0  1  0  0  0  0  0  0  0  0  0
   -2.6301   12.0375    1.9121 O   0  0  0  0  0  0  0  0  0  0  0  0
   -5.0253   11.4170    1.8906 C   0  0  1  0  0  0  0  0  0  0  0  0
   -6.4249   11.9213    2.2078 C   0  0  1  0  0  0  0  0  0  0  0  0
   -7.3843   10.8762    1.8841 N   0  0  0  0  0  0  0  0  0  0  0  0
   -6.5130   12.3194    3.7055 C   0  0  0  0  0  0  0  0  0  0  0  0
   -1.8770   14.6173    4.1546 C   0  0  0  0  0  0  0  0  0  0  0  0
   -2.0768   15.9269    4.8822 C   0  0  0  0  0  0  0  0  0  0  0  0
   -3.0235   16.8482    4.2204 N   0  0  0  0  0  0  0  0  0  0  0  0
   -4.1159   17.3756    3.3712 C   0  0  0  0  0  0  0  0  0  0  0  0
   -3.2602   17.7464    2.1533 C   0  0  0  0  0  0  0  0  0  0  0  0
   -4.1082   18.2755    0.9815 C   0  0  0  0  0  0  0  0  0  0  0  0
   -3.2241   18.7138   -0.1820 C   0  0  0  0  0  0  0  0  0  0  0  0
   -2.4429   19.8829    0.1961 N   0  0  0  0  0  0  0  0  0  0  0  0
   -4.6633   15.1780    9.8984 N   0  0  0  0  0  0  0  0  0  0  0  0
   -6.0915   15.4578    5.7453 C   0  0  0  0  0  0  0  0  0  0  0  0
   -6.4386   16.2419    5.0905 O   0  0  0  0  0  0  0  0  0  0  0  0
   -5.8623   15.2207    7.2181 C   0  0  2  0  0  0  0  0  0  0  0  0
   -6.8194   15.8452    7.9770 O   0  0  0  0  0  0  0  0  0  0  0  0
   -4.5288   15.8717    7.5683 C   0  0  0  0  0  0  0  0  0  0  0  0
   -3.7490   15.2689    8.7508 C   0  0  0  0  0  0  0  0  0  0  0  0
  1  2  1  6  0  0  0
  1  3  1  0  0  0  0
  3  4  1  1  0  0  0
  3  5  1  0  0  0  0
  5  6  1  6  0  0  0
  5  7  1  0  0  0  0
  7  8  1  6  0  0  0
  9  7  1  0  0  0  0
  9 10  1  0  0  0  0
  9 11  1  6  0  0  0
 10  1  1  0  0  0  0
 11 12  1  0  0  0  0
 13 14  1  1  0  0  0
 13 15  1  0  0  0  0
 13 22  1  0  0  0  0
 14 32  1  0  0  0  0
 15 16  1  6  0  0  0
 15 17  1  0  0  0  0
 16 23  1  0  0  0  0
 17 18  1  1  0  0  0
 17 19  1  0  0  0  0
 19  2  1  6  0  0  0
 19 20  1  0  0  0  0
 20 21  1  1  0  0  0
 20 22  1  0  0  0  0
 23 24  1  0  0  0  0
 24 25  1  0  0  0  0
 25 26  1  0  0  0  0
 26 27  1  0  0  0  0
 27 28  1  0  0  0  0
 28 29  1  0  0  0  0
 29 30  1  0  0  0  0
 31 37  1  0  0  0  0
 32 33  2  0  0  0  0
 34 32  1  6  0  0  0
 34 35  1  0  0  0  0
 34 36  1  0  0  0  0
 36 37  1  0  0  0  0
M  END
>  <CHROM.1>
-154.39941897,67.99786435,127.15629281,-173.66297500,-178.66718045,84.60709350
-59.98080902,22.15215552,-94.75963251,176.55705448,176.58756417,-67.11571850
-144.57861691,-152.47151104,-51.27118482,-4.67854239,13.09922835,2.37263811
1.83465725,-1.20587995,-2.12795611

>  <Name>
1o9m_lig

>  <RI>
0

>  <Rbt.Current_Directory>
/home/itssahil/PROJECTS/Mol_Feturizer/New_Systems/rnas/1o9m

>  <Rbt.Executable>
rbdock ($Id: //depot/dev/client3/rdock/2013.1/src/exe/rbdock.cxx#4 $)

>  <Rbt.Library>
libRbt.so (2013.1, Build901 2013/11/27)

>  <Rbt.Parameter_File>
/export/apps/rDock/src/rDock_2013.1_src/data/scripts/dock_solv.prm

>  <Rbt.Receptor>
prm/pocket_docking_7.prm

>  <SCORE>
-21.0044

>  <SCORE.INTER>
-17.0402

>  <SCORE.INTER.CONST>
1

>  <SCORE.INTER.POLAR>
-2.28681

>  <SCORE.INTER.ROT>
15

>  <SCORE.INTER.SOLV>
15.5277

>  <SCORE.INTER.VDW>
-22.5133

>  <SCORE.INTER.norm>
-0.460546

>  <SCORE.INTRA>
-3.96674

>  <SCORE.INTRA.DIHEDRAL>
-8.19863

>  <SCORE.INTRA.DIHEDRAL.0>
21.5987

>  <SCORE.INTRA.POLAR>
0

>  <SCORE.INTRA.POLAR.0>
0

>  <SCORE.INTRA.REPUL>
0

>  <SCORE.INTRA.REPUL.0>
0

>  <SCORE.INTRA.SOLV>
5.05667

>  <SCORE.INTRA.SOLV.lig_0>
-108.715

>  <SCORE.INTRA.VDW>
-2.39576

>  <SCORE.INTRA.VDW.0>
-3.9485

>  <SCORE.INTRA.norm>
-0.107209

>  <SCORE.RESTR>
0.00251458

>  <SCORE.RESTR.CAVITY>
0.00251458

>  <SCORE.RESTR.norm>
6.79617e-05

>  <SCORE.SYSTEM>
0

>  <SCORE.SYSTEM.CONST>
0

>  <SCORE.SYSTEM.DIHEDRAL>
0

>  <SCORE.SYSTEM.SOLV>
0

>  <SCORE.SYSTEM.norm>
0

>  <SCORE.heavy>
37

>  <SCORE.norm>
-0.567688

>  <RMSD>
7.779

$$$$
1o9m_lig
 OpenBabel11021811403D
libRbt.so/2013.1/901 2013/11/27
 37 38  0  0  0  0  0  0  0  0999 V2000
   -5.3577   10.7872    0.8772 C   0  0  2  0  0  0  0  0  0  0  0  0
   -4.9057   11.0738    2.2358 O   0  0  0  0  0  0  0  0  0  0  0  0
   -6.9183   10.9848    0.8775 C   0  0  2  0  0  0  0  0  0  0  0  0
   -7.3067   12.3484    1.2783 N   0  0  0  0  0  0  0  0  0  0  0  0
   -7.5724    9.9149    1.8322 C   0  0  1  0  0  0  0  0  0  0  0  0
   -8.9937   10.0729    1.8482 O   0  0  0  0  0  0  0  0  0  0  0  0
   -7.1405    8.4946    1.3386 C   0  0  2  0  0  0  0  0  0  0  0  0
   -7.6704    7.4362    2.1534 O   0  0  0  0  0  0  0  0  0  0  0  0
   -5.5969    8.3744    1.3044 C   0  0  2  0  0  0  0  0  0  0  0  0
   -5.0207    9.4110    0.4964 O   0  0  0  0  0  0  0  0  0  0  0  0
   -5.1539    7.0335    0.7786 C   0  0  0  0  0  0  0  0  0  0  0  0
   -3.7906    6.9032    0.8956 N   0  0  0  0  0  0  0  0  0  0  0  0
   -2.6811   14.3052    4.0878 C   0  0  1  0  0  0  0  0  0  0  0  0
   -2.2900   15.6852    4.4906 N   0  0  0  0  0  0  0  0  0  0  0  0
   -4.0848   14.0213    4.6049 C   0  0  2  0  0  0  0  0  0  0  0  0
   -4.0752   14.1950    5.9905 O   0  0  0  0  0  0  0  0  0  0  0  0
   -4.5309   12.5751    4.2212 C   0  0  1  0  0  0  0  0  0  0  0  0
   -5.8859   12.3225    4.7034 O   0  0  0  0  0  0  0  0  0  0  0  0
   -4.5139   12.4151    2.6464 C   0  0  1  0  0  0  0  0  0  0  0  0
   -3.1114   12.6780    2.1194 C   0  0  1  0  0  0  0  0  0  0  0  0
   -3.1149   12.5112    0.6738 N   0  0  0  0  0  0  0  0  0  0  0  0
   -2.6601   14.1087    2.5179 C   0  0  0  0  0  0  0  0  0  0  0  0
   -3.9509   14.8682    7.2625 C   0  0  0  0  0  0  0  0  0  0  0  0
   -4.1087   13.8592    8.3767 C   0  0  0  0  0  0  0  0  0  0  0  0
   -4.3323   14.4587    9.7085 N   0  0  0  0  0  0  0  0  0  0  0  0
   -4.2266   14.7585   11.1546 C   0  0  0  0  0  0  0  0  0  0  0  0
   -4.3388   16.2848   11.0505 C   0  0  0  0  0  0  0  0  0  0  0  0
   -4.5858   16.9482   12.4183 C   0  0  0  0  0  0  0  0  0  0  0  0
   -4.6861   18.4645   12.2831 C   0  0  0  0  0  0  0  0  0  0  0  0
   -5.8231   18.8178   11.4447 N   0  0  0  0  0  0  0  0  0  0  0  0
    0.5283   16.6493    8.3796 N   0  0  0  0  0  0  0  0  0  0  0  0
   -0.5498   15.9555    4.2777 C   0  0  0  0  0  0  0  0  0  0  0  0
    0.2757   15.3611    3.9181 O   0  0  0  0  0  0  0  0  0  0  0  0
   -0.8035   17.3347    4.8354 C   0  0  2  0  0  0  0  0  0  0  0  0
    0.1615   18.2208    4.4286 O   0  0  0  0  0  0  0  0  0  0  0  0
   -0.6901   17.2259    6.3520 C   0  0  0  0  0  0  0  0  0  0  0  0
    0.6294   16.6658    6.9131 C   0  0  0  0  0  0  0  0  0  0  0  0
  1  2  1  1  0  0  0
  1  3  1  0  0  0  0
  3  4  1  1  0  0  0
  3  5  1  0  0  0  0
  5  6  1  6  0  0  0
  5  7  1  0  0  0  0
  7  8  1  1  0  0  0
  9  7  1  0  0  0  0
  9 10  1  0  0  0  0
  9 11  1  6  0  0  0
 10  1  1  0  0  0  0
 11 12  1  0  0  0  0
 13 14  1  6  0  0  0
 13 15  1  0  0  0  0
 13 22  1  0  0  0  0
 14 32  1  0  0  0  0
 15 16  1  1  0  0  0
 15 17  1  0  0  0  0
 16 23  1  0  0  0  0
 17 18  1  6  0  0  0
 17 19  1  0  0  0  0
 19  2  1  1  0  0  0
 19 20  1  0  0  0  0
 20 21  1  6  0  0  0
 20 22  1  0  0  0  0
 23 24  1  0  0  0  0
 24 25  1  0  0  0  0
 25 26  1  0  0  0  0
 26 27  1  0  0  0  0
 27 28  1  0  0  0  0
 28 29  1  0  0  0  0
 29 30  1  0  0  0  0
 31 37  1  0  0  0  0
 32 33  2  0  0  0  0
 34 32  1  6  0  0  0
 34 35  1  0  0  0  0
 34 36  1  0  0  0  0
 36 37  1  0  0  0  0
M  END
>  <CHROM.1>
-90.17897459,-173.51170770,166.21294678,63.46772863,-176.37200112,161.06961135
-165.75982248,-132.08345051,139.05108891,167.04484688,179.73216120,62.45388540
-156.02533165,56.34381181,179.88987596,-4.03648409,13.32434222,4.72465467
-1.93180384,0.60731013,1.01846166

>  <Name>
1o9m_lig

>  <RI>
0

>  <Rbt.Current_Directory>
/home/itssahil/PROJECTS/Mol_Feturizer/New_Systems/rnas/1o9m

>  <Rbt.Executable>
rbdock ($Id: //depot/dev/client3/rdock/2013.1/src/exe/rbdock.cxx#4 $)

>  <Rbt.Library>
libRbt.so (2013.1, Build901 2013/11/27)

>  <Rbt.Parameter_File>
/export/apps/rDock/src/rDock_2013.1_src/data/scripts/dock_solv.prm

>  <Rbt.Receptor>
prm/pocket_docking_7.prm

>  <SCORE>
-18.4314

>  <SCORE.INTER>
-14.2527

>  <SCORE.INTER.CONST>
1

>  <SCORE.INTER.POLAR>
-1.3632

>  <SCORE.INTER.ROT>
15

>  <SCORE.INTER.SOLV>
23.5265

>  <SCORE.INTER.VDW>
-26.3999

>  <SCORE.INTER.norm>
-0.385208

>  <SCORE.INTRA>
-4.17875

>  <SCORE.INTRA.DIHEDRAL>
-10.9111

>  <SCORE.INTRA.DIHEDRAL.0>
21.5987

>  <SCORE.INTRA.POLAR>
0

>  <SCORE.INTRA.POLAR.0>
0

>  <SCORE.INTRA.REPUL>
0

>  <SCORE.INTRA.REPUL.0>
0

>  <SCORE.INTRA.SOLV>
1.72336

>  <SCORE.INTRA.SOLV.lig_0>
-108.715

>  <SCORE.INTRA.VDW>
0.415112

>  <SCORE.INTRA.VDW.0>
-3.9485

>  <SCORE.INTRA.norm>
-0.112939

>  <SCORE.RESTR>
0

>  <SCORE.RESTR.CAVITY>
0

>  <SCORE.RESTR.norm>
0

>  <SCORE.SYSTEM>
0

>  <SCORE.SYSTEM.CONST>
0

>  <SCORE.SYSTEM.DIHEDRAL>
0

>  <SCORE.SYSTEM.SOLV>
0

>  <SCORE.SYSTEM.norm>
0

>  <SCORE.heavy>
37

>  <SCORE.norm>
-0.498147

>  <RMSD>
7.795

$$$$
1o9m_lig
 OpenBabel11021811403D
libRbt.so/2013.1/901 2013/11/27
 37 38  0  0  0  0  0  0  0  0999 V2000
   -5.9327   16.7603   10.5568 C   0  0  2  0  0  0  0  0  0  0  0  0
   -5.2679   17.0371    9.2865 O   0  0  0  0  0  0  0  0  0  0  0  0
   -5.4813   17.8931   11.5504 C   0  0  2  0  0  0  0  0  0  0  0  0
   -5.8347   19.2369   11.0602 N   0  0  0  0  0  0  0  0  0  0  0  0
   -3.9281   17.7777   11.7912 C   0  0  1  0  0  0  0  0  0  0  0  0
   -3.4928   18.7977   12.6944 O   0  0  0  0  0  0  0  0  0  0  0  0
   -3.6255   16.3409   12.3311 C   0  0  2  0  0  0  0  0  0  0  0  0
   -2.2262   16.1186   12.5709 O   0  0  0  0  0  0  0  0  0  0  0  0
   -4.1402   15.2662   11.3419 C   0  0  2  0  0  0  0  0  0  0  0  0
   -5.5387   15.4451   11.0742 O   0  0  0  0  0  0  0  0  0  0  0  0
   -3.9111   13.8718   11.8651 C   0  0  0  0  0  0  0  0  0  0  0  0
   -4.5205   13.7161   13.0873 N   0  0  0  0  0  0  0  0  0  0  0  0
   -6.2117   16.1114    5.1546 C   0  0  1  0  0  0  0  0  0  0  0  0
   -6.5089   15.3163    3.9302 N   0  0  0  0  0  0  0  0  0  0  0  0
   -7.2634   15.7998    6.2106 C   0  0  2  0  0  0  0  0  0  0  0  0
   -8.5163   16.0943    5.6687 O   0  0  0  0  0  0  0  0  0  0  0  0
   -7.0021   16.6270    7.5088 C   0  0  1  0  0  0  0  0  0  0  0  0
   -8.0038   16.3035    8.5210 O   0  0  0  0  0  0  0  0  0  0  0  0
   -5.5689   16.2760    8.0819 C   0  0  1  0  0  0  0  0  0  0  0  0
   -4.5073   16.6009    7.0421 C   0  0  1  0  0  0  0  0  0  0  0  0
   -3.1983   16.2854    7.5941 N   0  0  0  0  0  0  0  0  0  0  0  0
   -4.7783   15.7935    5.7445 C   0  0  0  0  0  0  0  0  0  0  0  0
   -9.6236   16.0634    4.7415 C   0  0  0  0  0  0  0  0  0  0  0  0
  -10.6909   17.0260    5.2092 C   0  0  0  0  0  0  0  0  0  0  0  0
  -10.2336   18.4261    5.3259 N   0  0  0  0  0  0  0  0  0  0  0  0
   -9.5112   19.6403    5.7690 C   0  0  0  0  0  0  0  0  0  0  0  0
   -8.0896   19.1451    5.4743 C   0  0  0  0  0  0  0  0  0  0  0  0
   -7.0257   20.2255    5.7444 C   0  0  0  0  0  0  0  0  0  0  0  0
   -5.6175   19.6653    5.5694 C   0  0  0  0  0  0  0  0  0  0  0  0
   -4.6298   20.6842    5.8956 N   0  0  0  0  0  0  0  0  0  0  0  0
   -7.3764    9.9954    1.1172 N   0  0  0  0  0  0  0  0  0  0  0  0
   -6.3293   13.5765    4.2260 C   0  0  0  0  0  0  0  0  0  0  0  0
   -6.0684   12.9714    5.0803 O   0  0  0  0  0  0  0  0  0  0  0  0
   -6.6849   13.4000    2.7700 C   0  0  2  0  0  0  0  0  0  0  0  0
   -7.9073   13.9544    2.4861 O   0  0  0  0  0  0  0  0  0  0  0  0
   -6.8140   11.9007    2.5251 C   0  0  0  0  0  0  0  0  0  0  0  0
   -7.2545   11.4605    1.1173 C   0  0  0  0  0  0  0  0  0  0  0  0
  1  2  1  6  0  0  0
  1  3  1  0  0  0  0
  3  4  1  6  0  0  0
  3  5  1  0  0  0  0
  5  6  1  1  0  0  0
  5  7  1  0  0  0  0
  7  8  1  6  0  0  0
  9  7  1  0  0  0  0
  9 10  1  0  0  0  0
  9 11  1  1  0  0  0
 10  1  1  0  0  0  0
 11 12  1  0  0  0  0
 13 14  1  6  0  0  0
 13 15  1  0  0  0  0
 13 22  1  0  0  0  0
 14 32  1  0  0  0  0
 15 16  1  6  0  0  0
 15 17  1  0  0  0  0
 16 23  1  0  0  0  0
 17 18  1  1  0  0  0
 17 19  1  0  0  0  0
 19  2  1  1  0  0  0
 19 20  1  0  0  0  0
 20 21  1  1  0  0  0
 20 22  1  0  0  0  0
 23 24  1  0  0  0  0
 24 25  1  0  0  0  0
 25 26  1  0  0  0  0
 26 27  1  0  0  0  0
 27 28  1  0  0  0  0
 28 29  1  0  0  0  0
 29 30  1  0  0  0  0
 31 37  1  0  0  0  0
 32 33  2  0  0  0  0
 34 32  1  1  0  0  0
 34 35  1  0  0  0  0
 34 36  1  0  0  0  0
 36 37  1  0  0  0  0
M  END
>  <CHROM.1>
-172.98172448,57.36866984,-65.53949895,54.89230936,-176.65140170,71.51654433
59.06532848,-64.79941281,58.75809807,176.41966534,174.65673861,-177.11871223
-57.78091406,176.59715886,-177.33674976,-6.20268587,16.14968423,7.25476611
-0.83943643,1.00186027,-2.53947400

>  <Name>
1o9m_lig

>  <RI>
0

>  <Rbt.Current_Directory>
/home/itssahil/PROJECTS/Mol_Feturizer/New_Systems/rnas/1o9m

>  <Rbt.Executable>
rbdock ($Id: //depot/dev/client3/rdock/2013.1/src/exe/rbdock.cxx#4 $)

>  <Rbt.Library>
libRbt.so (2013.1, Build901 2013/11/27)

>  <Rbt.Parameter_File>
/export/apps/rDock/src/rDock_2013.1_src/data/scripts/dock_solv.prm

>  <Rbt.Receptor>
prm/pocket_docking_6.prm

>  <SCORE>
-16.8728

>  <SCORE.INTER>
-6.41927

>  <SCORE.INTER.CONST>
1

>  <SCORE.INTER.POLAR>
-1.47473

>  <SCORE.INTER.ROT>
15

>  <SCORE.INTER.SOLV>
12.4975

>  <SCORE.INTER.VDW>
-17.1296

>  <SCORE.INTER.norm>
-0.173494

>  <SCORE.INTRA>
-10.4535

>  <SCORE.INTRA.DIHEDRAL>
-19.3306

>  <SCORE.INTRA.DIHEDRAL.0>
21.5987

>  <SCORE.INTRA.POLAR>
0

>  <SCORE.INTRA.POLAR.0>
0

>  <SCORE.INTRA.REPUL>
0

>  <SCORE.INTRA.REPUL.0>
0

>  <SCORE.INTRA.SOLV>
1.42897

>  <SCORE.INTRA.SOLV.lig_0>
-108.715

>  <SCORE.INTRA.VDW>
-1.50274

>  <SCORE.INTRA.VDW.0>
-3.9485

>  <SCORE.INTRA.norm>
-0.282528

>  <SCORE.RESTR>
0

>  <SCORE.RESTR.CAVITY>
0

>  <SCORE.RESTR.norm>
0

>  <SCORE.SYSTEM>
0

>  <SCORE.SYSTEM.CONST>
0

>  <SCORE.SYSTEM.DIHEDRAL>
0

>  <SCORE.SYSTEM.SOLV>
0

>  <SCORE.SYSTEM.norm>
0

>  <SCORE.heavy>
37

>  <SCORE.norm>
-0.456022

>  <RMSD>
7.831

$$$$
1o9m_lig
 OpenBabel11021811403D
libRbt.so/2013.1/901 2013/11/27
 37 38  0  0  0  0  0  0  0  0999 V2000
   -9.5888   19.5010    5.1359 C   0  0  2  0  0  0  0  0  0  0  0  0
   -9.8582   19.4620    6.5705 O   0  0  0  0  0  0  0  0  0  0  0  0
  -10.9834   19.3789    4.4186 C   0  0  2  0  0  0  0  0  0  0  0  0
  -11.9047   20.4620    4.8047 N   0  0  0  0  0  0  0  0  0  0  0  0
  -11.6094   17.9703    4.7470 C   0  0  1  0  0  0  0  0  0  0  0  0
  -12.8795   17.8340    4.1036 O   0  0  0  0  0  0  0  0  0  0  0  0
  -10.5948   16.8697    4.2925 C   0  0  2  0  0  0  0  0  0  0  0  0
  -11.0599   15.5371    4.5621 O   0  0  0  0  0  0  0  0  0  0  0  0
   -9.2244   17.0708    4.9854 C   0  0  2  0  0  0  0  0  0  0  0  0
   -8.7159   18.3901    4.7402 O   0  0  0  0  0  0  0  0  0  0  0  0
   -8.2114   16.0561    4.5217 C   0  0  0  0  0  0  0  0  0  0  0  0
   -7.8741   16.2859    3.2092 N   0  0  0  0  0  0  0  0  0  0  0  0
   -6.0542   20.6507    8.2844 C   0  0  1  0  0  0  0  0  0  0  0  0
   -5.0099   20.9497    9.3040 N   0  0  0  0  0  0  0  0  0  0  0  0
   -6.4692   19.1919    8.4188 C   0  0  2  0  0  0  0  0  0  0  0  0
   -5.3262   18.4044    8.2653 O   0  0  0  0  0  0  0  0  0  0  0  0
   -7.5521   18.8272    7.3548 C   0  0  1  0  0  0  0  0  0  0  0  0
   -7.9575   17.4327    7.5079 O   0  0  0  0  0  0  0  0  0  0  0  0
   -8.8226   19.7504    7.5531 C   0  0  1  0  0  0  0  0  0  0  0  0
   -8.4240   21.2106    7.4022 C   0  0  1  0  0  0  0  0  0  0  0  0
   -9.6076   22.0397    7.5730 N   0  0  0  0  0  0  0  0  0  0  0  0
   -7.3332   21.5680    8.4471 C   0  0  0  0  0  0  0  0  0  0  0  0
   -4.1055   17.9026    7.6783 C   0  0  0  0  0  0  0  0  0  0  0  0
   -4.2589   17.8561    6.1754 C   0  0  0  0  0  0  0  0  0  0  0  0
   -3.1340   17.2054    5.4724 N   0  0  0  0  0  0  0  0  0  0  0  0
   -1.7720   16.7509    5.1109 C   0  0  0  0  0  0  0  0  0  0  0  0
   -1.7230   15.5205    6.0257 C   0  0  0  0  0  0  0  0  0  0  0  0
   -2.4553   14.3096    5.4177 C   0  0  0  0  0  0  0  0  0  0  0  0
   -3.9647   14.4307    5.6036 C   0  0  0  0  0  0  0  0  0  0  0  0
   -4.6319   13.2586    5.0548 N   0  0  0  0  0  0  0  0  0  0  0  0
   -0.8317   18.9222   11.1018 N   0  0  0  0  0  0  0  0  0  0  0  0
   -3.7103   21.9505    8.6287 C   0  0  0  0  0  0  0  0  0  0  0  0
   -3.5120   22.3944    7.6655 O   0  0  0  0  0  0  0  0  0  0  0  0
   -3.0685   21.8489    9.9908 C   0  0  2  0  0  0  0  0  0  0  0  0
   -2.2160   22.8994   10.2183 O   0  0  0  0  0  0  0  0  0  0  0  0
   -2.2170   20.5842    9.9850 C   0  0  0  0  0  0  0  0  0  0  0  0
   -1.5656   20.1773   11.3192 C   0  0  0  0  0  0  0  0  0  0  0  0
  1  2  1  1  0  0  0
  1  3  1  0  0  0  0
  3  4  1  1  0  0  0
  3  5  1  0  0  0  0
  5  6  1  6  0  0  0
  5  7  1  0  0  0  0
  7  8  1  1  0  0  0
  9  7  1  0  0  0  0
  9 10  1  0  0  0  0
  9 11  1  6  0  0  0
 10  1  1  0  0  0  0
 11 12  1  0  0  0  0
 13 14  1  1  0  0  0
 13 15  1  0  0  0  0
 13 22  1  0  0  0  0
 14 32  1  0  0  0  0
 15 16  1  6  0  0  0
 15 17  1  0  0  0  0
 16 23  1  0  0  0  0
 17 18  1  1  0  0  0
 17 19  1  0  0  0  0
 19  2  1  6  0  0  0
 19 20  1  0  0  0  0
 20 21  1  1  0  0  0
 20 22  1  0  0  0  0
 23 24  1  0  0  0  0
 24 25  1  0  0  0  0
 25 26  1  0  0  0  0
 26 27  1  0  0  0  0
 27 28  1  0  0  0  0
 28 29  1  0  0  0  0
 29 30  1  0  0  0  0
 31 37  1  0  0  0  0
 32 33  2  0  0  0  0
 34 32  1  6  0  0  0
 34 35  1  0  0  0  0
 34 36  1  0  0  0  0
 36 37  1  0  0  0  0
M  END
>  <CHROM.1>
-170.64715305,68.71877405,138.10560481,-50.28161961,-39.61294277,-55.19961525
-172.95676980,-34.54668671,84.37753907,80.64582940,-79.35763667,-178.42401117
-156.02588248,-173.95305966,178.29882923,-6.44541479,18.65709899,6.79570919
2.70867442,0.30891687,-2.57892532

>  <Name>
1o9m_lig

>  <RI>
0

>  <Rbt.Current_Directory>
/home/itssahil/PROJECTS/Mol_Feturizer/New_Systems/rnas/1o9m

>  <Rbt.Executable>
rbdock ($Id: //depot/dev/client3/rdock/2013.1/src/exe/rbdock.cxx#4 $)

>  <Rbt.Library>
libRbt.so (2013.1, Build901 2013/11/27)

>  <Rbt.Parameter_File>
/export/apps/rDock/src/rDock_2013.1_src/data/scripts/dock_solv.prm

>  <Rbt.Receptor>
prm/pocket_docking_5.prm

>  <SCORE>
-8.65522

>  <SCORE.INTER>
-3.06635

>  <SCORE.INTER.CONST>
1

>  <SCORE.INTER.POLAR>
-1.69461

>  <SCORE.INTER.ROT>
15

>  <SCORE.INTER.SOLV>
13.8906

>  <SCORE.INTER.VDW>
-14.6257

>  <SCORE.INTER.norm>
-0.0828745

>  <SCORE.INTRA>
-5.58886

>  <SCORE.INTRA.DIHEDRAL>
-11.825

>  <SCORE.INTRA.DIHEDRAL.0>
21.5987

>  <SCORE.INTRA.POLAR>
0

>  <SCORE.INTRA.POLAR.0>
0

>  <SCORE.INTRA.REPUL>
0

>  <SCORE.INTRA.REPUL.0>
0

>  <SCORE.INTRA.SOLV>
1.79671

>  <SCORE.INTRA.SOLV.lig_0>
-108.715

>  <SCORE.INTRA.VDW>
-0.574737

>  <SCORE.INTRA.VDW.0>
-3.9485

>  <SCORE.INTRA.norm>
-0.15105

>  <SCORE.RESTR>
0

>  <SCORE.RESTR.CAVITY>
0

>  <SCORE.RESTR.norm>
0

>  <SCORE.SYSTEM>
0

>  <SCORE.SYSTEM.CONST>
0

>  <SCORE.SYSTEM.DIHEDRAL>
0

>  <SCORE.SYSTEM.SOLV>
0

>  <SCORE.SYSTEM.norm>
0

>  <SCORE.heavy>
37

>  <SCORE.norm>
-0.233925

>  <RMSD>
7.836

$$$$
1o9m_lig
 OpenBabel11021811403D
libRbt.so/2013.1/901 2013/11/27
 37 38  0  0  0  0  0  0  0  0999 V2000
   -3.8897   17.5996   10.0077 C   0  0  2  0  0  0  0  0  0  0  0  0
   -5.1164   18.3385   10.2929 O   0  0  0  0  0  0  0  0  0  0  0  0
   -3.4744   16.8932   11.3505 C   0  0  2  0  0  0  0  0  0  0  0  0
   -4.5233   15.9871   11.8504 N   0  0  0  0  0  0  0  0  0  0  0  0
   -3.1285   17.9929   12.4251 C   0  0  1  0  0  0  0  0  0  0  0  0
   -2.7455   17.3747   13.6565 O   0  0  0  0  0  0  0  0  0  0  0  0
   -1.9967   18.9025   11.8426 C   0  0  2  0  0  0  0  0  0  0  0  0
   -1.6125   19.9576   12.7392 O   0  0  0  0  0  0  0  0  0  0  0  0
   -2.4369   19.5266   10.4953 C   0  0  2  0  0  0  0  0  0  0  0  0
   -2.8269   18.5080    9.5627 O   0  0  0  0  0  0  0  0  0  0  0  0
   -1.3424   20.3633    9.8848 C   0  0  0  0  0  0  0  0  0  0  0  0
   -0.2360   19.5882    9.6313 N   0  0  0  0  0  0  0  0  0  0  0  0
   -8.5687   19.2867    7.8427 C   0  0  1  0  0  0  0  0  0  0  0  0
   -9.3916   19.8835    6.7536 N   0  0  0  0  0  0  0  0  0  0  0  0
   -7.4648   18.4434    7.2192 C   0  0  2  0  0  0  0  0  0  0  0  0
   -8.0674   17.4782    6.4095 O   0  0  0  0  0  0  0  0  0  0  0  0
   -6.5857   17.7812    8.3265 C   0  0  1  0  0  0  0  0  0  0  0  0
   -5.5182   16.9932    7.7165 O   0  0  0  0  0  0  0  0  0  0  0  0
   -5.9342   18.9061    9.2299 C   0  0  1  0  0  0  0  0  0  0  0  0
   -7.0282   19.7441    9.8738 C   0  0  1  0  0  0  0  0  0  0  0  0
   -6.4088   20.7610   10.7103 N   0  0  0  0  0  0  0  0  0  0  0  0
   -7.9144   20.3866    8.7732 C   0  0  0  0  0  0  0  0  0  0  0  0
   -8.9302   16.3815    6.0362 C   0  0  0  0  0  0  0  0  0  0  0  0
   -8.7048   16.0448    4.5800 C   0  0  0  0  0  0  0  0  0  0  0  0
   -9.0444   17.1387    3.6467 N   0  0  0  0  0  0  0  0  0  0  0  0
   -8.9611   18.3706    2.8295 C   0  0  0  0  0  0  0  0  0  0  0  0
  -10.4628   18.5352    2.5634 C   0  0  0  0  0  0  0  0  0  0  0  0
  -10.7611   19.6858    1.5839 C   0  0  0  0  0  0  0  0  0  0  0  0
  -10.5450   21.0421    2.2480 C   0  0  0  0  0  0  0  0  0  0  0  0
  -10.8614   22.1128    1.3133 N   0  0  0  0  0  0  0  0  0  0  0  0
  -14.5244   18.5156    4.4636 N   0  0  0  0  0  0  0  0  0  0  0  0
  -11.1139   19.5145    6.9641 C   0  0  0  0  0  0  0  0  0  0  0  0
  -11.6938   18.9738    7.6958 O   0  0  0  0  0  0  0  0  0  0  0  0
  -11.3251   20.2749    5.6777 C   0  0  2  0  0  0  0  0  0  0  0  0
  -11.2210   21.6282    5.8774 O   0  0  0  0  0  0  0  0  0  0  0  0
  -12.7587   20.0044    5.2347 C   0  0  0  0  0  0  0  0  0  0  0  0
  -13.1006   18.5598    4.8269 C   0  0  0  0  0  0  0  0  0  0  0  0
  1  2  1  1  0  0  0
  1  3  1  0  0  0  0
  3  4  1  1  0  0  0
  3  5  1  0  0  0  0
  5  6  1  1  0  0  0
  5  7  1  0  0  0  0
  7  8  1  1  0  0  0
  9  7  1  0  0  0  0
  9 10  1  0  0  0  0
  9 11  1  6  0  0  0
 10  1  1  0  0  0  0
 11 12  1  0  0  0  0
 13 14  1  6  0  0  0
 13 15  1  0  0  0  0
 13 22  1  0  0  0  0
 14 32  1  0  0  0  0
 15 16  1  1  0  0  0
 15 17  1  0  0  0  0
 16 23  1  0  0  0  0
 17 18  1  6  0  0  0
 17 19  1  0  0  0  0
 19  2  1  1  0  0  0
 19 20  1  0  0  0  0
 20 21  1  6  0  0  0
 20 22  1  0  0  0  0
 23 24  1  0  0  0  0
 24 25  1  0  0  0  0
 25 26  1  0  0  0  0
 26 27  1  0  0  0  0
 27 28  1  0  0  0  0
 28 29  1  0  0  0  0
 29 30  1  0  0  0  0
 31 37  1  0  0  0  0
 32 33  2  0  0  0  0
 34 32  1  1  0  0  0
 34 35  1  0  0  0  0
 34 36  1  0  0  0  0
 36 37  1  0  0  0  0
M  END
>  <CHROM.1>
-167.96188964,60.91963813,126.10601792,-55.83330443,-178.45548651,66.05960124
-62.61807526,82.84408166,-162.49685490,-174.08995335,-72.76952392,-178.73349621
-75.27879550,-66.00752377,178.93002521,-7.28770623,18.84612990,7.63756523
-0.70983511,0.05883019,-1.52099633

>  <Name>
1o9m_lig

>  <RI>
0

>  <Rbt.Current_Directory>
/home/itssahil/PROJECTS/Mol_Feturizer/New_Systems/rnas/1o9m

>  <Rbt.Executable>
rbdock ($Id: //depot/dev/client3/rdock/2013.1/src/exe/rbdock.cxx#4 $)

>  <Rbt.Library>
libRbt.so (2013.1, Build901 2013/11/27)

>  <Rbt.Parameter_File>
/export/apps/rDock/src/rDock_2013.1_src/data/scripts/dock_solv.prm

>  <Rbt.Receptor>
prm/pocket_docking_6.prm

>  <SCORE>
-7.10986

>  <SCORE.INTER>
2.51219

>  <SCORE.INTER.CONST>
1

>  <SCORE.INTER.POLAR>
-0.87178

>  <SCORE.INTER.ROT>
15

>  <SCORE.INTER.SOLV>
10.5325

>  <SCORE.INTER.VDW>
-12.5301

>  <SCORE.INTER.norm>
0.067897

>  <SCORE.INTRA>
-9.62205

>  <SCORE.INTRA.DIHEDRAL>
-16.9315

>  <SCORE.INTRA.DIHEDRAL.0>
21.5987

>  <SCORE.INTRA.POLAR>
0

>  <SCORE.INTRA.POLAR.0>
0

>  <SCORE.INTRA.REPUL>
0

>  <SCORE.INTRA.REPUL.0>
0

>  <SCORE.INTRA.SOLV>
0.919349

>  <SCORE.INTRA.SOLV.lig_0>
-108.715

>  <SCORE.INTRA.VDW>
-1.61599

>  <SCORE.INTRA.VDW.0>
-3.9485

>  <SCORE.INTRA.norm>
-0.260055

>  <SCORE.RESTR>
0

>  <SCORE.RESTR.CAVITY>
0

>  <SCORE.RESTR.norm>
0

>  <SCORE.SYSTEM>
0

>  <SCORE.SYSTEM.CONST>
0

>  <SCORE.SYSTEM.DIHEDRAL>
0

>  <SCORE.SYSTEM.SOLV>
0

>  <SCORE.SYSTEM.norm>
0

>  <SCORE.heavy>
37

>  <SCORE.norm>
-0.192158

>  <RMSD>
7.839

$$$$
1o9m_lig
 OpenBabel11021811403D
libRbt.so/2013.1/901 2013/11/27
 37 38  0  0  0  0  0  0  0  0999 V2000
   -6.6446   19.6265    7.1840 C   0  0  2  0  0  0  0  0  0  0  0  0
   -7.3826   18.5162    6.5883 O   0  0  0  0  0  0  0  0  0  0  0  0
   -7.7145   20.5539    7.8694 C   0  0  2  0  0  0  0  0  0  0  0  0
   -8.4960   19.8393    8.8939 N   0  0  0  0  0  0  0  0  0  0  0  0
   -8.6622   21.1525    6.7615 C   0  0  1  0  0  0  0  0  0  0  0  0
   -9.6444   22.0022    7.3605 O   0  0  0  0  0  0  0  0  0  0  0  0
   -7.7747   21.9146    5.7228 C   0  0  2  0  0  0  0  0  0  0  0  0
   -8.5400   22.4901    4.6514 O   0  0  0  0  0  0  0  0  0  0  0  0
   -6.7045   20.9702    5.1218 C   0  0  2  0  0  0  0  0  0  0  0  0
   -5.9097   20.3732    6.1568 O   0  0  0  0  0  0  0  0  0  0  0  0
   -5.7996   21.6946    4.1589 C   0  0  0  0  0  0  0  0  0  0  0  0
   -4.8955   20.8196    3.6056 N   0  0  0  0  0  0  0  0  0  0  0  0
   -6.0903   14.4960    5.5939 C   0  0  1  0  0  0  0  0  0  0  0  0
   -5.3946   13.3826    4.8898 N   0  0  0  0  0  0  0  0  0  0  0  0
   -5.0468   15.4647    6.1335 C   0  0  2  0  0  0  0  0  0  0  0  0
   -4.1901   14.7492    6.9728 O   0  0  0  0  0  0  0  0  0  0  0  0
   -5.7312   16.6418    6.8976 C   0  0  1  0  0  0  0  0  0  0  0  0
   -4.7220   17.5748    7.3912 O   0  0  0  0  0  0  0  0  0  0  0  0
   -6.7032   17.4165    5.9174 C   0  0  1  0  0  0  0  0  0  0  0  0
   -7.7624   16.4628    5.3860 C   0  0  1  0  0  0  0  0  0  0  0  0
   -8.6529   17.1976    4.5002 N   0  0  0  0  0  0  0  0  0  0  0  0
   -7.0814   15.2822    4.6434 C   0  0  0  0  0  0  0  0  0  0  0  0
   -3.7671   13.9412    8.0929 C   0  0  0  0  0  0  0  0  0  0  0  0
   -3.8498   14.7634    9.3585 C   0  0  0  0  0  0  0  0  0  0  0  0
   -2.9181   15.9094    9.3972 N   0  0  0  0  0  0  0  0  0  0  0  0
   -2.3202   17.2472    9.1846 C   0  0  0  0  0  0  0  0  0  0  0  0
   -3.2778   18.0388   10.0844 C   0  0  0  0  0  0  0  0  0  0  0  0
   -3.0614   19.5597    9.9745 C   0  0  0  0  0  0  0  0  0  0  0  0
   -1.7112   19.9658   10.5571 C   0  0  0  0  0  0  0  0  0  0  0  0
   -1.5133   21.4006   10.4080 N   0  0  0  0  0  0  0  0  0  0  0  0
   -6.5824    9.6528    1.5645 N   0  0  0  0  0  0  0  0  0  0  0  0
   -6.2307   12.9398    3.3893 C   0  0  0  0  0  0  0  0  0  0  0  0
   -7.1088   13.2949    2.8725 O   0  0  0  0  0  0  0  0  0  0  0  0
   -5.1681   11.8793    3.2351 C   0  0  2  0  0  0  0  0  0  0  0  0
   -4.8087   11.7232    1.9204 O   0  0  0  0  0  0  0  0  0  0  0  0
   -5.7914   10.5611    3.6806 C   0  0  0  0  0  0  0  0  0  0  0  0
   -7.0267   10.0761    2.9004 C   0  0  0  0  0  0  0  0  0  0  0  0
  1  2  1  6  0  0  0
  1  3  1  0  0  0  0
  3  4  1  1  0  0  0
  3  5  1  0  0  0  0
  5  6  1  1  0  0  0
  5  7  1  0  0  0  0
  7  8  1  6  0  0  0
  9  7  1  0  0  0  0
  9 10  1  0  0  0  0
  9 11  1  6  0  0  0
 10  1  1  0  0  0  0
 11 12  1  0  0  0  0
 13 14  1  6  0  0  0
 13 15  1  0  0  0  0
 13 22  1  0  0  0  0
 14 32  1  0  0  0  0
 15 16  1  1  0  0  0
 15 17  1  0  0  0  0
 16 23  1  0  0  0  0
 17 18  1  6  0  0  0
 17 19  1  0  0  0  0
 19  2  1  1  0  0  0
 19 20  1  0  0  0  0
 20 21  1  6  0  0  0
 20 22  1  0  0  0  0
 23 24  1  0  0  0  0
 24 25  1  0  0  0  0
 25 26  1  0  0  0  0
 26 27  1  0  0  0  0
 27 28  1  0  0  0  0
 28 29  1  0  0  0  0
 29 30  1  0  0  0  0
 31 37  1  0  0  0  0
 32 33  2  0  0  0  0
 34 32  1  6  0  0  0
 34 35  1  0  0  0  0
 34 36  1  0  0  0  0
 36 37  1  0  0  0  0
M  END
>  <CHROM.1>
-177.00247767,-177.71089761,-138.86862756,-60.98245582,-70.18805591,60.74228890
-65.03767311,81.69547044,70.49326297,-172.75699040,-67.66846098,178.40249944
-142.83696587,60.29784765,70.74058631,-5.80317257,17.03052959,6.18374106
1.57125837,-0.77246644,0.42997169

>  <Name>
1o9m_lig

>  <RI>
0

>  <Rbt.Current_Directory>
/home/itssahil/PROJECTS/Mol_Feturizer/New_Systems/rnas/1o9m

>  <Rbt.Executable>
rbdock ($Id: //depot/dev/client3/rdock/2013.1/src/exe/rbdock.cxx#4 $)

>  <Rbt.Library>
libRbt.so (2013.1, Build901 2013/11/27)

>  <Rbt.Parameter_File>
/export/apps/rDock/src/rDock_2013.1_src/data/scripts/dock_solv.prm

>  <Rbt.Receptor>
prm/pocket_docking_7.prm

>  <SCORE>
-9.07916

>  <SCORE.INTER>
-4.56789

>  <SCORE.INTER.CONST>
1

>  <SCORE.INTER.POLAR>
-1.76575

>  <SCORE.INTER.ROT>
15

>  <SCORE.INTER.SOLV>
9.19893

>  <SCORE.INTER.VDW>
-13.8257

>  <SCORE.INTER.norm>
-0.123456

>  <SCORE.INTRA>
-4.51127

>  <SCORE.INTRA.DIHEDRAL>
-16.5781

>  <SCORE.INTRA.DIHEDRAL.0>
21.5987

>  <SCORE.INTRA.POLAR>
0

>  <SCORE.INTRA.POLAR.0>
0

>  <SCORE.INTRA.REPUL>
0

>  <SCORE.INTRA.REPUL.0>
0

>  <SCORE.INTRA.SOLV>
2.85681

>  <SCORE.INTRA.SOLV.lig_0>
-108.715

>  <SCORE.INTRA.VDW>
2.34936

>  <SCORE.INTRA.VDW.0>
-3.9485

>  <SCORE.INTRA.norm>
-0.121926

>  <SCORE.RESTR>
0

>  <SCORE.RESTR.CAVITY>
0

>  <SCORE.RESTR.norm>
0

>  <SCORE.SYSTEM>
0

>  <SCORE.SYSTEM.CONST>
0

>  <SCORE.SYSTEM.DIHEDRAL>
0

>  <SCORE.SYSTEM.SOLV>
0

>  <SCORE.SYSTEM.norm>
0

>  <SCORE.heavy>
37

>  <SCORE.norm>
-0.245383

>  <RMSD>
7.856

$$$$
1o9m_lig
 OpenBabel11021811403D
libRbt.so/2013.1/901 2013/11/27
 37 38  0  0  0  0  0  0  0  0999 V2000
   -6.8414   16.7716   11.2264 C   0  0  2  0  0  0  0  0  0  0  0  0
   -6.7562   18.2219   11.0799 O   0  0  0  0  0  0  0  0  0  0  0  0
   -6.1733   16.4247   12.6076 C   0  0  2  0  0  0  0  0  0  0  0  0
   -6.8398   17.1015   13.7339 N   0  0  0  0  0  0  0  0  0  0  0  0
   -4.6457   16.8083   12.5511 C   0  0  1  0  0  0  0  0  0  0  0  0
   -4.0144   16.5002   13.7970 O   0  0  0  0  0  0  0  0  0  0  0  0
   -3.9959   16.0407   11.3528 C   0  0  2  0  0  0  0  0  0  0  0  0
   -2.5973   16.3317   11.1969 O   0  0  0  0  0  0  0  0  0  0  0  0
   -4.7269   16.3753   10.0292 C   0  0  2  0  0  0  0  0  0  0  0  0
   -6.1305   16.0960   10.1351 O   0  0  0  0  0  0  0  0  0  0  0  0
   -4.1556   15.6049    8.8670 C   0  0  0  0  0  0  0  0  0  0  0  0
   -4.4666   14.2709    8.9814 N   0  0  0  0  0  0  0  0  0  0  0  0
   -8.3269   20.7950    7.9601 C   0  0  1  0  0  0  0  0  0  0  0  0
   -8.4752   21.4580    6.6342 N   0  0  0  0  0  0  0  0  0  0  0  0
   -8.4629   19.2898    7.7752 C   0  0  2  0  0  0  0  0  0  0  0  0
   -9.7034   19.0401    7.1845 O   0  0  0  0  0  0  0  0  0  0  0  0
   -8.3323   18.5526    9.1453 C   0  0  1  0  0  0  0  0  0  0  0  0
   -8.4426   17.1094    8.9521 O   0  0  0  0  0  0  0  0  0  0  0  0
   -6.9214   18.8729    9.7877 C   0  0  1  0  0  0  0  0  0  0  0  0
   -6.7812   20.3733    9.9949 C   0  0  1  0  0  0  0  0  0  0  0  0
   -5.4853   20.6440   10.5992 N   0  0  0  0  0  0  0  0  0  0  0  0
   -6.9306   21.1077    8.6356 C   0  0  0  0  0  0  0  0  0  0  0  0
  -10.7330   19.0202    6.1715 C   0  0  0  0  0  0  0  0  0  0  0  0
  -12.0315   18.5572    6.7912 C   0  0  0  0  0  0  0  0  0  0  0  0
  -12.6324   19.5261    7.7310 N   0  0  0  0  0  0  0  0  0  0  0  0
  -13.5060   20.5726    8.3089 C   0  0  0  0  0  0  0  0  0  0  0  0
  -14.7179   19.6799    8.6043 C   0  0  0  0  0  0  0  0  0  0  0  0
  -15.8514   20.4467    9.3110 C   0  0  0  0  0  0  0  0  0  0  0  0
  -16.9799   19.5049    9.7195 C   0  0  0  0  0  0  0  0  0  0  0  0
  -18.1178   20.2704   10.2089 N   0  0  0  0  0  0  0  0  0  0  0  0
  -11.3423   25.3857    3.1221 N   0  0  0  0  0  0  0  0  0  0  0  0
   -9.1436   23.0931    6.7966 C   0  0  0  0  0  0  0  0  0  0  0  0
   -9.4523   23.7117    7.6249 O   0  0  0  0  0  0  0  0  0  0  0  0
   -9.0779   23.1549    5.2902 C   0  0  2  0  0  0  0  0  0  0  0  0
   -7.8544   23.6061    4.8640 O   0  0  0  0  0  0  0  0  0  0  0  0
  -10.1074   24.1876    4.8448 C   0  0  0  0  0  0  0  0  0  0  0  0
  -10.3044   24.3653    3.3285 C   0  0  0  0  0  0  0  0  0  0  0  0
  1  2  1  6  0  0  0
  1  3  1  0  0  0  0
  3  4  1  1  0  0  0
  3  5  1  0  0  0  0
  5  6  1  1  0  0  0
  5  7  1  0  0  0  0
  7  8  1  6  0  0  0
  9  7  1  0  0  0  0
  9 10  1  0  0  0  0
  9 11  1  6  0  0  0
 10  1  1  0  0  0  0
 11 12  1  0  0  0  0
 13 14  1  6  0  0  0
 13 15  1  0  0  0  0
 13 22  1  0  0  0  0
 14 32  1  0  0  0  0
 15 16  1  1  0  0  0
 15 17  1  0  0  0  0
 16 23  1  0  0  0  0
 17 18  1  6  0  0  0
 17 19  1  0  0  0  0
 19  2  1  1  0  0  0
 19 20  1  0  0  0  0
 20 21  1  6  0  0  0
 20 22  1  0  0  0  0
 23 24  1  0  0  0  0
 24 25  1  0  0  0  0
 25 26  1  0  0  0  0
 26 27  1  0  0  0  0
 27 28  1  0  0  0  0
 28 29  1  0  0  0  0
 29 30  1  0  0  0  0
 31 37  1  0  0  0  0
 32 33  2  0  0  0  0
 34 32  1  1  0  0  0
 34 35  1  0  0  0  0
 34 36  1  0  0  0  0
 36 37  1  0  0  0  0
M  END
>  <CHROM.1>
162.34380300,69.72440593,151.02461290,68.86479020,-171.34063789,58.94240034
69.63101594,102.53213062,78.35807478,176.90608463,-174.16286983,-171.87207853
-87.78323580,-175.83256245,179.30418444,-8.66134445,19.41634905,8.78580673
0.74264026,-0.06185633,2.37418212

>  <Name>
1o9m_lig

>  <RI>
0

>  <Rbt.Current_Directory>
/home/itssahil/PROJECTS/Mol_Feturizer/New_Systems/rnas/1o9m

>  <Rbt.Executable>
rbdock ($Id: //depot/dev/client3/rdock/2013.1/src/exe/rbdock.cxx#4 $)

>  <Rbt.Library>
libRbt.so (2013.1, Build901 2013/11/27)

>  <Rbt.Parameter_File>
/export/apps/rDock/src/rDock_2013.1_src/data/scripts/dock_solv.prm

>  <Rbt.Receptor>
prm/pocket_docking_7.prm

>  <SCORE>
-19.1636

>  <SCORE.INTER>
-11.278

>  <SCORE.INTER.CONST>
1

>  <SCORE.INTER.POLAR>
-2.61841

>  <SCORE.INTER.ROT>
15

>  <SCORE.INTER.SOLV>
18.8581

>  <SCORE.INTER.VDW>
-18.6766

>  <SCORE.INTER.norm>
-0.30481

>  <SCORE.INTRA>
-7.88568

>  <SCORE.INTRA.DIHEDRAL>
-15.0848

>  <SCORE.INTRA.DIHEDRAL.0>
21.5987

>  <SCORE.INTRA.POLAR>
0

>  <SCORE.INTRA.POLAR.0>
0

>  <SCORE.INTRA.REPUL>
0

>  <SCORE.INTRA.REPUL.0>
0

>  <SCORE.INTRA.SOLV>
-0.607599

>  <SCORE.INTRA.SOLV.lig_0>
-108.715

>  <SCORE.INTRA.VDW>
-0.0394676

>  <SCORE.INTRA.VDW.0>
-3.9485

>  <SCORE.INTRA.norm>
-0.213127

>  <SCORE.RESTR>
0

>  <SCORE.RESTR.CAVITY>
0

>  <SCORE.RESTR.norm>
0

>  <SCORE.SYSTEM>
0

>  <SCORE.SYSTEM.CONST>
0

>  <SCORE.SYSTEM.DIHEDRAL>
0

>  <SCORE.SYSTEM.SOLV>
0

>  <SCORE.SYSTEM.norm>
0

>  <SCORE.heavy>
37

>  <SCORE.norm>
-0.517936

>  <RMSD>
7.864

$$$$
1o9m_lig
 OpenBabel11021811403D
libRbt.so/2013.1/901 2013/11/27
 37 38  0  0  0  0  0  0  0  0999 V2000
   -3.7696   10.0878   -0.0646 C   0  0  2  0  0  0  0  0  0  0  0  0
   -4.9491   10.7251    0.5139 O   0  0  0  0  0  0  0  0  0  0  0  0
   -3.9247   10.2005   -1.6259 C   0  0  2  0  0  0  0  0  0  0  0  0
   -4.0331   11.5996   -2.0750 N   0  0  0  0  0  0  0  0  0  0  0  0
   -5.1849    9.3697   -2.0793 C   0  0  1  0  0  0  0  0  0  0  0  0
   -5.3465    9.4551   -3.4978 O   0  0  0  0  0  0  0  0  0  0  0  0
   -4.9952    7.8949   -1.5931 C   0  0  2  0  0  0  0  0  0  0  0  0
   -6.1019    7.0467   -1.9403 O   0  0  0  0  0  0  0  0  0  0  0  0
   -4.7911    7.8477   -0.0587 C   0  0  2  0  0  0  0  0  0  0  0  0
   -3.6901    8.6788    0.3368 O   0  0  0  0  0  0  0  0  0  0  0  0
   -4.5499    6.4423    0.4284 C   0  0  0  0  0  0  0  0  0  0  0  0
   -3.4201    5.9229   -0.1573 N   0  0  0  0  0  0  0  0  0  0  0  0
   -5.4742   13.2897    3.9733 C   0  0  1  0  0  0  0  0  0  0  0  0
   -5.5022   13.7359    5.3945 N   0  0  0  0  0  0  0  0  0  0  0  0
   -4.0593   12.8482    3.6244 C   0  0  2  0  0  0  0  0  0  0  0  0
   -3.2017   13.9230    3.8679 O   0  0  0  0  0  0  0  0  0  0  0  0
   -3.9778   12.3882    2.1346 C   0  0  1  0  0  0  0  0  0  0  0  0
   -2.6221   11.9469    1.8183 O   0  0  0  0  0  0  0  0  0  0  0  0
   -4.9735   11.1808    1.8969 C   0  0  1  0  0  0  0  0  0  0  0  0
   -6.3939   11.6157    2.2243 C   0  0  1  0  0  0  0  0  0  0  0  0
   -7.2936   10.4972    1.9850 N   0  0  0  0  0  0  0  0  0  0  0  0
   -6.4708   12.0916    3.6998 C   0  0  0  0  0  0  0  0  0  0  0  0
   -1.9679   14.6697    3.9495 C   0  0  0  0  0  0  0  0  0  0  0  0
   -2.2766   16.1011    4.3240 C   0  0  0  0  0  0  0  0  0  0  0  0
   -1.0855   16.9688    4.4305 N   0  0  0  0  0  0  0  0  0  0  0  0
    0.2642   17.4738    4.7706 C   0  0  0  0  0  0  0  0  0  0  0  0
    0.6603   17.9457    3.3658 C   0  0  0  0  0  0  0  0  0  0  0  0
   -0.1913   19.1361    2.8864 C   0  0  0  0  0  0  0  0  0  0  0  0
    0.2081   19.5650    1.4779 C   0  0  0  0  0  0  0  0  0  0  0  0
   -0.6081   20.6915    1.0477 N   0  0  0  0  0  0  0  0  0  0  0  0
   -2.6404   17.6328    8.3087 N   0  0  0  0  0  0  0  0  0  0  0  0
   -5.3410   15.4976    5.5256 C   0  0  0  0  0  0  0  0  0  0  0  0
   -5.2399   16.3085    4.8211 O   0  0  0  0  0  0  0  0  0  0  0  0
   -5.3959   15.2851    7.0187 C   0  0  2  0  0  0  0  0  0  0  0  0
   -6.6885   15.3112    7.4774 O   0  0  0  0  0  0  0  0  0  0  0  0
   -4.6772   16.4669    7.6601 C   0  0  0  0  0  0  0  0  0  0  0  0
   -3.1526   16.5455    7.4621 C   0  0  0  0  0  0  0  0  0  0  0  0
  1  2  1  1  0  0  0
  1  3  1  0  0  0  0
  3  4  1  1  0  0  0
  3  5  1  0  0  0  0
  5  6  1  6  0  0  0
  5  7  1  0  0  0  0
  7  8  1  1  0  0  0
  9  7  1  0  0  0  0
  9 10  1  0  0  0  0
  9 11  1  6  0  0  0
 10  1  1  0  0  0  0
 11 12  1  0  0  0  0
 13 14  1  1  0  0  0
 13 15  1  0  0  0  0
 13 22  1  0  0  0  0
 14 32  1  0  0  0  0
 15 16  1  6  0  0  0
 15 17  1  0  0  0  0
 16 23  1  0  0  0  0
 17 18  1  1  0  0  0
 17 19  1  0  0  0  0
 19  2  1  6  0  0  0
 19 20  1  0  0  0  0
 20 21  1  1  0  0  0
 20 22  1  0  0  0  0
 23 24  1  0  0  0  0
 24 25  1  0  0  0  0
 25 26  1  0  0  0  0
 26 27  1  0  0  0  0
 27 28  1  0  0  0  0
 28 29  1  0  0  0  0
 29 30  1  0  0  0  0
 31 37  1  0  0  0  0
 32 33  2  0  0  0  0
 34 32  1  6  0  0  0
 34 35  1  0  0  0  0
 34 36  1  0  0  0  0
 36 37  1  0  0  0  0
M  END
>  <CHROM.1>
-160.70760708,60.40937566,96.66988790,179.77174225,174.36584775,66.81296484
-179.66534407,-45.62445179,130.86283650,66.79846906,-178.93195564,-179.91344513
-88.97799414,-69.31299073,-172.03708344,-3.86145312,13.08167705,2.50894609
-1.92466525,0.82163561,0.85190655

>  <Name>
1o9m_lig

>  <RI>
0

>  <Rbt.Current_Directory>
/home/itssahil/PROJECTS/Mol_Feturizer/New_Systems/rnas/1o9m

>  <Rbt.Executable>
rbdock ($Id: //depot/dev/client3/rdock/2013.1/src/exe/rbdock.cxx#4 $)

>  <Rbt.Library>
libRbt.so (2013.1, Build901 2013/11/27)

>  <Rbt.Parameter_File>
/export/apps/rDock/src/rDock_2013.1_src/data/scripts/dock_solv.prm

>  <Rbt.Receptor>
prm/pocket_docking_8.prm

>  <SCORE>
-21.4873

>  <SCORE.INTER>
-14.0678

>  <SCORE.INTER.CONST>
1

>  <SCORE.INTER.POLAR>
-1.9555

>  <SCORE.INTER.ROT>
15

>  <SCORE.INTER.SOLV>
14.2067

>  <SCORE.INTER.VDW>
-21.1957

>  <SCORE.INTER.norm>
-0.38021

>  <SCORE.INTRA>
-7.41951

>  <SCORE.INTRA.DIHEDRAL>
-15.3199

>  <SCORE.INTRA.DIHEDRAL.0>
21.5987

>  <SCORE.INTRA.POLAR>
0

>  <SCORE.INTRA.POLAR.0>
0

>  <SCORE.INTRA.REPUL>
0

>  <SCORE.INTRA.REPUL.0>
0

>  <SCORE.INTRA.SOLV>
1.69414

>  <SCORE.INTRA.SOLV.lig_0>
-108.715

>  <SCORE.INTRA.VDW>
-0.606647

>  <SCORE.INTRA.VDW.0>
-3.9485

>  <SCORE.INTRA.norm>
-0.200527

>  <SCORE.RESTR>
0

>  <SCORE.RESTR.CAVITY>
0

>  <SCORE.RESTR.norm>
0

>  <SCORE.SYSTEM>
0

>  <SCORE.SYSTEM.CONST>
0

>  <SCORE.SYSTEM.DIHEDRAL>
0

>  <SCORE.SYSTEM.SOLV>
0

>  <SCORE.SYSTEM.norm>
0

>  <SCORE.heavy>
37

>  <SCORE.norm>
-0.580738

>  <RMSD>
7.864

$$$$
1o9m_lig
 OpenBabel11021811403D
libRbt.so/2013.1/901 2013/11/27
 37 38  0  0  0  0  0  0  0  0999 V2000
   -3.8749   17.0384   10.0363 C   0  0  2  0  0  0  0  0  0  0  0  0
   -5.2228   17.5658   10.2294 O   0  0  0  0  0  0  0  0  0  0  0  0
   -3.4068   16.4927   11.4354 C   0  0  2  0  0  0  0  0  0  0  0  0
   -4.3056   15.4465   11.9538 N   0  0  0  0  0  0  0  0  0  0  0  0
   -3.3066   17.6949   12.4495 C   0  0  1  0  0  0  0  0  0  0  0  0
   -2.8803   17.2238   13.7309 O   0  0  0  0  0  0  0  0  0  0  0  0
   -2.3231   18.7544   11.8514 C   0  0  2  0  0  0  0  0  0  0  0  0
   -2.1691   19.9094   12.6923 O   0  0  0  0  0  0  0  0  0  0  0  0
   -2.8012   19.2146   10.4521 C   0  0  2  0  0  0  0  0  0  0  0  0
   -2.9654   18.0924    9.5729 O   0  0  0  0  0  0  0  0  0  0  0  0
   -1.8405   20.1944    9.8295 C   0  0  0  0  0  0  0  0  0  0  0  0
   -1.9653   21.4270   10.4248 N   0  0  0  0  0  0  0  0  0  0  0  0
   -8.4460   17.5934    7.3258 C   0  0  1  0  0  0  0  0  0  0  0  0
   -9.2936   18.0230    6.1784 N   0  0  0  0  0  0  0  0  0  0  0  0
   -7.0364   17.3184    6.8200 C   0  0  2  0  0  0  0  0  0  0  0  0
   -7.1209   16.3472    5.8201 O   0  0  0  0  0  0  0  0  0  0  0  0
   -6.1146   16.8460    7.9883 C   0  0  1  0  0  0  0  0  0  0  0  0
   -4.7611   16.6065    7.4952 O   0  0  0  0  0  0  0  0  0  0  0  0
   -6.0576   17.9662    9.1053 C   0  0  1  0  0  0  0  0  0  0  0  0
   -7.4588   18.2365    9.6322 C   0  0  1  0  0  0  0  0  0  0  0  0
   -7.3818   19.2570   10.6668 N   0  0  0  0  0  0  0  0  0  0  0  0
   -8.3803   18.6872    8.4672 C   0  0  0  0  0  0  0  0  0  0  0  0
   -7.3661   15.0617    5.2086 C   0  0  0  0  0  0  0  0  0  0  0  0
   -7.0580   15.1468    3.7314 C   0  0  0  0  0  0  0  0  0  0  0  0
   -6.8944   13.8352    3.0710 N   0  0  0  0  0  0  0  0  0  0  0  0
   -6.8778   12.3760    2.8206 C   0  0  0  0  0  0  0  0  0  0  0  0
   -5.6155   12.0494    3.6286 C   0  0  0  0  0  0  0  0  0  0  0  0
   -4.3246   12.3910    2.8611 C   0  0  0  0  0  0  0  0  0  0  0  0
   -3.9691   11.2898    1.8670 C   0  0  0  0  0  0  0  0  0  0  0  0
   -5.0395   11.1310    0.8926 N   0  0  0  0  0  0  0  0  0  0  0  0
  -14.1450   19.7228    4.9538 N   0  0  0  0  0  0  0  0  0  0  0  0
  -10.9656   18.3301    6.6850 C   0  0  0  0  0  0  0  0  0  0  0  0
  -11.4982   18.2879    7.6223 O   0  0  0  0  0  0  0  0  0  0  0  0
  -11.2369   18.6382    5.2327 C   0  0  2  0  0  0  0  0  0  0  0  0
  -11.4708   19.9767    5.0438 O   0  0  0  0  0  0  0  0  0  0  0  0
  -12.5229   17.9095    4.8589 C   0  0  0  0  0  0  0  0  0  0  0  0
  -13.8216   18.4054    5.5202 C   0  0  0  0  0  0  0  0  0  0  0  0
  1  2  1  1  0  0  0
  1  3  1  0  0  0  0
  3  4  1  1  0  0  0
  3  5  1  0  0  0  0
  5  6  1  1  0  0  0
  5  7  1  0  0  0  0
  7  8  1  1  0  0  0
  9  7  1  0  0  0  0
  9 10  1  0  0  0  0
  9 11  1  6  0  0  0
 10  1  1  0  0  0  0
 11 12  1  0  0  0  0
 13 14  1  6  0  0  0
 13 15  1  0  0  0  0
 13 22  1  0  0  0  0
 14 32  1  0  0  0  0
 15 16  1  6  0  0  0
 15 17  1  0  0  0  0
 16 23  1  0  0  0  0
 17 18  1  6  0  0  0
 17 19  1  0  0  0  0
 19  2  1  1  0  0  0
 19 20  1  0  0  0  0
 20 21  1  1  0  0  0
 20 22  1  0  0  0  0
 23 24  1  0  0  0  0
 24 25  1  0  0  0  0
 25 26  1  0  0  0  0
 26 27  1  0  0  0  0
 27 28  1  0  0  0  0
 28 29  1  0  0  0  0
 29 30  1  0  0  0  0
 31 37  1  0  0  0  0
 32 33  2  0  0  0  0
 34 32  1  1  0  0  0
 34 35  1  0  0  0  0
 34 36  1  0  0  0  0
 36 37  1  0  0  0  0
M  END
>  <CHROM.1>
-170.24565010,-75.05214429,178.80452694,-65.56183349,-179.70997211,49.69021630
163.40898071,7.89786687,-74.95959700,-79.04889957,-81.02429165,60.57202772
-109.85168484,67.46770073,70.15299610,-6.52419381,17.04817325,7.52878454
-0.84537845,0.41069619,-2.27377683

>  <Name>
1o9m_lig

>  <RI>
0

>  <Rbt.Current_Directory>
/home/itssahil/PROJECTS/Mol_Feturizer/New_Systems/rnas/1o9m

>  <Rbt.Executable>
rbdock ($Id: //depot/dev/client3/rdock/2013.1/src/exe/rbdock.cxx#4 $)

>  <Rbt.Library>
libRbt.so (2013.1, Build901 2013/11/27)

>  <Rbt.Parameter_File>
/export/apps/rDock/src/rDock_2013.1_src/data/scripts/dock_solv.prm

>  <Rbt.Receptor>
prm/pocket_docking_4.prm

>  <SCORE>
-4.68209

>  <SCORE.INTER>
-2.5907

>  <SCORE.INTER.CONST>
1

>  <SCORE.INTER.POLAR>
-0.802659

>  <SCORE.INTER.ROT>
15

>  <SCORE.INTER.SOLV>
14.7505

>  <SCORE.INTER.VDW>
-17.5684

>  <SCORE.INTER.norm>
-0.0700188

>  <SCORE.INTRA>
-2.0914

>  <SCORE.INTRA.DIHEDRAL>
-11.6579

>  <SCORE.INTRA.DIHEDRAL.0>
21.5987

>  <SCORE.INTRA.POLAR>
0

>  <SCORE.INTRA.POLAR.0>
0

>  <SCORE.INTRA.REPUL>
0

>  <SCORE.INTRA.REPUL.0>
0

>  <SCORE.INTRA.SOLV>
3.94779

>  <SCORE.INTRA.SOLV.lig_0>
-108.715

>  <SCORE.INTRA.VDW>
1.76366

>  <SCORE.INTRA.VDW.0>
-3.9485

>  <SCORE.INTRA.norm>
-0.0565243

>  <SCORE.RESTR>
0

>  <SCORE.RESTR.CAVITY>
0

>  <SCORE.RESTR.norm>
0

>  <SCORE.SYSTEM>
0

>  <SCORE.SYSTEM.CONST>
0

>  <SCORE.SYSTEM.DIHEDRAL>
0

>  <SCORE.SYSTEM.SOLV>
0

>  <SCORE.SYSTEM.norm>
0

>  <SCORE.heavy>
37

>  <SCORE.norm>
-0.126543

>  <RMSD>
7.904

$$$$
1o9m_lig
 OpenBabel11021811403D
libRbt.so/2013.1/901 2013/11/27
 37 38  0  0  0  0  0  0  0  0999 V2000
  -11.7469   18.0527    5.0430 C   0  0  2  0  0  0  0  0  0  0  0  0
  -10.8122   17.6497    6.0899 O   0  0  0  0  0  0  0  0  0  0  0  0
  -11.6681   19.6214    4.9569 C   0  0  2  0  0  0  0  0  0  0  0  0
  -10.3069   20.0943    4.6494 N   0  0  0  0  0  0  0  0  0  0  0  0
  -12.1795   20.2376    6.3143 C   0  0  1  0  0  0  0  0  0  0  0  0
  -12.1191   21.6656    6.2604 O   0  0  0  0  0  0  0  0  0  0  0  0
  -13.6324   19.7160    6.5680 C   0  0  2  0  0  0  0  0  0  0  0  0
  -14.1941   20.2057    7.7967 O   0  0  0  0  0  0  0  0  0  0  0  0
  -13.6612   18.1677    6.5870 C   0  0  2  0  0  0  0  0  0  0  0  0
  -13.1125   17.6309    5.3745 O   0  0  0  0  0  0  0  0  0  0  0  0
  -15.0597   17.6387    6.7739 C   0  0  0  0  0  0  0  0  0  0  0  0
  -15.5754   18.0700    7.9727 N   0  0  0  0  0  0  0  0  0  0  0  0
   -6.9981   15.5834    6.0290 C   0  0  1  0  0  0  0  0  0  0  0  0
   -5.5743   15.2806    5.7114 N   0  0  0  0  0  0  0  0  0  0  0  0
   -7.0675   16.9260    6.7440 C   0  0  2  0  0  0  0  0  0  0  0  0
   -6.2667   16.8465    7.8853 O   0  0  0  0  0  0  0  0  0  0  0  0
   -8.5432   17.2771    7.1140 C   0  0  1  0  0  0  0  0  0  0  0  0
   -8.5991   18.5758    7.7793 O   0  0  0  0  0  0  0  0  0  0  0  0
   -9.4190   17.3427    5.7970 C   0  0  1  0  0  0  0  0  0  0  0  0
   -9.3728   16.0002    5.0832 C   0  0  1  0  0  0  0  0  0  0  0  0
  -10.1952   16.0778    3.8852 N   0  0  0  0  0  0  0  0  0  0  0  0
   -7.9037   15.6419    4.7328 C   0  0  0  0  0  0  0  0  0  0  0  0
   -5.0922   16.6110    8.6926 C   0  0  0  0  0  0  0  0  0  0  0  0
   -5.3819   17.0119   10.1208 C   0  0  0  0  0  0  0  0  0  0  0  0
   -5.4118   18.4720   10.3450 N   0  0  0  0  0  0  0  0  0  0  0  0
   -5.4903   19.7950   11.0053 C   0  0  0  0  0  0  0  0  0  0  0  0
   -4.0547   19.8343   11.5442 C   0  0  0  0  0  0  0  0  0  0  0  0
   -3.8518   18.8837   12.7390 C   0  0  0  0  0  0  0  0  0  0  0  0
   -2.3746   18.5581   12.9369 C   0  0  0  0  0  0  0  0  0  0  0  0
   -1.6344   19.7694   13.2610 N   0  0  0  0  0  0  0  0  0  0  0  0
   -4.4590   12.5837    4.7262 N   0  0  0  0  0  0  0  0  0  0  0  0
   -4.9710   16.3030    4.3934 C   0  0  0  0  0  0  0  0  0  0  0  0
   -5.3903   17.0899    3.7858 O   0  0  0  0  0  0  0  0  0  0  0  0
   -3.6744   15.5450    4.5411 C   0  0  2  0  0  0  0  0  0  0  0  0
   -2.5936   16.3623    4.3268 O   0  0  0  0  0  0  0  0  0  0  0  0
   -3.6523   14.4885    3.4421 C   0  0  0  0  0  0  0  0  0  0  0  0
   -4.7190   13.3813    3.5190 C   0  0  0  0  0  0  0  0  0  0  0  0
  1  2  1  1  0  0  0
  1  3  1  0  0  0  0
  3  4  1  1  0  0  0
  3  5  1  0  0  0  0
  5  6  1  6  0  0  0
  5  7  1  0  0  0  0
  7  8  1  1  0  0  0
  9  7  1  0  0  0  0
  9 10  1  0  0  0  0
  9 11  1  6  0  0  0
 10  1  1  0  0  0  0
 11 12  1  0  0  0  0
 13 14  1  6  0  0  0
 13 15  1  0  0  0  0
 13 22  1  0  0  0  0
 14 32  1  0  0  0  0
 15 16  1  1  0  0  0
 15 17  1  0  0  0  0
 16 23  1  0  0  0  0
 17 18  1  6  0  0  0
 17 19  1  0  0  0  0
 19  2  1  1  0  0  0
 19 20  1  0  0  0  0
 20 21  1  6  0  0  0
 20 22  1  0  0  0  0
 23 24  1  0  0  0  0
 24 25  1  0  0  0  0
 25 26  1  0  0  0  0
 26 27  1  0  0  0  0
 27 28  1  0  0  0  0
 28 29  1  0  0  0  0
 29 30  1  0  0  0  0
 31 37  1  0  0  0  0
 32 33  2  0  0  0  0
 34 32  1  6  0  0  0
 34 35  1  0  0  0  0
 34 36  1  0  0  0  0
 36 37  1  0  0  0  0
M  END
>  <CHROM.1>
-90.18888896,-60.88629162,-72.68880010,53.45474712,175.42620675,166.23193533
-74.69300525,-174.71345761,77.86501934,-73.41211577,159.73342877,63.03201634
-144.06841585,-65.03125482,-65.40248466,-8.02802721,17.56381157,6.88798402
-3.02739539,-0.28195045,1.02775563

>  <Name>
1o9m_lig

>  <RI>
0

>  <Rbt.Current_Directory>
/home/itssahil/PROJECTS/Mol_Feturizer/New_Systems/rnas/1o9m

>  <Rbt.Executable>
rbdock ($Id: //depot/dev/client3/rdock/2013.1/src/exe/rbdock.cxx#4 $)

>  <Rbt.Library>
libRbt.so (2013.1, Build901 2013/11/27)

>  <Rbt.Parameter_File>
/export/apps/rDock/src/rDock_2013.1_src/data/scripts/dock_solv.prm

>  <Rbt.Receptor>
prm/pocket_docking_4.prm

>  <SCORE>
-7.59305

>  <SCORE.INTER>
-6.06218

>  <SCORE.INTER.CONST>
1

>  <SCORE.INTER.POLAR>
-0.959166

>  <SCORE.INTER.ROT>
15

>  <SCORE.INTER.SOLV>
19.8175

>  <SCORE.INTER.VDW>
-21.0501

>  <SCORE.INTER.norm>
-0.163843

>  <SCORE.INTRA>
-1.53087

>  <SCORE.INTRA.DIHEDRAL>
-11.0606

>  <SCORE.INTRA.DIHEDRAL.0>
21.5987

>  <SCORE.INTRA.POLAR>
0

>  <SCORE.INTRA.POLAR.0>
0

>  <SCORE.INTRA.REPUL>
0

>  <SCORE.INTRA.REPUL.0>
0

>  <SCORE.INTRA.SOLV>
6.80574

>  <SCORE.INTRA.SOLV.lig_0>
-108.715

>  <SCORE.INTRA.VDW>
0.596537

>  <SCORE.INTRA.VDW.0>
-3.9485

>  <SCORE.INTRA.norm>
-0.0413749

>  <SCORE.RESTR>
0

>  <SCORE.RESTR.CAVITY>
0

>  <SCORE.RESTR.norm>
0

>  <SCORE.SYSTEM>
0

>  <SCORE.SYSTEM.CONST>
0

>  <SCORE.SYSTEM.DIHEDRAL>
0

>  <SCORE.SYSTEM.SOLV>
0

>  <SCORE.SYSTEM.norm>
0

>  <SCORE.heavy>
37

>  <SCORE.norm>
-0.205218

>  <RMSD>
7.935

$$$$
1o9m_lig
 OpenBabel11021811403D
libRbt.so/2013.1/901 2013/11/27
 37 38  0  0  0  0  0  0  0  0999 V2000
   -6.4255   10.1254    0.4884 C   0  0  2  0  0  0  0  0  0  0  0  0
   -5.5186   10.4970    1.5708 O   0  0  0  0  0  0  0  0  0  0  0  0
   -6.5122    8.5548    0.5010 C   0  0  2  0  0  0  0  0  0  0  0  0
   -7.0000    8.0346    1.7904 N   0  0  0  0  0  0  0  0  0  0  0  0
   -5.0940    7.9583    0.1594 C   0  0  1  0  0  0  0  0  0  0  0  0
   -5.1472    6.5291    0.1629 O   0  0  0  0  0  0  0  0  0  0  0  0
   -4.6473    8.5303   -1.2266 C   0  0  2  0  0  0  0  0  0  0  0  0
   -3.3504    8.0619   -1.6313 O   0  0  0  0  0  0  0  0  0  0  0  0
   -4.6337   10.0787   -1.1995 C   0  0  2  0  0  0  0  0  0  0  0  0
   -5.9130   10.5947   -0.8039 O   0  0  0  0  0  0  0  0  0  0  0  0
   -4.2606   10.6561   -2.5404 C   0  0  0  0  0  0  0  0  0  0  0  0
   -5.1115   10.1885   -3.5133 N   0  0  0  0  0  0  0  0  0  0  0  0
   -4.5727   14.0307    3.9030 C   0  0  1  0  0  0  0  0  0  0  0  0
   -4.3124   15.4586    4.2389 N   0  0  0  0  0  0  0  0  0  0  0  0
   -5.9822   13.9069    3.3404 C   0  0  2  0  0  0  0  0  0  0  0  0
   -6.8709   14.4058    4.2952 O   0  0  0  0  0  0  0  0  0  0  0  0
   -6.3068   12.4204    2.9904 C   0  0  1  0  0  0  0  0  0  0  0  0
   -7.6522   12.3177    2.4320 O   0  0  0  0  0  0  0  0  0  0  0  0
   -5.2700   11.8892    1.9187 C   0  0  1  0  0  0  0  0  0  0  0  0
   -3.8585   11.9902    2.4768 C   0  0  1  0  0  0  0  0  0  0  0  0
   -2.9241   11.4836    1.4830 N   0  0  0  0  0  0  0  0  0  0  0  0
   -3.5428   13.4651    2.8432 C   0  0  0  0  0  0  0  0  0  0  0  0
   -7.5682   15.3731    5.1105 C   0  0  0  0  0  0  0  0  0  0  0  0
   -8.3942   16.2716    4.2189 C   0  0  0  0  0  0  0  0  0  0  0  0
   -9.8509   16.0436    4.3135 N   0  0  0  0  0  0  0  0  0  0  0  0
  -11.3134   16.1779    4.1249 C   0  0  0  0  0  0  0  0  0  0  0  0
  -11.4238   17.6670    4.4759 C   0  0  0  0  0  0  0  0  0  0  0  0
  -11.5832   17.9014    5.9897 C   0  0  0  0  0  0  0  0  0  0  0  0
  -11.9222   19.3588    6.2870 C   0  0  0  0  0  0  0  0  0  0  0  0
  -12.1189   19.5448    7.7178 N   0  0  0  0  0  0  0  0  0  0  0  0
   -4.6285   17.1852    8.7673 N   0  0  0  0  0  0  0  0  0  0  0  0
   -2.8327   15.6405    5.2001 C   0  0  0  0  0  0  0  0  0  0  0  0
   -2.0837   14.9644    5.5820 O   0  0  0  0  0  0  0  0  0  0  0  0
   -3.1533   17.1151    5.2194 C   0  0  2  0  0  0  0  0  0  0  0  0
   -2.0291   17.8653    5.4548 O   0  0  0  0  0  0  0  0  0  0  0  0
   -4.0924   17.3479    6.3978 C   0  0  0  0  0  0  0  0  0  0  0  0
   -3.5219   17.0906    7.8043 C   0  0  0  0  0  0  0  0  0  0  0  0
  1  2  1  1  0  0  0
  1  3  1  0  0  0  0
  3  4  1  1  0  0  0
  3  5  1  0  0  0  0
  5  6  1  6  0  0  0
  5  7  1  0  0  0  0
  7  8  1  1  0  0  0
  9  7  1  0  0  0  0
  9 10  1  0  0  0  0
  9 11  1  6  0  0  0
 10  1  1  0  0  0  0
 11 12  1  0  0  0  0
 13 14  1  6  0  0  0
 13 15  1  0  0  0  0
 13 22  1  0  0  0  0
 14 32  1  0  0  0  0
 15 16  1  1  0  0  0
 15 17  1  0  0  0  0
 16 23  1  0  0  0  0
 17 18  1  6  0  0  0
 17 19  1  0  0  0  0
 19  2  1  1  0  0  0
 19 20  1  0  0  0  0
 20 21  1  6  0  0  0
 20 22  1  0  0  0  0
 23 24  1  0  0  0  0
 24 25  1  0  0  0  0
 25 26  1  0  0  0  0
 26 27  1  0  0  0  0
 27 28  1  0  0  0  0
 28 29  1  0  0  0  0
 29 30  1  0  0  0  0
 31 37  1  0  0  0  0
 32 33  2  0  0  0  0
 34 32  1  1  0  0  0
 34 35  1  0  0  0  0
 34 36  1  0  0  0  0
 36 37  1  0  0  0  0
M  END
>  <CHROM.1>
-175.64457588,56.11545634,168.32450594,72.64296367,63.97882863,88.93386827
108.54670257,175.32411512,-51.89445179,-86.34009747,-170.53243876,177.80363195
-157.34803782,64.94697050,-172.05734900,-5.97932171,13.41099334,2.97533098
1.28261316,0.11174619,-2.43941042

>  <Name>
1o9m_lig

>  <RI>
0

>  <Rbt.Current_Directory>
/home/itssahil/PROJECTS/Mol_Feturizer/New_Systems/rnas/1o9m

>  <Rbt.Executable>
rbdock ($Id: //depot/dev/client3/rdock/2013.1/src/exe/rbdock.cxx#4 $)

>  <Rbt.Library>
libRbt.so (2013.1, Build901 2013/11/27)

>  <Rbt.Parameter_File>
/export/apps/rDock/src/rDock_2013.1_src/data/scripts/dock_solv.prm

>  <Rbt.Receptor>
prm/pocket_docking_6.prm

>  <SCORE>
-14.1612

>  <SCORE.INTER>
-10.8426

>  <SCORE.INTER.CONST>
1

>  <SCORE.INTER.POLAR>
-1.68577

>  <SCORE.INTER.ROT>
15

>  <SCORE.INTER.SOLV>
19.8735

>  <SCORE.INTER.VDW>
-21.8337

>  <SCORE.INTER.norm>
-0.293044

>  <SCORE.INTRA>
-3.3417

>  <SCORE.INTRA.DIHEDRAL>
-7.54568

>  <SCORE.INTRA.DIHEDRAL.0>
21.5987

>  <SCORE.INTRA.POLAR>
0

>  <SCORE.INTRA.POLAR.0>
0

>  <SCORE.INTRA.REPUL>
0

>  <SCORE.INTRA.REPUL.0>
0

>  <SCORE.INTRA.SOLV>
1.11912

>  <SCORE.INTRA.SOLV.lig_0>
-108.715

>  <SCORE.INTRA.VDW>
-0.128416

>  <SCORE.INTRA.VDW.0>
-3.9485

>  <SCORE.INTRA.norm>
-0.0903161

>  <SCORE.RESTR>
0.0230897

>  <SCORE.RESTR.CAVITY>
0.0230897

>  <SCORE.RESTR.norm>
0.000624047

>  <SCORE.SYSTEM>
0

>  <SCORE.SYSTEM.CONST>
0

>  <SCORE.SYSTEM.DIHEDRAL>
0

>  <SCORE.SYSTEM.SOLV>
0

>  <SCORE.SYSTEM.norm>
0

>  <SCORE.heavy>
37

>  <SCORE.norm>
-0.382736

>  <RMSD>
7.935

$$$$
1o9m_lig
 OpenBabel11021811403D
libRbt.so/2013.1/901 2013/11/27
 37 38  0  0  0  0  0  0  0  0999 V2000
   -9.3853   18.9170    7.1850 C   0  0  2  0  0  0  0  0  0  0  0  0
   -9.3593   17.6829    6.4050 O   0  0  0  0  0  0  0  0  0  0  0  0
  -10.8629   19.4528    7.1195 C   0  0  2  0  0  0  0  0  0  0  0  0
  -11.8320   18.4796    7.6530 N   0  0  0  0  0  0  0  0  0  0  0  0
  -11.2096   19.8252    5.6279 C   0  0  1  0  0  0  0  0  0  0  0  0
  -12.5497   20.3175    5.5422 O   0  0  0  0  0  0  0  0  0  0  0  0
  -10.1609   20.8752    5.1327 C   0  0  2  0  0  0  0  0  0  0  0  0
  -10.3736   21.2754    3.7691 O   0  0  0  0  0  0  0  0  0  0  0  0
   -8.7227   20.3178    5.2717 C   0  0  2  0  0  0  0  0  0  0  0  0
   -8.4611   19.9077    6.6218 O   0  0  0  0  0  0  0  0  0  0  0  0
   -7.6893   21.3316    4.8536 C   0  0  0  0  0  0  0  0  0  0  0  0
   -6.4269   20.8009    4.9717 N   0  0  0  0  0  0  0  0  0  0  0  0
   -6.2800   14.6383    6.1421 C   0  0  1  0  0  0  0  0  0  0  0  0
   -4.9998   13.9691    5.7776 N   0  0  0  0  0  0  0  0  0  0  0  0
   -5.9671   15.8986    6.9372 C   0  0  2  0  0  0  0  0  0  0  0  0
   -5.2175   15.5259    8.0550 O   0  0  0  0  0  0  0  0  0  0  0  0
   -7.2834   16.6252    7.3579 C   0  0  1  0  0  0  0  0  0  0  0  0
   -6.9701   17.8429    8.1006 O   0  0  0  0  0  0  0  0  0  0  0  0
   -8.1096   17.0167    6.0656 C   0  0  1  0  0  0  0  0  0  0  0  0
   -8.4447   15.7629    5.2721 C   0  0  1  0  0  0  0  0  0  0  0  0
   -9.2158   16.1434    4.0981 N   0  0  0  0  0  0  0  0  0  0  0  0
   -7.1367   15.0299    4.8706 C   0  0  0  0  0  0  0  0  0  0  0  0
   -4.4425   15.6693    9.2655 C   0  0  0  0  0  0  0  0  0  0  0  0
   -3.2692   16.5842    8.9995 C   0  0  0  0  0  0  0  0  0  0  0  0
   -2.4647   16.9002   10.1977 N   0  0  0  0  0  0  0  0  0  0  0  0
   -1.4995   17.5446   11.1172 C   0  0  0  0  0  0  0  0  0  0  0  0
   -2.5002   18.4356   11.8641 C   0  0  0  0  0  0  0  0  0  0  0  0
   -3.5052   17.6172   12.6961 C   0  0  0  0  0  0  0  0  0  0  0  0
   -4.5209   18.5268   13.3805 C   0  0  0  0  0  0  0  0  0  0  0  0
   -5.5154   17.7275   14.0821 N   0  0  0  0  0  0  0  0  0  0  0  0
   -3.5576   12.3567    1.9722 N   0  0  0  0  0  0  0  0  0  0  0  0
   -4.0896   14.9142    4.5839 C   0  0  0  0  0  0  0  0  0  0  0  0
   -4.2441   15.8542    4.0774 O   0  0  0  0  0  0  0  0  0  0  0  0
   -3.0762   13.7967    4.6290 C   0  0  2  0  0  0  0  0  0  0  0  0
   -2.1995   13.9625    5.6711 O   0  0  0  0  0  0  0  0  0  0  0  0
   -2.2578   13.8902    3.3461 C   0  0  0  0  0  0  0  0  0  0  0  0
   -3.0211   13.7246    2.0195 C   0  0  0  0  0  0  0  0  0  0  0  0
  1  2  1  6  0  0  0
  1  3  1  0  0  0  0
  3  4  1  6  0  0  0
  3  5  1  0  0  0  0
  5  6  1  1  0  0  0
  5  7  1  0  0  0  0
  7  8  1  6  0  0  0
  9  7  1  0  0  0  0
  9 10  1  0  0  0  0
  9 11  1  1  0  0  0
 10  1  1  0  0  0  0
 11 12  1  0  0  0  0
 13 14  1  6  0  0  0
 13 15  1  0  0  0  0
 13 22  1  0  0  0  0
 14 32  1  0  0  0  0
 15 16  1  1  0  0  0
 15 17  1  0  0  0  0
 16 23  1  0  0  0  0
 17 18  1  6  0  0  0
 17 19  1  0  0  0  0
 19  2  1  1  0  0  0
 19 20  1  0  0  0  0
 20 21  1  6  0  0  0
 20 22  1  0  0  0  0
 23 24  1  0  0  0  0
 24 25  1  0  0  0  0
 25 26  1  0  0  0  0
 26 27  1  0  0  0  0
 27 28  1  0  0  0  0
 28 29  1  0  0  0  0
 29 30  1  0  0  0  0
 31 37  1  0  0  0  0
 32 33  2  0  0  0  0
 34 32  1  6  0  0  0
 34 35  1  0  0  0  0
 34 36  1  0  0  0  0
 36 37  1  0  0  0  0
M  END
>  <CHROM.1>
170.11093823,-179.20455707,-69.16552581,176.10541988,-55.70844988,58.47413041
175.03935509,-164.94744633,97.59615381,66.16782157,-177.67954396,175.97053480
-84.22852414,-61.27593972,-64.47631336,-6.40355454,17.18558061,6.77746078
3.12214952,0.59104017,-1.99263724

>  <Name>
1o9m_lig

>  <RI>
0

>  <Rbt.Current_Directory>
/home/itssahil/PROJECTS/Mol_Feturizer/New_Systems/rnas/1o9m

>  <Rbt.Executable>
rbdock ($Id: //depot/dev/client3/rdock/2013.1/src/exe/rbdock.cxx#4 $)

>  <Rbt.Library>
libRbt.so (2013.1, Build901 2013/11/27)

>  <Rbt.Parameter_File>
/export/apps/rDock/src/rDock_2013.1_src/data/scripts/dock_solv.prm

>  <Rbt.Receptor>
prm/pocket_docking_4.prm

>  <SCORE>
-13.2917

>  <SCORE.INTER>
-4.67312

>  <SCORE.INTER.CONST>
1

>  <SCORE.INTER.POLAR>
-1.30787

>  <SCORE.INTER.ROT>
15

>  <SCORE.INTER.SOLV>
23.8648

>  <SCORE.INTER.VDW>
-20.3108

>  <SCORE.INTER.norm>
-0.126301

>  <SCORE.INTRA>
-8.61853

>  <SCORE.INTRA.DIHEDRAL>
-18.2361

>  <SCORE.INTRA.DIHEDRAL.0>
21.5987

>  <SCORE.INTRA.POLAR>
0

>  <SCORE.INTRA.POLAR.0>
0

>  <SCORE.INTRA.REPUL>
0

>  <SCORE.INTRA.REPUL.0>
0

>  <SCORE.INTRA.SOLV>
0.567234

>  <SCORE.INTRA.SOLV.lig_0>
-108.715

>  <SCORE.INTRA.VDW>
0.215917

>  <SCORE.INTRA.VDW.0>
-3.9485

>  <SCORE.INTRA.norm>
-0.232933

>  <SCORE.RESTR>
0

>  <SCORE.RESTR.CAVITY>
0

>  <SCORE.RESTR.norm>
0

>  <SCORE.SYSTEM>
0

>  <SCORE.SYSTEM.CONST>
0

>  <SCORE.SYSTEM.DIHEDRAL>
0

>  <SCORE.SYSTEM.SOLV>
0

>  <SCORE.SYSTEM.norm>
0

>  <SCORE.heavy>
37

>  <SCORE.norm>
-0.359234

>  <RMSD>
7.944

$$$$
1o9m_lig
 OpenBabel11021811403D
libRbt.so/2013.1/901 2013/11/27
 37 38  0  0  0  0  0  0  0  0999 V2000
   -7.6812    9.7344    0.0189 C   0  0  2  0  0  0  0  0  0  0  0  0
   -7.7458   10.2877    1.3687 O   0  0  0  0  0  0  0  0  0  0  0  0
   -8.9628    8.8392   -0.1560 C   0  0  2  0  0  0  0  0  0  0  0  0
  -10.2070    9.6054    0.0333 N   0  0  0  0  0  0  0  0  0  0  0  0
   -8.8905    7.6335    0.8564 C   0  0  1  0  0  0  0  0  0  0  0  0
  -10.0458    6.8023    0.7154 O   0  0  0  0  0  0  0  0  0  0  0  0
   -7.5625    6.8516    0.5868 C   0  0  2  0  0  0  0  0  0  0  0  0
   -7.3845    5.7334    1.4715 O   0  0  0  0  0  0  0  0  0  0  0  0
   -6.3390    7.7920    0.7170 C   0  0  2  0  0  0  0  0  0  0  0  0
   -6.4697    8.9251   -0.1539 O   0  0  0  0  0  0  0  0  0  0  0  0
   -5.0501    7.0757    0.4067 C   0  0  0  0  0  0  0  0  0  0  0  0
   -3.9828    7.9278    0.5620 N   0  0  0  0  0  0  0  0  0  0  0  0
   -5.8250   13.2484    3.8917 C   0  0  1  0  0  0  0  0  0  0  0  0
   -4.9083   14.3429    4.3174 N   0  0  0  0  0  0  0  0  0  0  0  0
   -6.6849   13.7478    2.7386 C   0  0  2  0  0  0  0  0  0  0  0  0
   -7.3696   14.8842    3.1744 O   0  0  0  0  0  0  0  0  0  0  0  0
   -7.6770   12.6369    2.2702 C   0  0  1  0  0  0  0  0  0  0  0  0
   -8.4805   13.1200    1.1506 O   0  0  0  0  0  0  0  0  0  0  0  0
   -6.8634   11.3632    1.7994 C   0  0  1  0  0  0  0  0  0  0  0  0
   -6.0142   10.8434    2.9494 C   0  0  1  0  0  0  0  0  0  0  0  0
   -5.2872    9.6656    2.5003 N   0  0  0  0  0  0  0  0  0  0  0  0
   -5.0414   11.9543    3.4281 C   0  0  0  0  0  0  0  0  0  0  0  0
   -8.1660   15.7300    4.0328 C   0  0  0  0  0  0  0  0  0  0  0  0
   -8.2204   17.1224    3.4472 C   0  0  0  0  0  0  0  0  0  0  0  0
   -8.9358   18.1045    4.2877 N   0  0  0  0  0  0  0  0  0  0  0  0
   -9.9698   18.7551    5.1245 C   0  0  0  0  0  0  0  0  0  0  0  0
   -9.0398   19.2560    6.2368 C   0  0  0  0  0  0  0  0  0  0  0  0
   -9.7009   20.3399    7.1087 C   0  0  0  0  0  0  0  0  0  0  0  0
   -9.9084   21.6287    6.3192 C   0  0  0  0  0  0  0  0  0  0  0  0
  -10.4187   22.6747    7.1942 N   0  0  0  0  0  0  0  0  0  0  0  0
   -4.7791   18.4040    7.4692 N   0  0  0  0  0  0  0  0  0  0  0  0
   -4.0173   13.9088    5.7885 C   0  0  0  0  0  0  0  0  0  0  0  0
   -3.9802   13.0416    6.4294 O   0  0  0  0  0  0  0  0  0  0  0  0
   -3.4014   15.2833    5.6936 C   0  0  2  0  0  0  0  0  0  0  0  0
   -2.1369   15.2992    6.2256 O   0  0  0  0  0  0  0  0  0  0  0  0
   -4.2529   16.2096    6.5547 C   0  0  0  0  0  0  0  0  0  0  0  0
   -3.9377   17.7146    6.4803 C   0  0  0  0  0  0  0  0  0  0  0  0
  1  2  1  1  0  0  0
  1  3  1  0  0  0  0
  3  4  1  1  0  0  0
  3  5  1  0  0  0  0
  5  6  1  6  0  0  0
  5  7  1  0  0  0  0
  7  8  1  1  0  0  0
  9  7  1  0  0  0  0
  9 10  1  0  0  0  0
  9 11  1  6  0  0  0
 10  1  1  0  0  0  0
 11 12  1  0  0  0  0
 13 14  1  6  0  0  0
 13 15  1  0  0  0  0
 13 22  1  0  0  0  0
 14 32  1  0  0  0  0
 15 16  1  1  0  0  0
 15 17  1  0  0  0  0
 16 23  1  0  0  0  0
 17 18  1  6  0  0  0
 17 19  1  0  0  0  0
 19  2  1  1  0  0  0
 19 20  1  0  0  0  0
 20 21  1  6  0  0  0
 20 22  1  0  0  0  0
 23 24  1  0  0  0  0
 24 25  1  0  0  0  0
 25 26  1  0  0  0  0
 26 27  1  0  0  0  0
 27 28  1  0  0  0  0
 28 29  1  0  0  0  0
 29 30  1  0  0  0  0
 31 37  1  0  0  0  0
 32 33  2  0  0  0  0
 34 32  1  1  0  0  0
 34 35  1  0  0  0  0
 34 36  1  0  0  0  0
 36 37  1  0  0  0  0
M  END
>  <CHROM.1>
-168.12668143,-178.56954804,172.80350048,-47.33833895,173.86891439,121.05784955
-176.12776622,-50.36481988,134.22041055,163.52819194,-68.33050195,-174.75713955
-150.23645987,-172.29771372,-174.82155368,-6.90616856,13.13188753,3.32162158
1.53922457,0.37186249,-2.66584053

>  <Name>
1o9m_lig

>  <RI>
0

>  <Rbt.Current_Directory>
/home/itssahil/PROJECTS/Mol_Feturizer/New_Systems/rnas/1o9m

>  <Rbt.Executable>
rbdock ($Id: //depot/dev/client3/rdock/2013.1/src/exe/rbdock.cxx#4 $)

>  <Rbt.Library>
libRbt.so (2013.1, Build901 2013/11/27)

>  <Rbt.Parameter_File>
/export/apps/rDock/src/rDock_2013.1_src/data/scripts/dock_solv.prm

>  <Rbt.Receptor>
prm/pocket_docking_8.prm

>  <SCORE>
-8.50007

>  <SCORE.INTER>
-5.6511

>  <SCORE.INTER.CONST>
1

>  <SCORE.INTER.POLAR>
-2.03355

>  <SCORE.INTER.ROT>
15

>  <SCORE.INTER.SOLV>
16.3725

>  <SCORE.INTER.VDW>
-16.0464

>  <SCORE.INTER.norm>
-0.152732

>  <SCORE.INTRA>
-2.84897

>  <SCORE.INTRA.DIHEDRAL>
-8.08595

>  <SCORE.INTRA.DIHEDRAL.0>
21.5987

>  <SCORE.INTRA.POLAR>
0

>  <SCORE.INTRA.POLAR.0>
0

>  <SCORE.INTRA.REPUL>
0

>  <SCORE.INTRA.REPUL.0>
0

>  <SCORE.INTRA.SOLV>
3.0385

>  <SCORE.INTRA.SOLV.lig_0>
-108.715

>  <SCORE.INTRA.VDW>
-0.325244

>  <SCORE.INTRA.VDW.0>
-3.9485

>  <SCORE.INTRA.norm>
-0.0769992

>  <SCORE.RESTR>
0

>  <SCORE.RESTR.CAVITY>
0

>  <SCORE.RESTR.norm>
0

>  <SCORE.SYSTEM>
0

>  <SCORE.SYSTEM.CONST>
0

>  <SCORE.SYSTEM.DIHEDRAL>
0

>  <SCORE.SYSTEM.SOLV>
0

>  <SCORE.SYSTEM.norm>
0

>  <SCORE.heavy>
37

>  <SCORE.norm>
-0.229732

>  <RMSD>
7.944

$$$$
1o9m_lig
 OpenBabel11021811403D
libRbt.so/2013.1/901 2013/11/27
 37 38  0  0  0  0  0  0  0  0999 V2000
  -11.5706   18.0569    5.2134 C   0  0  2  0  0  0  0  0  0  0  0  0
  -10.4744   18.3039    4.2809 O   0  0  0  0  0  0  0  0  0  0  0  0
  -12.8758   18.5899    4.5157 C   0  0  2  0  0  0  0  0  0  0  0  0
  -13.1294   17.9235    3.2262 N   0  0  0  0  0  0  0  0  0  0  0  0
  -12.7567   20.1496    4.3238 C   0  0  1  0  0  0  0  0  0  0  0  0
  -13.9341   20.6593    3.6918 O   0  0  0  0  0  0  0  0  0  0  0  0
  -12.5125   20.7947    5.7280 C   0  0  2  0  0  0  0  0  0  0  0  0
  -12.3707   22.2234    5.6682 O   0  0  0  0  0  0  0  0  0  0  0  0
  -11.2491   20.1942    6.3926 C   0  0  2  0  0  0  0  0  0  0  0  0
  -11.3466   18.7651    6.4788 O   0  0  0  0  0  0  0  0  0  0  0  0
  -11.0230   20.7586    7.7713 C   0  0  0  0  0  0  0  0  0  0  0  0
  -10.5655   22.0520    7.6869 N   0  0  0  0  0  0  0  0  0  0  0  0
   -7.0251   16.8528    6.4757 C   0  0  1  0  0  0  0  0  0  0  0  0
   -5.6134   16.4926    6.7871 N   0  0  0  0  0  0  0  0  0  0  0  0
   -7.0960   18.3422    6.1675 C   0  0  2  0  0  0  0  0  0  0  0  0
   -6.5954   19.0336    7.2727 O   0  0  0  0  0  0  0  0  0  0  0  0
   -8.5642   18.7700    5.8525 C   0  0  1  0  0  0  0  0  0  0  0  0
   -8.6158   20.1950    5.5375 O   0  0  0  0  0  0  0  0  0  0  0  0
   -9.0984   17.9543    4.6055 C   0  0  1  0  0  0  0  0  0  0  0  0
   -9.0501   16.4644    4.9086 C   0  0  1  0  0  0  0  0  0  0  0  0
   -9.5588   15.7349    3.7568 N   0  0  0  0  0  0  0  0  0  0  0  0
   -7.5938   16.0428    5.2411 C   0  0  0  0  0  0  0  0  0  0  0  0
   -6.4374   19.4359    8.6511 C   0  0  0  0  0  0  0  0  0  0  0  0
   -5.6256   20.7096    8.7074 C   0  0  0  0  0  0  0  0  0  0  0  0
   -5.4155   21.2330   10.0730 N   0  0  0  0  0  0  0  0  0  0  0  0
   -5.0179   21.3405   11.4952 C   0  0  0  0  0  0  0  0  0  0  0  0
   -4.6829   19.8607   11.7209 C   0  0  0  0  0  0  0  0  0  0  0  0
   -4.2282   19.5771   13.1649 C   0  0  0  0  0  0  0  0  0  0  0  0
   -3.8548   18.1089   13.3446 C   0  0  0  0  0  0  0  0  0  0  0  0
   -4.9835   17.2590   12.9923 N   0  0  0  0  0  0  0  0  0  0  0  0
   -3.3133   14.4471    9.9652 N   0  0  0  0  0  0  0  0  0  0  0  0
   -5.3283   14.7528    6.5903 C   0  0  0  0  0  0  0  0  0  0  0  0
   -5.9321   13.9105    6.2906 O   0  0  0  0  0  0  0  0  0  0  0  0
   -3.9177   15.0406    7.0432 C   0  0  2  0  0  0  0  0  0  0  0  0
   -3.1109   15.3636    5.9818 O   0  0  0  0  0  0  0  0  0  0  0  0
   -3.3705   13.7460    7.6341 C   0  0  0  0  0  0  0  0  0  0  0  0
   -3.8096   13.3944    9.0671 C   0  0  0  0  0  0  0  0  0  0  0  0
  1  2  1  6  0  0  0
  1  3  1  0  0  0  0
  3  4  1  6  0  0  0
  3  5  1  0  0  0  0
  5  6  1  1  0  0  0
  5  7  1  0  0  0  0
  7  8  1  6  0  0  0
  9  7  1  0  0  0  0
  9 10  1  0  0  0  0
  9 11  1  1  0  0  0
 10  1  1  0  0  0  0
 11 12  1  0  0  0  0
 13 14  1  6  0  0  0
 13 15  1  0  0  0  0
 13 22  1  0  0  0  0
 14 32  1  0  0  0  0
 15 16  1  1  0  0  0
 15 17  1  0  0  0  0
 16 23  1  0  0  0  0
 17 18  1  6  0  0  0
 17 19  1  0  0  0  0
 19  2  1  1  0  0  0
 19 20  1  0  0  0  0
 20 21  1  6  0  0  0
 20 22  1  0  0  0  0
 23 24  1  0  0  0  0
 24 25  1  0  0  0  0
 25 26  1  0  0  0  0
 26 27  1  0  0  0  0
 27 28  1  0  0  0  0
 28 29  1  0  0  0  0
 29 30  1  0  0  0  0
 31 37  1  0  0  0  0
 32 33  2  0  0  0  0
 34 32  1  6  0  0  0
 34 35  1  0  0  0  0
 34 36  1  0  0  0  0
 36 37  1  0  0  0  0
M  END
>  <CHROM.1>
178.99227619,-73.48782498,-159.72862114,-51.89526413,-166.76588276,-63.06843019
179.05750556,58.01098353,-11.45614459,-179.22977397,-177.96381904,-57.41790445
-88.44727189,-79.06512388,-62.64550976,-7.89085672,18.19895069,7.13367204
-3.02189950,-0.62706309,0.72212805

>  <Name>
1o9m_lig

>  <RI>
0

>  <Rbt.Current_Directory>
/home/itssahil/PROJECTS/Mol_Feturizer/New_Systems/rnas/1o9m

>  <Rbt.Executable>
rbdock ($Id: //depot/dev/client3/rdock/2013.1/src/exe/rbdock.cxx#4 $)

>  <Rbt.Library>
libRbt.so (2013.1, Build901 2013/11/27)

>  <Rbt.Parameter_File>
/export/apps/rDock/src/rDock_2013.1_src/data/scripts/dock_solv.prm

>  <Rbt.Receptor>
prm/pocket_docking_5.prm

>  <SCORE>
-5.97545

>  <SCORE.INTER>
-0.626374

>  <SCORE.INTER.CONST>
1

>  <SCORE.INTER.POLAR>
-0.857495

>  <SCORE.INTER.ROT>
15

>  <SCORE.INTER.SOLV>
17.5751

>  <SCORE.INTER.VDW>
-17.0176

>  <SCORE.INTER.norm>
-0.016929

>  <SCORE.INTRA>
-5.34908

>  <SCORE.INTRA.DIHEDRAL>
-15.7252

>  <SCORE.INTRA.DIHEDRAL.0>
21.5987

>  <SCORE.INTRA.POLAR>
0

>  <SCORE.INTRA.POLAR.0>
0

>  <SCORE.INTRA.REPUL>
0

>  <SCORE.INTRA.REPUL.0>
0

>  <SCORE.INTRA.SOLV>
2.87071

>  <SCORE.INTRA.SOLV.lig_0>
-108.715

>  <SCORE.INTRA.VDW>
1.07815

>  <SCORE.INTRA.VDW.0>
-3.9485

>  <SCORE.INTRA.norm>
-0.14457

>  <SCORE.RESTR>
0

>  <SCORE.RESTR.CAVITY>
0

>  <SCORE.RESTR.norm>
0

>  <SCORE.SYSTEM>
0

>  <SCORE.SYSTEM.CONST>
0

>  <SCORE.SYSTEM.DIHEDRAL>
0

>  <SCORE.SYSTEM.SOLV>
0

>  <SCORE.SYSTEM.norm>
0

>  <SCORE.heavy>
37

>  <SCORE.norm>
-0.161499

>  <RMSD>
7.945

$$$$
1o9m_lig
 OpenBabel11021811403D
libRbt.so/2013.1/901 2013/11/27
 37 38  0  0  0  0  0  0  0  0999 V2000
  -11.5984   17.9300    5.1155 C   0  0  2  0  0  0  0  0  0  0  0  0
  -10.8015   17.7080    6.3188 O   0  0  0  0  0  0  0  0  0  0  0  0
  -11.5527   19.4765    4.8316 C   0  0  2  0  0  0  0  0  0  0  0  0
  -10.1764   19.9672    4.6421 N   0  0  0  0  0  0  0  0  0  0  0  0
  -12.2585   20.2385    6.0169 C   0  0  1  0  0  0  0  0  0  0  0  0
  -12.2315   21.6488    5.7809 O   0  0  0  0  0  0  0  0  0  0  0  0
  -13.7171   19.6884    6.1481 C   0  0  2  0  0  0  0  0  0  0  0  0
  -14.4519   20.3061    7.2175 O   0  0  0  0  0  0  0  0  0  0  0  0
  -13.7048   18.1557    6.3700 C   0  0  2  0  0  0  0  0  0  0  0  0
  -12.9837   17.4928    5.3212 O   0  0  0  0  0  0  0  0  0  0  0  0
  -15.1003   17.5921    6.4436 C   0  0  0  0  0  0  0  0  0  0  0  0
  -15.7516   18.0772    7.5526 N   0  0  0  0  0  0  0  0  0  0  0  0
   -6.8723   15.9987    6.9971 C   0  0  1  0  0  0  0  0  0  0  0  0
   -5.3979   15.8012    6.9154 N   0  0  0  0  0  0  0  0  0  0  0  0
   -7.1522   17.3837    7.5644 C   0  0  2  0  0  0  0  0  0  0  0  0
   -6.5276   17.4716    8.8104 O   0  0  0  0  0  0  0  0  0  0  0  0
   -8.6894   17.6286    7.6858 C   0  0  1  0  0  0  0  0  0  0  0  0
   -8.9451   18.9674    8.2102 O   0  0  0  0  0  0  0  0  0  0  0  0
   -9.3606   17.5057    6.2575 C   0  0  1  0  0  0  0  0  0  0  0  0
   -9.1037   16.1187    5.6880 C   0  0  1  0  0  0  0  0  0  0  0  0
   -9.7410   16.0222    4.3833 N   0  0  0  0  0  0  0  0  0  0  0  0
   -7.5754   15.8676    5.5857 C   0  0  0  0  0  0  0  0  0  0  0  0
   -6.0743   18.0557   10.0513 C   0  0  0  0  0  0  0  0  0  0  0  0
   -5.3729   16.9977   10.8719 C   0  0  0  0  0  0  0  0  0  0  0  0
   -4.9191   17.4635   12.1986 N   0  0  0  0  0  0  0  0  0  0  0  0
   -4.2660   18.2534   13.2672 C   0  0  0  0  0  0  0  0  0  0  0  0
   -2.9250   18.4785   12.5574 C   0  0  0  0  0  0  0  0  0  0  0  0
   -2.1408   17.1679   12.3584 C   0  0  0  0  0  0  0  0  0  0  0  0
   -1.5270   16.6906   13.6709 C   0  0  0  0  0  0  0  0  0  0  0  0
   -0.4310   17.5674   14.0586 N   0  0  0  0  0  0  0  0  0  0  0  0
   -4.6989   13.4255    5.2245 N   0  0  0  0  0  0  0  0  0  0  0  0
   -4.7048   16.6513    5.5212 C   0  0  0  0  0  0  0  0  0  0  0  0
   -5.0999   17.2782    4.7371 O   0  0  0  0  0  0  0  0  0  0  0  0
   -3.3824   16.0705    5.9590 C   0  0  2  0  0  0  0  0  0  0  0  0
   -2.4116   17.0376    6.0231 O   0  0  0  0  0  0  0  0  0  0  0  0
   -2.9523   15.0859    4.8772 C   0  0  0  0  0  0  0  0  0  0  0  0
   -3.2415   13.5963    5.1366 C   0  0  0  0  0  0  0  0  0  0  0  0
  1  2  1  1  0  0  0
  1  3  1  0  0  0  0
  3  4  1  1  0  0  0
  3  5  1  0  0  0  0
  5  6  1  6  0  0  0
  5  7  1  0  0  0  0
  7  8  1  1  0  0  0
  9  7  1  0  0  0  0
  9 10  1  0  0  0  0
  9 11  1  6  0  0  0
 10  1  1  0  0  0  0
 11 12  1  0  0  0  0
 13 14  1  6  0  0  0
 13 15  1  0  0  0  0
 13 22  1  0  0  0  0
 14 32  1  0  0  0  0
 15 16  1  1  0  0  0
 15 17  1  0  0  0  0
 16 23  1  0  0  0  0
 17 18  1  6  0  0  0
 17 19  1  0  0  0  0
 19  2  1  1  0  0  0
 19 20  1  0  0  0  0
 20 21  1  6  0  0  0
 20 22  1  0  0  0  0
 23 24  1  0  0  0  0
 24 25  1  0  0  0  0
 25 26  1  0  0  0  0
 26 27  1  0  0  0  0
 27 28  1  0  0  0  0
 28 29  1  0  0  0  0
 29 30  1  0  0  0  0
 31 37  1  0  0  0  0
 32 33  2  0  0  0  0
 34 32  1  6  0  0  0
 34 35  1  0  0  0  0
 34 36  1  0  0  0  0
 36 37  1  0  0  0  0
M  END
>  <CHROM.1>
-86.60222514,-65.20778499,-77.57283019,176.40566534,176.96279561,166.54985506
-177.22989879,-53.52724111,-42.53146666,-66.06699881,-74.60891106,-70.86318112
-130.43324451,-98.45528982,62.87845566,-7.79176868,17.50919999,7.47527737
-2.84200590,-0.33221494,1.20420819

>  <Name>
1o9m_lig

>  <RI>
0

>  <Rbt.Current_Directory>
/home/itssahil/PROJECTS/Mol_Feturizer/New_Systems/rnas/1o9m

>  <Rbt.Executable>
rbdock ($Id: //depot/dev/client3/rdock/2013.1/src/exe/rbdock.cxx#4 $)

>  <Rbt.Library>
libRbt.so (2013.1, Build901 2013/11/27)

>  <Rbt.Parameter_File>
/export/apps/rDock/src/rDock_2013.1_src/data/scripts/dock_solv.prm

>  <Rbt.Receptor>
prm/pocket_docking_4.prm

>  <SCORE>
-4.20839

>  <SCORE.INTER>
-4.62375

>  <SCORE.INTER.CONST>
1

>  <SCORE.INTER.POLAR>
-0.959166

>  <SCORE.INTER.ROT>
15

>  <SCORE.INTER.SOLV>
14.3813

>  <SCORE.INTER.VDW>
-18.279

>  <SCORE.INTER.norm>
-0.124966

>  <SCORE.INTRA>
0.41536

>  <SCORE.INTRA.DIHEDRAL>
-9.49352

>  <SCORE.INTRA.DIHEDRAL.0>
21.5987

>  <SCORE.INTRA.POLAR>
0

>  <SCORE.INTRA.POLAR.0>
0

>  <SCORE.INTRA.REPUL>
0

>  <SCORE.INTRA.REPUL.0>
0

>  <SCORE.INTRA.SOLV>
8.12293

>  <SCORE.INTRA.SOLV.lig_0>
-108.715

>  <SCORE.INTRA.VDW>
1.10066

>  <SCORE.INTRA.VDW.0>
-3.9485

>  <SCORE.INTRA.norm>
0.011226

>  <SCORE.RESTR>
0

>  <SCORE.RESTR.CAVITY>
0

>  <SCORE.RESTR.norm>
0

>  <SCORE.SYSTEM>
0

>  <SCORE.SYSTEM.CONST>
0

>  <SCORE.SYSTEM.DIHEDRAL>
0

>  <SCORE.SYSTEM.SOLV>
0

>  <SCORE.SYSTEM.norm>
0

>  <SCORE.heavy>
37

>  <SCORE.norm>
-0.11374

>  <RMSD>
7.948

$$$$
1o9m_lig
 OpenBabel11021811403D
libRbt.so/2013.1/901 2013/11/27
 37 38  0  0  0  0  0  0  0  0999 V2000
   -2.5629   16.9385    6.3766 C   0  0  2  0  0  0  0  0  0  0  0  0
   -2.7148   16.1788    5.1389 O   0  0  0  0  0  0  0  0  0  0  0  0
   -1.3829   17.9502    6.1349 C   0  0  2  0  0  0  0  0  0  0  0  0
   -1.6467   18.8521    4.9999 N   0  0  0  0  0  0  0  0  0  0  0  0
   -0.0498   17.1411    5.9066 C   0  0  1  0  0  0  0  0  0  0  0  0
    1.0402   18.0404    5.6859 O   0  0  0  0  0  0  0  0  0  0  0  0
    0.1821   16.2249    7.1533 C   0  0  2  0  0  0  0  0  0  0  0  0
    1.3701   15.4240    7.0433 O   0  0  0  0  0  0  0  0  0  0  0  0
   -1.0321   15.2902    7.3775 C   0  0  2  0  0  0  0  0  0  0  0  0
   -2.2452   16.0473    7.4981 O   0  0  0  0  0  0  0  0  0  0  0  0
   -0.8581   14.4357    8.6064 C   0  0  0  0  0  0  0  0  0  0  0  0
   -1.9976   13.7043    8.8427 N   0  0  0  0  0  0  0  0  0  0  0  0
   -5.9232   13.7749    3.4813 C   0  0  1  0  0  0  0  0  0  0  0  0
   -6.9385   12.6924    3.3513 N   0  0  0  0  0  0  0  0  0  0  0  0
   -6.2127   14.5711    4.7466 C   0  0  2  0  0  0  0  0  0  0  0  0
   -7.5161   15.0639    4.6549 O   0  0  0  0  0  0  0  0  0  0  0  0
   -5.1817   15.7314    4.9149 C   0  0  1  0  0  0  0  0  0  0  0  0
   -5.4563   16.4736    6.1422 O   0  0  0  0  0  0  0  0  0  0  0  0
   -3.7186   15.1330    4.9995 C   0  0  1  0  0  0  0  0  0  0  0  0
   -3.4106   14.3506    3.7320 C   0  0  1  0  0  0  0  0  0  0  0  0
   -2.0577   13.8225    3.8241 N   0  0  0  0  0  0  0  0  0  0  0  0
   -4.4473   13.2091    3.5541 C   0  0  0  0  0  0  0  0  0  0  0  0
   -8.7075   15.7960    5.0170 C   0  0  0  0  0  0  0  0  0  0  0  0
   -8.3815   17.2698    5.0940 C   0  0  0  0  0  0  0  0  0  0  0  0
   -8.0155   17.8769    3.7976 N   0  0  0  0  0  0  0  0  0  0  0  0
   -8.0104   18.2359    2.3611 C   0  0  0  0  0  0  0  0  0  0  0  0
   -7.5610   19.6937    2.5216 C   0  0  0  0  0  0  0  0  0  0  0  0
   -7.6486   20.4820    1.2014 C   0  0  0  0  0  0  0  0  0  0  0  0
   -7.4015   21.9696    1.4326 C   0  0  0  0  0  0  0  0  0  0  0  0
   -6.0482   22.1809    1.9269 N   0  0  0  0  0  0  0  0  0  0  0  0
  -10.3767    9.7703   -0.2126 N   0  0  0  0  0  0  0  0  0  0  0  0
   -6.4813   11.5197    2.1013 C   0  0  0  0  0  0  0  0  0  0  0  0
   -5.6430   11.4073    1.4314 O   0  0  0  0  0  0  0  0  0  0  0  0
   -7.7826   10.8271    2.4251 C   0  0  2  0  0  0  0  0  0  0  0  0
   -7.5636    9.6126    3.0243 O   0  0  0  0  0  0  0  0  0  0  0  0
   -8.4752   10.5441    1.0966 C   0  0  0  0  0  0  0  0  0  0  0  0
   -9.8815    9.9215    1.1633 C   0  0  0  0  0  0  0  0  0  0  0  0
  1  2  1  6  0  0  0
  1  3  1  0  0  0  0
  3  4  1  6  0  0  0
  3  5  1  0  0  0  0
  5  6  1  1  0  0  0
  5  7  1  0  0  0  0
  7  8  1  6  0  0  0
  9  7  1  0  0  0  0
  9 10  1  0  0  0  0
  9 11  1  1  0  0  0
 10  1  1  0  0  0  0
 11 12  1  0  0  0  0
 13 14  1  1  0  0  0
 13 15  1  0  0  0  0
 13 22  1  0  0  0  0
 14 32  1  0  0  0  0
 15 16  1  6  0  0  0
 15 17  1  0  0  0  0
 16 23  1  0  0  0  0
 17 18  1  1  0  0  0
 17 19  1  0  0  0  0
 19  2  1  6  0  0  0
 19 20  1  0  0  0  0
 20 21  1  1  0  0  0
 20 22  1  0  0  0  0
 23 24  1  0  0  0  0
 24 25  1  0  0  0  0
 25 26  1  0  0  0  0
 26 27  1  0  0  0  0
 27 28  1  0  0  0  0
 28 29  1  0  0  0  0
 29 30  1  0  0  0  0
 31 37  1  0  0  0  0
 32 33  2  0  0  0  0
 34 32  1  6  0  0  0
 34 35  1  0  0  0  0
 34 36  1  0  0  0  0
 36 37  1  0  0  0  0
M  END
>  <CHROM.1>
179.56038499,174.78146417,-168.15576818,-176.05221100,60.67835724,71.51782367
65.98365278,43.90311493,144.41147717,-171.12673234,171.37635312,63.33717736
-111.71602112,-175.93996331,178.35718186,-4.87158697,15.35488743,4.29804848
-0.48048431,0.55797989,3.12523602

>  <Name>
1o9m_lig

>  <RI>
0

>  <Rbt.Current_Directory>
/home/itssahil/PROJECTS/Mol_Feturizer/New_Systems/rnas/1o9m

>  <Rbt.Executable>
rbdock ($Id: //depot/dev/client3/rdock/2013.1/src/exe/rbdock.cxx#4 $)

>  <Rbt.Library>
libRbt.so (2013.1, Build901 2013/11/27)

>  <Rbt.Parameter_File>
/export/apps/rDock/src/rDock_2013.1_src/data/scripts/dock_solv.prm

>  <Rbt.Receptor>
prm/pocket_docking_6.prm

>  <SCORE>
-9.08991

>  <SCORE.INTER>
-0.666642

>  <SCORE.INTER.CONST>
1

>  <SCORE.INTER.POLAR>
0

>  <SCORE.INTER.ROT>
15

>  <SCORE.INTER.SOLV>
12.678

>  <SCORE.INTER.VDW>
-18.2704

>  <SCORE.INTER.norm>
-0.0180173

>  <SCORE.INTRA>
-8.42327

>  <SCORE.INTRA.DIHEDRAL>
-16.5661

>  <SCORE.INTRA.DIHEDRAL.0>
21.5987

>  <SCORE.INTRA.POLAR>
0

>  <SCORE.INTRA.POLAR.0>
0

>  <SCORE.INTRA.REPUL>
0

>  <SCORE.INTRA.REPUL.0>
0

>  <SCORE.INTRA.SOLV>
0.0854088

>  <SCORE.INTRA.SOLV.lig_0>
-108.715

>  <SCORE.INTRA.VDW>
-0.1829

>  <SCORE.INTRA.VDW.0>
-3.9485

>  <SCORE.INTRA.norm>
-0.227656

>  <SCORE.RESTR>
0

>  <SCORE.RESTR.CAVITY>
0

>  <SCORE.RESTR.norm>
0

>  <SCORE.SYSTEM>
0

>  <SCORE.SYSTEM.CONST>
0

>  <SCORE.SYSTEM.DIHEDRAL>
0

>  <SCORE.SYSTEM.SOLV>
0

>  <SCORE.SYSTEM.norm>
0

>  <SCORE.heavy>
37

>  <SCORE.norm>
-0.245673

>  <RMSD>
7.952

$$$$
1o9m_lig
 OpenBabel11021811403D
libRbt.so/2013.1/901 2013/11/27
 37 38  0  0  0  0  0  0  0  0999 V2000
   -9.0006   18.8261    7.1185 C   0  0  2  0  0  0  0  0  0  0  0  0
   -9.0915   17.5834    6.3572 O   0  0  0  0  0  0  0  0  0  0  0  0
  -10.4219   19.4963    7.0460 C   0  0  2  0  0  0  0  0  0  0  0  0
  -11.4764   18.6258    7.5948 N   0  0  0  0  0  0  0  0  0  0  0  0
  -10.7356   19.8772    5.5492 C   0  0  1  0  0  0  0  0  0  0  0  0
  -12.0241   20.4909    5.4571 O   0  0  0  0  0  0  0  0  0  0  0  0
   -9.5945   20.8172    5.0376 C   0  0  2  0  0  0  0  0  0  0  0  0
   -9.7719   21.2151    3.6682 O   0  0  0  0  0  0  0  0  0  0  0  0
   -8.2143   20.1302    5.1839 C   0  0  2  0  0  0  0  0  0  0  0  0
   -7.9893   19.7178    6.5398 O   0  0  0  0  0  0  0  0  0  0  0  0
   -7.0918   21.0369    4.7499 C   0  0  0  0  0  0  0  0  0  0  0  0
   -5.8816   20.4037    4.9047 N   0  0  0  0  0  0  0  0  0  0  0  0
   -6.2444   14.3631    5.7704 C   0  0  1  0  0  0  0  0  0  0  0  0
   -5.0270   13.6361    5.3133 N   0  0  0  0  0  0  0  0  0  0  0  0
   -5.8179   15.5391    6.6385 C   0  0  2  0  0  0  0  0  0  0  0  0
   -5.0607   15.0375    7.6992 O   0  0  0  0  0  0  0  0  0  0  0  0
   -7.0655   16.3217    7.1570 C   0  0  1  0  0  0  0  0  0  0  0  0
   -6.6433   17.4591    7.9697 O   0  0  0  0  0  0  0  0  0  0  0  0
   -7.9034   16.8597    5.9264 C   0  0  1  0  0  0  0  0  0  0  0  0
   -8.3515   15.6915    5.0613 C   0  0  1  0  0  0  0  0  0  0  0  0
   -9.1315   16.2063    3.9459 N   0  0  0  0  0  0  0  0  0  0  0  0
   -7.1121   14.9018    4.5619 C   0  0  0  0  0  0  0  0  0  0  0  0
   -4.3084   15.0317    8.9323 C   0  0  0  0  0  0  0  0  0  0  0  0
   -3.2037   16.0595    8.8458 C   0  0  0  0  0  0  0  0  0  0  0  0
   -2.5595   16.3655   10.1397 N   0  0  0  0  0  0  0  0  0  0  0  0
   -1.8846   16.2130   11.4488 C   0  0  0  0  0  0  0  0  0  0  0  0
   -3.0591   15.5805   12.2061 C   0  0  0  0  0  0  0  0  0  0  0  0
   -2.7339   15.3353   13.6915 C   0  0  0  0  0  0  0  0  0  0  0  0
   -1.7100   14.2158   13.8518 C   0  0  0  0  0  0  0  0  0  0  0  0
   -1.4307   13.9919   15.2632 N   0  0  0  0  0  0  0  0  0  0  0  0
   -5.2471   11.0138    1.8131 N   0  0  0  0  0  0  0  0  0  0  0  0
   -4.1475   14.5550    4.0769 C   0  0  0  0  0  0  0  0  0  0  0  0
   -4.2851   15.5107    3.5955 O   0  0  0  0  0  0  0  0  0  0  0  0
   -3.1930   13.3866    4.0392 C   0  0  2  0  0  0  0  0  0  0  0  0
   -1.9160   13.7970    3.7514 O   0  0  0  0  0  0  0  0  0  0  0  0
   -3.6371   12.4900    2.8887 C   0  0  0  0  0  0  0  0  0  0  0  0
   -5.0170   11.8204    3.0203 C   0  0  0  0  0  0  0  0  0  0  0  0
  1  2  1  6  0  0  0
  1  3  1  0  0  0  0
  3  4  1  6  0  0  0
  3  5  1  0  0  0  0
  5  6  1  1  0  0  0
  5  7  1  0  0  0  0
  7  8  1  6  0  0  0
  9  7  1  0  0  0  0
  9 10  1  0  0  0  0
  9 11  1  1  0  0  0
 10  1  1  0  0  0  0
 11 12  1  0  0  0  0
 13 14  1  6  0  0  0
 13 15  1  0  0  0  0
 13 22  1  0  0  0  0
 14 32  1  0  0  0  0
 15 16  1  1  0  0  0
 15 17  1  0  0  0  0
 16 23  1  0  0  0  0
 17 18  1  1  0  0  0
 17 19  1  0  0  0  0
 19  2  1  1  0  0  0
 19 20  1  0  0  0  0
 20 21  1  6  0  0  0
 20 22  1  0  0  0  0
 23 24  1  0  0  0  0
 24 25  1  0  0  0  0
 25 26  1  0  0  0  0
 26 27  1  0  0  0  0
 27 28  1  0  0  0  0
 28 29  1  0  0  0  0
 29 30  1  0  0  0  0
 31 37  1  0  0  0  0
 32 33  2  0  0  0  0
 34 32  1  6  0  0  0
 34 35  1  0  0  0  0
 34 36  1  0  0  0  0
 36 37  1  0  0  0  0
M  END
>  <CHROM.1>
164.65248940,179.38134242,-72.83640277,-174.71570606,-54.55533735,64.16335685
166.91095923,50.78012533,-68.70468999,-177.03304537,-69.92481363,-179.33249697
-147.95730158,-64.79777158,179.77804860,-6.16165348,16.49798962,6.66620946
2.85590470,0.76118337,-1.99397121

>  <Name>
1o9m_lig

>  <RI>
0

>  <Rbt.Current_Directory>
/home/itssahil/PROJECTS/Mol_Feturizer/New_Systems/rnas/1o9m

>  <Rbt.Executable>
rbdock ($Id: //depot/dev/client3/rdock/2013.1/src/exe/rbdock.cxx#4 $)

>  <Rbt.Library>
libRbt.so (2013.1, Build901 2013/11/27)

>  <Rbt.Parameter_File>
/export/apps/rDock/src/rDock_2013.1_src/data/scripts/dock_solv.prm

>  <Rbt.Receptor>
prm/pocket_docking_8.prm

>  <SCORE>
-14.3121

>  <SCORE.INTER>
-5.72493

>  <SCORE.INTER.CONST>
1

>  <SCORE.INTER.POLAR>
-1.76454

>  <SCORE.INTER.ROT>
15

>  <SCORE.INTER.SOLV>
16.6335

>  <SCORE.INTER.VDW>
-17.0793

>  <SCORE.INTER.norm>
-0.154728

>  <SCORE.INTRA>
-8.58717

>  <SCORE.INTRA.DIHEDRAL>
-16.8092

>  <SCORE.INTRA.DIHEDRAL.0>
21.5987

>  <SCORE.INTRA.POLAR>
0

>  <SCORE.INTRA.POLAR.0>
0

>  <SCORE.INTRA.REPUL>
0

>  <SCORE.INTRA.REPUL.0>
0

>  <SCORE.INTRA.SOLV>
-0.791005

>  <SCORE.INTRA.SOLV.lig_0>
-108.715

>  <SCORE.INTRA.VDW>
0.212931

>  <SCORE.INTRA.VDW.0>
-3.9485

>  <SCORE.INTRA.norm>
-0.232086

>  <SCORE.RESTR>
0

>  <SCORE.RESTR.CAVITY>
0

>  <SCORE.RESTR.norm>
0

>  <SCORE.SYSTEM>
0

>  <SCORE.SYSTEM.CONST>
0

>  <SCORE.SYSTEM.DIHEDRAL>
0

>  <SCORE.SYSTEM.SOLV>
0

>  <SCORE.SYSTEM.norm>
0

>  <SCORE.heavy>
37

>  <SCORE.norm>
-0.386814

>  <RMSD>
8.001

$$$$
1o9m_lig
 OpenBabel11021811403D
libRbt.so/2013.1/901 2013/11/27
 37 38  0  0  0  0  0  0  0  0999 V2000
  -12.0358   17.5934    5.0988 C   0  0  2  0  0  0  0  0  0  0  0  0
  -11.1317   17.6424    6.2444 O   0  0  0  0  0  0  0  0  0  0  0  0
  -11.9527   19.0037    4.4068 C   0  0  2  0  0  0  0  0  0  0  0  0
  -10.5827   19.3318    3.9749 N   0  0  0  0  0  0  0  0  0  0  0  0
  -12.5018   20.0974    5.3998 C   0  0  1  0  0  0  0  0  0  0  0  0
  -12.4382   21.3905    4.7920 O   0  0  0  0  0  0  0  0  0  0  0  0
  -13.9620   19.7023    5.7988 C   0  0  2  0  0  0  0  0  0  0  0  0
  -14.5578   20.6286    6.7217 O   0  0  0  0  0  0  0  0  0  0  0  0
  -13.9931   18.2851    6.4224 C   0  0  2  0  0  0  0  0  0  0  0  0
  -13.4108   17.3216    5.5326 O   0  0  0  0  0  0  0  0  0  0  0  0
  -15.3970   17.8576    6.7644 C   0  0  0  0  0  0  0  0  0  0  0  0
  -15.8779   18.6005    7.8161 N   0  0  0  0  0  0  0  0  0  0  0  0
   -7.0892   16.1514    6.7500 C   0  0  1  0  0  0  0  0  0  0  0  0
   -5.6168   16.0090    6.5733 N   0  0  0  0  0  0  0  0  0  0  0  0
   -7.3920   17.5626    7.2353 C   0  0  2  0  0  0  0  0  0  0  0  0
   -6.6851   17.7694    8.4217 O   0  0  0  0  0  0  0  0  0  0  0  0
   -8.9263   17.7527    7.4527 C   0  0  1  0  0  0  0  0  0  0  0  0
   -9.2059   19.1155    7.8969 O   0  0  0  0  0  0  0  0  0  0  0  0
   -9.6910   17.4952    6.0908 C   0  0  1  0  0  0  0  0  0  0  0  0
   -9.4113   16.0811    5.6052 C   0  0  1  0  0  0  0  0  0  0  0  0
  -10.1346   15.8607    4.3619 N   0  0  0  0  0  0  0  0  0  0  0  0
   -7.8841   15.8858    5.4078 C   0  0  0  0  0  0  0  0  0  0  0  0
   -5.5529   17.9119    9.3074 C   0  0  0  0  0  0  0  0  0  0  0  0
   -6.0456   18.2678   10.6912 C   0  0  0  0  0  0  0  0  0  0  0  0
   -4.9752   18.6523   11.6342 N   0  0  0  0  0  0  0  0  0  0  0  0
   -4.2675   19.1532   12.8345 C   0  0  0  0  0  0  0  0  0  0  0  0
   -2.8366   18.9086   12.3388 C   0  0  0  0  0  0  0  0  0  0  0  0
   -1.7831   19.5898   13.2323 C   0  0  0  0  0  0  0  0  0  0  0  0
   -0.3694   19.2601   12.7633 C   0  0  0  0  0  0  0  0  0  0  0  0
    0.6079   19.9026   13.6306 N   0  0  0  0  0  0  0  0  0  0  0  0
   -0.4187   17.5574    3.8290 N   0  0  0  0  0  0  0  0  0  0  0  0
   -4.9627   17.2793    5.5220 C   0  0  0  0  0  0  0  0  0  0  0  0
   -5.3799   18.1252    4.9982 O   0  0  0  0  0  0  0  0  0  0  0  0
   -3.6276   16.6019    5.7126 C   0  0  2  0  0  0  0  0  0  0  0  0
   -3.1228   16.8417    6.9655 O   0  0  0  0  0  0  0  0  0  0  0  0
   -2.6625   17.2401    4.7196 C   0  0  0  0  0  0  0  0  0  0  0  0
   -1.2316   16.6738    4.6772 C   0  0  0  0  0  0  0  0  0  0  0  0
  1  2  1  1  0  0  0
  1  3  1  0  0  0  0
  3  4  1  1  0  0  0
  3  5  1  0  0  0  0
  5  6  1  6  0  0  0
  5  7  1  0  0  0  0
  7  8  1  1  0  0  0
  9  7  1  0  0  0  0
  9 10  1  0  0  0  0
  9 11  1  6  0  0  0
 10  1  1  0  0  0  0
 11 12  1  0  0  0  0
 13 14  1  6  0  0  0
 13 15  1  0  0  0  0
 13 22  1  0  0  0  0
 14 32  1  0  0  0  0
 15 16  1  1  0  0  0
 15 17  1  0  0  0  0
 16 23  1  0  0  0  0
 17 18  1  6  0  0  0
 17 19  1  0  0  0  0
 19  2  1  1  0  0  0
 19 20  1  0  0  0  0
 20 21  1  6  0  0  0
 20 22  1  0  0  0  0
 23 24  1  0  0  0  0
 24 25  1  0  0  0  0
 25 26  1  0  0  0  0
 26 27  1  0  0  0  0
 27 28  1  0  0  0  0
 28 29  1  0  0  0  0
 29 30  1  0  0  0  0
 31 37  1  0  0  0  0
 32 33  2  0  0  0  0
 34 32  1  1  0  0  0
 34 35  1  0  0  0  0
 34 36  1  0  0  0  0
 36 37  1  0  0  0  0
M  END
>  <CHROM.1>
-78.92352078,-69.34200596,-53.83058090,63.12592084,176.49807094,173.37736750
-170.67591843,170.62091026,179.73842730,168.09971407,176.60340436,-179.39415513
-74.08099467,-177.52806991,-170.95347266,-7.75824215,18.10780605,7.24211869
-2.81829866,-0.14666894,1.25055227

>  <Name>
1o9m_lig

>  <RI>
0

>  <Rbt.Current_Directory>
/home/itssahil/PROJECTS/Mol_Feturizer/New_Systems/rnas/1o9m

>  <Rbt.Executable>
rbdock ($Id: //depot/dev/client3/rdock/2013.1/src/exe/rbdock.cxx#4 $)

>  <Rbt.Library>
libRbt.so (2013.1, Build901 2013/11/27)

>  <Rbt.Parameter_File>
/export/apps/rDock/src/rDock_2013.1_src/data/scripts/dock_solv.prm

>  <Rbt.Receptor>
prm/pocket_docking_4.prm

>  <SCORE>
-4.86327

>  <SCORE.INTER>
1.14156

>  <SCORE.INTER.CONST>
1

>  <SCORE.INTER.POLAR>
0

>  <SCORE.INTER.ROT>
15

>  <SCORE.INTER.SOLV>
12.8249

>  <SCORE.INTER.VDW>
-17.1139

>  <SCORE.INTER.norm>
0.0308529

>  <SCORE.INTRA>
-6.01591

>  <SCORE.INTRA.DIHEDRAL>
-17.1029

>  <SCORE.INTRA.DIHEDRAL.0>
21.5987

>  <SCORE.INTRA.POLAR>
0

>  <SCORE.INTRA.POLAR.0>
0

>  <SCORE.INTRA.REPUL>
0

>  <SCORE.INTRA.REPUL.0>
0

>  <SCORE.INTRA.SOLV>
3.40863

>  <SCORE.INTRA.SOLV.lig_0>
-108.715

>  <SCORE.INTRA.VDW>
0.831238

>  <SCORE.INTRA.VDW.0>
-3.9485

>  <SCORE.INTRA.norm>
-0.162592

>  <SCORE.RESTR>
0.0110757

>  <SCORE.RESTR.CAVITY>
0.0110757

>  <SCORE.RESTR.norm>
0.000299343

>  <SCORE.SYSTEM>
0

>  <SCORE.SYSTEM.CONST>
0

>  <SCORE.SYSTEM.DIHEDRAL>
0

>  <SCORE.SYSTEM.SOLV>
0

>  <SCORE.SYSTEM.norm>
0

>  <SCORE.heavy>
37

>  <SCORE.norm>
-0.13144

>  <RMSD>
8.020

$$$$
1o9m_lig
 OpenBabel11021811403D
libRbt.so/2013.1/901 2013/11/27
 37 38  0  0  0  0  0  0  0  0999 V2000
   -9.3978   18.8239    6.0179 C   0  0  2  0  0  0  0  0  0  0  0  0
   -9.7372   18.2486    7.3164 O   0  0  0  0  0  0  0  0  0  0  0  0
  -10.7622   19.1479    5.3053 C   0  0  2  0  0  0  0  0  0  0  0  0
  -11.5908   20.0820    6.0877 N   0  0  0  0  0  0  0  0  0  0  0  0
  -11.5374   17.8014    5.0411 C   0  0  1  0  0  0  0  0  0  0  0  0
  -12.7829   18.0697    4.3912 O   0  0  0  0  0  0  0  0  0  0  0  0
  -10.6145   16.8684    4.1894 C   0  0  2  0  0  0  0  0  0  0  0  0
  -11.2196   15.5971    3.9024 O   0  0  0  0  0  0  0  0  0  0  0  0
   -9.2654   16.6287    4.9110 C   0  0  2  0  0  0  0  0  0  0  0  0
   -8.6196   17.8735    5.2154 O   0  0  0  0  0  0  0  0  0  0  0  0
   -8.3353   15.7779    4.0853 C   0  0  0  0  0  0  0  0  0  0  0  0
   -7.1315   15.6246    4.7307 N   0  0  0  0  0  0  0  0  0  0  0  0
   -6.0010   18.5725    9.4971 C   0  0  1  0  0  0  0  0  0  0  0  0
   -5.0115   18.4571   10.6049 N   0  0  0  0  0  0  0  0  0  0  0  0
   -6.4886   17.1786    9.1262 C   0  0  2  0  0  0  0  0  0  0  0  0
   -5.3745   16.4133    8.7750 O   0  0  0  0  0  0  0  0  0  0  0  0
   -7.5166   17.2489    7.9532 C   0  0  1  0  0  0  0  0  0  0  0  0
   -7.9930   15.9090    7.6214 O   0  0  0  0  0  0  0  0  0  0  0  0
   -8.7546   18.1357    8.3853 C   0  0  1  0  0  0  0  0  0  0  0  0
   -8.2822   19.5373    8.7405 C   0  0  1  0  0  0  0  0  0  0  0  0
   -9.4360   20.3389    9.1198 N   0  0  0  0  0  0  0  0  0  0  0  0
   -7.2454   19.4659    9.8934 C   0  0  0  0  0  0  0  0  0  0  0  0
   -4.6151   15.2902    8.2765 C   0  0  0  0  0  0  0  0  0  0  0  0
   -4.7022   15.2615    6.7678 C   0  0  0  0  0  0  0  0  0  0  0  0
   -3.7147   16.1251    6.0883 N   0  0  0  0  0  0  0  0  0  0  0  0
   -2.8741   16.7522    5.0430 C   0  0  0  0  0  0  0  0  0  0  0  0
   -3.5141   16.0619    3.8319 C   0  0  0  0  0  0  0  0  0  0  0  0
   -3.0986   14.5835    3.7135 C   0  0  0  0  0  0  0  0  0  0  0  0
   -3.6002   13.9751    2.4075 C   0  0  0  0  0  0  0  0  0  0  0  0
   -3.1557   12.5929    2.2965 N   0  0  0  0  0  0  0  0  0  0  0  0
   -1.0744   17.7281   12.4729 N   0  0  0  0  0  0  0  0  0  0  0  0
   -4.6343   20.0419   11.3068 C   0  0  0  0  0  0  0  0  0  0  0  0
   -4.9613   21.0538   11.1245 O   0  0  0  0  0  0  0  0  0  0  0  0
   -3.6793   19.2974   12.2075 C   0  0  2  0  0  0  0  0  0  0  0  0
   -3.8647   19.6424   13.5223 O   0  0  0  0  0  0  0  0  0  0  0  0
   -2.2727   19.7473   11.8285 C   0  0  0  0  0  0  0  0  0  0  0  0
   -1.1117   19.1846   12.6683 C   0  0  0  0  0  0  0  0  0  0  0  0
  1  2  1  1  0  0  0
  1  3  1  0  0  0  0
  3  4  1  1  0  0  0
  3  5  1  0  0  0  0
  5  6  1  6  0  0  0
  5  7  1  0  0  0  0
  7  8  1  1  0  0  0
  9  7  1  0  0  0  0
  9 10  1  0  0  0  0
  9 11  1  6  0  0  0
 10  1  1  0  0  0  0
 11 12  1  0  0  0  0
 13 14  1  1  0  0  0
 13 15  1  0  0  0  0
 13 22  1  0  0  0  0
 14 32  1  0  0  0  0
 15 16  1  6  0  0  0
 15 17  1  0  0  0  0
 16 23  1  0  0  0  0
 17 18  1  1  0  0  0
 17 19  1  0  0  0  0
 19  2  1  6  0  0  0
 19 20  1  0  0  0  0
 20 21  1  1  0  0  0
 20 22  1  0  0  0  0
 23 24  1  0  0  0  0
 24 25  1  0  0  0  0
 25 26  1  0  0  0  0
 26 27  1  0  0  0  0
 27 28  1  0  0  0  0
 28 29  1  0  0  0  0
 29 30  1  0  0  0  0
 31 37  1  0  0  0  0
 32 33  2  0  0  0  0
 34 32  1  6  0  0  0
 34 35  1  0  0  0  0
 34 36  1  0  0  0  0
 36 37  1  0  0  0  0
M  END
>  <CHROM.1>
-164.26190565,177.80785405,-168.87892862,-171.96182925,74.49349399,-59.65434878
84.73719893,168.20755417,6.52485355,-74.27907895,-172.59384671,178.00241061
-130.23684878,176.56942379,63.72058833,-6.60801108,17.53191272,7.41297840
2.30686163,0.31334455,-2.13961485

>  <Name>
1o9m_lig

>  <RI>
0

>  <Rbt.Current_Directory>
/home/itssahil/PROJECTS/Mol_Feturizer/New_Systems/rnas/1o9m

>  <Rbt.Executable>
rbdock ($Id: //depot/dev/client3/rdock/2013.1/src/exe/rbdock.cxx#4 $)

>  <Rbt.Library>
libRbt.so (2013.1, Build901 2013/11/27)

>  <Rbt.Parameter_File>
/export/apps/rDock/src/rDock_2013.1_src/data/scripts/dock_solv.prm

>  <Rbt.Receptor>
prm/pocket_docking_3.prm

>  <SCORE>
-6.49959

>  <SCORE.INTER>
-2.61773

>  <SCORE.INTER.CONST>
1

>  <SCORE.INTER.POLAR>
0

>  <SCORE.INTER.ROT>
15

>  <SCORE.INTER.SOLV>
18.9751

>  <SCORE.INTER.VDW>
-21.6702

>  <SCORE.INTER.norm>
-0.0707496

>  <SCORE.INTRA>
-3.91863

>  <SCORE.INTRA.DIHEDRAL>
-12.2391

>  <SCORE.INTRA.DIHEDRAL.0>
21.5987

>  <SCORE.INTRA.POLAR>
0

>  <SCORE.INTRA.POLAR.0>
0

>  <SCORE.INTRA.REPUL>
0

>  <SCORE.INTRA.REPUL.0>
0

>  <SCORE.INTRA.SOLV>
5.99385

>  <SCORE.INTRA.SOLV.lig_0>
-108.715

>  <SCORE.INTRA.VDW>
-0.795986

>  <SCORE.INTRA.VDW.0>
-3.9485

>  <SCORE.INTRA.norm>
-0.105909

>  <SCORE.RESTR>
0.0367658

>  <SCORE.RESTR.CAVITY>
0.0367658

>  <SCORE.RESTR.norm>
0.00099367

>  <SCORE.SYSTEM>
0

>  <SCORE.SYSTEM.CONST>
0

>  <SCORE.SYSTEM.DIHEDRAL>
0

>  <SCORE.SYSTEM.SOLV>
0

>  <SCORE.SYSTEM.norm>
0

>  <SCORE.heavy>
37

>  <SCORE.norm>
-0.175665

>  <RMSD>
8.028

$$$$
1o9m_lig
 OpenBabel11021811403D
libRbt.so/2013.1/901 2013/11/27
 37 38  0  0  0  0  0  0  0  0999 V2000
  -11.0934   18.2894    5.2446 C   0  0  2  0  0  0  0  0  0  0  0  0
  -10.3245   17.5042    6.2062 O   0  0  0  0  0  0  0  0  0  0  0  0
  -10.9208   19.7961    5.6624 C   0  0  2  0  0  0  0  0  0  0  0  0
   -9.5081   20.2147    5.6649 N   0  0  0  0  0  0  0  0  0  0  0  0
  -11.5699   20.0141    7.0819 C   0  0  1  0  0  0  0  0  0  0  0  0
  -11.4273   21.3792    7.4841 O   0  0  0  0  0  0  0  0  0  0  0  0
  -13.0691   19.5739    7.0036 C   0  0  2  0  0  0  0  0  0  0  0  0
  -13.7580   19.7156    8.2566 O   0  0  0  0  0  0  0  0  0  0  0  0
  -13.1823   18.1024    6.5342 C   0  0  2  0  0  0  0  0  0  0  0  0
  -12.5109   17.9123    5.2802 O   0  0  0  0  0  0  0  0  0  0  0  0
  -14.6194   17.6706    6.3962 C   0  0  0  0  0  0  0  0  0  0  0  0
  -15.2132   17.5909    7.6333 N   0  0  0  0  0  0  0  0  0  0  0  0
   -6.5732   15.3266    6.2844 C   0  0  1  0  0  0  0  0  0  0  0  0
   -5.1451   14.9878    6.0292 N   0  0  0  0  0  0  0  0  0  0  0  0
   -6.6386   16.6560    7.0238 C   0  0  2  0  0  0  0  0  0  0  0  0
   -5.8970   16.5299    8.2003 O   0  0  0  0  0  0  0  0  0  0  0  0
   -8.1198   17.0436    7.3299 C   0  0  1  0  0  0  0  0  0  0  0  0
   -8.1705   18.3299    8.0194 O   0  0  0  0  0  0  0  0  0  0  0  0
   -8.9282   17.1616    5.9741 C   0  0  1  0  0  0  0  0  0  0  0  0
   -8.8860   15.8330    5.2347 C   0  0  1  0  0  0  0  0  0  0  0  0
   -9.6466   15.9590    4.0004 N   0  0  0  0  0  0  0  0  0  0  0  0
   -7.4126   15.4380    4.9477 C   0  0  0  0  0  0  0  0  0  0  0  0
   -4.7443   16.3572    9.0537 C   0  0  0  0  0  0  0  0  0  0  0  0
   -5.1975   16.2897   10.4940 C   0  0  0  0  0  0  0  0  0  0  0  0
   -6.0632   17.4127   10.9089 N   0  0  0  0  0  0  0  0  0  0  0  0
   -7.0682   18.4999   10.8872 C   0  0  0  0  0  0  0  0  0  0  0  0
   -6.1974   19.5627   10.2050 C   0  0  0  0  0  0  0  0  0  0  0  0
   -5.1784   20.1936   11.1723 C   0  0  0  0  0  0  0  0  0  0  0  0
   -4.4181   21.3337   10.5020 C   0  0  0  0  0  0  0  0  0  0  0  0
   -5.3479   22.3645   10.0623 N   0  0  0  0  0  0  0  0  0  0  0  0
   -3.5329   12.6327    2.0319 N   0  0  0  0  0  0  0  0  0  0  0  0
   -4.4841   15.9325    4.6811 C   0  0  0  0  0  0  0  0  0  0  0  0
   -4.8714   16.6929    4.0209 O   0  0  0  0  0  0  0  0  0  0  0  0
   -3.2049   15.1649    4.9095 C   0  0  2  0  0  0  0  0  0  0  0  0
   -2.1385   16.0127    5.0709 O   0  0  0  0  0  0  0  0  0  0  0  0
   -2.9398   14.3604    3.6417 C   0  0  0  0  0  0  0  0  0  0  0  0
   -3.9295   13.2269    3.3167 C   0  0  0  0  0  0  0  0  0  0  0  0
  1  2  1  1  0  0  0
  1  3  1  0  0  0  0
  3  4  1  1  0  0  0
  3  5  1  0  0  0  0
  5  6  1  6  0  0  0
  5  7  1  0  0  0  0
  7  8  1  1  0  0  0
  9  7  1  0  0  0  0
  9 10  1  0  0  0  0
  9 11  1  6  0  0  0
 10  1  1  0  0  0  0
 11 12  1  0  0  0  0
 13 14  1  6  0  0  0
 13 15  1  0  0  0  0
 13 22  1  0  0  0  0
 14 32  1  0  0  0  0
 15 16  1  1  0  0  0
 15 17  1  0  0  0  0
 16 23  1  0  0  0  0
 17 18  1  6  0  0  0
 17 19  1  0  0  0  0
 19  2  1  1  0  0  0
 19 20  1  0  0  0  0
 20 21  1  6  0  0  0
 20 22  1  0  0  0  0
 23 24  1  0  0  0  0
 24 25  1  0  0  0  0
 25 26  1  0  0  0  0
 26 27  1  0  0  0  0
 27 28  1  0  0  0  0
 28 29  1  0  0  0  0
 29 30  1  0  0  0  0
 31 37  1  0  0  0  0
 32 33  2  0  0  0  0
 34 32  1  6  0  0  0
 34 35  1  0  0  0  0
 34 36  1  0  0  0  0
 36 37  1  0  0  0  0
M  END
>  <CHROM.1>
-90.97384620,-68.87431025,-76.99400746,66.30420195,-176.31454517,149.14338182
-52.27071794,33.75815429,-79.66364981,-76.96399106,-174.71569150,59.42167917
-126.63295426,-67.00358310,177.14019163,-7.89606785,17.50896108,6.83666042
2.75868299,-0.22328442,0.90616216

>  <Name>
1o9m_lig

>  <RI>
0

>  <Rbt.Current_Directory>
/home/itssahil/PROJECTS/Mol_Feturizer/New_Systems/rnas/1o9m

>  <Rbt.Executable>
rbdock ($Id: //depot/dev/client3/rdock/2013.1/src/exe/rbdock.cxx#4 $)

>  <Rbt.Library>
libRbt.so (2013.1, Build901 2013/11/27)

>  <Rbt.Parameter_File>
/export/apps/rDock/src/rDock_2013.1_src/data/scripts/dock_solv.prm

>  <Rbt.Receptor>
prm/pocket_docking_5.prm

>  <SCORE>
-5.72708

>  <SCORE.INTER>
-3.11071

>  <SCORE.INTER.CONST>
1

>  <SCORE.INTER.POLAR>
0

>  <SCORE.INTER.ROT>
15

>  <SCORE.INTER.SOLV>
20.1047

>  <SCORE.INTER.VDW>
-22.3754

>  <SCORE.INTER.norm>
-0.0840733

>  <SCORE.INTRA>
-2.61637

>  <SCORE.INTRA.DIHEDRAL>
-8.50297

>  <SCORE.INTRA.DIHEDRAL.0>
21.5987

>  <SCORE.INTRA.POLAR>
0

>  <SCORE.INTRA.POLAR.0>
0

>  <SCORE.INTRA.REPUL>
0

>  <SCORE.INTRA.REPUL.0>
0

>  <SCORE.INTRA.SOLV>
4.7364

>  <SCORE.INTRA.SOLV.lig_0>
-108.715

>  <SCORE.INTRA.VDW>
-0.733086

>  <SCORE.INTRA.VDW.0>
-3.9485

>  <SCORE.INTRA.norm>
-0.0707128

>  <SCORE.RESTR>
0

>  <SCORE.RESTR.CAVITY>
0

>  <SCORE.RESTR.norm>
0

>  <SCORE.SYSTEM>
0

>  <SCORE.SYSTEM.CONST>
0

>  <SCORE.SYSTEM.DIHEDRAL>
0

>  <SCORE.SYSTEM.SOLV>
0

>  <SCORE.SYSTEM.norm>
0

>  <SCORE.heavy>
37

>  <SCORE.norm>
-0.154786

>  <RMSD>
8.046

$$$$
1o9m_lig
 OpenBabel11021811403D
libRbt.so/2013.1/901 2013/11/27
 37 38  0  0  0  0  0  0  0  0999 V2000
   -5.9968   20.4236   10.1159 C   0  0  2  0  0  0  0  0  0  0  0  0
   -6.0908   19.1678    9.3767 O   0  0  0  0  0  0  0  0  0  0  0  0
   -5.0161   21.3457    9.3020 C   0  0  2  0  0  0  0  0  0  0  0  0
   -5.4893   21.5852    7.9273 N   0  0  0  0  0  0  0  0  0  0  0  0
   -3.5826   20.6907    9.2925 C   0  0  1  0  0  0  0  0  0  0  0  0
   -2.6707   21.5126    8.5588 O   0  0  0  0  0  0  0  0  0  0  0  0
   -3.1320   20.4861   10.7766 C   0  0  2  0  0  0  0  0  0  0  0  0
   -1.8361   19.8752   10.8867 O   0  0  0  0  0  0  0  0  0  0  0  0
   -4.1603   19.6196   11.5450 C   0  0  2  0  0  0  0  0  0  0  0  0
   -5.4731   20.1939   11.4670 O   0  0  0  0  0  0  0  0  0  0  0  0
   -3.7779   19.4540   12.9931 C   0  0  0  0  0  0  0  0  0  0  0  0
   -2.7198   18.5845   13.1095 N   0  0  0  0  0  0  0  0  0  0  0  0
   -9.1356   17.6493    6.6852 C   0  0  1  0  0  0  0  0  0  0  0  0
  -10.0092   17.5283    5.4845 N   0  0  0  0  0  0  0  0  0  0  0  0
   -7.6812   17.5372    6.2485 C   0  0  2  0  0  0  0  0  0  0  0  0
   -7.5238   16.3162    5.5893 O   0  0  0  0  0  0  0  0  0  0  0  0
   -6.7270   17.6402    7.4800 C   0  0  1  0  0  0  0  0  0  0  0  0
   -5.3353   17.5532    7.0462 O   0  0  0  0  0  0  0  0  0  0  0  0
   -6.9468   19.0292    8.2067 C   0  0  1  0  0  0  0  0  0  0  0  0
   -8.3927   19.1450    8.6647 C   0  0  1  0  0  0  0  0  0  0  0  0
   -8.5691   20.4207    9.3424 N   0  0  0  0  0  0  0  0  0  0  0  0
   -9.3423   19.0230    7.4429 C   0  0  0  0  0  0  0  0  0  0  0  0
   -6.8633   15.2394    4.8887 C   0  0  0  0  0  0  0  0  0  0  0  0
   -5.8059   14.6375    5.7854 C   0  0  0  0  0  0  0  0  0  0  0  0
   -5.0462   13.5316    5.1668 N   0  0  0  0  0  0  0  0  0  0  0  0
   -4.1579   12.7639    4.2645 C   0  0  0  0  0  0  0  0  0  0  0  0
   -5.2520   12.1551    3.3783 C   0  0  0  0  0  0  0  0  0  0  0  0
   -4.6907   11.1259    2.3793 C   0  0  0  0  0  0  0  0  0  0  0  0
   -3.7290   11.7842    1.3949 C   0  0  0  0  0  0  0  0  0  0  0  0
   -3.4548   10.8827    0.2848 N   0  0  0  0  0  0  0  0  0  0  0  0
  -13.1563   19.1194    1.6755 N   0  0  0  0  0  0  0  0  0  0  0  0
   -9.6511   18.7906    4.2907 C   0  0  0  0  0  0  0  0  0  0  0  0
   -8.9481   19.6069    4.2319 O   0  0  0  0  0  0  0  0  0  0  0  0
  -10.7668   18.1860    3.4738 C   0  0  2  0  0  0  0  0  0  0  0  0
  -10.5578   18.3736    2.1310 O   0  0  0  0  0  0  0  0  0  0  0  0
  -12.0389   18.9464    3.8319 C   0  0  0  0  0  0  0  0  0  0  0  0
  -13.3093   18.5908    3.0387 C   0  0  0  0  0  0  0  0  0  0  0  0
  1  2  1  6  0  0  0
  1  3  1  0  0  0  0
  3  4  1  6  0  0  0
  3  5  1  0  0  0  0
  5  6  1  6  0  0  0
  5  7  1  0  0  0  0
  7  8  1  6  0  0  0
  9  7  1  0  0  0  0
  9 10  1  0  0  0  0
  9 11  1  1  0  0  0
 10  1  1  0  0  0  0
 11 12  1  0  0  0  0
 13 14  1  6  0  0  0
 13 15  1  0  0  0  0
 13 22  1  0  0  0  0
 14 32  1  0  0  0  0
 15 16  1  1  0  0  0
 15 17  1  0  0  0  0
 16 23  1  0  0  0  0
 17 18  1  6  0  0  0
 17 19  1  0  0  0  0
 19  2  1  1  0  0  0
 19 20  1  0  0  0  0
 20 21  1  6  0  0  0
 20 22  1  0  0  0  0
 23 24  1  0  0  0  0
 24 25  1  0  0  0  0
 25 26  1  0  0  0  0
 26 27  1  0  0  0  0
 27 28  1  0  0  0  0
 28 29  1  0  0  0  0
 29 30  1  0  0  0  0
 31 37  1  0  0  0  0
 32 33  2  0  0  0  0
 34 32  1  1  0  0  0
 34 35  1  0  0  0  0
 34 36  1  0  0  0  0
 36 37  1  0  0  0  0
M  END
>  <CHROM.1>
-79.96950862,-73.80174956,-59.14002736,-178.37355079,62.12582726,172.51879260
-179.21234306,63.50713550,-99.18525900,-173.31781048,-63.51476379,-166.83695388
-150.87669951,175.12006301,-71.80229571,-6.64995034,17.80176199,6.69219683
1.15554481,-0.51291485,0.77916184

>  <Name>
1o9m_lig

>  <RI>
0

>  <Rbt.Current_Directory>
/home/itssahil/PROJECTS/Mol_Feturizer/New_Systems/rnas/1o9m

>  <Rbt.Executable>
rbdock ($Id: //depot/dev/client3/rdock/2013.1/src/exe/rbdock.cxx#4 $)

>  <Rbt.Library>
libRbt.so (2013.1, Build901 2013/11/27)

>  <Rbt.Parameter_File>
/export/apps/rDock/src/rDock_2013.1_src/data/scripts/dock_solv.prm

>  <Rbt.Receptor>
prm/pocket_docking_6.prm

>  <SCORE>
-10.6122

>  <SCORE.INTER>
-7.03156

>  <SCORE.INTER.CONST>
1

>  <SCORE.INTER.POLAR>
-0.959166

>  <SCORE.INTER.ROT>
15

>  <SCORE.INTER.SOLV>
16.4792

>  <SCORE.INTER.VDW>
-20.5836

>  <SCORE.INTER.norm>
-0.190042

>  <SCORE.INTRA>
-3.58064

>  <SCORE.INTRA.DIHEDRAL>
-14.7248

>  <SCORE.INTRA.DIHEDRAL.0>
21.5987

>  <SCORE.INTRA.POLAR>
0

>  <SCORE.INTRA.POLAR.0>
0

>  <SCORE.INTRA.REPUL>
0

>  <SCORE.INTRA.REPUL.0>
0

>  <SCORE.INTRA.SOLV>
5.11562

>  <SCORE.INTRA.SOLV.lig_0>
-108.715

>  <SCORE.INTRA.VDW>
1.22393

>  <SCORE.INTRA.VDW.0>
-3.9485

>  <SCORE.INTRA.norm>
-0.0967741

>  <SCORE.RESTR>
0

>  <SCORE.RESTR.CAVITY>
0

>  <SCORE.RESTR.norm>
0

>  <SCORE.SYSTEM>
0

>  <SCORE.SYSTEM.CONST>
0

>  <SCORE.SYSTEM.DIHEDRAL>
0

>  <SCORE.SYSTEM.SOLV>
0

>  <SCORE.SYSTEM.norm>
0

>  <SCORE.heavy>
37

>  <SCORE.norm>
-0.286816

>  <RMSD>
8.061

$$$$
1o9m_lig
 OpenBabel11021811403D
libRbt.so/2013.1/901 2013/11/27
 37 38  0  0  0  0  0  0  0  0999 V2000
   -9.5666   19.5385    4.7037 C   0  0  2  0  0  0  0  0  0  0  0  0
   -9.7843   19.4638    6.1456 O   0  0  0  0  0  0  0  0  0  0  0  0
  -10.9923   19.5477    4.0391 C   0  0  2  0  0  0  0  0  0  0  0  0
  -11.8142   20.6801    4.5006 N   0  0  0  0  0  0  0  0  0  0  0  0
  -11.7100   18.1775    4.3415 C   0  0  1  0  0  0  0  0  0  0  0  0
  -13.0099   18.1606    3.7452 O   0  0  0  0  0  0  0  0  0  0  0  0
  -10.7989   17.0234    3.8074 C   0  0  2  0  0  0  0  0  0  0  0  0
  -11.3527   15.7194    4.0473 O   0  0  0  0  0  0  0  0  0  0  0  0
   -9.3923   17.0956    4.4514 C   0  0  2  0  0  0  0  0  0  0  0  0
   -8.7953   18.3822    4.2336 O   0  0  0  0  0  0  0  0  0  0  0  0
   -8.4767   16.0276    3.9113 C   0  0  0  0  0  0  0  0  0  0  0  0
   -7.2366   16.1235    4.4963 N   0  0  0  0  0  0  0  0  0  0  0  0
   -5.9421   20.6631    7.7642 C   0  0  1  0  0  0  0  0  0  0  0  0
   -4.8581   20.9216    8.7529 N   0  0  0  0  0  0  0  0  0  0  0  0
   -6.2973   19.1829    7.7996 C   0  0  2  0  0  0  0  0  0  0  0  0
   -5.1362   18.4562    7.5275 O   0  0  0  0  0  0  0  0  0  0  0  0
   -7.4197   18.8610    6.7632 C   0  0  1  0  0  0  0  0  0  0  0  0
   -7.7666   17.4437    6.8219 O   0  0  0  0  0  0  0  0  0  0  0  0
   -8.7106   19.7142    7.0971 C   0  0  1  0  0  0  0  0  0  0  0  0
   -8.3727   21.1965    7.0462 C   0  0  1  0  0  0  0  0  0  0  0  0
   -9.5748   21.9617    7.3409 N   0  0  0  0  0  0  0  0  0  0  0  0
   -7.2430   21.5130    8.0626 C   0  0  0  0  0  0  0  0  0  0  0  0
   -4.3013   17.3926    7.0193 C   0  0  0  0  0  0  0  0  0  0  0  0
   -4.7634   16.0764    7.6011 C   0  0  0  0  0  0  0  0  0  0  0  0
   -4.0152   14.9014    7.1086 N   0  0  0  0  0  0  0  0  0  0  0  0
   -3.4325   13.8755    6.2139 C   0  0  0  0  0  0  0  0  0  0  0  0
   -3.0649   14.8088    5.0534 C   0  0  0  0  0  0  0  0  0  0  0  0
   -2.2959   14.0788    3.9363 C   0  0  0  0  0  0  0  0  0  0  0  0
   -3.1921   13.0740    3.2190 C   0  0  0  0  0  0  0  0  0  0  0  0
   -4.1945   13.7735    2.4278 N   0  0  0  0  0  0  0  0  0  0  0  0
   -0.3508   20.5530    8.6882 N   0  0  0  0  0  0  0  0  0  0  0  0
   -3.7201   22.1481    8.1635 C   0  0  0  0  0  0  0  0  0  0  0  0
   -3.6413   22.7484    7.2705 O   0  0  0  0  0  0  0  0  0  0  0  0
   -2.9694   21.9179    9.4523 C   0  0  2  0  0  0  0  0  0  0  0  0
   -3.5782   22.5560   10.5031 O   0  0  0  0  0  0  0  0  0  0  0  0
   -1.5960   22.5586    9.2843 C   0  0  0  0  0  0  0  0  0  0  0  0
   -0.6531   21.9223    8.2471 C   0  0  0  0  0  0  0  0  0  0  0  0
  1  2  1  1  0  0  0
  1  3  1  0  0  0  0
  3  4  1  1  0  0  0
  3  5  1  0  0  0  0
  5  6  1  6  0  0  0
  5  7  1  0  0  0  0
  7  8  1  1  0  0  0
  9  7  1  0  0  0  0
  9 10  1  0  0  0  0
  9 11  1  6  0  0  0
 10  1  1  0  0  0  0
 11 12  1  0  0  0  0
 13 14  1  1  0  0  0
 13 15  1  0  0  0  0
 13 22  1  0  0  0  0
 14 32  1  0  0  0  0
 15 16  1  6  0  0  0
 15 17  1  0  0  0  0
 16 23  1  0  0  0  0
 17 18  1  1  0  0  0
 17 19  1  0  0  0  0
 19  2  1  6  0  0  0
 19 20  1  0  0  0  0
 20 21  1  1  0  0  0
 20 22  1  0  0  0  0
 23 24  1  0  0  0  0
 24 25  1  0  0  0  0
 25 26  1  0  0  0  0
 26 27  1  0  0  0  0
 27 28  1  0  0  0  0
 28 29  1  0  0  0  0
 29 30  1  0  0  0  0
 31 37  1  0  0  0  0
 32 33  2  0  0  0  0
 34 32  1  6  0  0  0
 34 35  1  0  0  0  0
 34 36  1  0  0  0  0
 36 37  1  0  0  0  0
M  END
>  <CHROM.1>
-166.96504714,179.66115842,143.86400151,-146.23221429,-57.65219443,-50.95120211
177.63329789,-60.20370868,39.78706246,175.07810164,68.04841219,69.91081829
-78.06800130,-66.61862978,-63.46798651,-6.49986320,18.58692581,6.25567718
2.59936023,0.27664223,-2.64453975

>  <Name>
1o9m_lig

>  <RI>
0

>  <Rbt.Current_Directory>
/home/itssahil/PROJECTS/Mol_Feturizer/New_Systems/rnas/1o9m

>  <Rbt.Executable>
rbdock ($Id: //depot/dev/client3/rdock/2013.1/src/exe/rbdock.cxx#4 $)

>  <Rbt.Library>
libRbt.so (2013.1, Build901 2013/11/27)

>  <Rbt.Parameter_File>
/export/apps/rDock/src/rDock_2013.1_src/data/scripts/dock_solv.prm

>  <Rbt.Receptor>
prm/pocket_docking_6.prm

>  <SCORE>
-8.06536

>  <SCORE.INTER>
-4.26232

>  <SCORE.INTER.CONST>
1

>  <SCORE.INTER.POLAR>
-0.81685

>  <SCORE.INTER.ROT>
15

>  <SCORE.INTER.SOLV>
11.6214

>  <SCORE.INTER.VDW>
-17.5925

>  <SCORE.INTER.norm>
-0.115198

>  <SCORE.INTRA>
-3.80304

>  <SCORE.INTRA.DIHEDRAL>
-13.0045

>  <SCORE.INTRA.DIHEDRAL.0>
21.5987

>  <SCORE.INTRA.POLAR>
0

>  <SCORE.INTRA.POLAR.0>
0

>  <SCORE.INTRA.REPUL>
0

>  <SCORE.INTRA.REPUL.0>
0

>  <SCORE.INTRA.SOLV>
5.18892

>  <SCORE.INTRA.SOLV.lig_0>
-108.715

>  <SCORE.INTRA.VDW>
0.104736

>  <SCORE.INTRA.VDW.0>
-3.9485

>  <SCORE.INTRA.norm>
-0.102785

>  <SCORE.RESTR>
0

>  <SCORE.RESTR.CAVITY>
0

>  <SCORE.RESTR.norm>
0

>  <SCORE.SYSTEM>
0

>  <SCORE.SYSTEM.CONST>
0

>  <SCORE.SYSTEM.DIHEDRAL>
0

>  <SCORE.SYSTEM.SOLV>
0

>  <SCORE.SYSTEM.norm>
0

>  <SCORE.heavy>
37

>  <SCORE.norm>
-0.217983

>  <RMSD>
8.069

$$$$
1o9m_lig
 OpenBabel11021811403D
libRbt.so/2013.1/901 2013/11/27
 37 38  0  0  0  0  0  0  0  0999 V2000
  -10.8771   19.3895    5.5871 C   0  0  2  0  0  0  0  0  0  0  0  0
  -10.3952   18.0111    5.5742 O   0  0  0  0  0  0  0  0  0  0  0  0
  -12.3002   19.3562    6.2566 C   0  0  2  0  0  0  0  0  0  0  0  0
  -12.2598   18.8062    7.6230 N   0  0  0  0  0  0  0  0  0  0  0  0
  -13.2775   18.5190    5.3468 C   0  0  1  0  0  0  0  0  0  0  0  0
  -14.5808   18.4754    5.9342 O   0  0  0  0  0  0  0  0  0  0  0  0
  -13.2916   19.1677    3.9232 C   0  0  2  0  0  0  0  0  0  0  0  0
  -14.1436   18.4693    3.0007 O   0  0  0  0  0  0  0  0  0  0  0  0
  -11.8599   19.2261    3.3357 C   0  0  2  0  0  0  0  0  0  0  0  0
  -10.9708   19.9205    4.2226 O   0  0  0  0  0  0  0  0  0  0  0  0
  -11.8380   19.8982    1.9872 C   0  0  0  0  0  0  0  0  0  0  0  0
  -12.1876   21.2219    2.1095 N   0  0  0  0  0  0  0  0  0  0  0  0
   -6.6137   16.1034    4.6353 C   0  0  1  0  0  0  0  0  0  0  0  0
   -5.3919   15.7139    3.8771 N   0  0  0  0  0  0  0  0  0  0  0  0
   -6.6223   17.6160    4.8105 C   0  0  2  0  0  0  0  0  0  0  0  0
   -5.4438   17.9790    5.4658 O   0  0  0  0  0  0  0  0  0  0  0  0
   -7.8792   18.0695    5.6182 C   0  0  1  0  0  0  0  0  0  0  0  0
   -7.8874   19.5229    5.7607 O   0  0  0  0  0  0  0  0  0  0  0  0
   -9.1910   17.6268    4.8509 C   0  0  1  0  0  0  0  0  0  0  0  0
   -9.2031   16.1146    4.6863 C   0  0  1  0  0  0  0  0  0  0  0  0
  -10.4227   15.7282    3.9930 N   0  0  0  0  0  0  0  0  0  0  0  0
   -7.9435   15.6617    3.9004 C   0  0  0  0  0  0  0  0  0  0  0  0
   -4.4503   18.8312    6.0767 C   0  0  0  0  0  0  0  0  0  0  0  0
   -5.0865   19.6035    7.2096 C   0  0  0  0  0  0  0  0  0  0  0  0
   -4.1870   20.5822    7.8546 N   0  0  0  0  0  0  0  0  0  0  0  0
   -3.6880   21.7211    8.6585 C   0  0  0  0  0  0  0  0  0  0  0  0
   -4.3768   21.3506    9.9781 C   0  0  0  0  0  0  0  0  0  0  0  0
   -3.7353   20.1211   10.6482 C   0  0  0  0  0  0  0  0  0  0  0  0
   -4.4120   19.8052   11.9784 C   0  0  0  0  0  0  0  0  0  0  0  0
   -3.7284   18.7014   12.6376 N   0  0  0  0  0  0  0  0  0  0  0  0
   -1.0061   15.4721    5.7003 N   0  0  0  0  0  0  0  0  0  0  0  0
   -4.9181   14.0400    4.2240 C   0  0  0  0  0  0  0  0  0  0  0  0
   -5.3132   13.2482    4.8412 O   0  0  0  0  0  0  0  0  0  0  0  0
   -3.7557   14.2883    3.2940 C   0  0  2  0  0  0  0  0  0  0  0  0
   -3.5980   13.2529    2.4080 O   0  0  0  0  0  0  0  0  0  0  0  0
   -2.4992   14.3246    4.1568 C   0  0  0  0  0  0  0  0  0  0  0  0
   -2.3673   15.4971    5.1457 C   0  0  0  0  0  0  0  0  0  0  0  0
  1  2  1  6  0  0  0
  1  3  1  0  0  0  0
  3  4  1  1  0  0  0
  3  5  1  0  0  0  0
  5  6  1  1  0  0  0
  5  7  1  0  0  0  0
  7  8  1  6  0  0  0
  9  7  1  0  0  0  0
  9 10  1  0  0  0  0
  9 11  1  6  0  0  0
 10  1  1  0  0  0  0
 11 12  1  0  0  0  0
 13 14  1  6  0  0  0
 13 15  1  0  0  0  0
 13 22  1  0  0  0  0
 14 32  1  0  0  0  0
 15 16  1  1  0  0  0
 15 17  1  0  0  0  0
 16 23  1  0  0  0  0
 17 18  1  6  0  0  0
 17 19  1  0  0  0  0
 19  2  1  1  0  0  0
 19 20  1  0  0  0  0
 20 21  1  6  0  0  0
 20 22  1  0  0  0  0
 23 24  1  0  0  0  0
 24 25  1  0  0  0  0
 25 26  1  0  0  0  0
 26 27  1  0  0  0  0
 27 28  1  0  0  0  0
 28 29  1  0  0  0  0
 29 30  1  0  0  0  0
 31 37  1  0  0  0  0
 32 33  2  0  0  0  0
 34 32  1  1  0  0  0
 34 35  1  0  0  0  0
 34 36  1  0  0  0  0
 36 37  1  0  0  0  0
M  END
>  <CHROM.1>
170.81680932,65.56625902,154.98684702,179.39589262,58.70994226,76.07945004
-176.01198871,163.42628553,53.39965334,71.77654122,178.16416663,-175.93030654
-133.66984855,-66.84361501,-170.45331140,-7.62655978,17.87807370,5.59727860
3.06084736,0.33198068,-2.30895811

>  <Name>
1o9m_lig

>  <RI>
0

>  <Rbt.Current_Directory>
/home/itssahil/PROJECTS/Mol_Feturizer/New_Systems/rnas/1o9m

>  <Rbt.Executable>
rbdock ($Id: //depot/dev/client3/rdock/2013.1/src/exe/rbdock.cxx#4 $)

>  <Rbt.Library>
libRbt.so (2013.1, Build901 2013/11/27)

>  <Rbt.Parameter_File>
/export/apps/rDock/src/rDock_2013.1_src/data/scripts/dock_solv.prm

>  <Rbt.Receptor>
prm/pocket_docking_5.prm

>  <SCORE>
-15.503

>  <SCORE.INTER>
-7.22686

>  <SCORE.INTER.CONST>
1

>  <SCORE.INTER.POLAR>
-1.82954

>  <SCORE.INTER.ROT>
15

>  <SCORE.INTER.SOLV>
15.5248

>  <SCORE.INTER.VDW>
-17.4944

>  <SCORE.INTER.norm>
-0.19532

>  <SCORE.INTRA>
-8.27614

>  <SCORE.INTRA.DIHEDRAL>
-15.6499

>  <SCORE.INTRA.DIHEDRAL.0>
21.5987

>  <SCORE.INTRA.POLAR>
0

>  <SCORE.INTRA.POLAR.0>
0

>  <SCORE.INTRA.REPUL>
0

>  <SCORE.INTRA.REPUL.0>
0

>  <SCORE.INTRA.SOLV>
0.253835

>  <SCORE.INTRA.SOLV.lig_0>
-108.715

>  <SCORE.INTRA.VDW>
-0.578108

>  <SCORE.INTRA.VDW.0>
-3.9485

>  <SCORE.INTRA.norm>
-0.223679

>  <SCORE.RESTR>
0

>  <SCORE.RESTR.CAVITY>
0

>  <SCORE.RESTR.norm>
0

>  <SCORE.SYSTEM>
0

>  <SCORE.SYSTEM.CONST>
0

>  <SCORE.SYSTEM.DIHEDRAL>
0

>  <SCORE.SYSTEM.SOLV>
0

>  <SCORE.SYSTEM.norm>
0

>  <SCORE.heavy>
37

>  <SCORE.norm>
-0.419

>  <RMSD>
8.087

$$$$
1o9m_lig
 OpenBabel11021811403D
libRbt.so/2013.1/901 2013/11/27
 37 38  0  0  0  0  0  0  0  0999 V2000
  -10.0685   18.3680    5.5085 C   0  0  2  0  0  0  0  0  0  0  0  0
   -9.4392   19.3623    6.3731 O   0  0  0  0  0  0  0  0  0  0  0  0
  -10.2157   19.0393    4.0935 C   0  0  2  0  0  0  0  0  0  0  0  0
   -8.9174   19.4626    3.5404 N   0  0  0  0  0  0  0  0  0  0  0  0
  -11.2009   20.2644    4.2051 C   0  0  1  0  0  0  0  0  0  0  0  0
  -11.3530   20.8917    2.9288 O   0  0  0  0  0  0  0  0  0  0  0  0
  -12.5618   19.7434    4.7743 C   0  0  2  0  0  0  0  0  0  0  0  0
  -13.5357   20.7878    4.9343 O   0  0  0  0  0  0  0  0  0  0  0  0
  -12.3505   19.0432    6.1394 C   0  0  2  0  0  0  0  0  0  0  0  0
  -11.3863   17.9862    6.0284 O   0  0  0  0  0  0  0  0  0  0  0  0
  -13.6390   18.4822    6.6832 C   0  0  0  0  0  0  0  0  0  0  0  0
  -13.5444   18.3048    8.0429 N   0  0  0  0  0  0  0  0  0  0  0  0
   -5.9578   18.5164    8.8195 C   0  0  1  0  0  0  0  0  0  0  0  0
   -5.1371   18.1287   10.0009 N   0  0  0  0  0  0  0  0  0  0  0  0
   -6.8647   17.3513    8.4472 C   0  0  2  0  0  0  0  0  0  0  0  0
   -6.0561   16.2400    8.1995 O   0  0  0  0  0  0  0  0  0  0  0  0
   -7.7328   17.7063    7.1990 C   0  0  1  0  0  0  0  0  0  0  0  0
   -8.6133   16.5901    6.8652 O   0  0  0  0  0  0  0  0  0  0  0  0
   -8.6216   18.9775    7.5152 C   0  0  1  0  0  0  0  0  0  0  0  0
   -7.7254   20.1541    7.8705 C   0  0  1  0  0  0  0  0  0  0  0  0
   -8.5607   21.3143    8.1424 N   0  0  0  0  0  0  0  0  0  0  0  0
   -6.8482   19.7941    9.0993 C   0  0  0  0  0  0  0  0  0  0  0  0
   -5.0364   15.4286    7.5762 C   0  0  0  0  0  0  0  0  0  0  0  0
   -3.6981   16.1166    7.7176 C   0  0  0  0  0  0  0  0  0  0  0  0
   -2.5765   15.3941    7.0828 N   0  0  0  0  0  0  0  0  0  0  0  0
   -1.6454   14.8486    6.0689 C   0  0  0  0  0  0  0  0  0  0  0  0
   -0.8477   16.1347    5.8186 C   0  0  0  0  0  0  0  0  0  0  0  0
   -0.8068   16.5173    4.3272 C   0  0  0  0  0  0  0  0  0  0  0  0
   -2.2026   16.8454    3.8061 C   0  0  0  0  0  0  0  0  0  0  0  0
   -2.6784   18.0875    4.3986 N   0  0  0  0  0  0  0  0  0  0  0  0
   -3.0722   19.8862   11.4971 N   0  0  0  0  0  0  0  0  0  0  0  0
   -6.1561   17.7279   11.3965 C   0  0  0  0  0  0  0  0  0  0  0  0
   -7.2188   17.6908   11.5790 O   0  0  0  0  0  0  0  0  0  0  0  0
   -4.8630   17.5023   12.1414 C   0  0  2  0  0  0  0  0  0  0  0  0
   -4.9668   16.4440   13.0082 O   0  0  0  0  0  0  0  0  0  0  0  0
   -4.6196   18.7448   12.9908 C   0  0  0  0  0  0  0  0  0  0  0  0
   -4.3299   20.0565   12.2388 C   0  0  0  0  0  0  0  0  0  0  0  0
  1  2  1  1  0  0  0
  1  3  1  0  0  0  0
  3  4  1  1  0  0  0
  3  5  1  0  0  0  0
  5  6  1  6  0  0  0
  5  7  1  0  0  0  0
  7  8  1  1  0  0  0
  9  7  1  0  0  0  0
  9 10  1  0  0  0  0
  9 11  1  6  0  0  0
 10  1  1  0  0  0  0
 11 12  1  0  0  0  0
 13 14  1  1  0  0  0
 13 15  1  0  0  0  0
 13 22  1  0  0  0  0
 14 32  1  0  0  0  0
 15 16  1  6  0  0  0
 15 17  1  0  0  0  0
 16 23  1  0  0  0  0
 17 18  1  1  0  0  0
 17 19  1  0  0  0  0
 19  2  1  6  0  0  0
 19 20  1  0  0  0  0
 20 21  1  1  0  0  0
 20 22  1  0  0  0  0
 23 24  1  0  0  0  0
 24 25  1  0  0  0  0
 25 26  1  0  0  0  0
 26 27  1  0  0  0  0
 27 28  1  0  0  0  0
 28 29  1  0  0  0  0
 29 30  1  0  0  0  0
 31 37  1  0  0  0  0
 32 33  2  0  0  0  0
 34 32  1  1  0  0  0
 34 35  1  0  0  0  0
 34 36  1  0  0  0  0
 36 37  1  0  0  0  0
M  END
>  <CHROM.1>
-152.29159582,-158.62624231,-59.95693456,-60.07358179,59.60198598,38.46837688
-178.44096621,76.67866700,76.95178803,-125.98277769,64.13100973,68.97359136
-142.76917338,-66.64638065,-63.49510326,-7.18789432,18.20505008,7.48392286
-2.80435218,-0.30764680,1.49048994

>  <Name>
1o9m_lig

>  <RI>
0

>  <Rbt.Current_Directory>
/home/itssahil/PROJECTS/Mol_Feturizer/New_Systems/rnas/1o9m

>  <Rbt.Executable>
rbdock ($Id: //depot/dev/client3/rdock/2013.1/src/exe/rbdock.cxx#4 $)

>  <Rbt.Library>
libRbt.so (2013.1, Build901 2013/11/27)

>  <Rbt.Parameter_File>
/export/apps/rDock/src/rDock_2013.1_src/data/scripts/dock_solv.prm

>  <Rbt.Receptor>
prm/pocket_docking_3.prm

>  <SCORE>
1.75246

>  <SCORE.INTER>
1.21447

>  <SCORE.INTER.CONST>
1

>  <SCORE.INTER.POLAR>
-1.07166

>  <SCORE.INTER.ROT>
15

>  <SCORE.INTER.SOLV>
14.2433

>  <SCORE.INTER.VDW>
-13.9659

>  <SCORE.INTER.norm>
0.0328235

>  <SCORE.INTRA>
-0.65987

>  <SCORE.INTRA.DIHEDRAL>
-6.36456

>  <SCORE.INTRA.DIHEDRAL.0>
21.5987

>  <SCORE.INTRA.POLAR>
0

>  <SCORE.INTRA.POLAR.0>
0

>  <SCORE.INTRA.REPUL>
0

>  <SCORE.INTRA.REPUL.0>
0

>  <SCORE.INTRA.SOLV>
4.09372

>  <SCORE.INTRA.SOLV.lig_0>
-108.715

>  <SCORE.INTRA.VDW>
0.475553

>  <SCORE.INTRA.VDW.0>
-3.9485

>  <SCORE.INTRA.norm>
-0.0178343

>  <SCORE.RESTR>
1.19785

>  <SCORE.RESTR.CAVITY>
1.19785

>  <SCORE.RESTR.norm>
0.0323744

>  <SCORE.SYSTEM>
0

>  <SCORE.SYSTEM.CONST>
0

>  <SCORE.SYSTEM.DIHEDRAL>
0

>  <SCORE.SYSTEM.SOLV>
0

>  <SCORE.SYSTEM.norm>
0

>  <SCORE.heavy>
37

>  <SCORE.norm>
0.0473637

>  <RMSD>
8.096

$$$$
1o9m_lig
 OpenBabel11021811403D
libRbt.so/2013.1/901 2013/11/27
 37 38  0  0  0  0  0  0  0  0999 V2000
   -8.8010   18.9187    7.1010 C   0  0  2  0  0  0  0  0  0  0  0  0
   -8.9516   17.6360    6.4198 O   0  0  0  0  0  0  0  0  0  0  0  0
  -10.2300   19.5756    7.1319 C   0  0  2  0  0  0  0  0  0  0  0  0
  -11.2164   18.7301    7.8269 N   0  0  0  0  0  0  0  0  0  0  0  0
  -10.6919   19.8728    5.6547 C   0  0  1  0  0  0  0  0  0  0  0  0
  -11.9900   20.4730    5.6562 O   0  0  0  0  0  0  0  0  0  0  0  0
   -9.6165   20.7903    4.9845 C   0  0  2  0  0  0  0  0  0  0  0  0
   -9.9306   21.1122    3.6198 O   0  0  0  0  0  0  0  0  0  0  0  0
   -8.2210   20.1204    5.0319 C   0  0  2  0  0  0  0  0  0  0  0  0
   -7.8607   19.7836    6.3795 O   0  0  0  0  0  0  0  0  0  0  0  0
   -7.1562   21.0088    4.4424 C   0  0  0  0  0  0  0  0  0  0  0  0
   -7.2476   21.0156    3.0710 N   0  0  0  0  0  0  0  0  0  0  0  0
   -6.1079   14.4083    5.8576 C   0  0  1  0  0  0  0  0  0  0  0  0
   -4.9313   13.6520    5.3445 N   0  0  0  0  0  0  0  0  0  0  0  0
   -5.6168   15.6768    6.5417 C   0  0  2  0  0  0  0  0  0  0  0  0
   -4.7333   15.3028    7.5565 O   0  0  0  0  0  0  0  0  0  0  0  0
   -6.8178   16.4947    7.1129 C   0  0  1  0  0  0  0  0  0  0  0  0
   -6.3361   17.7188    7.7470 O   0  0  0  0  0  0  0  0  0  0  0  0
   -7.8013   16.8854    5.9357 C   0  0  1  0  0  0  0  0  0  0  0  0
   -8.3138   15.6247    5.2561 C   0  0  1  0  0  0  0  0  0  0  0  0
   -9.2263   16.0056    4.1884 N   0  0  0  0  0  0  0  0  0  0  0  0
   -7.1185   14.8017    4.7053 C   0  0  0  0  0  0  0  0  0  0  0  0
   -4.2448   14.6240    8.7342 C   0  0  0  0  0  0  0  0  0  0  0  0
   -2.8457   15.1061    9.0417 C   0  0  0  0  0  0  0  0  0  0  0  0
   -2.2263   14.4565   10.2153 N   0  0  0  0  0  0  0  0  0  0  0  0
   -1.9774   13.9834   11.5962 C   0  0  0  0  0  0  0  0  0  0  0  0
   -2.0507   15.3490   12.2909 C   0  0  0  0  0  0  0  0  0  0  0  0
   -3.1217   15.3862   13.3972 C   0  0  0  0  0  0  0  0  0  0  0  0
   -4.5262   15.3419   12.8034 C   0  0  0  0  0  0  0  0  0  0  0  0
   -5.5190   15.5237   13.8530 N   0  0  0  0  0  0  0  0  0  0  0  0
   -5.3746   11.0242    1.8300 N   0  0  0  0  0  0  0  0  0  0  0  0
   -4.1106   14.5328    4.0418 C   0  0  0  0  0  0  0  0  0  0  0  0
   -4.2603   15.4819    3.5511 O   0  0  0  0  0  0  0  0  0  0  0  0
   -3.1792   13.3474    3.9710 C   0  0  2  0  0  0  0  0  0  0  0  0
   -1.9076   13.7339    3.6306 O   0  0  0  0  0  0  0  0  0  0  0  0
   -3.6847   12.4547    2.8431 C   0  0  0  0  0  0  0  0  0  0  0  0
   -5.0531   11.7802    3.0491 C   0  0  0  0  0  0  0  0  0  0  0  0
  1  2  1  6  0  0  0
  1  3  1  0  0  0  0
  3  4  1  6  0  0  0
  3  5  1  0  0  0  0
  5  6  1  1  0  0  0
  5  7  1  0  0  0  0
  7  8  1  6  0  0  0
  9  7  1  0  0  0  0
  9 10  1  0  0  0  0
  9 11  1  1  0  0  0
 10  1  1  0  0  0  0
 11 12  1  0  0  0  0
 13 14  1  6  0  0  0
 13 15  1  0  0  0  0
 13 22  1  0  0  0  0
 14 32  1  0  0  0  0
 15 16  1  1  0  0  0
 15 17  1  0  0  0  0
 16 23  1  0  0  0  0
 17 18  1  6  0  0  0
 17 19  1  0  0  0  0
 19  2  1  1  0  0  0
 19 20  1  0  0  0  0
 20 21  1  6  0  0  0
 20 22  1  0  0  0  0
 23 24  1  0  0  0  0
 24 25  1  0  0  0  0
 25 26  1  0  0  0  0
 26 27  1  0  0  0  0
 27 28  1  0  0  0  0
 28 29  1  0  0  0  0
 29 30  1  0  0  0  0
 31 37  1  0  0  0  0
 32 33  2  0  0  0  0
 34 32  1  6  0  0  0
 34 35  1  0  0  0  0
 34 36  1  0  0  0  0
 36 37  1  0  0  0  0
M  END
>  <CHROM.1>
165.78048716,-75.34101920,-66.49522019,-53.91337456,-177.61311454,60.45876659
-178.70530005,-58.55008848,-54.82879000,122.72764382,-70.01600506,-173.86702921
-146.61672620,-66.39488935,177.42039725,-6.29562422,16.44861594,6.54617461
2.92150563,0.79546179,-1.85693922

>  <Name>
1o9m_lig

>  <RI>
0

>  <Rbt.Current_Directory>
/home/itssahil/PROJECTS/Mol_Feturizer/New_Systems/rnas/1o9m

>  <Rbt.Executable>
rbdock ($Id: //depot/dev/client3/rdock/2013.1/src/exe/rbdock.cxx#4 $)

>  <Rbt.Library>
libRbt.so (2013.1, Build901 2013/11/27)

>  <Rbt.Parameter_File>
/export/apps/rDock/src/rDock_2013.1_src/data/scripts/dock_solv.prm

>  <Rbt.Receptor>
prm/pocket_docking_5.prm

>  <SCORE>
-9.83313

>  <SCORE.INTER>
-4.15996

>  <SCORE.INTER.CONST>
1

>  <SCORE.INTER.POLAR>
-1.53934

>  <SCORE.INTER.ROT>
15

>  <SCORE.INTER.SOLV>
18.3454

>  <SCORE.INTER.VDW>
-17.3573

>  <SCORE.INTER.norm>
-0.112431

>  <SCORE.INTRA>
-5.67317

>  <SCORE.INTRA.DIHEDRAL>
-11.4016

>  <SCORE.INTRA.DIHEDRAL.0>
21.5987

>  <SCORE.INTRA.POLAR>
0

>  <SCORE.INTRA.POLAR.0>
0

>  <SCORE.INTRA.REPUL>
0

>  <SCORE.INTRA.REPUL.0>
0

>  <SCORE.INTRA.SOLV>
-0.0143085

>  <SCORE.INTRA.SOLV.lig_0>
-108.715

>  <SCORE.INTRA.VDW>
0.0348024

>  <SCORE.INTRA.VDW.0>
-3.9485

>  <SCORE.INTRA.norm>
-0.153329

>  <SCORE.RESTR>
0

>  <SCORE.RESTR.CAVITY>
0

>  <SCORE.RESTR.norm>
0

>  <SCORE.SYSTEM>
0

>  <SCORE.SYSTEM.CONST>
0

>  <SCORE.SYSTEM.DIHEDRAL>
0

>  <SCORE.SYSTEM.SOLV>
0

>  <SCORE.SYSTEM.norm>
0

>  <SCORE.heavy>
37

>  <SCORE.norm>
-0.26576

>  <RMSD>
8.097

$$$$
1o9m_lig
 OpenBabel11021811403D
libRbt.so/2013.1/901 2013/11/27
 37 38  0  0  0  0  0  0  0  0999 V2000
   -7.1577   20.3407    9.9864 C   0  0  2  0  0  0  0  0  0  0  0  0
   -6.8213   20.2384    8.5691 O   0  0  0  0  0  0  0  0  0  0  0  0
   -5.9356   21.0444   10.6833 C   0  0  2  0  0  0  0  0  0  0  0  0
   -5.6625   22.3764   10.1158 N   0  0  0  0  0  0  0  0  0  0  0  0
   -4.6685   20.1153   10.5610 C   0  0  1  0  0  0  0  0  0  0  0  0
   -3.5423   20.7333   11.1898 O   0  0  0  0  0  0  0  0  0  0  0  0
   -5.0174   18.7309   11.2007 C   0  0  2  0  0  0  0  0  0  0  0  0
   -3.9307   17.7935   11.1284 O   0  0  0  0  0  0  0  0  0  0  0  0
   -6.2597   18.1102   10.5153 C   0  0  2  0  0  0  0  0  0  0  0  0
   -7.3757   19.0108   10.5665 O   0  0  0  0  0  0  0  0  0  0  0  0
   -6.6509   16.8011   11.1509 C   0  0  0  0  0  0  0  0  0  0  0  0
   -5.7758   15.8097   10.7758 N   0  0  0  0  0  0  0  0  0  0  0  0
   -9.3719   19.7594    5.0927 C   0  0  1  0  0  0  0  0  0  0  0  0
  -10.2990   19.1278    4.1124 N   0  0  0  0  0  0  0  0  0  0  0  0
  -10.0331   19.7609    6.4643 C   0  0  2  0  0  0  0  0  0  0  0  0
  -11.2469   20.4428    6.3550 O   0  0  0  0  0  0  0  0  0  0  0  0
   -9.1027   20.4321    7.5233 C   0  0  1  0  0  0  0  0  0  0  0  0
   -9.7382   20.4079    8.8379 O   0  0  0  0  0  0  0  0  0  0  0  0
   -7.7347   19.6398    7.6057 C   0  0  1  0  0  0  0  0  0  0  0  0
   -7.0551   19.6475    6.2448 C   0  0  1  0  0  0  0  0  0  0  0  0
   -5.7943   18.9279    6.3464 N   0  0  0  0  0  0  0  0  0  0  0  0
   -7.9881   18.9980    5.1879 C   0  0  0  0  0  0  0  0  0  0  0  0
  -12.1626   21.5564    6.2657 C   0  0  0  0  0  0  0  0  0  0  0  0
  -12.4728   22.0580    7.6573 C   0  0  0  0  0  0  0  0  0  0  0  0
  -13.2485   21.1098    8.4832 N   0  0  0  0  0  0  0  0  0  0  0  0
  -14.3241   20.2132    8.9644 C   0  0  0  0  0  0  0  0  0  0  0  0
  -15.3613   21.2981    9.2807 C   0  0  0  0  0  0  0  0  0  0  0  0
  -16.8010   20.8339    8.9906 C   0  0  0  0  0  0  0  0  0  0  0  0
  -17.2290   19.7348    9.9581 C   0  0  0  0  0  0  0  0  0  0  0  0
  -18.5552   19.2473    9.6064 N   0  0  0  0  0  0  0  0  0  0  0  0
  -15.5805   19.1709    1.4246 N   0  0  0  0  0  0  0  0  0  0  0  0
  -11.2357   20.3459    3.2261 C   0  0  0  0  0  0  0  0  0  0  0  0
  -11.2787   21.4240    3.2274 O   0  0  0  0  0  0  0  0  0  0  0  0
  -11.9016   19.1794    2.5380 C   0  0  2  0  0  0  0  0  0  0  0  0
  -11.2542   18.8539    1.3732 O   0  0  0  0  0  0  0  0  0  0  0  0
  -13.3032   19.6367    2.1497 C   0  0  0  0  0  0  0  0  0  0  0  0
  -14.2455   18.5707    1.5618 C   0  0  0  0  0  0  0  0  0  0  0  0
  1  2  1  6  0  0  0
  1  3  1  0  0  0  0
  3  4  1  6  0  0  0
  3  5  1  0  0  0  0
  5  6  1  1  0  0  0
  5  7  1  0  0  0  0
  7  8  1  6  0  0  0
  9  7  1  0  0  0  0
  9 10  1  0  0  0  0
  9 11  1  1  0  0  0
 10  1  1  0  0  0  0
 11 12  1  0  0  0  0
 13 14  1  6  0  0  0
 13 15  1  0  0  0  0
 13 22  1  0  0  0  0
 14 32  1  0  0  0  0
 15 16  1  6  0  0  0
 15 17  1  0  0  0  0
 16 23  1  0  0  0  0
 17 18  1  1  0  0  0
 17 19  1  0  0  0  0
 19  2  1  1  0  0  0
 19 20  1  0  0  0  0
 20 21  1  1  0  0  0
 20 22  1  0  0  0  0
 23 24  1  0  0  0  0
 24 25  1  0  0  0  0
 25 26  1  0  0  0  0
 26 27  1  0  0  0  0
 27 28  1  0  0  0  0
 28 29  1  0  0  0  0
 29 30  1  0  0  0  0
 31 37  1  0  0  0  0
 32 33  2  0  0  0  0
 34 32  1  6  0  0  0
 34 35  1  0  0  0  0
 34 36  1  0  0  0  0
 36 37  1  0  0  0  0
M  END
>  <CHROM.1>
-179.63969376,-74.77647425,96.63547739,-78.90059980,-83.55736530,61.33101364
-67.39269529,-59.48069665,-69.36120187,144.96047232,67.81204499,-176.02700058
-92.30725984,-173.62657605,172.68619697,-9.88432842,19.77184630,7.44050092
0.52319425,-0.11121431,1.52110541

>  <Name>
1o9m_lig

>  <RI>
0

>  <Rbt.Current_Directory>
/home/itssahil/PROJECTS/Mol_Feturizer/New_Systems/rnas/1o9m

>  <Rbt.Executable>
rbdock ($Id: //depot/dev/client3/rdock/2013.1/src/exe/rbdock.cxx#4 $)

>  <Rbt.Library>
libRbt.so (2013.1, Build901 2013/11/27)

>  <Rbt.Parameter_File>
/export/apps/rDock/src/rDock_2013.1_src/data/scripts/dock_solv.prm

>  <Rbt.Receptor>
prm/pocket_docking_8.prm

>  <SCORE>
-5.08772

>  <SCORE.INTER>
0.0481675

>  <SCORE.INTER.CONST>
1

>  <SCORE.INTER.POLAR>
-0.583076

>  <SCORE.INTER.ROT>
15

>  <SCORE.INTER.SOLV>
15.4688

>  <SCORE.INTER.VDW>
-16.7806

>  <SCORE.INTER.norm>
0.00130182

>  <SCORE.INTRA>
-5.13589

>  <SCORE.INTRA.DIHEDRAL>
-10.0563

>  <SCORE.INTRA.DIHEDRAL.0>
21.5987

>  <SCORE.INTRA.POLAR>
0

>  <SCORE.INTRA.POLAR.0>
0

>  <SCORE.INTRA.REPUL>
0

>  <SCORE.INTRA.REPUL.0>
0

>  <SCORE.INTRA.SOLV>
0.263253

>  <SCORE.INTRA.SOLV.lig_0>
-108.715

>  <SCORE.INTRA.VDW>
-0.239378

>  <SCORE.INTRA.VDW.0>
-3.9485

>  <SCORE.INTRA.norm>
-0.138808

>  <SCORE.RESTR>
0

>  <SCORE.RESTR.CAVITY>
0

>  <SCORE.RESTR.norm>
0

>  <SCORE.SYSTEM>
0

>  <SCORE.SYSTEM.CONST>
0

>  <SCORE.SYSTEM.DIHEDRAL>
0

>  <SCORE.SYSTEM.SOLV>
0

>  <SCORE.SYSTEM.norm>
0

>  <SCORE.heavy>
37

>  <SCORE.norm>
-0.137506

>  <RMSD>
8.102

$$$$
1o9m_lig
 OpenBabel11021811403D
libRbt.so/2013.1/901 2013/11/27
 37 38  0  0  0  0  0  0  0  0999 V2000
   -6.0000   19.9234    6.1642 C   0  0  2  0  0  0  0  0  0  0  0  0
   -6.7475   18.6990    6.4367 O   0  0  0  0  0  0  0  0  0  0  0  0
   -6.5234   20.9997    7.1851 C   0  0  2  0  0  0  0  0  0  0  0  0
   -6.3372   20.5768    8.5842 N   0  0  0  0  0  0  0  0  0  0  0  0
   -8.0430   21.2941    6.8886 C   0  0  1  0  0  0  0  0  0  0  0  0
   -8.5426   22.2728    7.8041 O   0  0  0  0  0  0  0  0  0  0  0  0
   -8.1666   21.7590    5.4000 C   0  0  2  0  0  0  0  0  0  0  0  0
   -9.5220   22.0400    5.0143 O   0  0  0  0  0  0  0  0  0  0  0  0
   -7.5863   20.6880    4.4436 C   0  0  2  0  0  0  0  0  0  0  0  0
   -6.2283   20.3767    4.7876 O   0  0  0  0  0  0  0  0  0  0  0  0
   -7.6420   21.1359    3.0059 C   0  0  0  0  0  0  0  0  0  0  0  0
   -6.6362   22.0367    2.7487 N   0  0  0  0  0  0  0  0  0  0  0  0
   -6.0439   14.5082    5.5631 C   0  0  1  0  0  0  0  0  0  0  0  0
   -5.8063   13.2608    4.7840 N   0  0  0  0  0  0  0  0  0  0  0  0
   -4.9214   15.4938    5.2678 C   0  0  2  0  0  0  0  0  0  0  0  0
   -3.7118   14.8773    5.5947 O   0  0  0  0  0  0  0  0  0  0  0  0
   -5.1193   16.8129    6.0792 C   0  0  1  0  0  0  0  0  0  0  0  0
   -4.0493   17.7577    5.7712 O   0  0  0  0  0  0  0  0  0  0  0  0
   -6.5057   17.4713    5.6915 C   0  0  1  0  0  0  0  0  0  0  0  0
   -7.6373   16.5027    5.9998 C   0  0  1  0  0  0  0  0  0  0  0  0
   -8.9017   17.1325    5.6504 N   0  0  0  0  0  0  0  0  0  0  0  0
   -7.4301   15.1837    5.2082 C   0  0  0  0  0  0  0  0  0  0  0  0
   -2.3035   14.7456    5.8881 C   0  0  0  0  0  0  0  0  0  0  0  0
   -2.0007   15.4413    7.1953 C   0  0  0  0  0  0  0  0  0  0  0  0
   -2.0882   14.5648    8.3815 N   0  0  0  0  0  0  0  0  0  0  0  0
   -1.9699   13.3941    9.2803 C   0  0  0  0  0  0  0  0  0  0  0  0
   -3.2110   13.6744   10.1371 C   0  0  0  0  0  0  0  0  0  0  0  0
   -3.0321   14.9089   11.0404 C   0  0  0  0  0  0  0  0  0  0  0  0
   -4.2958   15.1854   11.8491 C   0  0  0  0  0  0  0  0  0  0  0  0
   -5.3934   15.5342   10.9581 N   0  0  0  0  0  0  0  0  0  0  0  0
   -8.1732    8.9068    1.9039 N   0  0  0  0  0  0  0  0  0  0  0  0
   -6.6067   13.3205    3.2021 C   0  0  0  0  0  0  0  0  0  0  0  0
   -7.2083   14.0475    2.6790 O   0  0  0  0  0  0  0  0  0  0  0  0
   -6.0660   11.9269    2.9944 C   0  0  2  0  0  0  0  0  0  0  0  0
   -5.1284   11.9015    1.9933 O   0  0  0  0  0  0  0  0  0  0  0  0
   -7.2333   11.0650    2.5262 C   0  0  0  0  0  0  0  0  0  0  0  0
   -7.0500    9.5389    2.6111 C   0  0  0  0  0  0  0  0  0  0  0  0
  1  2  1  1  0  0  0
  1  3  1  0  0  0  0
  3  4  1  1  0  0  0
  3  5  1  0  0  0  0
  5  6  1  1  0  0  0
  5  7  1  0  0  0  0
  7  8  1  6  0  0  0
  9  7  1  0  0  0  0
  9 10  1  0  0  0  0
  9 11  1  6  0  0  0
 10  1  1  0  0  0  0
 11 12  1  0  0  0  0
 13 14  1  6  0  0  0
 13 15  1  0  0  0  0
 13 22  1  0  0  0  0
 14 32  1  0  0  0  0
 15 16  1  1  0  0  0
 15 17  1  0  0  0  0
 16 23  1  0  0  0  0
 17 18  1  6  0  0  0
 17 19  1  0  0  0  0
 19  2  1  1  0  0  0
 19 20  1  0  0  0  0
 20 21  1  6  0  0  0
 20 22  1  0  0  0  0
 23 24  1  0  0  0  0
 24 25  1  0  0  0  0
 25 26  1  0  0  0  0
 26 27  1  0  0  0  0
 27 28  1  0  0  0  0
 28 29  1  0  0  0  0
 29 30  1  0  0  0  0
 31 37  1  0  0  0  0
 32 33  2  0  0  0  0
 34 32  1  6  0  0  0
 34 35  1  0  0  0  0
 34 36  1  0  0  0  0
 36 37  1  0  0  0  0
M  END
>  <CHROM.1>
-178.78463402,77.31191839,-91.27966893,-165.76138668,66.92036012,71.61818014
91.64650668,40.66159539,-150.20643950,-69.72538141,178.35334234,-64.43978410
-113.25826940,-163.72847989,-170.25852868,-5.93919765,16.47801458,5.84697850
-1.96566181,0.96522165,-2.66807303

>  <Name>
1o9m_lig

>  <RI>
0

>  <Rbt.Current_Directory>
/home/itssahil/PROJECTS/Mol_Feturizer/New_Systems/rnas/1o9m

>  <Rbt.Executable>
rbdock ($Id: //depot/dev/client3/rdock/2013.1/src/exe/rbdock.cxx#4 $)

>  <Rbt.Library>
libRbt.so (2013.1, Build901 2013/11/27)

>  <Rbt.Parameter_File>
/export/apps/rDock/src/rDock_2013.1_src/data/scripts/dock_solv.prm

>  <Rbt.Receptor>
prm/pocket_docking_6.prm

>  <SCORE>
-9.54502

>  <SCORE.INTER>
-6.05875

>  <SCORE.INTER.CONST>
1

>  <SCORE.INTER.POLAR>
-2.32722

>  <SCORE.INTER.ROT>
15

>  <SCORE.INTER.SOLV>
10.5256

>  <SCORE.INTER.VDW>
-13.3903

>  <SCORE.INTER.norm>
-0.16375

>  <SCORE.INTRA>
-3.48628

>  <SCORE.INTRA.DIHEDRAL>
-10.2321

>  <SCORE.INTRA.DIHEDRAL.0>
21.5987

>  <SCORE.INTRA.POLAR>
0

>  <SCORE.INTRA.POLAR.0>
0

>  <SCORE.INTRA.REPUL>
0

>  <SCORE.INTRA.REPUL.0>
0

>  <SCORE.INTRA.SOLV>
1.20941

>  <SCORE.INTRA.SOLV.lig_0>
-108.715

>  <SCORE.INTRA.VDW>
1.02508

>  <SCORE.INTRA.VDW.0>
-3.9485

>  <SCORE.INTRA.norm>
-0.0942237

>  <SCORE.RESTR>
0

>  <SCORE.RESTR.CAVITY>
0

>  <SCORE.RESTR.norm>
0

>  <SCORE.SYSTEM>
0

>  <SCORE.SYSTEM.CONST>
0

>  <SCORE.SYSTEM.DIHEDRAL>
0

>  <SCORE.SYSTEM.SOLV>
0

>  <SCORE.SYSTEM.norm>
0

>  <SCORE.heavy>
37

>  <SCORE.norm>
-0.257974

>  <RMSD>
8.108

$$$$
1o9m_lig
 OpenBabel11021811403D
libRbt.so/2013.1/901 2013/11/27
 37 38  0  0  0  0  0  0  0  0999 V2000
   -1.7727   16.7587    7.2931 C   0  0  2  0  0  0  0  0  0  0  0  0
   -1.6712   16.4585    5.8677 O   0  0  0  0  0  0  0  0  0  0  0  0
   -0.7078   17.8783    7.5880 C   0  0  2  0  0  0  0  0  0  0  0  0
   -0.9374   19.0909    6.7832 N   0  0  0  0  0  0  0  0  0  0  0  0
    0.7342   17.2991    7.3254 C   0  0  1  0  0  0  0  0  0  0  0  0
    1.7220   18.2993    7.5887 O   0  0  0  0  0  0  0  0  0  0  0  0
    0.9203   16.0324    8.2245 C   0  0  2  0  0  0  0  0  0  0  0  0
    2.2036   15.4095    8.0514 O   0  0  0  0  0  0  0  0  0  0  0  0
   -0.1857   14.9884    7.9329 C   0  0  2  0  0  0  0  0  0  0  0  0
   -1.4896   15.5649    8.0976 O   0  0  0  0  0  0  0  0  0  0  0  0
   -0.0621   13.7813    8.8262 C   0  0  0  0  0  0  0  0  0  0  0  0
   -1.1389   12.9457    8.6488 N   0  0  0  0  0  0  0  0  0  0  0  0
   -4.4152   14.4270    3.1911 C   0  0  1  0  0  0  0  0  0  0  0  0
   -5.2072   13.3317    2.5645 N   0  0  0  0  0  0  0  0  0  0  0  0
   -4.8062   14.5393    4.6583 C   0  0  2  0  0  0  0  0  0  0  0  0
   -6.1826   14.7676    4.7196 O   0  0  0  0  0  0  0  0  0  0  0  0
   -4.0124   15.6902    5.3532 C   0  0  1  0  0  0  0  0  0  0  0  0
   -4.3799   15.7737    6.7641 O   0  0  0  0  0  0  0  0  0  0  0  0
   -2.4594   15.4017    5.2489 C   0  0  1  0  0  0  0  0  0  0  0  0
   -2.0529   15.3061    3.7862 C   0  0  1  0  0  0  0  0  0  0  0  0
   -0.6212   15.0559    3.7130 N   0  0  0  0  0  0  0  0  0  0  0  0
   -2.8563   14.1749    3.0905 C   0  0  0  0  0  0  0  0  0  0  0  0
   -7.4437   15.4495    4.5433 C   0  0  0  0  0  0  0  0  0  0  0  0
   -7.5003   16.6389    5.4743 C   0  0  0  0  0  0  0  0  0  0  0  0
   -8.8456   17.2333    5.6151 N   0  0  0  0  0  0  0  0  0  0  0  0
  -10.0228   17.9402    6.1689 C   0  0  0  0  0  0  0  0  0  0  0  0
   -9.4752   19.3676    6.0437 C   0  0  0  0  0  0  0  0  0  0  0  0
  -10.5509   20.4339    6.3237 C   0  0  0  0  0  0  0  0  0  0  0  0
   -9.9670   21.8403    6.2312 C   0  0  0  0  0  0  0  0  0  0  0  0
   -9.0891   22.0930    7.3650 N   0  0  0  0  0  0  0  0  0  0  0  0
   -5.8468    9.3461    0.2936 N   0  0  0  0  0  0  0  0  0  0  0  0
   -5.5643   12.0410    3.7277 C   0  0  0  0  0  0  0  0  0  0  0  0
   -5.3514   11.8758    4.7724 O   0  0  0  0  0  0  0  0  0  0  0  0
   -6.2504   11.3416    2.5798 C   0  0  2  0  0  0  0  0  0  0  0  0
   -7.6153   11.4101    2.7002 O   0  0  0  0  0  0  0  0  0  0  0  0
   -5.8739    9.8670    2.6720 C   0  0  0  0  0  0  0  0  0  0  0  0
   -6.4306    8.9366    1.5792 C   0  0  0  0  0  0  0  0  0  0  0  0
  1  2  1  6  0  0  0
  1  3  1  0  0  0  0
  3  4  1  6  0  0  0
  3  5  1  0  0  0  0
  5  6  1  1  0  0  0
  5  7  1  0  0  0  0
  7  8  1  6  0  0  0
  9  7  1  0  0  0  0
  9 10  1  0  0  0  0
  9 11  1  1  0  0  0
 10  1  1  0  0  0  0
 11 12  1  0  0  0  0
 13 14  1  1  0  0  0
 13 15  1  0  0  0  0
 13 22  1  0  0  0  0
 14 32  1  0  0  0  0
 15 16  1  6  0  0  0
 15 17  1  0  0  0  0
 16 23  1  0  0  0  0
 17 18  1  1  0  0  0
 17 19  1  0  0  0  0
 19  2  1  6  0  0  0
 19 20  1  0  0  0  0
 20 21  1  1  0  0  0
 20 22  1  0  0  0  0
 23 24  1  0  0  0  0
 24 25  1  0  0  0  0
 25 26  1  0  0  0  0
 26 27  1  0  0  0  0
 27 28  1  0  0  0  0
 28 29  1  0  0  0  0
 29 30  1  0  0  0  0
 31 37  1  0  0  0  0
 32 33  2  0  0  0  0
 34 32  1  1  0  0  0
 34 35  1  0  0  0  0
 34 36  1  0  0  0  0
 36 37  1  0  0  0  0
M  END
>  <CHROM.1>
176.22977762,173.26249922,-31.83334702,-65.05074508,-70.47471258,62.45690076
-166.72215349,151.51637803,74.34522249,170.44366142,178.36421565,-71.15934369
-105.39904404,-178.63871859,64.59454932,-4.18937720,15.37148935,5.46276220
0.27495993,-0.28522336,0.49497485

>  <Name>
1o9m_lig

>  <RI>
0

>  <Rbt.Current_Directory>
/home/itssahil/PROJECTS/Mol_Feturizer/New_Systems/rnas/1o9m

>  <Rbt.Executable>
rbdock ($Id: //depot/dev/client3/rdock/2013.1/src/exe/rbdock.cxx#4 $)

>  <Rbt.Library>
libRbt.so (2013.1, Build901 2013/11/27)

>  <Rbt.Parameter_File>
/export/apps/rDock/src/rDock_2013.1_src/data/scripts/dock_solv.prm

>  <Rbt.Receptor>
prm/pocket_docking_6.prm

>  <SCORE>
-15.3556

>  <SCORE.INTER>
-8.7801

>  <SCORE.INTER.CONST>
1

>  <SCORE.INTER.POLAR>
-1.80769

>  <SCORE.INTER.ROT>
15

>  <SCORE.INTER.SOLV>
20.2498

>  <SCORE.INTER.VDW>
-20.1777

>  <SCORE.INTER.norm>
-0.2373

>  <SCORE.INTRA>
-6.58479

>  <SCORE.INTRA.DIHEDRAL>
-15.8025

>  <SCORE.INTRA.DIHEDRAL.0>
21.5987

>  <SCORE.INTRA.POLAR>
0

>  <SCORE.INTRA.POLAR.0>
0

>  <SCORE.INTRA.REPUL>
0

>  <SCORE.INTRA.REPUL.0>
0

>  <SCORE.INTRA.SOLV>
0.940934

>  <SCORE.INTRA.SOLV.lig_0>
-108.715

>  <SCORE.INTRA.VDW>
0.845974

>  <SCORE.INTRA.VDW.0>
-3.9485

>  <SCORE.INTRA.norm>
-0.177967

>  <SCORE.RESTR>
0.00930453

>  <SCORE.RESTR.CAVITY>
0.00930453

>  <SCORE.RESTR.norm>
0.000251474

>  <SCORE.SYSTEM>
0

>  <SCORE.SYSTEM.CONST>
0

>  <SCORE.SYSTEM.DIHEDRAL>
0

>  <SCORE.SYSTEM.SOLV>
0

>  <SCORE.SYSTEM.norm>
0

>  <SCORE.heavy>
37

>  <SCORE.norm>
-0.415016

>  <RMSD>
8.111

$$$$
1o9m_lig
 OpenBabel11021811403D
libRbt.so/2013.1/901 2013/11/27
 37 38  0  0  0  0  0  0  0  0999 V2000
  -10.9259   19.9426    7.1403 C   0  0  2  0  0  0  0  0  0  0  0  0
  -10.4542   18.6205    6.7380 O   0  0  0  0  0  0  0  0  0  0  0  0
  -12.4729   19.9675    6.8563 C   0  0  2  0  0  0  0  0  0  0  0  0
  -13.1911   18.9124    7.5925 N   0  0  0  0  0  0  0  0  0  0  0  0
  -12.7137   19.8282    5.3050 C   0  0  1  0  0  0  0  0  0  0  0  0
  -14.1152   19.8500    5.0204 O   0  0  0  0  0  0  0  0  0  0  0  0
  -11.9463   20.9877    4.5880 C   0  0  2  0  0  0  0  0  0  0  0  0
  -12.0840   20.9471    3.1583 O   0  0  0  0  0  0  0  0  0  0  0  0
  -10.4402   20.9494    4.9467 C   0  0  2  0  0  0  0  0  0  0  0  0
  -10.2516   20.9925    6.3686 O   0  0  0  0  0  0  0  0  0  0  0  0
   -9.6872   22.0905    4.3130 C   0  0  0  0  0  0  0  0  0  0  0  0
   -8.3572   22.0311    4.6547 N   0  0  0  0  0  0  0  0  0  0  0  0
   -7.1404   16.1940    8.1348 C   0  0  1  0  0  0  0  0  0  0  0  0
   -5.7427   15.7502    8.3974 N   0  0  0  0  0  0  0  0  0  0  0  0
   -7.3596   17.5469    8.7983 C   0  0  2  0  0  0  0  0  0  0  0  0
   -7.0865   17.4063   10.1606 O   0  0  0  0  0  0  0  0  0  0  0  0
   -8.8210   18.0444    8.5646 C   0  0  1  0  0  0  0  0  0  0  0  0
   -9.0123   19.3517    9.1866 O   0  0  0  0  0  0  0  0  0  0  0  0
   -9.0945   18.1759    7.0110 C   0  0  1  0  0  0  0  0  0  0  0  0
   -8.8970   16.8254    6.3395 C   0  0  1  0  0  0  0  0  0  0  0  0
   -9.1676   16.9653    4.9166 N   0  0  0  0  0  0  0  0  0  0  0  0
   -7.4501   16.3215    6.5884 C   0  0  0  0  0  0  0  0  0  0  0  0
   -6.9185   17.7795   11.5459 C   0  0  0  0  0  0  0  0  0  0  0  0
   -5.6243   18.5445   11.7013 C   0  0  0  0  0  0  0  0  0  0  0  0
   -4.5171   17.7504   12.2728 N   0  0  0  0  0  0  0  0  0  0  0  0
   -3.5375   16.6660   12.5112 C   0  0  0  0  0  0  0  0  0  0  0  0
   -2.5009   17.4986   13.2762 C   0  0  0  0  0  0  0  0  0  0  0  0
   -1.7483   18.4817   12.3601 C   0  0  0  0  0  0  0  0  0  0  0  0
   -0.7624   19.3301   13.1574 C   0  0  0  0  0  0  0  0  0  0  0  0
    0.0713   20.1100   12.2535 N   0  0  0  0  0  0  0  0  0  0  0  0
   -0.8609   14.4690    7.8910 N   0  0  0  0  0  0  0  0  0  0  0  0
   -4.5621   16.9099    7.7587 C   0  0  0  0  0  0  0  0  0  0  0  0
   -4.6245   17.8544    7.2409 O   0  0  0  0  0  0  0  0  0  0  0  0
   -3.5089   15.9526    8.2608 C   0  0  2  0  0  0  0  0  0  0  0  0
   -2.4054   16.6247    8.7217 O   0  0  0  0  0  0  0  0  0  0  0  0
   -3.0533   15.1281    7.0620 C   0  0  0  0  0  0  0  0  0  0  0  0
   -2.1202   13.9380    7.3496 C   0  0  0  0  0  0  0  0  0  0  0  0
  1  2  1  6  0  0  0
  1  3  1  0  0  0  0
  3  4  1  1  0  0  0
  3  5  1  0  0  0  0
  5  6  1  1  0  0  0
  5  7  1  0  0  0  0
  7  8  1  6  0  0  0
  9  7  1  0  0  0  0
  9 10  1  0  0  0  0
  9 11  1  6  0  0  0
 10  1  1  0  0  0  0
 11 12  1  0  0  0  0
 13 14  1  6  0  0  0
 13 15  1  0  0  0  0
 13 22  1  0  0  0  0
 14 32  1  0  0  0  0
 15 16  1  1  0  0  0
 15 17  1  0  0  0  0
 16 23  1  0  0  0  0
 17 18  1  1  0  0  0
 17 19  1  0  0  0  0
 19  2  1  1  0  0  0
 19 20  1  0  0  0  0
 20 21  1  6  0  0  0
 20 22  1  0  0  0  0
 23 24  1  0  0  0  0
 24 25  1  0  0  0  0
 25 26  1  0  0  0  0
 26 27  1  0  0  0  0
 27 28  1  0  0  0  0
 28 29  1  0  0  0  0
 29 30  1  0  0  0  0
 31 37  1  0  0  0  0
 32 33  2  0  0  0  0
 34 32  1  6  0  0  0
 34 35  1  0  0  0  0
 34 36  1  0  0  0  0
 36 37  1  0  0  0  0
M  END
>  <CHROM.1>
-172.26346261,179.74192654,-59.54044611,178.08662190,-74.74135877,64.93783417
-102.36672751,50.76649886,158.82383055,-71.60541287,177.90831418,171.78976643
-144.83806737,-171.59323679,-64.24278980,-7.12175703,18.25576594,8.05376466
2.86057719,0.52363853,-2.10753164

>  <Name>
1o9m_lig

>  <RI>
0

>  <Rbt.Current_Directory>
/home/itssahil/PROJECTS/Mol_Feturizer/New_Systems/rnas/1o9m

>  <Rbt.Executable>
rbdock ($Id: //depot/dev/client3/rdock/2013.1/src/exe/rbdock.cxx#4 $)

>  <Rbt.Library>
libRbt.so (2013.1, Build901 2013/11/27)

>  <Rbt.Parameter_File>
/export/apps/rDock/src/rDock_2013.1_src/data/scripts/dock_solv.prm

>  <Rbt.Receptor>
prm/pocket_docking_4.prm

>  <SCORE>
-4.82638

>  <SCORE.INTER>
1.61277

>  <SCORE.INTER.CONST>
1

>  <SCORE.INTER.POLAR>
-1.08499

>  <SCORE.INTER.ROT>
15

>  <SCORE.INTER.SOLV>
11.0397

>  <SCORE.INTER.VDW>
-12.5881

>  <SCORE.INTER.norm>
0.0435884

>  <SCORE.INTRA>
-6.45119

>  <SCORE.INTRA.DIHEDRAL>
-12.2107

>  <SCORE.INTRA.DIHEDRAL.0>
21.5987

>  <SCORE.INTRA.POLAR>
0

>  <SCORE.INTRA.POLAR.0>
0

>  <SCORE.INTRA.REPUL>
0

>  <SCORE.INTRA.REPUL.0>
0

>  <SCORE.INTRA.SOLV>
1.00337

>  <SCORE.INTRA.SOLV.lig_0>
-108.715

>  <SCORE.INTRA.VDW>
-0.847521

>  <SCORE.INTRA.VDW.0>
-3.9485

>  <SCORE.INTRA.norm>
-0.174357

>  <SCORE.RESTR>
0.0120445

>  <SCORE.RESTR.CAVITY>
0.0120445

>  <SCORE.RESTR.norm>
0.000325526

>  <SCORE.SYSTEM>
0

>  <SCORE.SYSTEM.CONST>
0

>  <SCORE.SYSTEM.DIHEDRAL>
0

>  <SCORE.SYSTEM.SOLV>
0

>  <SCORE.SYSTEM.norm>
0

>  <SCORE.heavy>
37

>  <SCORE.norm>
-0.130443

>  <RMSD>
8.117

$$$$
1o9m_lig
 OpenBabel11021811403D
libRbt.so/2013.1/901 2013/11/27
 37 38  0  0  0  0  0  0  0  0999 V2000
   -5.8096    9.6126    1.9466 C   0  0  2  0  0  0  0  0  0  0  0  0
   -4.6604   10.4281    1.5639 O   0  0  0  0  0  0  0  0  0  0  0  0
   -5.8173    8.3736    0.9774 C   0  0  2  0  0  0  0  0  0  0  0  0
   -4.5719    7.5911    1.0643 N   0  0  0  0  0  0  0  0  0  0  0  0
   -6.0596    8.8749   -0.4970 C   0  0  1  0  0  0  0  0  0  0  0  0
   -6.0727    7.7647   -1.3985 O   0  0  0  0  0  0  0  0  0  0  0  0
   -7.4039    9.6747   -0.5236 C   0  0  2  0  0  0  0  0  0  0  0  0
   -7.7167   10.1961   -1.8256 O   0  0  0  0  0  0  0  0  0  0  0  0
   -7.3621   10.8468    0.4877 C   0  0  2  0  0  0  0  0  0  0  0  0
   -7.0565   10.3732    1.8075 O   0  0  0  0  0  0  0  0  0  0  0  0
   -8.6668   11.5998    0.5222 C   0  0  0  0  0  0  0  0  0  0  0  0
   -8.9252   12.1605   -0.7059 N   0  0  0  0  0  0  0  0  0  0  0  0
   -2.9254   13.7905    3.6862 C   0  0  1  0  0  0  0  0  0  0  0  0
   -2.7397   15.1756    4.2026 N   0  0  0  0  0  0  0  0  0  0  0  0
   -4.2685   13.2613    4.1704 C   0  0  2  0  0  0  0  0  0  0  0  0
   -4.2759   13.3209    5.5655 O   0  0  0  0  0  0  0  0  0  0  0  0
   -4.4987   11.8013    3.6673 C   0  0  1  0  0  0  0  0  0  0  0  0
   -5.7986   11.3129    4.1194 O   0  0  0  0  0  0  0  0  0  0  0  0
   -4.4683   11.7745    2.0848 C   0  0  1  0  0  0  0  0  0  0  0  0
   -3.1233   12.2837    1.5892 C   0  0  1  0  0  0  0  0  0  0  0  0
   -3.1112   12.2366    0.1348 N   0  0  0  0  0  0  0  0  0  0  0  0
   -2.8856   13.7280    2.1057 C   0  0  0  0  0  0  0  0  0  0  0  0
   -4.1241   13.8759    6.8905 C   0  0  0  0  0  0  0  0  0  0  0  0
   -2.6613   14.1562    7.1477 C   0  0  0  0  0  0  0  0  0  0  0  0
   -2.1862   13.7194    8.4767 N   0  0  0  0  0  0  0  0  0  0  0  0
   -1.3214   13.4730    9.6531 C   0  0  0  0  0  0  0  0  0  0  0  0
   -2.1833   12.3874   10.3102 C   0  0  0  0  0  0  0  0  0  0  0  0
   -3.6255   12.8621   10.5692 C   0  0  0  0  0  0  0  0  0  0  0  0
   -4.4699   11.7463   11.1769 C   0  0  0  0  0  0  0  0  0  0  0  0
   -3.9892   11.4268   12.5137 N   0  0  0  0  0  0  0  0  0  0  0  0
   -1.0073   18.6464    7.2885 N   0  0  0  0  0  0  0  0  0  0  0  0
   -1.0307   15.6508    4.1878 C   0  0  0  0  0  0  0  0  0  0  0  0
   -0.1102   15.1767    3.8845 O   0  0  0  0  0  0  0  0  0  0  0  0
   -1.4973   16.9533    4.7906 C   0  0  2  0  0  0  0  0  0  0  0  0
   -2.1855   17.7070    3.8738 O   0  0  0  0  0  0  0  0  0  0  0  0
   -0.2463   17.7429    5.1594 C   0  0  0  0  0  0  0  0  0  0  0  0
   -0.4512   19.0278    5.9822 C   0  0  0  0  0  0  0  0  0  0  0  0
  1  2  1  6  0  0  0
  1  3  1  0  0  0  0
  3  4  1  6  0  0  0
  3  5  1  0  0  0  0
  5  6  1  6  0  0  0
  5  7  1  0  0  0  0
  7  8  1  6  0  0  0
  9  7  1  0  0  0  0
  9 10  1  0  0  0  0
  9 11  1  1  0  0  0
 10  1  1  0  0  0  0
 11 12  1  0  0  0  0
 13 14  1  6  0  0  0
 13 15  1  0  0  0  0
 13 22  1  0  0  0  0
 14 32  1  0  0  0  0
 15 16  1  1  0  0  0
 15 17  1  0  0  0  0
 16 23  1  0  0  0  0
 17 18  1  6  0  0  0
 17 19  1  0  0  0  0
 19  2  1  1  0  0  0
 19 20  1  0  0  0  0
 20 21  1  6  0  0  0
 20 22  1  0  0  0  0
 23 24  1  0  0  0  0
 24 25  1  0  0  0  0
 25 26  1  0  0  0  0
 26 27  1  0  0  0  0
 27 28  1  0  0  0  0
 28 29  1  0  0  0  0
 29 30  1  0  0  0  0
 31 37  1  0  0  0  0
 32 33  2  0  0  0  0
 34 32  1  6  0  0  0
 34 35  1  0  0  0  0
 34 36  1  0  0  0  0
 36 37  1  0  0  0  0
M  END
>  <CHROM.1>
168.96924024,-62.10274767,159.95574509,50.01038561,-66.91606498,54.11918308
-135.13360452,-177.51630315,-162.39847304,-55.92121748,177.99414926,66.74277323
-70.84022936,-171.34608801,64.18205830,-4.05107720,12.71486241,3.95004820
2.48272966,-0.98669847,-1.33626930

>  <Name>
1o9m_lig

>  <RI>
0

>  <Rbt.Current_Directory>
/home/itssahil/PROJECTS/Mol_Feturizer/New_Systems/rnas/1o9m

>  <Rbt.Executable>
rbdock ($Id: //depot/dev/client3/rdock/2013.1/src/exe/rbdock.cxx#4 $)

>  <Rbt.Library>
libRbt.so (2013.1, Build901 2013/11/27)

>  <Rbt.Parameter_File>
/export/apps/rDock/src/rDock_2013.1_src/data/scripts/dock_solv.prm

>  <Rbt.Receptor>
prm/pocket_docking_7.prm

>  <SCORE>
-21.4119

>  <SCORE.INTER>
-17.2601

>  <SCORE.INTER.CONST>
1

>  <SCORE.INTER.POLAR>
-1.31645

>  <SCORE.INTER.ROT>
15

>  <SCORE.INTER.SOLV>
24.209

>  <SCORE.INTER.VDW>
-28.7882

>  <SCORE.INTER.norm>
-0.466489

>  <SCORE.INTRA>
-4.15187

>  <SCORE.INTRA.DIHEDRAL>
-13.4318

>  <SCORE.INTRA.DIHEDRAL.0>
21.5987

>  <SCORE.INTRA.POLAR>
0

>  <SCORE.INTRA.POLAR.0>
0

>  <SCORE.INTRA.REPUL>
0

>  <SCORE.INTRA.REPUL.0>
0

>  <SCORE.INTRA.SOLV>
1.89871

>  <SCORE.INTRA.SOLV.lig_0>
-108.715

>  <SCORE.INTRA.VDW>
1.61469

>  <SCORE.INTRA.VDW.0>
-3.9485

>  <SCORE.INTRA.norm>
-0.112213

>  <SCORE.RESTR>
0

>  <SCORE.RESTR.CAVITY>
0

>  <SCORE.RESTR.norm>
0

>  <SCORE.SYSTEM>
0

>  <SCORE.SYSTEM.CONST>
0

>  <SCORE.SYSTEM.DIHEDRAL>
0

>  <SCORE.SYSTEM.SOLV>
0

>  <SCORE.SYSTEM.norm>
0

>  <SCORE.heavy>
37

>  <SCORE.norm>
-0.578701

>  <RMSD>
8.131

$$$$
1o9m_lig
 OpenBabel11021811403D
libRbt.so/2013.1/901 2013/11/27
 37 38  0  0  0  0  0  0  0  0999 V2000
  -11.6824   18.0322    5.3808 C   0  0  2  0  0  0  0  0  0  0  0  0
  -10.7146   17.4999    6.3360 O   0  0  0  0  0  0  0  0  0  0  0  0
  -11.5436   19.5982    5.4340 C   0  0  2  0  0  0  0  0  0  0  0  0
  -10.1810   20.0480    5.0995 N   0  0  0  0  0  0  0  0  0  0  0  0
  -11.9620   20.1036    6.8670 C   0  0  1  0  0  0  0  0  0  0  0  0
  -11.8459   21.5272    6.9402 O   0  0  0  0  0  0  0  0  0  0  0  0
  -13.4208   19.6137    7.1483 C   0  0  2  0  0  0  0  0  0  0  0  0
  -13.9008   20.0070    8.4444 O   0  0  0  0  0  0  0  0  0  0  0  0
  -13.5121   18.0725    7.0277 C   0  0  2  0  0  0  0  0  0  0  0  0
  -13.0462   17.6312    5.7441 O   0  0  0  0  0  0  0  0  0  0  0  0
  -14.9202   17.5794    7.2391 C   0  0  0  0  0  0  0  0  0  0  0  0
  -15.7434   18.0493    6.2438 N   0  0  0  0  0  0  0  0  0  0  0  0
   -6.9311   15.4322    5.8556 C   0  0  1  0  0  0  0  0  0  0  0  0
   -5.5216   15.1667    5.4527 N   0  0  0  0  0  0  0  0  0  0  0  0
   -6.9617   16.6571    6.7596 C   0  0  2  0  0  0  0  0  0  0  0  0
   -6.1281   16.4058    7.8515 O   0  0  0  0  0  0  0  0  0  0  0  0
   -8.4209   16.9632    7.2230 C   0  0  1  0  0  0  0  0  0  0  0  0
   -8.4400   18.1518    8.0711 O   0  0  0  0  0  0  0  0  0  0  0  0
   -9.3349   17.2269    5.9578 C   0  0  1  0  0  0  0  0  0  0  0  0
   -9.3275   16.0022    5.0557 C   0  0  1  0  0  0  0  0  0  0  0  0
  -10.1845   16.2600    3.9082 N   0  0  0  0  0  0  0  0  0  0  0  0
   -7.8744   15.6861    4.6109 C   0  0  0  0  0  0  0  0  0  0  0  0
   -5.3381   16.6700    9.0316 C   0  0  0  0  0  0  0  0  0  0  0  0
   -6.2046   17.3466   10.0689 C   0  0  0  0  0  0  0  0  0  0  0  0
   -5.4881   17.7179   11.3065 N   0  0  0  0  0  0  0  0  0  0  0  0
   -5.1415   18.3574   12.5962 C   0  0  0  0  0  0  0  0  0  0  0  0
   -4.3874   19.5644   12.0238 C   0  0  0  0  0  0  0  0  0  0  0  0
   -5.3080   20.5028   11.2211 C   0  0  0  0  0  0  0  0  0  0  0  0
   -4.5327   21.6983   10.6761 C   0  0  0  0  0  0  0  0  0  0  0  0
   -5.4183   22.5591    9.9048 N   0  0  0  0  0  0  0  0  0  0  0  0
   -1.3793   14.3437    3.1483 N   0  0  0  0  0  0  0  0  0  0  0  0
   -4.7913   16.5824    4.6724 C   0  0  0  0  0  0  0  0  0  0  0  0
   -5.1264   17.5805    4.4364 O   0  0  0  0  0  0  0  0  0  0  0  0
   -3.5609   15.7242    4.5072 C   0  0  2  0  0  0  0  0  0  0  0  0
   -2.4352   16.4933    4.3544 O   0  0  0  0  0  0  0  0  0  0  0  0
   -3.7387   14.9417    3.2108 C   0  0  0  0  0  0  0  0  0  0  0  0
   -2.7324   13.8092    2.9374 C   0  0  0  0  0  0  0  0  0  0  0  0
  1  2  1  1  0  0  0
  1  3  1  0  0  0  0
  3  4  1  1  0  0  0
  3  5  1  0  0  0  0
  5  6  1  6  0  0  0
  5  7  1  0  0  0  0
  7  8  1  1  0  0  0
  9  7  1  0  0  0  0
  9 10  1  0  0  0  0
  9 11  1  6  0  0  0
 10  1  1  0  0  0  0
 11 12  1  0  0  0  0
 13 14  1  6  0  0  0
 13 15  1  0  0  0  0
 13 22  1  0  0  0  0
 14 32  1  0  0  0  0
 15 16  1  1  0  0  0
 15 17  1  0  0  0  0
 16 23  1  0  0  0  0
 17 18  1  1  0  0  0
 17 19  1  0  0  0  0
 19  2  1  1  0  0  0
 19 20  1  0  0  0  0
 20 21  1  6  0  0  0
 20 22  1  0  0  0  0
 23 24  1  0  0  0  0
 24 25  1  0  0  0  0
 25 26  1  0  0  0  0
 26 27  1  0  0  0  0
 27 28  1  0  0  0  0
 28 29  1  0  0  0  0
 29 30  1  0  0  0  0
 31 37  1  0  0  0  0
 32 33  2  0  0  0  0
 34 32  1  6  0  0  0
 34 35  1  0  0  0  0
 34 36  1  0  0  0  0
 36 37  1  0  0  0  0
M  END
>  <CHROM.1>
-87.41555479,64.39990497,-56.12549178,166.42157617,55.61792822,167.54945406
-177.63941529,162.54048587,-89.96691959,65.51489874,179.49121964,179.13242490
-157.60472204,-169.61149501,-49.08561459,-8.03706280,17.73973889,6.84542464
2.93632387,-0.18954631,0.99574670

>  <Name>
1o9m_lig

>  <RI>
0

>  <Rbt.Current_Directory>
/home/itssahil/PROJECTS/Mol_Feturizer/New_Systems/rnas/1o9m

>  <Rbt.Executable>
rbdock ($Id: //depot/dev/client3/rdock/2013.1/src/exe/rbdock.cxx#4 $)

>  <Rbt.Library>
libRbt.so (2013.1, Build901 2013/11/27)

>  <Rbt.Parameter_File>
/export/apps/rDock/src/rDock_2013.1_src/data/scripts/dock_solv.prm

>  <Rbt.Receptor>
prm/pocket_docking_3.prm

>  <SCORE>
-8.1769

>  <SCORE.INTER>
-5.41942

>  <SCORE.INTER.CONST>
1

>  <SCORE.INTER.POLAR>
0

>  <SCORE.INTER.ROT>
15

>  <SCORE.INTER.SOLV>
21.7508

>  <SCORE.INTER.VDW>
-24.4632

>  <SCORE.INTER.norm>
-0.146471

>  <SCORE.INTRA>
-3.10517

>  <SCORE.INTRA.DIHEDRAL>
-13.4121

>  <SCORE.INTRA.DIHEDRAL.0>
21.5987

>  <SCORE.INTRA.POLAR>
0

>  <SCORE.INTRA.POLAR.0>
0

>  <SCORE.INTRA.REPUL>
0

>  <SCORE.INTRA.REPUL.0>
0

>  <SCORE.INTRA.SOLV>
5.43672

>  <SCORE.INTRA.SOLV.lig_0>
-108.715

>  <SCORE.INTRA.VDW>
0.882524

>  <SCORE.INTRA.VDW.0>
-3.9485

>  <SCORE.INTRA.norm>
-0.0839234

>  <SCORE.RESTR>
0.347687

>  <SCORE.RESTR.CAVITY>
0.347687

>  <SCORE.RESTR.norm>
0.00939694

>  <SCORE.SYSTEM>
0

>  <SCORE.SYSTEM.CONST>
0

>  <SCORE.SYSTEM.DIHEDRAL>
0

>  <SCORE.SYSTEM.SOLV>
0

>  <SCORE.SYSTEM.norm>
0

>  <SCORE.heavy>
37

>  <SCORE.norm>
-0.220997

>  <RMSD>
8.136

$$$$
1o9m_lig
 OpenBabel11021811403D
libRbt.so/2013.1/901 2013/11/27
 37 38  0  0  0  0  0  0  0  0999 V2000
   -9.6475   19.8985    4.8243 C   0  0  2  0  0  0  0  0  0  0  0  0
   -8.9595   18.9644    5.7110 O   0  0  0  0  0  0  0  0  0  0  0  0
   -9.3795   21.3374    5.4008 C   0  0  2  0  0  0  0  0  0  0  0  0
   -7.9413   21.6499    5.4710 N   0  0  0  0  0  0  0  0  0  0  0  0
  -10.0460   21.4539    6.8241 C   0  0  1  0  0  0  0  0  0  0  0  0
   -9.8174   22.7561    7.3696 O   0  0  0  0  0  0  0  0  0  0  0  0
  -11.5701   21.1342    6.6747 C   0  0  2  0  0  0  0  0  0  0  0  0
  -12.2777   21.1950    7.9239 O   0  0  0  0  0  0  0  0  0  0  0  0
  -11.7752   19.7313    6.0516 C   0  0  2  0  0  0  0  0  0  0  0  0
  -11.0884   19.6236    4.7962 O   0  0  0  0  0  0  0  0  0  0  0  0
  -13.2353   19.4214    5.8449 C   0  0  0  0  0  0  0  0  0  0  0  0
  -13.7979   20.3330    4.9836 N   0  0  0  0  0  0  0  0  0  0  0  0
   -7.4319   14.9678    4.9935 C   0  0  1  0  0  0  0  0  0  0  0  0
   -6.5889   13.8682    4.4462 N   0  0  0  0  0  0  0  0  0  0  0  0
   -6.5379   15.9463    5.7431 C   0  0  2  0  0  0  0  0  0  0  0  0
   -5.8656   15.2363    6.7402 O   0  0  0  0  0  0  0  0  0  0  0  0
   -7.3832   17.1094    6.3516 C   0  0  1  0  0  0  0  0  0  0  0  0
   -6.5127   18.0520    7.0489 O   0  0  0  0  0  0  0  0  0  0  0  0
   -8.1396   17.8780    5.1928 C   0  0  1  0  0  0  0  0  0  0  0  0
   -9.0509   16.9143    4.4481 C   0  0  1  0  0  0  0  0  0  0  0  0
   -9.7468   17.6434    3.3984 N   0  0  0  0  0  0  0  0  0  0  0  0
   -8.2132   15.7475    3.8598 C   0  0  0  0  0  0  0  0  0  0  0  0
   -4.9079   14.9641    7.7867 C   0  0  0  0  0  0  0  0  0  0  0  0
   -4.8625   16.1384    8.7371 C   0  0  0  0  0  0  0  0  0  0  0  0
   -4.3612   15.8055   10.0864 N   0  0  0  0  0  0  0  0  0  0  0  0
   -4.3058   15.5179   11.5379 C   0  0  0  0  0  0  0  0  0  0  0  0
   -5.6425   16.1659   11.9206 C   0  0  0  0  0  0  0  0  0  0  0  0
   -5.7076   16.5350   13.4145 C   0  0  0  0  0  0  0  0  0  0  0  0
   -5.1014   17.9120   13.6668 C   0  0  0  0  0  0  0  0  0  0  0  0
   -3.6624   17.8727   13.4483 N   0  0  0  0  0  0  0  0  0  0  0  0
   -2.4301   13.8135    4.8548 N   0  0  0  0  0  0  0  0  0  0  0  0
   -5.0974   14.4939    3.7179 C   0  0  0  0  0  0  0  0  0  0  0  0
   -4.6629   15.4735    3.5925 O   0  0  0  0  0  0  0  0  0  0  0  0
   -4.7873   13.0571    3.3757 C   0  0  2  0  0  0  0  0  0  0  0  0
   -4.7285   12.2789    4.5040 O   0  0  0  0  0  0  0  0  0  0  0  0
   -3.3941   13.0409    2.7566 C   0  0  0  0  0  0  0  0  0  0  0  0
   -2.3377   13.9608    3.3950 C   0  0  0  0  0  0  0  0  0  0  0  0
  1  2  1  1  0  0  0
  1  3  1  0  0  0  0
  3  4  1  1  0  0  0
  3  5  1  0  0  0  0
  5  6  1  6  0  0  0
  5  7  1  0  0  0  0
  7  8  1  1  0  0  0
  9  7  1  0  0  0  0
  9 10  1  0  0  0  0
  9 11  1  6  0  0  0
 10  1  1  0  0  0  0
 11 12  1  0  0  0  0
 13 14  1  6  0  0  0
 13 15  1  0  0  0  0
 13 22  1  0  0  0  0
 14 32  1  0  0  0  0
 15 16  1  1  0  0  0
 15 17  1  0  0  0  0
 16 23  1  0  0  0  0
 17 18  1  6  0  0  0
 17 19  1  0  0  0  0
 19  2  1  1  0  0  0
 19 20  1  0  0  0  0
 20 21  1  6  0  0  0
 20 22  1  0  0  0  0
 23 24  1  0  0  0  0
 24 25  1  0  0  0  0
 25 26  1  0  0  0  0
 26 27  1  0  0  0  0
 27 28  1  0  0  0  0
 28 29  1  0  0  0  0
 29 30  1  0  0  0  0
 31 37  1  0  0  0  0
 32 33  2  0  0  0  0
 34 32  1  1  0  0  0
 34 35  1  0  0  0  0
 34 36  1  0  0  0  0
 36 37  1  0  0  0  0
M  END
>  <CHROM.1>
-134.15578642,61.00641770,-43.71439661,169.26485285,45.76130559,173.87973069
157.22765943,-105.95580726,-19.67316419,-158.49492414,85.98085323,-68.76149949
-59.18397096,40.07744854,45.05654552,-7.32369830,17.25341588,6.52741239,2.96431748
-0.70685746,1.20656110

>  <Name>
1o9m_lig

>  <RI>
0

>  <Rbt.Current_Directory>
/home/itssahil/PROJECTS/Mol_Feturizer/New_Systems/rnas/1o9m

>  <Rbt.Executable>
rbdock ($Id: //depot/dev/client3/rdock/2013.1/src/exe/rbdock.cxx#4 $)

>  <Rbt.Library>
libRbt.so (2013.1, Build901 2013/11/27)

>  <Rbt.Parameter_File>
/export/apps/rDock/src/rDock_2013.1_src/data/scripts/dock_solv.prm

>  <Rbt.Receptor>
prm/pocket_docking_5.prm

>  <SCORE>
-5.0466

>  <SCORE.INTER>
-12.0546

>  <SCORE.INTER.CONST>
1

>  <SCORE.INTER.POLAR>
-1.71595

>  <SCORE.INTER.ROT>
15

>  <SCORE.INTER.SOLV>
16.3073

>  <SCORE.INTER.VDW>
-21.3523

>  <SCORE.INTER.norm>
-0.325801

>  <SCORE.INTRA>
7.00802

>  <SCORE.INTRA.DIHEDRAL>
-2.53517

>  <SCORE.INTRA.DIHEDRAL.0>
21.5987

>  <SCORE.INTRA.POLAR>
0

>  <SCORE.INTRA.POLAR.0>
0

>  <SCORE.INTRA.REPUL>
0

>  <SCORE.INTRA.REPUL.0>
0

>  <SCORE.INTRA.SOLV>
9.7319

>  <SCORE.INTRA.SOLV.lig_0>
-108.715

>  <SCORE.INTRA.VDW>
3.40966

>  <SCORE.INTRA.VDW.0>
-3.9485

>  <SCORE.INTRA.norm>
0.189406

>  <SCORE.RESTR>
0

>  <SCORE.RESTR.CAVITY>
0

>  <SCORE.RESTR.norm>
0

>  <SCORE.SYSTEM>
0

>  <SCORE.SYSTEM.CONST>
0

>  <SCORE.SYSTEM.DIHEDRAL>
0

>  <SCORE.SYSTEM.SOLV>
0

>  <SCORE.SYSTEM.norm>
0

>  <SCORE.heavy>
37

>  <SCORE.norm>
-0.136395

>  <RMSD>
8.156

$$$$
1o9m_lig
 OpenBabel11021811403D
libRbt.so/2013.1/901 2013/11/27
 37 38  0  0  0  0  0  0  0  0999 V2000
   -9.7398   20.0863    5.6274 C   0  0  2  0  0  0  0  0  0  0  0  0
   -8.8147   19.2042    6.3334 O   0  0  0  0  0  0  0  0  0  0  0  0
  -10.3221   21.0733    6.7050 C   0  0  2  0  0  0  0  0  0  0  0  0
   -9.2661   21.8540    7.3730 N   0  0  0  0  0  0  0  0  0  0  0  0
  -11.1585   20.2509    7.7575 C   0  0  1  0  0  0  0  0  0  0  0  0
  -11.7009   21.1277    8.7487 O   0  0  0  0  0  0  0  0  0  0  0  0
  -12.2722   19.4670    6.9877 C   0  0  2  0  0  0  0  0  0  0  0  0
  -13.0898   18.6642    7.8549 O   0  0  0  0  0  0  0  0  0  0  0  0
  -11.6476   18.5548    5.9033 C   0  0  2  0  0  0  0  0  0  0  0  0
  -10.8233   19.3150    5.0078 O   0  0  0  0  0  0  0  0  0  0  0  0
  -12.7034   17.8302    5.1089 C   0  0  0  0  0  0  0  0  0  0  0  0
  -13.4420   18.7249    4.3718 N   0  0  0  0  0  0  0  0  0  0  0  0
   -6.2818   16.1434    4.5908 C   0  0  1  0  0  0  0  0  0  0  0  0
   -5.1306   15.5118    3.8870 N   0  0  0  0  0  0  0  0  0  0  0  0
   -5.7634   16.8809    5.8179 C   0  0  2  0  0  0  0  0  0  0  0  0
   -5.0837   15.9594    6.6173 O   0  0  0  0  0  0  0  0  0  0  0  0
   -6.9406   17.5449    6.5994 C   0  0  1  0  0  0  0  0  0  0  0  0
   -6.4288   18.2669    7.7611 O   0  0  0  0  0  0  0  0  0  0  0  0
   -7.6929   18.5692    5.6556 C   0  0  1  0  0  0  0  0  0  0  0  0
   -8.2322   17.8401    4.4344 C   0  0  1  0  0  0  0  0  0  0  0  0
   -8.9319   18.7958    3.5889 N   0  0  0  0  0  0  0  0  0  0  0  0
   -7.0642   17.1634    3.6682 C   0  0  0  0  0  0  0  0  0  0  0  0
   -4.8532   14.7667    7.3991 C   0  0  0  0  0  0  0  0  0  0  0  0
   -3.5517   14.9107    8.1539 C   0  0  0  0  0  0  0  0  0  0  0  0
   -3.6136   15.8504    9.2924 N   0  0  0  0  0  0  0  0  0  0  0  0
   -3.2250   16.6984   10.4423 C   0  0  0  0  0  0  0  0  0  0  0  0
   -1.7368   16.3279   10.4694 C   0  0  0  0  0  0  0  0  0  0  0  0
   -0.8743   17.3089    9.6534 C   0  0  0  0  0  0  0  0  0  0  0  0
   -0.9302   18.7134   10.2465 C   0  0  0  0  0  0  0  0  0  0  0  0
   -0.1357   19.6290    9.4399 N   0  0  0  0  0  0  0  0  0  0  0  0
   -1.0001   15.8559    5.1938 N   0  0  0  0  0  0  0  0  0  0  0  0
   -4.9363   13.8118    4.3549 C   0  0  0  0  0  0  0  0  0  0  0  0
   -5.4605   13.1381    5.0148 O   0  0  0  0  0  0  0  0  0  0  0  0
   -3.7392   13.8060    3.4360 C   0  0  2  0  0  0  0  0  0  0  0  0
   -3.4911   12.5470    2.9509 O   0  0  0  0  0  0  0  0  0  0  0  0
   -2.5319   14.1982    4.2804 C   0  0  0  0  0  0  0  0  0  0  0  0
   -2.2505   15.7037    4.4359 C   0  0  0  0  0  0  0  0  0  0  0  0
  1  2  1  1  0  0  0
  1  3  1  0  0  0  0
  3  4  1  1  0  0  0
  3  5  1  0  0  0  0
  5  6  1  1  0  0  0
  5  7  1  0  0  0  0
  7  8  1  1  0  0  0
  9  7  1  0  0  0  0
  9 10  1  0  0  0  0
  9 11  1  6  0  0  0
 10  1  1  0  0  0  0
 11 12  1  0  0  0  0
 13 14  1  6  0  0  0
 13 15  1  0  0  0  0
 13 22  1  0  0  0  0
 14 32  1  0  0  0  0
 15 16  1  1  0  0  0
 15 17  1  0  0  0  0
 16 23  1  0  0  0  0
 17 18  1  1  0  0  0
 17 19  1  0  0  0  0
 19  2  1  1  0  0  0
 19 20  1  0  0  0  0
 20 21  1  6  0  0  0
 20 22  1  0  0  0  0
 23 24  1  0  0  0  0
 24 25  1  0  0  0  0
 25 26  1  0  0  0  0
 26 27  1  0  0  0  0
 27 28  1  0  0  0  0
 28 29  1  0  0  0  0
 29 30  1  0  0  0  0
 31 37  1  0  0  0  0
 32 33  2  0  0  0  0
 34 32  1  1  0  0  0
 34 35  1  0  0  0  0
 34 36  1  0  0  0  0
 36 37  1  0  0  0  0
M  END
>  <CHROM.1>
-153.33495597,66.13169911,96.25895399,-55.28227613,-169.03146664,-173.80426090
73.17188198,-174.31543727,-1.72056642,93.18662939,63.28913218,-178.56604032
-153.40985919,-86.54158065,-175.85163001,-6.62917077,17.34708762,6.37381326
-2.94558059,0.36689691,-2.25248832

>  <Name>
1o9m_lig

>  <RI>
0

>  <Rbt.Current_Directory>
/home/itssahil/PROJECTS/Mol_Feturizer/New_Systems/rnas/1o9m

>  <Rbt.Executable>
rbdock ($Id: //depot/dev/client3/rdock/2013.1/src/exe/rbdock.cxx#4 $)

>  <Rbt.Library>
libRbt.so (2013.1, Build901 2013/11/27)

>  <Rbt.Parameter_File>
/export/apps/rDock/src/rDock_2013.1_src/data/scripts/dock_solv.prm

>  <Rbt.Receptor>
prm/pocket_docking_4.prm

>  <SCORE>
-7.27809

>  <SCORE.INTER>
-7.7984

>  <SCORE.INTER.CONST>
1

>  <SCORE.INTER.POLAR>
-2.58134

>  <SCORE.INTER.ROT>
15

>  <SCORE.INTER.SOLV>
10.3347

>  <SCORE.INTER.VDW>
-13.6394

>  <SCORE.INTER.norm>
-0.210767

>  <SCORE.INTRA>
0.520304

>  <SCORE.INTRA.DIHEDRAL>
-7.83262

>  <SCORE.INTRA.DIHEDRAL.0>
21.5987

>  <SCORE.INTRA.POLAR>
0

>  <SCORE.INTRA.POLAR.0>
0

>  <SCORE.INTRA.REPUL>
0

>  <SCORE.INTRA.REPUL.0>
0

>  <SCORE.INTRA.SOLV>
4.55097

>  <SCORE.INTRA.SOLV.lig_0>
-108.715

>  <SCORE.INTRA.VDW>
2.16113

>  <SCORE.INTRA.VDW.0>
-3.9485

>  <SCORE.INTRA.norm>
0.0140623

>  <SCORE.RESTR>
0

>  <SCORE.RESTR.CAVITY>
0

>  <SCORE.RESTR.norm>
0

>  <SCORE.SYSTEM>
0

>  <SCORE.SYSTEM.CONST>
0

>  <SCORE.SYSTEM.DIHEDRAL>
0

>  <SCORE.SYSTEM.SOLV>
0

>  <SCORE.SYSTEM.norm>
0

>  <SCORE.heavy>
37

>  <SCORE.norm>
-0.196705

>  <RMSD>
8.159

$$$$
1o9m_lig
 OpenBabel11021811403D
libRbt.so/2013.1/901 2013/11/27
 37 38  0  0  0  0  0  0  0  0999 V2000
  -11.0612   18.6541    5.5032 C   0  0  2  0  0  0  0  0  0  0  0  0
  -10.3280   17.7803    6.4149 O   0  0  0  0  0  0  0  0  0  0  0  0
  -10.6166   20.1242    5.8434 C   0  0  2  0  0  0  0  0  0  0  0  0
   -9.1635   20.3155    5.6916 N   0  0  0  0  0  0  0  0  0  0  0  0
  -11.0753   20.4743    7.3100 C   0  0  1  0  0  0  0  0  0  0  0  0
  -10.6835   21.8089    7.6430 O   0  0  0  0  0  0  0  0  0  0  0  0
  -12.6244   20.2735    7.3956 C   0  0  2  0  0  0  0  0  0  0  0  0
  -13.1511   20.5506    8.7036 O   0  0  0  0  0  0  0  0  0  0  0  0
  -13.0106   18.8277    6.9971 C   0  0  2  0  0  0  0  0  0  0  0  0
  -12.5086   18.5055    5.6919 O   0  0  0  0  0  0  0  0  0  0  0  0
  -14.5034   18.6240    7.0170 C   0  0  0  0  0  0  0  0  0  0  0  0
  -14.8101   17.3202    6.7083 N   0  0  0  0  0  0  0  0  0  0  0  0
   -6.5295   15.6924    6.5975 C   0  0  1  0  0  0  0  0  0  0  0  0
   -5.0914   15.3788    6.3673 N   0  0  0  0  0  0  0  0  0  0  0  0
   -6.6330   17.0417    7.2956 C   0  0  2  0  0  0  0  0  0  0  0  0
   -5.9015   16.9680    8.4829 O   0  0  0  0  0  0  0  0  0  0  0  0
   -8.1257   17.4042    7.5746 C   0  0  1  0  0  0  0  0  0  0  0  0
   -8.2131   18.7092    8.2242 O   0  0  0  0  0  0  0  0  0  0  0  0
   -8.9218   17.4629    6.2076 C   0  0  1  0  0  0  0  0  0  0  0  0
   -8.8416   16.1139    5.5093 C   0  0  1  0  0  0  0  0  0  0  0  0
   -9.5913   16.1852    4.2641 N   0  0  0  0  0  0  0  0  0  0  0  0
   -7.3566   15.7442    5.2495 C   0  0  0  0  0  0  0  0  0  0  0  0
   -5.2340   17.4151    9.6833 C   0  0  0  0  0  0  0  0  0  0  0  0
   -6.2034   18.2153   10.5227 C   0  0  0  0  0  0  0  0  0  0  0  0
   -5.5574   19.1584   11.4588 N   0  0  0  0  0  0  0  0  0  0  0  0
   -4.6926   20.2262   12.0103 C   0  0  0  0  0  0  0  0  0  0  0  0
   -5.3341   21.4055   11.2681 C   0  0  0  0  0  0  0  0  0  0  0  0
   -5.0293   21.3826    9.7586 C   0  0  0  0  0  0  0  0  0  0  0  0
   -5.7609   22.5080    9.0336 C   0  0  0  0  0  0  0  0  0  0  0  0
   -5.5587   22.3915    7.5963 N   0  0  0  0  0  0  0  0  0  0  0  0
   -0.1321   15.3605    6.4458 N   0  0  0  0  0  0  0  0  0  0  0  0
   -4.3172   14.7622    7.8395 C   0  0  0  0  0  0  0  0  0  0  0  0
   -4.6480   14.5553    8.8454 O   0  0  0  0  0  0  0  0  0  0  0  0
   -3.0510   14.7010    7.0206 C   0  0  2  0  0  0  0  0  0  0  0  0
   -2.1968   13.7392    7.4972 O   0  0  0  0  0  0  0  0  0  0  0  0
   -2.3462   16.0416    7.1956 C   0  0  0  0  0  0  0  0  0  0  0  0
   -1.1929   16.3539    6.2249 C   0  0  0  0  0  0  0  0  0  0  0  0
  1  2  1  1  0  0  0
  1  3  1  0  0  0  0
  3  4  1  1  0  0  0
  3  5  1  0  0  0  0
  5  6  1  6  0  0  0
  5  7  1  0  0  0  0
  7  8  1  1  0  0  0
  9  7  1  0  0  0  0
  9 10  1  0  0  0  0
  9 11  1  6  0  0  0
 10  1  1  0  0  0  0
 11 12  1  0  0  0  0
 13 14  1  6  0  0  0
 13 15  1  0  0  0  0
 13 22  1  0  0  0  0
 14 32  1  0  0  0  0
 15 16  1  1  0  0  0
 15 17  1  0  0  0  0
 16 23  1  0  0  0  0
 17 18  1  6  0  0  0
 17 19  1  0  0  0  0
 19  2  1  1  0  0  0
 19 20  1  0  0  0  0
 20 21  1  6  0  0  0
 20 22  1  0  0  0  0
 23 24  1  0  0  0  0
 24 25  1  0  0  0  0
 25 26  1  0  0  0  0
 26 27  1  0  0  0  0
 27 28  1  0  0  0  0
 28 29  1  0  0  0  0
 29 30  1  0  0  0  0
 31 37  1  0  0  0  0
 32 33  2  0  0  0  0
 34 32  1  1  0  0  0
 34 35  1  0  0  0  0
 34 36  1  0  0  0  0
 36 37  1  0  0  0  0
M  END
>  <CHROM.1>
-76.74300142,-177.74701326,79.46160939,168.46334230,54.49447045,141.57780294
-156.72720941,51.20003830,66.30262089,-70.27233584,175.94026961,-174.70864687
-153.10235714,-166.89840321,-63.15911053,-7.57364323,18.06816211,7.56523355
2.93296906,-0.28020822,0.58597326

>  <Name>
1o9m_lig

>  <RI>
0

>  <Rbt.Current_Directory>
/home/itssahil/PROJECTS/Mol_Feturizer/New_Systems/rnas/1o9m

>  <Rbt.Executable>
rbdock ($Id: //depot/dev/client3/rdock/2013.1/src/exe/rbdock.cxx#4 $)

>  <Rbt.Library>
libRbt.so (2013.1, Build901 2013/11/27)

>  <Rbt.Parameter_File>
/export/apps/rDock/src/rDock_2013.1_src/data/scripts/dock_solv.prm

>  <Rbt.Receptor>
prm/pocket_docking_4.prm

>  <SCORE>
-8.89743

>  <SCORE.INTER>
-5.4386

>  <SCORE.INTER.CONST>
1

>  <SCORE.INTER.POLAR>
-1.0226

>  <SCORE.INTER.ROT>
15

>  <SCORE.INTER.SOLV>
17.6871

>  <SCORE.INTER.VDW>
-19.7128

>  <SCORE.INTER.norm>
-0.146989

>  <SCORE.INTRA>
-3.45883

>  <SCORE.INTRA.DIHEDRAL>
-9.29758

>  <SCORE.INTRA.DIHEDRAL.0>
21.5987

>  <SCORE.INTRA.POLAR>
0

>  <SCORE.INTRA.POLAR.0>
0

>  <SCORE.INTRA.REPUL>
0

>  <SCORE.INTRA.REPUL.0>
0

>  <SCORE.INTRA.SOLV>
4.20905

>  <SCORE.INTRA.SOLV.lig_0>
-108.715

>  <SCORE.INTRA.VDW>
-0.914563

>  <SCORE.INTRA.VDW.0>
-3.9485

>  <SCORE.INTRA.norm>
-0.0934818

>  <SCORE.RESTR>
0

>  <SCORE.RESTR.CAVITY>
0

>  <SCORE.RESTR.norm>
0

>  <SCORE.SYSTEM>
0

>  <SCORE.SYSTEM.CONST>
0

>  <SCORE.SYSTEM.DIHEDRAL>
0

>  <SCORE.SYSTEM.SOLV>
0

>  <SCORE.SYSTEM.norm>
0

>  <SCORE.heavy>
37

>  <SCORE.norm>
-0.240471

>  <RMSD>
8.160

$$$$
1o9m_lig
 OpenBabel11021811403D
libRbt.so/2013.1/901 2013/11/27
 37 38  0  0  0  0  0  0  0  0999 V2000
   -3.5798   18.3298    9.9281 C   0  0  2  0  0  0  0  0  0  0  0  0
   -4.7949   17.5372   10.0936 O   0  0  0  0  0  0  0  0  0  0  0  0
   -3.0147   18.5836   11.3740 C   0  0  2  0  0  0  0  0  0  0  0  0
   -2.7233   17.3271   12.0863 N   0  0  0  0  0  0  0  0  0  0  0  0
   -4.0463   19.4577   12.1836 C   0  0  1  0  0  0  0  0  0  0  0  0
   -3.5536   19.7042   13.5035 O   0  0  0  0  0  0  0  0  0  0  0  0
   -4.2921   20.7816   11.3871 C   0  0  2  0  0  0  0  0  0  0  0  0
   -5.2367   21.6524   12.0308 O   0  0  0  0  0  0  0  0  0  0  0  0
   -4.7930   20.4720    9.9547 C   0  0  2  0  0  0  0  0  0  0  0  0
   -3.8772   19.6062    9.2684 O   0  0  0  0  0  0  0  0  0  0  0  0
   -4.9841   21.7297    9.1472 C   0  0  0  0  0  0  0  0  0  0  0  0
   -5.4995   21.4269    7.9095 N   0  0  0  0  0  0  0  0  0  0  0  0
   -7.9384   16.2320    7.4037 C   0  0  1  0  0  0  0  0  0  0  0  0
   -9.0495   16.2946    6.4132 N   0  0  0  0  0  0  0  0  0  0  0  0
   -6.6974   16.8671    6.7912 C   0  0  2  0  0  0  0  0  0  0  0  0
   -6.4040   16.1834    5.6094 O   0  0  0  0  0  0  0  0  0  0  0  0
   -5.4985   16.8073    7.7896 C   0  0  1  0  0  0  0  0  0  0  0  0
   -4.3212   17.4384    7.1996 O   0  0  0  0  0  0  0  0  0  0  0  0
   -5.8763   17.5792    9.1190 C   0  0  1  0  0  0  0  0  0  0  0  0
   -7.1045   16.9417    9.7507 C   0  0  1  0  0  0  0  0  0  0  0  0
   -7.4250   17.6560   10.9773 N   0  0  0  0  0  0  0  0  0  0  0  0
   -8.2910   16.9833    8.7509 C   0  0  0  0  0  0  0  0  0  0  0  0
   -6.1828   15.0684    4.7180 C   0  0  0  0  0  0  0  0  0  0  0  0
   -5.1500   14.1455    5.3229 C   0  0  0  0  0  0  0  0  0  0  0  0
   -4.9837   12.8675    4.6004 N   0  0  0  0  0  0  0  0  0  0  0  0
   -4.4709   11.8224    3.6854 C   0  0  0  0  0  0  0  0  0  0  0  0
   -5.6412   10.8410    3.8278 C   0  0  0  0  0  0  0  0  0  0  0  0
   -6.9332   11.3727    3.1796 C   0  0  0  0  0  0  0  0  0  0  0  0
   -6.8306   11.3569    1.6576 C   0  0  0  0  0  0  0  0  0  0  0  0
   -8.0191   11.9589    1.0699 N   0  0  0  0  0  0  0  0  0  0  0  0
  -13.5669   19.3441    3.8996 N   0  0  0  0  0  0  0  0  0  0  0  0
   -9.3522   17.9594    5.8808 C   0  0  0  0  0  0  0  0  0  0  0  0
   -8.9146   18.9211    6.0991 O   0  0  0  0  0  0  0  0  0  0  0  0
  -10.4651   17.3769    5.0443 C   0  0  2  0  0  0  0  0  0  0  0  0
  -10.0101   16.9960    3.8074 O   0  0  0  0  0  0  0  0  0  0  0  0
  -11.4776   18.4938    4.8161 C   0  0  0  0  0  0  0  0  0  0  0  0
  -12.7662   18.1218    4.0605 C   0  0  0  0  0  0  0  0  0  0  0  0
  1  2  1  1  0  0  0
  1  3  1  0  0  0  0
  3  4  1  1  0  0  0
  3  5  1  0  0  0  0
  5  6  1  1  0  0  0
  5  7  1  0  0  0  0
  7  8  1  1  0  0  0
  9  7  1  0  0  0  0
  9 10  1  0  0  0  0
  9 11  1  6  0  0  0
 10  1  1  0  0  0  0
 11 12  1  0  0  0  0
 13 14  1  6  0  0  0
 13 15  1  0  0  0  0
 13 22  1  0  0  0  0
 14 32  1  0  0  0  0
 15 16  1  6  0  0  0
 15 17  1  0  0  0  0
 16 23  1  0  0  0  0
 17 18  1  6  0  0  0
 17 19  1  0  0  0  0
 19  2  1  1  0  0  0
 19 20  1  0  0  0  0
 20 21  1  1  0  0  0
 20 22  1  0  0  0  0
 23 24  1  0  0  0  0
 24 25  1  0  0  0  0
 25 26  1  0  0  0  0
 26 27  1  0  0  0  0
 27 28  1  0  0  0  0
 28 29  1  0  0  0  0
 29 30  1  0  0  0  0
 31 37  1  0  0  0  0
 32 33  2  0  0  0  0
 34 32  1  1  0  0  0
 34 35  1  0  0  0  0
 34 36  1  0  0  0  0
 36 37  1  0  0  0  0
M  END
>  <CHROM.1>
153.28471347,-176.62100252,-56.08639789,-46.82812425,-53.56419699,73.50200304
171.43012834,96.29310615,-168.59699655,69.34967677,71.47967081,-175.60195806
-88.69522568,-176.00127443,-177.56553615,-6.57392273,17.10497014,7.30749583
-1.13157746,0.53637440,-2.44339883

>  <Name>
1o9m_lig

>  <RI>
0

>  <Rbt.Current_Directory>
/home/itssahil/PROJECTS/Mol_Feturizer/New_Systems/rnas/1o9m

>  <Rbt.Executable>
rbdock ($Id: //depot/dev/client3/rdock/2013.1/src/exe/rbdock.cxx#4 $)

>  <Rbt.Library>
libRbt.so (2013.1, Build901 2013/11/27)

>  <Rbt.Parameter_File>
/export/apps/rDock/src/rDock_2013.1_src/data/scripts/dock_solv.prm

>  <Rbt.Receptor>
prm/pocket_docking_4.prm

>  <SCORE>
-14.3493

>  <SCORE.INTER>
-7.84457

>  <SCORE.INTER.CONST>
1

>  <SCORE.INTER.POLAR>
-0.959166

>  <SCORE.INTER.ROT>
15

>  <SCORE.INTER.SOLV>
16.3347

>  <SCORE.INTER.VDW>
-21.0774

>  <SCORE.INTER.norm>
-0.212015

>  <SCORE.INTRA>
-6.50473

>  <SCORE.INTRA.DIHEDRAL>
-13.0809

>  <SCORE.INTRA.DIHEDRAL.0>
21.5987

>  <SCORE.INTRA.POLAR>
0

>  <SCORE.INTRA.POLAR.0>
0

>  <SCORE.INTRA.REPUL>
0

>  <SCORE.INTRA.REPUL.0>
0

>  <SCORE.INTRA.SOLV>
0.399151

>  <SCORE.INTRA.SOLV.lig_0>
-108.715

>  <SCORE.INTRA.VDW>
-0.163841

>  <SCORE.INTRA.VDW.0>
-3.9485

>  <SCORE.INTRA.norm>
-0.175803

>  <SCORE.RESTR>
0

>  <SCORE.RESTR.CAVITY>
0

>  <SCORE.RESTR.norm>
0

>  <SCORE.SYSTEM>
0

>  <SCORE.SYSTEM.CONST>
0

>  <SCORE.SYSTEM.DIHEDRAL>
0

>  <SCORE.SYSTEM.SOLV>
0

>  <SCORE.SYSTEM.norm>
0

>  <SCORE.heavy>
37

>  <SCORE.norm>
-0.387819

>  <RMSD>
8.173

$$$$
1o9m_lig
 OpenBabel11021811403D
libRbt.so/2013.1/901 2013/11/27
 37 38  0  0  0  0  0  0  0  0999 V2000
  -10.0551   19.2957    7.2960 C   0  0  2  0  0  0  0  0  0  0  0  0
  -10.1827   18.2744    6.2603 O   0  0  0  0  0  0  0  0  0  0  0  0
  -11.4901   19.9086    7.4947 C   0  0  2  0  0  0  0  0  0  0  0  0
  -12.4807   18.8908    7.8869 N   0  0  0  0  0  0  0  0  0  0  0  0
  -11.9295   20.6317    6.1651 C   0  0  1  0  0  0  0  0  0  0  0  0
  -13.2328   21.1998    6.3213 O   0  0  0  0  0  0  0  0  0  0  0  0
  -10.8511   21.7111    5.8197 C   0  0  2  0  0  0  0  0  0  0  0  0
  -11.1449   22.4248    4.6076 O   0  0  0  0  0  0  0  0  0  0  0  0
   -9.4508   21.0623    5.6912 C   0  0  2  0  0  0  0  0  0  0  0  0
   -9.1103   20.3397    6.8834 O   0  0  0  0  0  0  0  0  0  0  0  0
   -8.3840   22.0898    5.4139 C   0  0  0  0  0  0  0  0  0  0  0  0
   -8.5446   22.6145    4.1537 N   0  0  0  0  0  0  0  0  0  0  0  0
   -7.2782   15.6008    4.4614 C   0  0  1  0  0  0  0  0  0  0  0  0
   -6.1020   15.1361    3.6738 N   0  0  0  0  0  0  0  0  0  0  0  0
   -6.7954   16.5403    5.5581 C   0  0  2  0  0  0  0  0  0  0  0  0
   -5.8653   15.8488    6.3371 O   0  0  0  0  0  0  0  0  0  0  0  0
   -7.9954   17.0394    6.4233 C   0  0  1  0  0  0  0  0  0  0  0  0
   -7.5228   17.9560    7.4572 O   0  0  0  0  0  0  0  0  0  0  0  0
   -9.0319   17.8032    5.5023 C   0  0  1  0  0  0  0  0  0  0  0  0
   -9.5361   16.8685    4.4133 C   0  0  1  0  0  0  0  0  0  0  0  0
  -10.4973   17.5850    3.5885 N   0  0  0  0  0  0  0  0  0  0  0  0
   -8.3409   16.3568    3.5653 C   0  0  0  0  0  0  0  0  0  0  0  0
   -5.0172   15.5408    7.4652 C   0  0  0  0  0  0  0  0  0  0  0  0
   -4.1115   16.7185    7.7427 C   0  0  0  0  0  0  0  0  0  0  0  0
   -3.2391   16.5458    8.9226 N   0  0  0  0  0  0  0  0  0  0  0  0
   -2.3060   15.9593    9.9114 C   0  0  0  0  0  0  0  0  0  0  0  0
   -2.0270   17.2409   10.7068 C   0  0  0  0  0  0  0  0  0  0  0  0
   -3.2271   17.6642   11.5745 C   0  0  0  0  0  0  0  0  0  0  0  0
   -2.9348   18.9629   12.3197 C   0  0  0  0  0  0  0  0  0  0  0  0
   -1.7223   18.8221   13.1136 N   0  0  0  0  0  0  0  0  0  0  0  0
   -1.7061   14.4436    4.9227 N   0  0  0  0  0  0  0  0  0  0  0  0
   -5.2593   13.8049    4.4888 C   0  0  0  0  0  0  0  0  0  0  0  0
   -5.4083   13.2560    5.4056 O   0  0  0  0  0  0  0  0  0  0  0  0
   -4.2914   13.8501    3.3318 C   0  0  2  0  0  0  0  0  0  0  0  0
   -3.3732   12.8339    3.4117 O   0  0  0  0  0  0  0  0  0  0  0  0
   -3.5145   15.1561    3.4563 C   0  0  0  0  0  0  0  0  0  0  0  0
   -2.8005   15.4167    4.7950 C   0  0  0  0  0  0  0  0  0  0  0  0
  1  2  1  6  0  0  0
  1  3  1  0  0  0  0
  3  4  1  6  0  0  0
  3  5  1  0  0  0  0
  5  6  1  1  0  0  0
  5  7  1  0  0  0  0
  7  8  1  6  0  0  0
  9  7  1  0  0  0  0
  9 10  1  0  0  0  0
  9 11  1  1  0  0  0
 10  1  1  0  0  0  0
 11 12  1  0  0  0  0
 13 14  1  6  0  0  0
 13 15  1  0  0  0  0
 13 22  1  0  0  0  0
 14 32  1  0  0  0  0
 15 16  1  1  0  0  0
 15 17  1  0  0  0  0
 16 23  1  0  0  0  0
 17 18  1  1  0  0  0
 17 19  1  0  0  0  0
 19  2  1  1  0  0  0
 19 20  1  0  0  0  0
 20 21  1  6  0  0  0
 20 22  1  0  0  0  0
 23 24  1  0  0  0  0
 24 25  1  0  0  0  0
 25 26  1  0  0  0  0
 26 27  1  0  0  0  0
 27 28  1  0  0  0  0
 28 29  1  0  0  0  0
 29 30  1  0  0  0  0
 31 37  1  0  0  0  0
 32 33  2  0  0  0  0
 34 32  1  1  0  0  0
 34 35  1  0  0  0  0
 34 36  1  0  0  0  0
 36 37  1  0  0  0  0
M  END
>  <CHROM.1>
159.51370792,-68.63607068,81.06741541,-163.68981438,-56.00451093,65.49120392
177.15143776,45.01991259,170.31812431,72.68128093,-178.28208563,-55.85253574
-174.85769150,54.53135758,67.81638107,-6.94194850,17.61192471,6.39924570
-2.95932290,0.56244830,-2.21093105

>  <Name>
1o9m_lig

>  <RI>
0

>  <Rbt.Current_Directory>
/home/itssahil/PROJECTS/Mol_Feturizer/New_Systems/rnas/1o9m

>  <Rbt.Executable>
rbdock ($Id: //depot/dev/client3/rdock/2013.1/src/exe/rbdock.cxx#4 $)

>  <Rbt.Library>
libRbt.so (2013.1, Build901 2013/11/27)

>  <Rbt.Parameter_File>
/export/apps/rDock/src/rDock_2013.1_src/data/scripts/dock_solv.prm

>  <Rbt.Receptor>
prm/pocket_docking_4.prm

>  <SCORE>
-5.88836

>  <SCORE.INTER>
-2.24715

>  <SCORE.INTER.CONST>
1

>  <SCORE.INTER.POLAR>
-1.82746

>  <SCORE.INTER.ROT>
15

>  <SCORE.INTER.SOLV>
16.3915

>  <SCORE.INTER.VDW>
-14.4704

>  <SCORE.INTER.norm>
-0.0607338

>  <SCORE.INTRA>
-3.64121

>  <SCORE.INTRA.DIHEDRAL>
-15.4735

>  <SCORE.INTRA.DIHEDRAL.0>
21.5987

>  <SCORE.INTRA.POLAR>
0

>  <SCORE.INTRA.POLAR.0>
0

>  <SCORE.INTRA.REPUL>
0

>  <SCORE.INTRA.REPUL.0>
0

>  <SCORE.INTRA.SOLV>
5.15612

>  <SCORE.INTRA.SOLV.lig_0>
-108.715

>  <SCORE.INTRA.VDW>
1.51749

>  <SCORE.INTRA.VDW.0>
-3.9485

>  <SCORE.INTRA.norm>
-0.098411

>  <SCORE.RESTR>
0

>  <SCORE.RESTR.CAVITY>
0

>  <SCORE.RESTR.norm>
0

>  <SCORE.SYSTEM>
0

>  <SCORE.SYSTEM.CONST>
0

>  <SCORE.SYSTEM.DIHEDRAL>
0

>  <SCORE.SYSTEM.SOLV>
0

>  <SCORE.SYSTEM.norm>
0

>  <SCORE.heavy>
37

>  <SCORE.norm>
-0.159145

>  <RMSD>
8.181

$$$$
1o9m_lig
 OpenBabel11021811403D
libRbt.so/2013.1/901 2013/11/27
 37 38  0  0  0  0  0  0  0  0999 V2000
   -9.3712   19.0292    7.5326 C   0  0  2  0  0  0  0  0  0  0  0  0
   -9.5097   18.2866    6.2829 O   0  0  0  0  0  0  0  0  0  0  0  0
  -10.7535   19.7365    7.7844 C   0  0  2  0  0  0  0  0  0  0  0  0
  -11.8642   18.7724    7.8724 N   0  0  0  0  0  0  0  0  0  0  0  0
  -11.0129   20.7833    6.6351 C   0  0  1  0  0  0  0  0  0  0  0  0
  -12.2652   21.4422    6.8429 O   0  0  0  0  0  0  0  0  0  0  0  0
   -9.8130   21.7868    6.6119 C   0  0  2  0  0  0  0  0  0  0  0  0
   -9.9383   22.7821    5.5830 O   0  0  0  0  0  0  0  0  0  0  0  0
   -8.4742   21.0328    6.4179 C   0  0  2  0  0  0  0  0  0  0  0  0
   -8.3018   20.0283    7.4281 O   0  0  0  0  0  0  0  0  0  0  0  0
   -7.2963   21.9721    6.4481 C   0  0  0  0  0  0  0  0  0  0  0  0
   -6.1207   21.2636    6.3745 N   0  0  0  0  0  0  0  0  0  0  0  0
   -6.8682   15.4608    4.3187 C   0  0  1  0  0  0  0  0  0  0  0  0
   -5.6829   14.9223    3.5944 N   0  0  0  0  0  0  0  0  0  0  0  0
   -6.4052   16.0691    5.6356 C   0  0  2  0  0  0  0  0  0  0  0  0
   -5.7395   15.0757    6.3568 O   0  0  0  0  0  0  0  0  0  0  0  0
   -7.6198   16.6313    6.4395 C   0  0  1  0  0  0  0  0  0  0  0  0
   -7.1609   17.2310    7.6895 O   0  0  0  0  0  0  0  0  0  0  0  0
   -8.3547   17.7414    5.5831 C   0  0  1  0  0  0  0  0  0  0  0  0
   -8.8389   17.1407    4.2722 C   0  0  1  0  0  0  0  0  0  0  0  0
   -9.5235   18.1727    3.5082 N   0  0  0  0  0  0  0  0  0  0  0  0
   -7.6338   16.5640    3.4818 C   0  0  0  0  0  0  0  0  0  0  0  0
   -5.1732   14.3873    7.4934 C   0  0  0  0  0  0  0  0  0  0  0  0
   -4.3742   15.3677    8.3211 C   0  0  0  0  0  0  0  0  0  0  0  0
   -4.8196   15.4775    9.7256 N   0  0  0  0  0  0  0  0  0  0  0  0
   -5.0671   16.0003   11.0886 C   0  0  0  0  0  0  0  0  0  0  0  0
   -3.8081   15.4289   11.7529 C   0  0  0  0  0  0  0  0  0  0  0  0
   -3.6970   15.8272   13.2366 C   0  0  0  0  0  0  0  0  0  0  0  0
   -2.3834   15.3388   13.8393 C   0  0  0  0  0  0  0  0  0  0  0  0
   -1.2650   16.0694   13.2598 N   0  0  0  0  0  0  0  0  0  0  0  0
   -1.5016   15.7637    4.8192 N   0  0  0  0  0  0  0  0  0  0  0  0
   -5.1906   13.3440    4.2373 C   0  0  0  0  0  0  0  0  0  0  0  0
   -5.5549   12.6899    5.0142 O   0  0  0  0  0  0  0  0  0  0  0  0
   -4.0739   13.3982    3.2236 C   0  0  2  0  0  0  0  0  0  0  0  0
   -3.7568   12.1445    2.7657 O   0  0  0  0  0  0  0  0  0  0  0  0
   -2.8420   13.9258    3.9509 C   0  0  0  0  0  0  0  0  0  0  0  0
   -2.8457   15.4163    4.3357 C   0  0  0  0  0  0  0  0  0  0  0  0
  1  2  1  6  0  0  0
  1  3  1  0  0  0  0
  3  4  1  6  0  0  0
  3  5  1  0  0  0  0
  5  6  1  1  0  0  0
  5  7  1  0  0  0  0
  7  8  1  6  0  0  0
  9  7  1  0  0  0  0
  9 10  1  0  0  0  0
  9 11  1  1  0  0  0
 10  1  1  0  0  0  0
 11 12  1  0  0  0  0
 13 14  1  6  0  0  0
 13 15  1  0  0  0  0
 13 22  1  0  0  0  0
 14 32  1  0  0  0  0
 15 16  1  1  0  0  0
 15 17  1  0  0  0  0
 16 23  1  0  0  0  0
 17 18  1  1  0  0  0
 17 19  1  0  0  0  0
 19  2  1  1  0  0  0
 19 20  1  0  0  0  0
 20 21  1  6  0  0  0
 20 22  1  0  0  0  0
 23 24  1  0  0  0  0
 24 25  1  0  0  0  0
 25 26  1  0  0  0  0
 26 27  1  0  0  0  0
 27 28  1  0  0  0  0
 28 29  1  0  0  0  0
 29 30  1  0  0  0  0
 31 37  1  0  0  0  0
 32 33  2  0  0  0  0
 34 32  1  1  0  0  0
 34 35  1  0  0  0  0
 34 36  1  0  0  0  0
 36 37  1  0  0  0  0
M  END
>  <CHROM.1>
166.62496335,175.48526523,79.48902473,-159.66061080,-46.91549535,64.05298300
122.25051777,-155.58447080,-92.43200818,178.07949262,-175.49216925,68.44922970
-147.21513721,-71.84399221,-170.93249040,-6.62349943,17.09941968,6.75592881
-3.03231582,0.75377981,-1.94735407

>  <Name>
1o9m_lig

>  <RI>
0

>  <Rbt.Current_Directory>
/home/itssahil/PROJECTS/Mol_Feturizer/New_Systems/rnas/1o9m

>  <Rbt.Executable>
rbdock ($Id: //depot/dev/client3/rdock/2013.1/src/exe/rbdock.cxx#4 $)

>  <Rbt.Library>
libRbt.so (2013.1, Build901 2013/11/27)

>  <Rbt.Parameter_File>
/export/apps/rDock/src/rDock_2013.1_src/data/scripts/dock_solv.prm

>  <Rbt.Receptor>
prm/pocket_docking_4.prm

>  <SCORE>
-16.8685

>  <SCORE.INTER>
-12.082

>  <SCORE.INTER.CONST>
1

>  <SCORE.INTER.POLAR>
-2.56942

>  <SCORE.INTER.ROT>
15

>  <SCORE.INTER.SOLV>
14.372

>  <SCORE.INTER.VDW>
-17.8806

>  <SCORE.INTER.norm>
-0.32654

>  <SCORE.INTRA>
-4.78647

>  <SCORE.INTRA.DIHEDRAL>
-7.95138

>  <SCORE.INTRA.DIHEDRAL.0>
21.5987

>  <SCORE.INTRA.POLAR>
0

>  <SCORE.INTRA.POLAR.0>
0

>  <SCORE.INTRA.REPUL>
0

>  <SCORE.INTRA.REPUL.0>
0

>  <SCORE.INTRA.SOLV>
0.889992

>  <SCORE.INTRA.SOLV.lig_0>
-108.715

>  <SCORE.INTRA.VDW>
-1.25578

>  <SCORE.INTRA.VDW.0>
-3.9485

>  <SCORE.INTRA.norm>
-0.129364

>  <SCORE.RESTR>
0

>  <SCORE.RESTR.CAVITY>
0

>  <SCORE.RESTR.norm>
0

>  <SCORE.SYSTEM>
0

>  <SCORE.SYSTEM.CONST>
0

>  <SCORE.SYSTEM.DIHEDRAL>
0

>  <SCORE.SYSTEM.SOLV>
0

>  <SCORE.SYSTEM.norm>
0

>  <SCORE.heavy>
37

>  <SCORE.norm>
-0.455904

>  <RMSD>
8.183

$$$$
1o9m_lig
 OpenBabel11021811403D
libRbt.so/2013.1/901 2013/11/27
 37 38  0  0  0  0  0  0  0  0999 V2000
  -12.0911   20.7694    4.3127 C   0  0  2  0  0  0  0  0  0  0  0  0
  -10.7830   21.1998    4.7983 O   0  0  0  0  0  0  0  0  0  0  0  0
  -13.1262   21.1391    5.4381 C   0  0  2  0  0  0  0  0  0  0  0  0
  -13.1312   22.5818    5.7376 N   0  0  0  0  0  0  0  0  0  0  0  0
  -12.8001   20.3016    6.7327 C   0  0  1  0  0  0  0  0  0  0  0  0
  -13.7301   20.6191    7.7717 O   0  0  0  0  0  0  0  0  0  0  0  0
  -12.8340   18.7847    6.3514 C   0  0  2  0  0  0  0  0  0  0  0  0
  -12.5317   17.9239    7.4616 O   0  0  0  0  0  0  0  0  0  0  0  0
  -11.8385   18.4879    5.2029 C   0  0  2  0  0  0  0  0  0  0  0  0
  -12.1045   19.3230    4.0667 O   0  0  0  0  0  0  0  0  0  0  0  0
  -11.8923   17.0431    4.7783 C   0  0  0  0  0  0  0  0  0  0  0  0
  -10.9204   16.7860    3.8409 N   0  0  0  0  0  0  0  0  0  0  0  0
   -7.5764   19.8859    7.4084 C   0  0  1  0  0  0  0  0  0  0  0  0
   -6.8477   19.1079    8.4492 N   0  0  0  0  0  0  0  0  0  0  0  0
   -8.0389   18.9320    6.3153 C   0  0  2  0  0  0  0  0  0  0  0  0
   -6.9122   18.2801    5.8095 O   0  0  0  0  0  0  0  0  0  0  0  0
   -8.7936   19.7082    5.1903 C   0  0  1  0  0  0  0  0  0  0  0  0
   -9.2507   18.7804    4.1594 O   0  0  0  0  0  0  0  0  0  0  0  0
  -10.0527   20.4438    5.8063 C   0  0  1  0  0  0  0  0  0  0  0  0
   -9.6014   21.4141    6.8874 C   0  0  1  0  0  0  0  0  0  0  0  0
  -10.7711   22.0894    7.4291 N   0  0  0  0  0  0  0  0  0  0  0  0
   -8.8339   20.6454    7.9962 C   0  0  0  0  0  0  0  0  0  0  0  0
   -5.7608   17.4084    5.7797 C   0  0  0  0  0  0  0  0  0  0  0  0
   -5.1628   17.4216    4.3917 C   0  0  0  0  0  0  0  0  0  0  0  0
   -4.1212   16.3970    4.1720 N   0  0  0  0  0  0  0  0  0  0  0  0
   -2.8720   15.6104    4.2864 C   0  0  0  0  0  0  0  0  0  0  0  0
   -3.2235   14.8649    5.5801 C   0  0  0  0  0  0  0  0  0  0  0  0
   -3.2857   15.8048    6.7988 C   0  0  0  0  0  0  0  0  0  0  0  0
   -3.7705   15.0626    8.0403 C   0  0  0  0  0  0  0  0  0  0  0  0
   -2.7698   14.0948    8.4672 N   0  0  0  0  0  0  0  0  0  0  0  0
   -3.1076   17.9138   11.4446 N   0  0  0  0  0  0  0  0  0  0  0  0
   -6.6293   20.0543    9.9335 C   0  0  0  0  0  0  0  0  0  0  0  0
   -6.9091   21.0459   10.2535 O   0  0  0  0  0  0  0  0  0  0  0  0
   -5.8900   18.8509   10.4656 C   0  0  2  0  0  0  0  0  0  0  0  0
   -6.7608   17.8971   10.9282 O   0  0  0  0  0  0  0  0  0  0  0  0
   -5.0788   19.3257   11.6661 C   0  0  0  0  0  0  0  0  0  0  0  0
   -4.1933   18.2790   12.3660 C   0  0  0  0  0  0  0  0  0  0  0  0
  1  2  1  1  0  0  0
  1  3  1  0  0  0  0
  3  4  1  1  0  0  0
  3  5  1  0  0  0  0
  5  6  1  1  0  0  0
  5  7  1  0  0  0  0
  7  8  1  1  0  0  0
  9  7  1  0  0  0  0
  9 10  1  0  0  0  0
  9 11  1  6  0  0  0
 10  1  1  0  0  0  0
 11 12  1  0  0  0  0
 13 14  1  1  0  0  0
 13 15  1  0  0  0  0
 13 22  1  0  0  0  0
 14 32  1  0  0  0  0
 15 16  1  6  0  0  0
 15 17  1  0  0  0  0
 16 23  1  0  0  0  0
 17 18  1  6  0  0  0
 17 19  1  0  0  0  0
 19  2  1  6  0  0  0
 19 20  1  0  0  0  0
 20 21  1  1  0  0  0
 20 22  1  0  0  0  0
 23 24  1  0  0  0  0
 24 25  1  0  0  0  0
 25 26  1  0  0  0  0
 26 27  1  0  0  0  0
 27 28  1  0  0  0  0
 28 29  1  0  0  0  0
 29 30  1  0  0  0  0
 31 37  1  0  0  0  0
 32 33  2  0  0  0  0
 34 32  1  1  0  0  0
 34 35  1  0  0  0  0
 34 36  1  0  0  0  0
 36 37  1  0  0  0  0
M  END
>  <CHROM.1>
76.40005550,-174.83731641,-165.87685092,66.75115517,176.58632274,108.53658717
-170.12629574,-62.02909792,76.00975601,-67.80491523,174.39128797,68.23312637
-81.24235303,-178.16112750,68.01137456,-8.22959654,18.75433020,6.93234832
-3.05537772,-0.47788043,1.11276605

>  <Name>
1o9m_lig

>  <RI>
0

>  <Rbt.Current_Directory>
/home/itssahil/PROJECTS/Mol_Feturizer/New_Systems/rnas/1o9m

>  <Rbt.Executable>
rbdock ($Id: //depot/dev/client3/rdock/2013.1/src/exe/rbdock.cxx#4 $)

>  <Rbt.Library>
libRbt.so (2013.1, Build901 2013/11/27)

>  <Rbt.Parameter_File>
/export/apps/rDock/src/rDock_2013.1_src/data/scripts/dock_solv.prm

>  <Rbt.Receptor>
prm/pocket_docking_3.prm

>  <SCORE>
4.40722

>  <SCORE.INTER>
1.86496

>  <SCORE.INTER.CONST>
1

>  <SCORE.INTER.POLAR>
-1.11716

>  <SCORE.INTER.ROT>
15

>  <SCORE.INTER.SOLV>
10.0123

>  <SCORE.INTER.VDW>
-11.9703

>  <SCORE.INTER.norm>
0.0504044

>  <SCORE.INTRA>
1.8059

>  <SCORE.INTRA.DIHEDRAL>
-10.6955

>  <SCORE.INTRA.DIHEDRAL.0>
21.5987

>  <SCORE.INTRA.POLAR>
0

>  <SCORE.INTRA.POLAR.0>
0

>  <SCORE.INTRA.REPUL>
0

>  <SCORE.INTRA.REPUL.0>
0

>  <SCORE.INTRA.SOLV>
8.81215

>  <SCORE.INTRA.SOLV.lig_0>
-108.715

>  <SCORE.INTRA.VDW>
2.74756

>  <SCORE.INTRA.VDW.0>
-3.9485

>  <SCORE.INTRA.norm>
0.0488082

>  <SCORE.RESTR>
0.73635

>  <SCORE.RESTR.CAVITY>
0.73635

>  <SCORE.RESTR.norm>
0.0199014

>  <SCORE.SYSTEM>
0

>  <SCORE.SYSTEM.CONST>
0

>  <SCORE.SYSTEM.DIHEDRAL>
0

>  <SCORE.SYSTEM.SOLV>
0

>  <SCORE.SYSTEM.norm>
0

>  <SCORE.heavy>
37

>  <SCORE.norm>
0.119114

>  <RMSD>
8.184

$$$$
1o9m_lig
 OpenBabel11021811403D
libRbt.so/2013.1/901 2013/11/27
 37 38  0  0  0  0  0  0  0  0999 V2000
  -10.3239   19.2871    7.1467 C   0  0  2  0  0  0  0  0  0  0  0  0
  -10.1209   18.1014    6.3190 O   0  0  0  0  0  0  0  0  0  0  0  0
  -11.8776   19.5256    7.2076 C   0  0  2  0  0  0  0  0  0  0  0  0
  -12.5967   18.3691    7.7700 N   0  0  0  0  0  0  0  0  0  0  0  0
  -12.4040   19.8599    5.7602 C   0  0  1  0  0  0  0  0  0  0  0  0
  -13.8164   20.0831    5.7894 O   0  0  0  0  0  0  0  0  0  0  0  0
  -11.6189   21.1063    5.2334 C   0  0  2  0  0  0  0  0  0  0  0  0
  -12.0097   21.4909    3.9051 O   0  0  0  0  0  0  0  0  0  0  0  0
  -10.0938   20.8371    5.2477 C   0  0  2  0  0  0  0  0  0  0  0  0
   -9.6545   20.4527    6.5586 O   0  0  0  0  0  0  0  0  0  0  0  0
   -9.3108   22.0432    4.7974 C   0  0  0  0  0  0  0  0  0  0  0  0
   -7.9625   21.8125    4.9315 N   0  0  0  0  0  0  0  0  0  0  0  0
   -6.5824   15.8628    5.1840 C   0  0  1  0  0  0  0  0  0  0  0  0
   -5.2564   15.5507    4.5808 N   0  0  0  0  0  0  0  0  0  0  0  0
   -6.4135   17.0015    6.1806 C   0  0  2  0  0  0  0  0  0  0  0  0
   -5.4702   16.6041    7.1306 O   0  0  0  0  0  0  0  0  0  0  0  0
   -7.7782   17.3514    6.8534 C   0  0  1  0  0  0  0  0  0  0  0  0
   -7.6075   18.4585    7.7903 O   0  0  0  0  0  0  0  0  0  0  0  0
   -8.8219   17.7815    5.7435 C   0  0  1  0  0  0  0  0  0  0  0  0
   -9.0135   16.6441    4.7518 C   0  0  1  0  0  0  0  0  0  0  0  0
   -9.9864   17.0543    3.7503 N   0  0  0  0  0  0  0  0  0  0  0  0
   -7.6531   16.2829    4.0974 C   0  0  0  0  0  0  0  0  0  0  0  0
   -4.6449   16.6615    8.3148 C   0  0  0  0  0  0  0  0  0  0  0  0
   -5.5246   16.8824    9.5238 C   0  0  0  0  0  0  0  0  0  0  0  0
   -4.7938   16.9045   10.8077 N   0  0  0  0  0  0  0  0  0  0  0  0
   -4.4106   17.2050   12.2060 C   0  0  0  0  0  0  0  0  0  0  0  0
   -3.0078   17.7530   11.9149 C   0  0  0  0  0  0  0  0  0  0  0  0
   -3.0451   19.1806   11.3380 C   0  0  0  0  0  0  0  0  0  0  0  0
   -1.6386   19.7566   11.2063 C   0  0  0  0  0  0  0  0  0  0  0  0
   -1.6821   21.0240   10.4909 N   0  0  0  0  0  0  0  0  0  0  0  0
   -0.4749   15.7485    5.8463 N   0  0  0  0  0  0  0  0  0  0  0  0
   -4.8153   13.8501    4.8257 C   0  0  0  0  0  0  0  0  0  0  0  0
   -5.2861   13.0004    5.2952 O   0  0  0  0  0  0  0  0  0  0  0  0
   -3.5318   14.1899    4.1082 C   0  0  2  0  0  0  0  0  0  0  0  0
   -2.9881   13.0814    3.5103 O   0  0  0  0  0  0  0  0  0  0  0  0
   -2.5394   14.6482    5.1710 C   0  0  0  0  0  0  0  0  0  0  0  0
   -1.2330   15.2920    4.6723 C   0  0  0  0  0  0  0  0  0  0  0  0
  1  2  1  6  0  0  0
  1  3  1  0  0  0  0
  3  4  1  6  0  0  0
  3  5  1  0  0  0  0
  5  6  1  1  0  0  0
  5  7  1  0  0  0  0
  7  8  1  6  0  0  0
  9  7  1  0  0  0  0
  9 10  1  0  0  0  0
  9 11  1  1  0  0  0
 10  1  1  0  0  0  0
 11 12  1  0  0  0  0
 13 14  1  6  0  0  0
 13 15  1  0  0  0  0
 13 22  1  0  0  0  0
 14 32  1  0  0  0  0
 15 16  1  1  0  0  0
 15 17  1  0  0  0  0
 16 23  1  0  0  0  0
 17 18  1  1  0  0  0
 17 19  1  0  0  0  0
 19  2  1  1  0  0  0
 19 20  1  0  0  0  0
 20 21  1  6  0  0  0
 20 22  1  0  0  0  0
 23 24  1  0  0  0  0
 24 25  1  0  0  0  0
 25 26  1  0  0  0  0
 26 27  1  0  0  0  0
 27 28  1  0  0  0  0
 28 29  1  0  0  0  0
 29 30  1  0  0  0  0
 31 37  1  0  0  0  0
 32 33  2  0  0  0  0
 34 32  1  1  0  0  0
 34 35  1  0  0  0  0
 34 36  1  0  0  0  0
 36 37  1  0  0  0  0
M  END
>  <CHROM.1>
163.22577373,174.78449976,123.08343127,-175.27977718,54.72840095,69.20723789
177.66633852,150.91794284,-123.75098211,76.03753406,173.61772891,172.12139691
-154.39256530,-169.31852976,175.79216696,-6.92766196,17.75382823,6.64729295
-3.06198697,0.46488988,-2.23132803

>  <Name>
1o9m_lig

>  <RI>
0

>  <Rbt.Current_Directory>
/home/itssahil/PROJECTS/Mol_Feturizer/New_Systems/rnas/1o9m

>  <Rbt.Executable>
rbdock ($Id: //depot/dev/client3/rdock/2013.1/src/exe/rbdock.cxx#4 $)

>  <Rbt.Library>
libRbt.so (2013.1, Build901 2013/11/27)

>  <Rbt.Parameter_File>
/export/apps/rDock/src/rDock_2013.1_src/data/scripts/dock_solv.prm

>  <Rbt.Receptor>
prm/pocket_docking_3.prm

>  <SCORE>
-10.4091

>  <SCORE.INTER>
-2.52052

>  <SCORE.INTER.CONST>
1

>  <SCORE.INTER.POLAR>
-1.67518

>  <SCORE.INTER.ROT>
15

>  <SCORE.INTER.SOLV>
13.5341

>  <SCORE.INTER.VDW>
-14.2078

>  <SCORE.INTER.norm>
-0.0681222

>  <SCORE.INTRA>
-7.89036

>  <SCORE.INTRA.DIHEDRAL>
-13.1616

>  <SCORE.INTRA.DIHEDRAL.0>
21.5987

>  <SCORE.INTRA.POLAR>
0

>  <SCORE.INTRA.POLAR.0>
0

>  <SCORE.INTRA.REPUL>
0

>  <SCORE.INTRA.REPUL.0>
0

>  <SCORE.INTRA.SOLV>
-1.10116

>  <SCORE.INTRA.SOLV.lig_0>
-108.715

>  <SCORE.INTRA.VDW>
-0.758997

>  <SCORE.INTRA.VDW.0>
-3.9485

>  <SCORE.INTRA.norm>
-0.213253

>  <SCORE.RESTR>
0.00178138

>  <SCORE.RESTR.CAVITY>
0.00178138

>  <SCORE.RESTR.norm>
4.81454e-05

>  <SCORE.SYSTEM>
0

>  <SCORE.SYSTEM.CONST>
0

>  <SCORE.SYSTEM.DIHEDRAL>
0

>  <SCORE.SYSTEM.SOLV>
0

>  <SCORE.SYSTEM.norm>
0

>  <SCORE.heavy>
37

>  <SCORE.norm>
-0.281327

>  <RMSD>
8.186

$$$$
1o9m_lig
 OpenBabel11021811403D
libRbt.so/2013.1/901 2013/11/27
 37 38  0  0  0  0  0  0  0  0999 V2000
  -11.2793   19.2652    5.0496 C   0  0  2  0  0  0  0  0  0  0  0  0
  -10.3964   18.3491    5.7662 O   0  0  0  0  0  0  0  0  0  0  0  0
  -10.7916   20.7186    5.4020 C   0  0  2  0  0  0  0  0  0  0  0  0
   -9.3868   20.9428    5.0182 N   0  0  0  0  0  0  0  0  0  0  0  0
  -10.9956   20.9702    6.9443 C   0  0  1  0  0  0  0  0  0  0  0  0
  -10.5606   22.2880    7.2900 O   0  0  0  0  0  0  0  0  0  0  0  0
  -12.5063   20.7391    7.2788 C   0  0  2  0  0  0  0  0  0  0  0  0
  -12.8040   20.9265    8.6720 O   0  0  0  0  0  0  0  0  0  0  0  0
  -12.9465   19.3144    6.8606 C   0  0  2  0  0  0  0  0  0  0  0  0
  -12.6725   19.0814    5.4713 O   0  0  0  0  0  0  0  0  0  0  0  0
  -14.4129   19.0854    7.1207 C   0  0  0  0  0  0  0  0  0  0  0  0
  -14.6859   19.2243    8.4607 N   0  0  0  0  0  0  0  0  0  0  0  0
   -6.9349   15.9740    4.6719 C   0  0  1  0  0  0  0  0  0  0  0  0
   -5.5921   15.6224    4.1306 N   0  0  0  0  0  0  0  0  0  0  0  0
   -6.7648   17.0127    5.7722 C   0  0  2  0  0  0  0  0  0  0  0  0
   -5.9172   16.4750    6.7430 O   0  0  0  0  0  0  0  0  0  0  0  0
   -8.1486   17.3990    6.3834 C   0  0  1  0  0  0  0  0  0  0  0  0
   -7.9747   18.4110    7.4217 O   0  0  0  0  0  0  0  0  0  0  0  0
   -9.0830   17.9892    5.2501 C   0  0  1  0  0  0  0  0  0  0  0  0
   -9.2758   16.9530    4.1533 C   0  0  1  0  0  0  0  0  0  0  0  0
  -10.1486   17.5097    3.1306 N   0  0  0  0  0  0  0  0  0  0  0  0
   -7.8984   16.5544    3.5590 C   0  0  0  0  0  0  0  0  0  0  0  0
   -5.1388   16.3970    7.9574 C   0  0  0  0  0  0  0  0  0  0  0  0
   -6.0627   16.5092    9.1483 C   0  0  0  0  0  0  0  0  0  0  0  0
   -6.5151   17.8861    9.4353 N   0  0  0  0  0  0  0  0  0  0  0  0
   -6.5138   19.3345    9.7430 C   0  0  0  0  0  0  0  0  0  0  0  0
   -5.4008   19.3130   10.7983 C   0  0  0  0  0  0  0  0  0  0  0  0
   -5.1146   20.7119   11.3757 C   0  0  0  0  0  0  0  0  0  0  0  0
   -4.3523   21.5739   10.3740 C   0  0  0  0  0  0  0  0  0  0  0  0
   -4.1903   22.9233   10.8967 N   0  0  0  0  0  0  0  0  0  0  0  0
   -1.9569   15.4600    7.0070 N   0  0  0  0  0  0  0  0  0  0  0  0
   -5.1041   13.9873    4.6153 C   0  0  0  0  0  0  0  0  0  0  0  0
   -5.5558   13.1972    5.1948 O   0  0  0  0  0  0  0  0  0  0  0  0
   -3.8217   14.2636    3.8692 C   0  0  2  0  0  0  0  0  0  0  0  0
   -3.1537   13.1005    3.5812 O   0  0  0  0  0  0  0  0  0  0  0  0
   -2.9270   15.0639    4.8092 C   0  0  0  0  0  0  0  0  0  0  0  0
   -2.6367   14.4455    6.1887 C   0  0  0  0  0  0  0  0  0  0  0  0
  1  2  1  1  0  0  0
  1  3  1  0  0  0  0
  3  4  1  1  0  0  0
  3  5  1  0  0  0  0
  5  6  1  6  0  0  0
  5  7  1  0  0  0  0
  7  8  1  1  0  0  0
  9  7  1  0  0  0  0
  9 10  1  0  0  0  0
  9 11  1  6  0  0  0
 10  1  1  0  0  0  0
 11 12  1  0  0  0  0
 13 14  1  6  0  0  0
 13 15  1  0  0  0  0
 13 22  1  0  0  0  0
 14 32  1  0  0  0  0
 15 16  1  1  0  0  0
 15 17  1  0  0  0  0
 16 23  1  0  0  0  0
 17 18  1  1  0  0  0
 17 19  1  0  0  0  0
 19  2  1  1  0  0  0
 19 20  1  0  0  0  0
 20 21  1  6  0  0  0
 20 22  1  0  0  0  0
 23 24  1  0  0  0  0
 24 25  1  0  0  0  0
 25 26  1  0  0  0  0
 26 27  1  0  0  0  0
 27 28  1  0  0  0  0
 28 29  1  0  0  0  0
 29 30  1  0  0  0  0
 31 37  1  0  0  0  0
 32 33  2  0  0  0  0
 34 32  1  1  0  0  0
 34 35  1  0  0  0  0
 34 36  1  0  0  0  0
 36 37  1  0  0  0  0
M  END
>  <CHROM.1>
-81.50742930,-60.60702303,108.69994118,179.70726225,62.34030847,161.08296544
-77.48595616,-56.70504570,-42.28357958,-179.74815598,-74.27529015,175.31806180
-161.85012510,55.17549114,-170.71174099,-7.83068836,17.97449344,6.65488246
2.65573046,-0.33587358,0.81630003

>  <Name>
1o9m_lig

>  <RI>
0

>  <Rbt.Current_Directory>
/home/itssahil/PROJECTS/Mol_Feturizer/New_Systems/rnas/1o9m

>  <Rbt.Executable>
rbdock ($Id: //depot/dev/client3/rdock/2013.1/src/exe/rbdock.cxx#4 $)

>  <Rbt.Library>
libRbt.so (2013.1, Build901 2013/11/27)

>  <Rbt.Parameter_File>
/export/apps/rDock/src/rDock_2013.1_src/data/scripts/dock_solv.prm

>  <Rbt.Receptor>
prm/pocket_docking_3.prm

>  <SCORE>
-6.69533

>  <SCORE.INTER>
-4.5517

>  <SCORE.INTER.CONST>
1

>  <SCORE.INTER.POLAR>
-1.59331

>  <SCORE.INTER.ROT>
15

>  <SCORE.INTER.SOLV>
18.6766

>  <SCORE.INTER.VDW>
-17.549

>  <SCORE.INTER.norm>
-0.123019

>  <SCORE.INTRA>
-2.41965

>  <SCORE.INTRA.DIHEDRAL>
-12.8369

>  <SCORE.INTRA.DIHEDRAL.0>
21.5987

>  <SCORE.INTRA.POLAR>
0

>  <SCORE.INTRA.POLAR.0>
0

>  <SCORE.INTRA.REPUL>
0

>  <SCORE.INTRA.REPUL.0>
0

>  <SCORE.INTRA.SOLV>
6.28062

>  <SCORE.INTRA.SOLV.lig_0>
-108.715

>  <SCORE.INTRA.VDW>
0.858511

>  <SCORE.INTRA.VDW.0>
-3.9485

>  <SCORE.INTRA.norm>
-0.0653959

>  <SCORE.RESTR>
0.27602

>  <SCORE.RESTR.CAVITY>
0.27602

>  <SCORE.RESTR.norm>
0.00746

>  <SCORE.SYSTEM>
0

>  <SCORE.SYSTEM.CONST>
0

>  <SCORE.SYSTEM.DIHEDRAL>
0

>  <SCORE.SYSTEM.SOLV>
0

>  <SCORE.SYSTEM.norm>
0

>  <SCORE.heavy>
37

>  <SCORE.norm>
-0.180955

>  <RMSD>
8.187

$$$$
1o9m_lig
 OpenBabel11021811403D
libRbt.so/2013.1/901 2013/11/27
 37 38  0  0  0  0  0  0  0  0999 V2000
   -4.0114   18.7471    9.6485 C   0  0  2  0  0  0  0  0  0  0  0  0
   -3.2908   17.5288    9.2897 O   0  0  0  0  0  0  0  0  0  0  0  0
   -2.9342   19.8899    9.7391 C   0  0  2  0  0  0  0  0  0  0  0  0
   -2.2061   20.0703    8.4710 N   0  0  0  0  0  0  0  0  0  0  0  0
   -1.9359   19.5641   10.9143 C   0  0  1  0  0  0  0  0  0  0  0  0
   -0.9462   20.5912   11.0184 O   0  0  0  0  0  0  0  0  0  0  0  0
   -2.7681   19.4087   12.2299 C   0  0  2  0  0  0  0  0  0  0  0  0
   -1.9538   19.0916   13.3706 O   0  0  0  0  0  0  0  0  0  0  0  0
   -3.8486   18.3114   12.0662 C   0  0  2  0  0  0  0  0  0  0  0  0
   -4.6920   18.5881   10.9385 O   0  0  0  0  0  0  0  0  0  0  0  0
   -4.7016   18.1806   13.3015 C   0  0  0  0  0  0  0  0  0  0  0  0
   -5.6237   17.1744   13.1387 N   0  0  0  0  0  0  0  0  0  0  0  0
   -4.7302   16.3948    5.3575 C   0  0  1  0  0  0  0  0  0  0  0  0
   -5.1268   15.5386    4.2046 N   0  0  0  0  0  0  0  0  0  0  0  0
   -5.5869   16.0264    6.5611 C   0  0  2  0  0  0  0  0  0  0  0  0
   -6.9260   16.1937    6.2023 O   0  0  0  0  0  0  0  0  0  0  0  0
   -5.2179   16.9137    7.7917 C   0  0  1  0  0  0  0  0  0  0  0  0
   -6.0305   16.5365    8.9450 O   0  0  0  0  0  0  0  0  0  0  0  0
   -3.6914   16.7068    8.1563 C   0  0  1  0  0  0  0  0  0  0  0  0
   -2.8239   17.0898    6.9669 C   0  0  1  0  0  0  0  0  0  0  0  0
   -1.4261   16.9067    7.3280 N   0  0  0  0  0  0  0  0  0  0  0  0
   -3.2041   16.2213    5.7379 C   0  0  0  0  0  0  0  0  0  0  0  0
   -8.1912   15.9264    5.5584 C   0  0  0  0  0  0  0  0  0  0  0  0
   -9.0931   17.1290    5.7156 C   0  0  0  0  0  0  0  0  0  0  0  0
   -9.0596   17.7384    7.0612 N   0  0  0  0  0  0  0  0  0  0  0  0
   -9.1327   18.7236    8.1641 C   0  0  0  0  0  0  0  0  0  0  0  0
   -8.0942   19.7116    7.6180 C   0  0  0  0  0  0  0  0  0  0  0  0
   -7.8780   20.9126    8.5577 C   0  0  0  0  0  0  0  0  0  0  0  0
   -6.9318   20.5532    9.6992 C   0  0  0  0  0  0  0  0  0  0  0  0
   -7.4574   19.4193   10.4463 N   0  0  0  0  0  0  0  0  0  0  0  0
   -2.9801   14.0732    1.6253 N   0  0  0  0  0  0  0  0  0  0  0  0
   -5.1821   13.8243    4.6571 C   0  0  0  0  0  0  0  0  0  0  0  0
   -5.0073   13.2697    5.5660 O   0  0  0  0  0  0  0  0  0  0  0  0
   -5.5533   13.5655    3.2174 C   0  0  2  0  0  0  0  0  0  0  0  0
   -6.7962   12.9932    3.1196 O   0  0  0  0  0  0  0  0  0  0  0  0
   -4.5555   12.5455    2.6802 C   0  0  0  0  0  0  0  0  0  0  0  0
   -3.0817   12.9844    2.6079 C   0  0  0  0  0  0  0  0  0  0  0  0
  1  2  1  1  0  0  0
  1  3  1  0  0  0  0
  3  4  1  6  0  0  0
  3  5  1  0  0  0  0
  5  6  1  1  0  0  0
  5  7  1  0  0  0  0
  7  8  1  1  0  0  0
  9  7  1  0  0  0  0
  9 10  1  0  0  0  0
  9 11  1  1  0  0  0
 10  1  1  0  0  0  0
 11 12  1  0  0  0  0
 13 14  1  6  0  0  0
 13 15  1  0  0  0  0
 13 22  1  0  0  0  0
 14 32  1  0  0  0  0
 15 16  1  6  0  0  0
 15 17  1  0  0  0  0
 16 23  1  0  0  0  0
 17 18  1  1  0  0  0
 17 19  1  0  0  0  0
 19  2  1  1  0  0  0
 19 20  1  0  0  0  0
 20 21  1  1  0  0  0
 20 22  1  0  0  0  0
 23 24  1  0  0  0  0
 24 25  1  0  0  0  0
 25 26  1  0  0  0  0
 26 27  1  0  0  0  0
 27 28  1  0  0  0  0
 28 29  1  0  0  0  0
 29 30  1  0  0  0  0
 31 37  1  0  0  0  0
 32 33  2  0  0  0  0
 34 32  1  1  0  0  0
 34 35  1  0  0  0  0
 34 36  1  0  0  0  0
 36 37  1  0  0  0  0
M  END
>  <CHROM.1>
-127.33211531,-178.26924049,-49.55747895,72.86220284,-167.93020964,-23.62488838
-42.34548736,151.71424679,-56.75188666,-179.04631685,80.99741938,-57.67879300
-118.14709666,-64.26274980,-65.30569851,-4.94319655,17.15933730,7.79692265
-1.41632456,0.17122500,-2.19275702

>  <Name>
1o9m_lig

>  <RI>
0

>  <Rbt.Current_Directory>
/home/itssahil/PROJECTS/Mol_Feturizer/New_Systems/rnas/1o9m

>  <Rbt.Executable>
rbdock ($Id: //depot/dev/client3/rdock/2013.1/src/exe/rbdock.cxx#4 $)

>  <Rbt.Library>
libRbt.so (2013.1, Build901 2013/11/27)

>  <Rbt.Parameter_File>
/export/apps/rDock/src/rDock_2013.1_src/data/scripts/dock_solv.prm

>  <Rbt.Receptor>
prm/pocket_docking_4.prm

>  <SCORE>
-2.56527

>  <SCORE.INTER>
-4.73258

>  <SCORE.INTER.CONST>
1

>  <SCORE.INTER.POLAR>
-0.959166

>  <SCORE.INTER.ROT>
15

>  <SCORE.INTER.SOLV>
17.7735

>  <SCORE.INTER.VDW>
-19.4823

>  <SCORE.INTER.norm>
-0.127908

>  <SCORE.INTRA>
2.16731

>  <SCORE.INTRA.DIHEDRAL>
-2.35915

>  <SCORE.INTRA.DIHEDRAL.0>
21.5987

>  <SCORE.INTRA.POLAR>
0

>  <SCORE.INTRA.POLAR.0>
0

>  <SCORE.INTRA.REPUL>
0

>  <SCORE.INTRA.REPUL.0>
0

>  <SCORE.INTRA.SOLV>
10.2866

>  <SCORE.INTRA.SOLV.lig_0>
-108.715

>  <SCORE.INTRA.VDW>
-1.79644

>  <SCORE.INTRA.VDW.0>
-3.9485

>  <SCORE.INTRA.norm>
0.058576

>  <SCORE.RESTR>
0

>  <SCORE.RESTR.CAVITY>
0

>  <SCORE.RESTR.norm>
0

>  <SCORE.SYSTEM>
0

>  <SCORE.SYSTEM.CONST>
0

>  <SCORE.SYSTEM.DIHEDRAL>
0

>  <SCORE.SYSTEM.SOLV>
0

>  <SCORE.SYSTEM.norm>
0

>  <SCORE.heavy>
37

>  <SCORE.norm>
-0.0693317

>  <RMSD>
8.191

$$$$
1o9m_lig
 OpenBabel11021811403D
libRbt.so/2013.1/901 2013/11/27
 37 38  0  0  0  0  0  0  0  0999 V2000
  -11.6228   19.1621    6.4415 C   0  0  2  0  0  0  0  0  0  0  0  0
  -11.1866   17.8335    6.0210 O   0  0  0  0  0  0  0  0  0  0  0  0
  -13.1292   19.0196    6.8716 C   0  0  2  0  0  0  0  0  0  0  0  0
  -13.3069   18.0443    7.9617 N   0  0  0  0  0  0  0  0  0  0  0  0
  -13.9873   18.6131    5.6138 C   0  0  1  0  0  0  0  0  0  0  0  0
  -15.3635   18.4788    5.9792 O   0  0  0  0  0  0  0  0  0  0  0  0
  -13.7721   19.6980    4.5074 C   0  0  2  0  0  0  0  0  0  0  0  0
  -14.5002   19.4163    3.3010 O   0  0  0  0  0  0  0  0  0  0  0  0
  -12.2685   19.8362    4.1633 C   0  0  2  0  0  0  0  0  0  0  0  0
  -11.4986   20.1231    5.3398 O   0  0  0  0  0  0  0  0  0  0  0  0
  -12.0280   20.9153    3.1395 C   0  0  0  0  0  0  0  0  0  0  0  0
  -10.6806   21.0634    2.9115 N   0  0  0  0  0  0  0  0  0  0  0  0
   -7.3272   15.8570    5.8832 C   0  0  1  0  0  0  0  0  0  0  0  0
   -5.9077   15.5800    5.5258 N   0  0  0  0  0  0  0  0  0  0  0  0
   -7.4060   17.2150    6.5673 C   0  0  2  0  0  0  0  0  0  0  0  0
   -6.5666   17.1831    7.6829 O   0  0  0  0  0  0  0  0  0  0  0  0
   -8.8769   17.5403    6.9777 C   0  0  1  0  0  0  0  0  0  0  0  0
   -8.9428   18.8537    7.6127 O   0  0  0  0  0  0  0  0  0  0  0  0
   -9.7967   17.5522    5.6894 C   0  0  1  0  0  0  0  0  0  0  0  0
   -9.7411   16.1937    5.0072 C   0  0  1  0  0  0  0  0  0  0  0  0
  -10.6039   16.2217    3.8358 N   0  0  0  0  0  0  0  0  0  0  0  0
   -8.2760   15.8615    4.6169 C   0  0  0  0  0  0  0  0  0  0  0  0
   -6.0565   16.7818    8.9734 C   0  0  0  0  0  0  0  0  0  0  0  0
   -4.7788   17.5367    9.2598 C   0  0  0  0  0  0  0  0  0  0  0  0
   -4.2028   17.2670   10.5934 N   0  0  0  0  0  0  0  0  0  0  0  0
   -4.0123   16.7498   11.9677 C   0  0  0  0  0  0  0  0  0  0  0  0
   -2.5950   17.2928   12.1902 C   0  0  0  0  0  0  0  0  0  0  0  0
   -2.0256   16.8965   13.5653 C   0  0  0  0  0  0  0  0  0  0  0  0
   -1.7751   15.3936   13.6434 C   0  0  0  0  0  0  0  0  0  0  0  0
   -0.7607   15.0046   12.6740 N   0  0  0  0  0  0  0  0  0  0  0  0
   -3.2012   12.8583    2.1878 N   0  0  0  0  0  0  0  0  0  0  0  0
   -5.3228   16.6951    4.2764 C   0  0  0  0  0  0  0  0  0  0  0  0
   -5.7507   17.5227    3.7323 O   0  0  0  0  0  0  0  0  0  0  0  0
   -4.0238   15.9306    4.3522 C   0  0  2  0  0  0  0  0  0  0  0  0
   -2.9568   16.7303    4.0297 O   0  0  0  0  0  0  0  0  0  0  0  0
   -4.0914   14.8378    3.2912 C   0  0  0  0  0  0  0  0  0  0  0  0
   -2.9045   13.8600    3.2221 C   0  0  0  0  0  0  0  0  0  0  0  0
  1  2  1  6  0  0  0
  1  3  1  0  0  0  0
  3  4  1  1  0  0  0
  3  5  1  0  0  0  0
  5  6  1  1  0  0  0
  5  7  1  0  0  0  0
  7  8  1  6  0  0  0
  9  7  1  0  0  0  0
  9 10  1  0  0  0  0
  9 11  1  6  0  0  0
 10  1  1  0  0  0  0
 11 12  1  0  0  0  0
 13 14  1  6  0  0  0
 13 15  1  0  0  0  0
 13 22  1  0  0  0  0
 14 32  1  0  0  0  0
 15 16  1  1  0  0  0
 15 17  1  0  0  0  0
 16 23  1  0  0  0  0
 17 18  1  6  0  0  0
 17 19  1  0  0  0  0
 19  2  1  1  0  0  0
 19 20  1  0  0  0  0
 20 21  1  6  0  0  0
 20 22  1  0  0  0  0
 23 24  1  0  0  0  0
 24 25  1  0  0  0  0
 25 26  1  0  0  0  0
 26 27  1  0  0  0  0
 27 28  1  0  0  0  0
 28 29  1  0  0  0  0
 29 30  1  0  0  0  0
 31 37  1  0  0  0  0
 32 33  2  0  0  0  0
 34 32  1  6  0  0  0
 34 35  1  0  0  0  0
 34 36  1  0  0  0  0
 36 37  1  0  0  0  0
M  END
>  <CHROM.1>
-173.29336327,176.65683270,-66.90821218,-63.92702548,177.82918499,71.60994479
176.60043417,-4.24479074,174.07005581,-178.29722838,67.78016510,63.44518141
-151.08665421,-176.58878288,177.22999951,-7.88479410,17.36047377,6.47143441
2.76845142,0.38069068,-1.75331176

>  <Name>
1o9m_lig

>  <RI>
0

>  <Rbt.Current_Directory>
/home/itssahil/PROJECTS/Mol_Feturizer/New_Systems/rnas/1o9m

>  <Rbt.Executable>
rbdock ($Id: //depot/dev/client3/rdock/2013.1/src/exe/rbdock.cxx#4 $)

>  <Rbt.Library>
libRbt.so (2013.1, Build901 2013/11/27)

>  <Rbt.Parameter_File>
/export/apps/rDock/src/rDock_2013.1_src/data/scripts/dock_solv.prm

>  <Rbt.Receptor>
prm/pocket_docking_4.prm

>  <SCORE>
-8.19283

>  <SCORE.INTER>
0.052677

>  <SCORE.INTER.CONST>
1

>  <SCORE.INTER.POLAR>
-0.869073

>  <SCORE.INTER.ROT>
15

>  <SCORE.INTER.SOLV>
18.2507

>  <SCORE.INTER.VDW>
-16.7515

>  <SCORE.INTER.norm>
0.0014237

>  <SCORE.INTRA>
-8.34459

>  <SCORE.INTRA.DIHEDRAL>
-17.1417

>  <SCORE.INTRA.DIHEDRAL.0>
21.5987

>  <SCORE.INTRA.POLAR>
0

>  <SCORE.INTRA.POLAR.0>
0

>  <SCORE.INTRA.REPUL>
0

>  <SCORE.INTRA.REPUL.0>
0

>  <SCORE.INTRA.SOLV>
-0.234896

>  <SCORE.INTRA.SOLV.lig_0>
-108.715

>  <SCORE.INTRA.VDW>
0.34373

>  <SCORE.INTRA.VDW.0>
-3.9485

>  <SCORE.INTRA.norm>
-0.225529

>  <SCORE.RESTR>
0.0990855

>  <SCORE.RESTR.CAVITY>
0.0990855

>  <SCORE.RESTR.norm>
0.00267799

>  <SCORE.SYSTEM>
0

>  <SCORE.SYSTEM.CONST>
0

>  <SCORE.SYSTEM.DIHEDRAL>
0

>  <SCORE.SYSTEM.SOLV>
0

>  <SCORE.SYSTEM.norm>
0

>  <SCORE.heavy>
37

>  <SCORE.norm>
-0.221428

>  <RMSD>
8.227

$$$$
1o9m_lig
 OpenBabel11021811403D
libRbt.so/2013.1/901 2013/11/27
 37 38  0  0  0  0  0  0  0  0999 V2000
   -9.3266   19.0384    7.1737 C   0  0  2  0  0  0  0  0  0  0  0  0
   -9.1981   18.1129    8.2958 O   0  0  0  0  0  0  0  0  0  0  0  0
  -10.8676   19.1883    6.8958 C   0  0  2  0  0  0  0  0  0  0  0  0
  -11.5988   19.6917    8.0718 N   0  0  0  0  0  0  0  0  0  0  0  0
  -11.4450   17.7968    6.4333 C   0  0  1  0  0  0  0  0  0  0  0  0
  -12.8468   17.9076    6.1723 O   0  0  0  0  0  0  0  0  0  0  0  0
  -10.6434   17.3328    5.1725 C   0  0  2  0  0  0  0  0  0  0  0  0
  -11.0785   16.0576    4.6732 O   0  0  0  0  0  0  0  0  0  0  0  0
   -9.1287   17.2566    5.4861 C   0  0  2  0  0  0  0  0  0  0  0  0
   -8.6457   18.5124    5.9852 O   0  0  0  0  0  0  0  0  0  0  0  0
   -8.3271   16.8658    4.2714 C   0  0  0  0  0  0  0  0  0  0  0  0
   -8.5383   17.7642    3.2527 N   0  0  0  0  0  0  0  0  0  0  0  0
   -5.5286   17.7483   10.5809 C   0  0  1  0  0  0  0  0  0  0  0  0
   -4.2057   17.2334   11.0331 N   0  0  0  0  0  0  0  0  0  0  0  0
   -5.4184   18.1737    9.1230 C   0  0  2  0  0  0  0  0  0  0  0  0
   -4.4076   19.1328    9.0308 O   0  0  0  0  0  0  0  0  0  0  0  0
   -6.7804   18.7389    8.6100 C   0  0  1  0  0  0  0  0  0  0  0  0
   -6.6682   19.1229    7.2056 O   0  0  0  0  0  0  0  0  0  0  0  0
   -7.9004   17.6284    8.7452 C   0  0  1  0  0  0  0  0  0  0  0  0
   -8.0329   17.2085   10.2012 C   0  0  1  0  0  0  0  0  0  0  0  0
   -9.0764   16.1996   10.3050 N   0  0  0  0  0  0  0  0  0  0  0  0
   -6.6737   16.6648   10.7171 C   0  0  0  0  0  0  0  0  0  0  0  0
   -3.3231   19.8954    8.4574 C   0  0  0  0  0  0  0  0  0  0  0  0
   -3.6666   20.2519    7.0293 C   0  0  0  0  0  0  0  0  0  0  0  0
   -3.7445   19.0914    6.1182 N   0  0  0  0  0  0  0  0  0  0  0  0
   -4.1810   17.8303    5.4768 C   0  0  0  0  0  0  0  0  0  0  0  0
   -3.0079   17.6876    4.4988 C   0  0  0  0  0  0  0  0  0  0  0  0
   -1.7381   17.1472    5.1828 C   0  0  0  0  0  0  0  0  0  0  0  0
   -1.9298   15.7024    5.6335 C   0  0  0  0  0  0  0  0  0  0  0  0
   -0.7559   15.2466    6.3646 N   0  0  0  0  0  0  0  0  0  0  0  0
    0.0506   17.1134   13.5682 N   0  0  0  0  0  0  0  0  0  0  0  0
   -4.2115   16.8617   12.7676 C   0  0  0  0  0  0  0  0  0  0  0  0
   -4.9467   16.9124   13.5556 O   0  0  0  0  0  0  0  0  0  0  0  0
   -2.7616   16.4857   12.5838 C   0  0  2  0  0  0  0  0  0  0  0  0
   -2.6375   15.3058   11.8950 O   0  0  0  0  0  0  0  0  0  0  0  0
   -2.1874   16.2453   13.9756 C   0  0  0  0  0  0  0  0  0  0  0  0
   -0.6814   15.9390   14.0643 C   0  0  0  0  0  0  0  0  0  0  0  0
  1  2  1  1  0  0  0
  1  3  1  0  0  0  0
  3  4  1  1  0  0  0
  3  5  1  0  0  0  0
  5  6  1  6  0  0  0
  5  7  1  0  0  0  0
  7  8  1  1  0  0  0
  9  7  1  0  0  0  0
  9 10  1  0  0  0  0
  9 11  1  6  0  0  0
 10  1  1  0  0  0  0
 11 12  1  0  0  0  0
 13 14  1  6  0  0  0
 13 15  1  0  0  0  0
 13 22  1  0  0  0  0
 14 32  1  0  0  0  0
 15 16  1  1  0  0  0
 15 17  1  0  0  0  0
 16 23  1  0  0  0  0
 17 18  1  6  0  0  0
 17 19  1  0  0  0  0
 19  2  1  1  0  0  0
 19 20  1  0  0  0  0
 20 21  1  6  0  0  0
 20 22  1  0  0  0  0
 23 24  1  0  0  0  0
 24 25  1  0  0  0  0
 25 26  1  0  0  0  0
 26 27  1  0  0  0  0
 27 28  1  0  0  0  0
 28 29  1  0  0  0  0
 29 30  1  0  0  0  0
 31 37  1  0  0  0  0
 32 33  2  0  0  0  0
 34 32  1  1  0  0  0
 34 35  1  0  0  0  0
 34 36  1  0  0  0  0
 36 37  1  0  0  0  0
M  END
>  <CHROM.1>
173.61403299,58.10888669,174.56326535,149.06110432,43.73518068,35.46187356
-66.45016122,65.94729838,-172.97002025,78.30143510,67.29501376,-175.74699575
-72.10535047,-175.90188005,62.92291812,-6.12106999,17.59520629,8.32538491
2.51202640,0.08376469,-1.48095687

>  <Name>
1o9m_lig

>  <RI>
0

>  <Rbt.Current_Directory>
/home/itssahil/PROJECTS/Mol_Feturizer/New_Systems/rnas/1o9m

>  <Rbt.Executable>
rbdock ($Id: //depot/dev/client3/rdock/2013.1/src/exe/rbdock.cxx#4 $)

>  <Rbt.Library>
libRbt.so (2013.1, Build901 2013/11/27)

>  <Rbt.Parameter_File>
/export/apps/rDock/src/rDock_2013.1_src/data/scripts/dock_solv.prm

>  <Rbt.Receptor>
prm/pocket_docking_4.prm

>  <SCORE>
3.41137

>  <SCORE.INTER>
5.70854

>  <SCORE.INTER.CONST>
1

>  <SCORE.INTER.POLAR>
-0.60492

>  <SCORE.INTER.ROT>
15

>  <SCORE.INTER.SOLV>
17.8491

>  <SCORE.INTER.VDW>
-13.7276

>  <SCORE.INTER.norm>
0.154285

>  <SCORE.INTRA>
-2.29717

>  <SCORE.INTRA.DIHEDRAL>
-11.1142

>  <SCORE.INTRA.DIHEDRAL.0>
21.5987

>  <SCORE.INTRA.POLAR>
0

>  <SCORE.INTRA.POLAR.0>
0

>  <SCORE.INTRA.REPUL>
0

>  <SCORE.INTRA.REPUL.0>
0

>  <SCORE.INTRA.SOLV>
2.75163

>  <SCORE.INTRA.SOLV.lig_0>
-108.715

>  <SCORE.INTRA.VDW>
1.88409

>  <SCORE.INTRA.VDW.0>
-3.9485

>  <SCORE.INTRA.norm>
-0.0620857

>  <SCORE.RESTR>
0

>  <SCORE.RESTR.CAVITY>
0

>  <SCORE.RESTR.norm>
0

>  <SCORE.SYSTEM>
0

>  <SCORE.SYSTEM.CONST>
0

>  <SCORE.SYSTEM.DIHEDRAL>
0

>  <SCORE.SYSTEM.SOLV>
0

>  <SCORE.SYSTEM.norm>
0

>  <SCORE.heavy>
37

>  <SCORE.norm>
0.0921993

>  <RMSD>
8.238

$$$$
1o9m_lig
 OpenBabel11021811403D
libRbt.so/2013.1/901 2013/11/27
 37 38  0  0  0  0  0  0  0  0999 V2000
  -11.9931   17.6190    4.6145 C   0  0  2  0  0  0  0  0  0  0  0  0
  -11.1716   18.5710    5.3568 O   0  0  0  0  0  0  0  0  0  0  0  0
  -12.6050   18.4118    3.4015 C   0  0  2  0  0  0  0  0  0  0  0  0
  -11.5648   18.9897    2.5326 N   0  0  0  0  0  0  0  0  0  0  0  0
  -13.5610   19.5374    3.9519 C   0  0  1  0  0  0  0  0  0  0  0  0
  -14.1322   20.2725    2.8661 O   0  0  0  0  0  0  0  0  0  0  0  0
  -14.6511   18.8561    4.8434 C   0  0  2  0  0  0  0  0  0  0  0  0
  -15.5730   19.7987    5.4149 O   0  0  0  0  0  0  0  0  0  0  0  0
  -13.9927   18.0447    5.9865 C   0  0  2  0  0  0  0  0  0  0  0  0
  -13.0641   17.0841    5.4628 O   0  0  0  0  0  0  0  0  0  0  0  0
  -15.0202   17.3320    6.8273 C   0  0  0  0  0  0  0  0  0  0  0  0
  -15.7511   18.2396    7.5563 N   0  0  0  0  0  0  0  0  0  0  0  0
   -7.6157   17.9557    7.7647 C   0  0  1  0  0  0  0  0  0  0  0  0
   -6.7481   17.5242    8.8964 N   0  0  0  0  0  0  0  0  0  0  0  0
   -8.2894   16.7285    7.1659 C   0  0  2  0  0  0  0  0  0  0  0  0
   -7.2880   15.8403    6.7678 O   0  0  0  0  0  0  0  0  0  0  0  0
   -9.1970   17.1315    5.9611 C   0  0  1  0  0  0  0  0  0  0  0  0
   -9.8540   15.9498    5.4094 O   0  0  0  0  0  0  0  0  0  0  0  0
  -10.3072   18.1484    6.4501 C   0  0  1  0  0  0  0  0  0  0  0  0
   -9.6460   19.3878    7.0337 C   0  0  1  0  0  0  0  0  0  0  0  0
  -10.6829   20.3143    7.4627 N   0  0  0  0  0  0  0  0  0  0  0  0
   -8.7284   18.9849    8.2190 C   0  0  0  0  0  0  0  0  0  0  0  0
   -6.1041   15.0176    6.8576 C   0  0  0  0  0  0  0  0  0  0  0  0
   -4.9018   15.9010    7.0996 C   0  0  0  0  0  0  0  0  0  0  0  0
   -3.6095   15.2699    6.7608 N   0  0  0  0  0  0  0  0  0  0  0  0
   -2.4022   14.4143    6.8142 C   0  0  0  0  0  0  0  0  0  0  0  0
   -1.4052   15.5023    7.2328 C   0  0  0  0  0  0  0  0  0  0  0  0
    0.0566   15.0288    7.1271 C   0  0  0  0  0  0  0  0  0  0  0  0
    1.0233   16.1361    7.5353 C   0  0  0  0  0  0  0  0  0  0  0  0
    0.8381   17.3014    6.6821 N   0  0  0  0  0  0  0  0  0  0  0  0
   -4.6984   17.4601   13.2757 N   0  0  0  0  0  0  0  0  0  0  0  0
   -7.6964   16.7655   10.1893 C   0  0  0  0  0  0  0  0  0  0  0  0
   -8.7410   16.5389   10.3362 O   0  0  0  0  0  0  0  0  0  0  0  0
   -6.3862   16.6305   10.9260 C   0  0  2  0  0  0  0  0  0  0  0  0
   -5.7034   15.5103   10.5249 O   0  0  0  0  0  0  0  0  0  0  0  0
   -6.7257   16.4350   12.3995 C   0  0  0  0  0  0  0  0  0  0  0  0
   -5.5430   16.2605   13.3694 C   0  0  0  0  0  0  0  0  0  0  0  0
  1  2  1  1  0  0  0
  1  3  1  0  0  0  0
  3  4  1  1  0  0  0
  3  5  1  0  0  0  0
  5  6  1  6  0  0  0
  5  7  1  0  0  0  0
  7  8  1  1  0  0  0
  9  7  1  0  0  0  0
  9 10  1  0  0  0  0
  9 11  1  6  0  0  0
 10  1  1  0  0  0  0
 11 12  1  0  0  0  0
 13 14  1  1  0  0  0
 13 15  1  0  0  0  0
 13 22  1  0  0  0  0
 14 32  1  0  0  0  0
 15 16  1  6  0  0  0
 15 17  1  0  0  0  0
 16 23  1  0  0  0  0
 17 18  1  1  0  0  0
 17 19  1  0  0  0  0
 19  2  1  6  0  0  0
 19 20  1  0  0  0  0
 20 21  1  1  0  0  0
 20 22  1  0  0  0  0
 23 24  1  0  0  0  0
 24 25  1  0  0  0  0
 25 26  1  0  0  0  0
 26 27  1  0  0  0  0
 27 28  1  0  0  0  0
 28 29  1  0  0  0  0
 29 30  1  0  0  0  0
 31 37  1  0  0  0  0
 32 33  2  0  0  0  0
 34 32  1  6  0  0  0
 34 35  1  0  0  0  0
 34 36  1  0  0  0  0
 36 37  1  0  0  0  0
M  END
>  <CHROM.1>
-171.84460859,-69.26568041,-62.04747407,51.42848245,-63.26823940,61.53795642
-160.30629138,-74.90780101,-105.08914037,-168.79875295,179.39705213,-59.08520608
-83.54128797,179.56987971,59.23940623,-8.49323415,17.31192722,7.20732228
-2.81644843,-0.22730342,1.63850572

>  <Name>
1o9m_lig

>  <RI>
0

>  <Rbt.Current_Directory>
/home/itssahil/PROJECTS/Mol_Feturizer/New_Systems/rnas/1o9m

>  <Rbt.Executable>
rbdock ($Id: //depot/dev/client3/rdock/2013.1/src/exe/rbdock.cxx#4 $)

>  <Rbt.Library>
libRbt.so (2013.1, Build901 2013/11/27)

>  <Rbt.Parameter_File>
/export/apps/rDock/src/rDock_2013.1_src/data/scripts/dock_solv.prm

>  <Rbt.Receptor>
prm/pocket_docking_5.prm

>  <SCORE>
-14.6913

>  <SCORE.INTER>
-7.6454

>  <SCORE.INTER.CONST>
1

>  <SCORE.INTER.POLAR>
-0.680853

>  <SCORE.INTER.ROT>
15

>  <SCORE.INTER.SOLV>
15.4709

>  <SCORE.INTER.VDW>
-21.5844

>  <SCORE.INTER.norm>
-0.206633

>  <SCORE.INTRA>
-7.04589

>  <SCORE.INTRA.DIHEDRAL>
-16.3397

>  <SCORE.INTRA.DIHEDRAL.0>
21.5987

>  <SCORE.INTRA.POLAR>
0

>  <SCORE.INTRA.POLAR.0>
0

>  <SCORE.INTRA.REPUL>
0

>  <SCORE.INTRA.REPUL.0>
0

>  <SCORE.INTRA.SOLV>
2.05019

>  <SCORE.INTRA.SOLV.lig_0>
-108.715

>  <SCORE.INTRA.VDW>
0.0988466

>  <SCORE.INTRA.VDW.0>
-3.9485

>  <SCORE.INTRA.norm>
-0.190429

>  <SCORE.RESTR>
0

>  <SCORE.RESTR.CAVITY>
0

>  <SCORE.RESTR.norm>
0

>  <SCORE.SYSTEM>
0

>  <SCORE.SYSTEM.CONST>
0

>  <SCORE.SYSTEM.DIHEDRAL>
0

>  <SCORE.SYSTEM.SOLV>
0

>  <SCORE.SYSTEM.norm>
0

>  <SCORE.heavy>
37

>  <SCORE.norm>
-0.397062

>  <RMSD>
8.241

$$$$
1o9m_lig
 OpenBabel11021811403D
libRbt.so/2013.1/901 2013/11/27
 37 38  0  0  0  0  0  0  0  0999 V2000
   -8.0240   16.2450   11.0896 C   0  0  2  0  0  0  0  0  0  0  0  0
   -8.2207   17.6918   11.0688 O   0  0  0  0  0  0  0  0  0  0  0  0
   -9.1857   15.6515   11.9686 C   0  0  2  0  0  0  0  0  0  0  0  0
  -10.5165   15.9881   11.4333 N   0  0  0  0  0  0  0  0  0  0  0  0
   -9.0306   16.1740   13.4474 C   0  0  1  0  0  0  0  0  0  0  0  0
  -10.0759   15.6459   14.2683 O   0  0  0  0  0  0  0  0  0  0  0  0
   -7.6108   15.7645   13.9611 C   0  0  2  0  0  0  0  0  0  0  0  0
   -7.3540   16.2085   15.3034 O   0  0  0  0  0  0  0  0  0  0  0  0
   -6.5095   16.3272   13.0290 C   0  0  2  0  0  0  0  0  0  0  0  0
   -6.7216   15.9055   11.6738 O   0  0  0  0  0  0  0  0  0  0  0  0
   -5.1337   15.8996   13.4704 C   0  0  0  0  0  0  0  0  0  0  0  0
   -4.1769   16.4688   12.6643 N   0  0  0  0  0  0  0  0  0  0  0  0
   -5.8383   18.9341    7.6627 C   0  0  1  0  0  0  0  0  0  0  0  0
   -5.1517   19.8222    6.6832 N   0  0  0  0  0  0  0  0  0  0  0  0
   -5.2926   19.2227    9.0547 C   0  0  2  0  0  0  0  0  0  0  0  0
   -3.9107   19.0232    9.0239 O   0  0  0  0  0  0  0  0  0  0  0  0
   -5.9720   18.2994   10.1147 C   0  0  1  0  0  0  0  0  0  0  0  0
   -5.4566   18.6004   11.4475 O   0  0  0  0  0  0  0  0  0  0  0  0
   -7.5358   18.5448   10.1074 C   0  0  1  0  0  0  0  0  0  0  0  0
   -8.0959   18.2414    8.7260 C   0  0  1  0  0  0  0  0  0  0  0  0
   -9.5347   18.4587    8.7455 N   0  0  0  0  0  0  0  0  0  0  0  0
   -7.4064   19.1455    7.6694 C   0  0  0  0  0  0  0  0  0  0  0  0
   -2.5485   18.9589    9.5001 C   0  0  0  0  0  0  0  0  0  0  0  0
   -1.6520   18.4837    8.3798 C   0  0  0  0  0  0  0  0  0  0  0  0
   -1.3956   19.4995    7.3380 N   0  0  0  0  0  0  0  0  0  0  0  0
   -1.5676   20.6390    6.4083 C   0  0  0  0  0  0  0  0  0  0  0  0
   -1.7455   21.7349    7.4669 C   0  0  0  0  0  0  0  0  0  0  0  0
   -1.9089   23.1325    6.8407 C   0  0  0  0  0  0  0  0  0  0  0  0
   -3.2397   23.2522    6.1045 C   0  0  0  0  0  0  0  0  0  0  0  0
   -3.3111   24.5269    5.4043 N   0  0  0  0  0  0  0  0  0  0  0  0
   -3.8670   19.4184    0.9633 N   0  0  0  0  0  0  0  0  0  0  0  0
   -5.4361   19.2915    5.0146 C   0  0  0  0  0  0  0  0  0  0  0  0
   -5.9934   18.4908    4.5538 O   0  0  0  0  0  0  0  0  0  0  0  0
   -4.5469   20.4417    4.6096 C   0  0  2  0  0  0  0  0  0  0  0  0
   -5.2843   21.5607    4.3162 O   0  0  0  0  0  0  0  0  0  0  0  0
   -3.8459   20.0260    3.3210 C   0  0  0  0  0  0  0  0  0  0  0  0
   -4.7338   19.8213    2.0802 C   0  0  0  0  0  0  0  0  0  0  0  0
  1  2  1  1  0  0  0
  1  3  1  0  0  0  0
  3  4  1  6  0  0  0
  3  5  1  0  0  0  0
  5  6  1  1  0  0  0
  5  7  1  0  0  0  0
  7  8  1  1  0  0  0
  9  7  1  0  0  0  0
  9 10  1  0  0  0  0
  9 11  1  1  0  0  0
 10  1  1  0  0  0  0
 11 12  1  0  0  0  0
 13 14  1  6  0  0  0
 13 15  1  0  0  0  0
 13 22  1  0  0  0  0
 14 32  1  0  0  0  0
 15 16  1  6  0  0  0
 15 17  1  0  0  0  0
 16 23  1  0  0  0  0
 17 18  1  1  0  0  0
 17 19  1  0  0  0  0
 19  2  1  1  0  0  0
 19 20  1  0  0  0  0
 20 21  1  1  0  0  0
 20 22  1  0  0  0  0
 23 24  1  0  0  0  0
 24 25  1  0  0  0  0
 25 26  1  0  0  0  0
 26 27  1  0  0  0  0
 27 28  1  0  0  0  0
 28 29  1  0  0  0  0
 29 30  1  0  0  0  0
 31 37  1  0  0  0  0
 32 33  2  0  0  0  0
 34 32  1  6  0  0  0
 34 35  1  0  0  0  0
 34 36  1  0  0  0  0
 36 37  1  0  0  0  0
M  END
>  <CHROM.1>
-165.19056269,-176.99320009,166.33912828,-179.97883867,177.75179226,-52.39836790
74.23586346,-32.96002080,62.79405769,177.97931679,68.76196668,-174.02980225
-94.24116226,65.35412086,-179.60026607,-5.61772722,18.68636316,8.80629686
2.05242094,0.39363166,1.90081772

>  <Name>
1o9m_lig

>  <RI>
0

>  <Rbt.Current_Directory>
/home/itssahil/PROJECTS/Mol_Feturizer/New_Systems/rnas/1o9m

>  <Rbt.Executable>
rbdock ($Id: //depot/dev/client3/rdock/2013.1/src/exe/rbdock.cxx#4 $)

>  <Rbt.Library>
libRbt.so (2013.1, Build901 2013/11/27)

>  <Rbt.Parameter_File>
/export/apps/rDock/src/rDock_2013.1_src/data/scripts/dock_solv.prm

>  <Rbt.Receptor>
prm/pocket_docking_8.prm

>  <SCORE>
-7.78581

>  <SCORE.INTER>
-0.0848342

>  <SCORE.INTER.CONST>
1

>  <SCORE.INTER.POLAR>
-0.942293

>  <SCORE.INTER.ROT>
15

>  <SCORE.INTER.SOLV>
19.8326

>  <SCORE.INTER.VDW>
-17.1265

>  <SCORE.INTER.norm>
-0.00229282

>  <SCORE.INTRA>
-7.70098

>  <SCORE.INTRA.DIHEDRAL>
-16.6256

>  <SCORE.INTRA.DIHEDRAL.0>
21.5987

>  <SCORE.INTRA.POLAR>
0

>  <SCORE.INTRA.POLAR.0>
0

>  <SCORE.INTRA.REPUL>
0

>  <SCORE.INTRA.REPUL.0>
0

>  <SCORE.INTRA.SOLV>
4.28265

>  <SCORE.INTRA.SOLV.lig_0>
-108.715

>  <SCORE.INTRA.VDW>
-1.5295

>  <SCORE.INTRA.VDW.0>
-3.9485

>  <SCORE.INTRA.norm>
-0.208135

>  <SCORE.RESTR>
0

>  <SCORE.RESTR.CAVITY>
0

>  <SCORE.RESTR.norm>
0

>  <SCORE.SYSTEM>
0

>  <SCORE.SYSTEM.CONST>
0

>  <SCORE.SYSTEM.DIHEDRAL>
0

>  <SCORE.SYSTEM.SOLV>
0

>  <SCORE.SYSTEM.norm>
0

>  <SCORE.heavy>
37

>  <SCORE.norm>
-0.210427

>  <RMSD>
8.248

$$$$
1o9m_lig
 OpenBabel11021811403D
libRbt.so/2013.1/901 2013/11/27
 37 38  0  0  0  0  0  0  0  0999 V2000
   -7.6664   19.5565    4.5446 C   0  0  2  0  0  0  0  0  0  0  0  0
   -6.4212   18.7945    4.5782 O   0  0  0  0  0  0  0  0  0  0  0  0
   -7.3425   20.9041    3.8005 C   0  0  2  0  0  0  0  0  0  0  0  0
   -6.8336   20.6782    2.4363 N   0  0  0  0  0  0  0  0  0  0  0  0
   -6.3042   21.7267    4.6543 C   0  0  1  0  0  0  0  0  0  0  0  0
   -5.9943   22.9594    3.9985 O   0  0  0  0  0  0  0  0  0  0  0  0
   -6.9142   21.9507    6.0774 C   0  0  2  0  0  0  0  0  0  0  0  0
   -6.0379   22.6812    6.9511 O   0  0  0  0  0  0  0  0  0  0  0  0
   -7.2657   20.5959    6.7402 C   0  0  2  0  0  0  0  0  0  0  0  0
   -8.1455   19.8303    5.9041 O   0  0  0  0  0  0  0  0  0  0  0  0
   -7.9074   20.7859    8.0903 C   0  0  0  0  0  0  0  0  0  0  0  0
   -8.1429   19.5674    8.6811 N   0  0  0  0  0  0  0  0  0  0  0  0
   -5.7966   14.5187    4.9629 C   0  0  1  0  0  0  0  0  0  0  0  0
   -5.7719   13.0702    4.6155 N   0  0  0  0  0  0  0  0  0  0  0  0
   -4.9265   15.2774    3.9701 C   0  0  2  0  0  0  0  0  0  0  0  0
   -3.6414   14.7334    4.0221 O   0  0  0  0  0  0  0  0  0  0  0  0
   -4.9074   16.8018    4.3072 C   0  0  1  0  0  0  0  0  0  0  0  0
   -4.0879   17.5211    3.3359 O   0  0  0  0  0  0  0  0  0  0  0  0
   -6.3817   17.3757    4.2522 C   0  0  1  0  0  0  0  0  0  0  0  0
   -7.2567   16.6378    5.2541 C   0  0  1  0  0  0  0  0  0  0  0  0
   -8.6018   17.1903    5.1979 N   0  0  0  0  0  0  0  0  0  0  0  0
   -7.2600   15.1197    4.9308 C   0  0  0  0  0  0  0  0  0  0  0  0
   -2.3493   14.3805    4.5630 C   0  0  0  0  0  0  0  0  0  0  0  0
   -1.6574   15.6313    5.0542 C   0  0  0  0  0  0  0  0  0  0  0  0
   -0.4667   15.3750    5.8907 N   0  0  0  0  0  0  0  0  0  0  0  0
    0.7481   15.5777    6.7126 C   0  0  0  0  0  0  0  0  0  0  0  0
    0.5768   14.3572    7.6258 C   0  0  0  0  0  0  0  0  0  0  0  0
   -0.6437   14.4889    8.5560 C   0  0  0  0  0  0  0  0  0  0  0  0
   -0.7355   13.3038    9.5123 C   0  0  0  0  0  0  0  0  0  0  0  0
   -1.8078   13.5188   10.4737 N   0  0  0  0  0  0  0  0  0  0  0  0
   -8.6596   11.6800    1.0781 N   0  0  0  0  0  0  0  0  0  0  0  0
   -6.5373   12.7658    3.0445 C   0  0  0  0  0  0  0  0  0  0  0  0
   -6.9999   13.3824    2.2896 O   0  0  0  0  0  0  0  0  0  0  0  0
   -6.2439   11.3082    3.3033 C   0  0  2  0  0  0  0  0  0  0  0  0
   -4.8931   11.0756    3.3609 O   0  0  0  0  0  0  0  0  0  0  0  0
   -6.7736   10.5308    2.1034 C   0  0  0  0  0  0  0  0  0  0  0  0
   -8.2997   10.5166    1.9016 C   0  0  0  0  0  0  0  0  0  0  0  0
  1  2  1  1  0  0  0
  1  3  1  0  0  0  0
  3  4  1  6  0  0  0
  3  5  1  0  0  0  0
  5  6  1  6  0  0  0
  5  7  1  0  0  0  0
  7  8  1  1  0  0  0
  9  7  1  0  0  0  0
  9 10  1  0  0  0  0
  9 11  1  1  0  0  0
 10  1  1  0  0  0  0
 11 12  1  0  0  0  0
 13 14  1  6  0  0  0
 13 15  1  0  0  0  0
 13 22  1  0  0  0  0
 14 32  1  0  0  0  0
 15 16  1  1  0  0  0
 15 17  1  0  0  0  0
 16 23  1  0  0  0  0
 17 18  1  6  0  0  0
 17 19  1  0  0  0  0
 19  2  1  1  0  0  0
 19 20  1  0  0  0  0
 20 21  1  6  0  0  0
 20 22  1  0  0  0  0
 23 24  1  0  0  0  0
 24 25  1  0  0  0  0
 25 26  1  0  0  0  0
 26 27  1  0  0  0  0
 27 28  1  0  0  0  0
 28 29  1  0  0  0  0
 29 30  1  0  0  0  0
 31 37  1  0  0  0  0
 32 33  2  0  0  0  0
 34 32  1  6  0  0  0
 34 35  1  0  0  0  0
 34 36  1  0  0  0  0
 36 37  1  0  0  0  0
M  END
>  <CHROM.1>
-134.77647971,-176.86846803,-65.60752708,-65.76008120,-55.03362893,177.68350727
167.30287517,176.57484858,149.14317156,-67.39270331,-176.33630265,173.91962367
-64.00048249,-66.71605159,88.83732671,-5.34552365,16.40280637,5.04019596
1.96415610,-0.57986387,0.33532136

>  <Name>
1o9m_lig

>  <RI>
0

>  <Rbt.Current_Directory>
/home/itssahil/PROJECTS/Mol_Feturizer/New_Systems/rnas/1o9m

>  <Rbt.Executable>
rbdock ($Id: //depot/dev/client3/rdock/2013.1/src/exe/rbdock.cxx#4 $)

>  <Rbt.Library>
libRbt.so (2013.1, Build901 2013/11/27)

>  <Rbt.Parameter_File>
/export/apps/rDock/src/rDock_2013.1_src/data/scripts/dock_solv.prm

>  <Rbt.Receptor>
prm/pocket_docking_6.prm

>  <SCORE>
-8.04862

>  <SCORE.INTER>
-6.82607

>  <SCORE.INTER.CONST>
1

>  <SCORE.INTER.POLAR>
-0.937299

>  <SCORE.INTER.ROT>
15

>  <SCORE.INTER.SOLV>
10.0077

>  <SCORE.INTER.VDW>
-18.3623

>  <SCORE.INTER.norm>
-0.184488

>  <SCORE.INTRA>
-1.22377

>  <SCORE.INTRA.DIHEDRAL>
-9.85086

>  <SCORE.INTRA.DIHEDRAL.0>
21.5987

>  <SCORE.INTRA.POLAR>
0

>  <SCORE.INTRA.POLAR.0>
0

>  <SCORE.INTRA.REPUL>
0

>  <SCORE.INTRA.REPUL.0>
0

>  <SCORE.INTRA.SOLV>
4.193

>  <SCORE.INTRA.SOLV.lig_0>
-108.715

>  <SCORE.INTRA.VDW>
1.60516

>  <SCORE.INTRA.VDW.0>
-3.9485

>  <SCORE.INTRA.norm>
-0.0330749

>  <SCORE.RESTR>
0.001222

>  <SCORE.RESTR.CAVITY>
0.001222

>  <SCORE.RESTR.norm>
3.30271e-05

>  <SCORE.SYSTEM>
0

>  <SCORE.SYSTEM.CONST>
0

>  <SCORE.SYSTEM.DIHEDRAL>
0

>  <SCORE.SYSTEM.SOLV>
0

>  <SCORE.SYSTEM.norm>
0

>  <SCORE.heavy>
37

>  <SCORE.norm>
-0.21753

>  <RMSD>
8.255

$$$$
1o9m_lig
 OpenBabel11021811403D
libRbt.so/2013.1/901 2013/11/27
 37 38  0  0  0  0  0  0  0  0999 V2000
  -10.0218   19.3770    7.0544 C   0  0  2  0  0  0  0  0  0  0  0  0
  -10.1233   18.3760    5.9960 O   0  0  0  0  0  0  0  0  0  0  0  0
  -11.4853   19.8854    7.3265 C   0  0  2  0  0  0  0  0  0  0  0  0
  -12.3885   18.7928    7.7285 N   0  0  0  0  0  0  0  0  0  0  0  0
  -12.0266   20.6106    6.0361 C   0  0  1  0  0  0  0  0  0  0  0  0
  -13.3574   21.0844    6.2594 O   0  0  0  0  0  0  0  0  0  0  0  0
  -11.0380   21.7694    5.6792 C   0  0  2  0  0  0  0  0  0  0  0  0
  -11.4286   22.4921    4.5002 O   0  0  0  0  0  0  0  0  0  0  0  0
   -9.6038   21.2210    5.4775 C   0  0  2  0  0  0  0  0  0  0  0  0
   -9.1670   20.4931    6.6345 O   0  0  0  0  0  0  0  0  0  0  0  0
   -8.6206   22.3254    5.1876 C   0  0  0  0  0  0  0  0  0  0  0  0
   -8.5136   23.1640    6.2714 N   0  0  0  0  0  0  0  0  0  0  0  0
   -7.3185   15.5659    4.2476 C   0  0  1  0  0  0  0  0  0  0  0  0
   -6.1095   15.0444    3.5505 N   0  0  0  0  0  0  0  0  0  0  0  0
   -6.8790   16.3284    5.4901 C   0  0  2  0  0  0  0  0  0  0  0  0
   -6.1323   15.4576    6.2865 O   0  0  0  0  0  0  0  0  0  0  0  0
   -8.1175   16.8792    6.2650 C   0  0  1  0  0  0  0  0  0  0  0  0
   -7.6825   17.6265    7.4418 O   0  0  0  0  0  0  0  0  0  0  0  0
   -8.9437   17.8481    5.3246 C   0  0  1  0  0  0  0  0  0  0  0  0
   -9.4047   17.0922    4.0877 C   0  0  1  0  0  0  0  0  0  0  0  0
  -10.1738   17.9960    3.2455 N   0  0  0  0  0  0  0  0  0  0  0  0
   -8.1745   16.5278    3.3279 C   0  0  0  0  0  0  0  0  0  0  0  0
   -5.5237   14.9070    7.4752 C   0  0  0  0  0  0  0  0  0  0  0  0
   -5.0653   16.0370    8.3682 C   0  0  0  0  0  0  0  0  0  0  0  0
   -5.0040   15.6878    9.8025 N   0  0  0  0  0  0  0  0  0  0  0  0
   -4.4914   15.3531   11.1507 C   0  0  0  0  0  0  0  0  0  0  0  0
   -3.7215   16.6561   11.4003 C   0  0  0  0  0  0  0  0  0  0  0  0
   -4.6564   17.8340   11.7331 C   0  0  0  0  0  0  0  0  0  0  0  0
   -3.8680   19.1281   11.9088 C   0  0  0  0  0  0  0  0  0  0  0  0
   -4.7730   20.2280   12.2112 N   0  0  0  0  0  0  0  0  0  0  0  0
   -3.2072   13.8776    6.0539 N   0  0  0  0  0  0  0  0  0  0  0  0
   -5.5221   13.5480    4.3004 C   0  0  0  0  0  0  0  0  0  0  0  0
   -5.8422   12.9328    5.1270 O   0  0  0  0  0  0  0  0  0  0  0  0
   -4.4180   13.5916    3.2725 C   0  0  2  0  0  0  0  0  0  0  0  0
   -3.7496   12.3952    3.2098 O   0  0  0  0  0  0  0  0  0  0  0  0
   -3.4118   14.6335    3.7485 C   0  0  0  0  0  0  0  0  0  0  0  0
   -2.4277   14.1991    4.8497 C   0  0  0  0  0  0  0  0  0  0  0  0
  1  2  1  6  0  0  0
  1  3  1  0  0  0  0
  3  4  1  6  0  0  0
  3  5  1  0  0  0  0
  5  6  1  1  0  0  0
  5  7  1  0  0  0  0
  7  8  1  6  0  0  0
  9  7  1  0  0  0  0
  9 10  1  0  0  0  0
  9 11  1  1  0  0  0
 10  1  1  0  0  0  0
 11 12  1  0  0  0  0
 13 14  1  6  0  0  0
 13 15  1  0  0  0  0
 13 22  1  0  0  0  0
 14 32  1  0  0  0  0
 15 16  1  1  0  0  0
 15 17  1  0  0  0  0
 16 23  1  0  0  0  0
 17 18  1  1  0  0  0
 17 19  1  0  0  0  0
 19  2  1  1  0  0  0
 19 20  1  0  0  0  0
 20 21  1  6  0  0  0
 20 22  1  0  0  0  0
 23 24  1  0  0  0  0
 24 25  1  0  0  0  0
 25 26  1  0  0  0  0
 26 27  1  0  0  0  0
 27 28  1  0  0  0  0
 28 29  1  0  0  0  0
 29 30  1  0  0  0  0
 31 37  1  0  0  0  0
 32 33  2  0  0  0  0
 34 32  1  1  0  0  0
 34 35  1  0  0  0  0
 34 36  1  0  0  0  0
 36 37  1  0  0  0  0
M  END
>  <CHROM.1>
169.45372710,64.54223113,81.08811182,-156.49308661,-36.71237204,72.12532312
153.60259689,107.51963881,61.41475367,75.10856311,-177.23431065,179.52165662
-166.24284134,79.27462430,-63.13932533,-7.36628428,17.48925473,6.43891267
-2.79390965,0.69972275,-2.13999392

>  <Name>
1o9m_lig

>  <RI>
0

>  <Rbt.Current_Directory>
/home/itssahil/PROJECTS/Mol_Feturizer/New_Systems/rnas/1o9m

>  <Rbt.Executable>
rbdock ($Id: //depot/dev/client3/rdock/2013.1/src/exe/rbdock.cxx#4 $)

>  <Rbt.Library>
libRbt.so (2013.1, Build901 2013/11/27)

>  <Rbt.Parameter_File>
/export/apps/rDock/src/rDock_2013.1_src/data/scripts/dock_solv.prm

>  <Rbt.Receptor>
prm/pocket_docking_4.prm

>  <SCORE>
-7.77114

>  <SCORE.INTER>
-7.46686

>  <SCORE.INTER.CONST>
1

>  <SCORE.INTER.POLAR>
-2.55991

>  <SCORE.INTER.ROT>
15

>  <SCORE.INTER.SOLV>
19.6779

>  <SCORE.INTER.VDW>
-16.6042

>  <SCORE.INTER.norm>
-0.201807

>  <SCORE.INTRA>
-0.478035

>  <SCORE.INTRA.DIHEDRAL>
-8.62886

>  <SCORE.INTRA.DIHEDRAL.0>
21.5987

>  <SCORE.INTRA.POLAR>
0

>  <SCORE.INTRA.POLAR.0>
0

>  <SCORE.INTRA.REPUL>
0

>  <SCORE.INTRA.REPUL.0>
0

>  <SCORE.INTRA.SOLV>
7.26837

>  <SCORE.INTRA.SOLV.lig_0>
-108.715

>  <SCORE.INTRA.VDW>
0.202208

>  <SCORE.INTRA.VDW.0>
-3.9485

>  <SCORE.INTRA.norm>
-0.0129199

>  <SCORE.RESTR>
0.173754

>  <SCORE.RESTR.CAVITY>
0.173754

>  <SCORE.RESTR.norm>
0.00469605

>  <SCORE.SYSTEM>
0

>  <SCORE.SYSTEM.CONST>
0

>  <SCORE.SYSTEM.DIHEDRAL>
0

>  <SCORE.SYSTEM.SOLV>
0

>  <SCORE.SYSTEM.norm>
0

>  <SCORE.heavy>
37

>  <SCORE.norm>
-0.210031

>  <RMSD>
8.261

$$$$
1o9m_lig
 OpenBabel11021811403D
libRbt.so/2013.1/901 2013/11/27
 37 38  0  0  0  0  0  0  0  0999 V2000
  -10.9026   20.1607    5.8857 C   0  0  2  0  0  0  0  0  0  0  0  0
  -10.0347   19.4065    6.7858 O   0  0  0  0  0  0  0  0  0  0  0  0
  -11.4212   21.4001    6.7039 C   0  0  2  0  0  0  0  0  0  0  0  0
  -10.3180   22.2456    7.1926 N   0  0  0  0  0  0  0  0  0  0  0  0
  -12.3074   20.8907    7.9034 C   0  0  1  0  0  0  0  0  0  0  0  0
  -12.7932   22.0010    8.6628 O   0  0  0  0  0  0  0  0  0  0  0  0
  -13.4686   20.0227    7.3155 C   0  0  2  0  0  0  0  0  0  0  0  0
  -14.3348   19.4891    8.3303 O   0  0  0  0  0  0  0  0  0  0  0  0
  -12.9031   18.8517    6.4744 C   0  0  2  0  0  0  0  0  0  0  0  0
  -12.0328   19.3371    5.4418 O   0  0  0  0  0  0  0  0  0  0  0  0
  -14.0027   18.0322    5.8500 C   0  0  0  0  0  0  0  0  0  0  0  0
  -14.7226   17.3815    6.8233 N   0  0  0  0  0  0  0  0  0  0  0  0
   -7.0649   16.2736    6.3543 C   0  0  1  0  0  0  0  0  0  0  0  0
   -5.8906   15.5194    5.8332 N   0  0  0  0  0  0  0  0  0  0  0  0
   -6.5950   17.6348    6.8490 C   0  0  2  0  0  0  0  0  0  0  0  0
   -5.6162   17.4235    7.8223 O   0  0  0  0  0  0  0  0  0  0  0  0
   -7.7928   18.4557    7.4228 C   0  0  1  0  0  0  0  0  0  0  0  0
   -7.3335   19.7666    7.8737 O   0  0  0  0  0  0  0  0  0  0  0  0
   -8.8845   18.6601    6.2950 C   0  0  1  0  0  0  0  0  0  0  0  0
   -9.3758   17.3062    5.8057 C   0  0  1  0  0  0  0  0  0  0  0  0
  -10.3880   17.5169    4.7816 N   0  0  0  0  0  0  0  0  0  0  0  0
   -8.1820   16.4823    5.2532 C   0  0  0  0  0  0  0  0  0  0  0  0
   -4.6881   17.7265    8.8869 C   0  0  0  0  0  0  0  0  0  0  0  0
   -5.4494   18.2885   10.0654 C   0  0  0  0  0  0  0  0  0  0  0  0
   -4.5919   18.8813   11.1124 N   0  0  0  0  0  0  0  0  0  0  0  0
   -4.1298   19.4621   12.3937 C   0  0  0  0  0  0  0  0  0  0  0  0
   -3.0989   18.3811   12.7422 C   0  0  0  0  0  0  0  0  0  0  0  0
   -1.8679   18.4264   11.8177 C   0  0  0  0  0  0  0  0  0  0  0  0
   -0.8597   17.3444   12.1923 C   0  0  0  0  0  0  0  0  0  0  0  0
   -1.3722   16.0330   11.8210 N   0  0  0  0  0  0  0  0  0  0  0  0
   -0.6255   14.9502    7.5991 N   0  0  0  0  0  0  0  0  0  0  0  0
   -5.0361   14.6679    7.1339 C   0  0  0  0  0  0  0  0  0  0  0  0
   -5.1772   14.5644    8.1985 O   0  0  0  0  0  0  0  0  0  0  0  0
   -4.0747   14.2157    6.0620 C   0  0  2  0  0  0  0  0  0  0  0  0
   -4.4253   12.9853    5.5668 O   0  0  0  0  0  0  0  0  0  0  0  0
   -2.7142   14.0500    6.7300 C   0  0  0  0  0  0  0  0  0  0  0  0
   -1.9257   15.3370    7.0326 C   0  0  0  0  0  0  0  0  0  0  0  0
  1  2  1  1  0  0  0
  1  3  1  0  0  0  0
  3  4  1  1  0  0  0
  3  5  1  0  0  0  0
  5  6  1  6  0  0  0
  5  7  1  0  0  0  0
  7  8  1  1  0  0  0
  9  7  1  0  0  0  0
  9 10  1  0  0  0  0
  9 11  1  6  0  0  0
 10  1  1  0  0  0  0
 11 12  1  0  0  0  0
 13 14  1  6  0  0  0
 13 15  1  0  0  0  0
 13 22  1  0  0  0  0
 14 32  1  0  0  0  0
 15 16  1  1  0  0  0
 15 17  1  0  0  0  0
 16 23  1  0  0  0  0
 17 18  1  6  0  0  0
 17 19  1  0  0  0  0
 19  2  1  1  0  0  0
 19 20  1  0  0  0  0
 20 21  1  6  0  0  0
 20 22  1  0  0  0  0
 23 24  1  0  0  0  0
 24 25  1  0  0  0  0
 25 26  1  0  0  0  0
 26 27  1  0  0  0  0
 27 28  1  0  0  0  0
 28 29  1  0  0  0  0
 29 30  1  0  0  0  0
 31 37  1  0  0  0  0
 32 33  2  0  0  0  0
 34 32  1  1  0  0  0
 34 35  1  0  0  0  0
 34 36  1  0  0  0  0
 36 37  1  0  0  0  0
M  END
>  <CHROM.1>
-147.89024704,-66.61729428,85.04730054,-169.69117110,59.65882217,155.87093669
-168.62769925,-167.73451624,118.36546819,70.38675746,179.77469070,71.48066455
-94.19945216,-76.79070574,-176.83953367,-7.48152084,17.83245269,7.77045235
-3.09338139,0.41160143,-2.32405508

>  <Name>
1o9m_lig

>  <RI>
0

>  <Rbt.Current_Directory>
/home/itssahil/PROJECTS/Mol_Feturizer/New_Systems/rnas/1o9m

>  <Rbt.Executable>
rbdock ($Id: //depot/dev/client3/rdock/2013.1/src/exe/rbdock.cxx#4 $)

>  <Rbt.Library>
libRbt.so (2013.1, Build901 2013/11/27)

>  <Rbt.Parameter_File>
/export/apps/rDock/src/rDock_2013.1_src/data/scripts/dock_solv.prm

>  <Rbt.Receptor>
prm/pocket_docking_4.prm

>  <SCORE>
-8.63511

>  <SCORE.INTER>
-5.82108

>  <SCORE.INTER.CONST>
1

>  <SCORE.INTER.POLAR>
-2.03355

>  <SCORE.INTER.ROT>
15

>  <SCORE.INTER.SOLV>
14.7564

>  <SCORE.INTER.VDW>
-15.621

>  <SCORE.INTER.norm>
-0.157327

>  <SCORE.INTRA>
-2.81403

>  <SCORE.INTRA.DIHEDRAL>
-8.69771

>  <SCORE.INTRA.DIHEDRAL.0>
21.5987

>  <SCORE.INTRA.POLAR>
0

>  <SCORE.INTRA.POLAR.0>
0

>  <SCORE.INTRA.REPUL>
0

>  <SCORE.INTRA.REPUL.0>
0

>  <SCORE.INTRA.SOLV>
4.001

>  <SCORE.INTRA.SOLV.lig_0>
-108.715

>  <SCORE.INTRA.VDW>
-0.465678

>  <SCORE.INTRA.VDW.0>
-3.9485

>  <SCORE.INTRA.norm>
-0.0760549

>  <SCORE.RESTR>
0

>  <SCORE.RESTR.CAVITY>
0

>  <SCORE.RESTR.norm>
0

>  <SCORE.SYSTEM>
0

>  <SCORE.SYSTEM.CONST>
0

>  <SCORE.SYSTEM.DIHEDRAL>
0

>  <SCORE.SYSTEM.SOLV>
0

>  <SCORE.SYSTEM.norm>
0

>  <SCORE.heavy>
37

>  <SCORE.norm>
-0.233381

>  <RMSD>
8.264

$$$$
1o9m_lig
 OpenBabel11021811403D
libRbt.so/2013.1/901 2013/11/27
 37 38  0  0  0  0  0  0  0  0999 V2000
   -8.5770   19.0044    6.0264 C   0  0  2  0  0  0  0  0  0  0  0  0
   -8.1719   17.7456    6.6456 O   0  0  0  0  0  0  0  0  0  0  0  0
   -8.8855   19.9999    7.2047 C   0  0  2  0  0  0  0  0  0  0  0  0
   -7.7190   20.2030    8.0817 N   0  0  0  0  0  0  0  0  0  0  0  0
  -10.1150   19.4574    8.0282 C   0  0  1  0  0  0  0  0  0  0  0  0
  -10.4168   20.3476    9.1061 O   0  0  0  0  0  0  0  0  0  0  0  0
  -11.3207   19.2872    7.0460 C   0  0  2  0  0  0  0  0  0  0  0  0
  -12.4988   18.7780    7.6924 O   0  0  0  0  0  0  0  0  0  0  0  0
  -10.9440   18.3435    5.8773 C   0  0  2  0  0  0  0  0  0  0  0  0
   -9.7720   18.8149    5.1965 O   0  0  0  0  0  0  0  0  0  0  0  0
  -12.0706   18.2070    4.8860 C   0  0  0  0  0  0  0  0  0  0  0  0
  -13.1520   17.5969    5.4756 N   0  0  0  0  0  0  0  0  0  0  0  0
   -6.3937   14.0182    5.3168 C   0  0  1  0  0  0  0  0  0  0  0  0
   -5.4827   13.0749    4.6100 N   0  0  0  0  0  0  0  0  0  0  0  0
   -5.5636   14.9188    6.2214 C   0  0  2  0  0  0  0  0  0  0  0  0
   -4.8475   14.1025    7.0995 O   0  0  0  0  0  0  0  0  0  0  0  0
   -6.4810   15.9147    6.9987 C   0  0  1  0  0  0  0  0  0  0  0  0
   -5.6719   16.7868    7.8457 O   0  0  0  0  0  0  0  0  0  0  0  0
   -7.2848   16.8093    5.9694 C   0  0  1  0  0  0  0  0  0  0  0  0
   -8.1331   15.9214    5.0718 C   0  0  1  0  0  0  0  0  0  0  0  0
   -8.8740   16.7634    4.1446 N   0  0  0  0  0  0  0  0  0  0  0  0
   -7.2231   14.9181    4.3138 C   0  0  0  0  0  0  0  0  0  0  0  0
   -3.8512   13.7198    8.0730 C   0  0  0  0  0  0  0  0  0  0  0  0
   -3.8681   14.7079    9.2166 C   0  0  0  0  0  0  0  0  0  0  0  0
   -2.9483   14.3693   10.3222 N   0  0  0  0  0  0  0  0  0  0  0  0
   -2.3601   13.7256   11.5188 C   0  0  0  0  0  0  0  0  0  0  0  0
   -0.8887   14.0204   11.2008 C   0  0  0  0  0  0  0  0  0  0  0  0
   -0.5470   15.5154   11.3445 C   0  0  0  0  0  0  0  0  0  0  0  0
    0.9076   15.7844   10.9717 C   0  0  0  0  0  0  0  0  0  0  0  0
    1.2018   17.2049   11.0978 N   0  0  0  0  0  0  0  0  0  0  0  0
   -5.6588    9.9824    2.7303 N   0  0  0  0  0  0  0  0  0  0  0  0
   -4.2918   13.9405    3.6205 C   0  0  0  0  0  0  0  0  0  0  0  0
   -4.0731   14.9788    3.4253 O   0  0  0  0  0  0  0  0  0  0  0  0
   -3.7960   12.5749    3.2120 C   0  0  2  0  0  0  0  0  0  0  0  0
   -2.5143   12.6360    2.7266 O   0  0  0  0  0  0  0  0  0  0  0  0
   -4.6809   12.1094    2.0610 C   0  0  0  0  0  0  0  0  0  0  0  0
   -4.7197   10.5962    1.7804 C   0  0  0  0  0  0  0  0  0  0  0  0
  1  2  1  1  0  0  0
  1  3  1  0  0  0  0
  3  4  1  1  0  0  0
  3  5  1  0  0  0  0
  5  6  1  1  0  0  0
  5  7  1  0  0  0  0
  7  8  1  1  0  0  0
  9  7  1  0  0  0  0
  9 10  1  0  0  0  0
  9 11  1  6  0  0  0
 10  1  1  0  0  0  0
 11 12  1  0  0  0  0
 13 14  1  6  0  0  0
 13 15  1  0  0  0  0
 13 22  1  0  0  0  0
 14 32  1  0  0  0  0
 15 16  1  1  0  0  0
 15 17  1  0  0  0  0
 16 23  1  0  0  0  0
 17 18  1  1  0  0  0
 17 19  1  0  0  0  0
 19  2  1  1  0  0  0
 19 20  1  0  0  0  0
 20 21  1  6  0  0  0
 20 22  1  0  0  0  0
 23 24  1  0  0  0  0
 24 25  1  0  0  0  0
 25 26  1  0  0  0  0
 26 27  1  0  0  0  0
 27 28  1  0  0  0  0
 28 29  1  0  0  0  0
 29 30  1  0  0  0  0
 31 37  1  0  0  0  0
 32 33  2  0  0  0  0
 34 32  1  6  0  0  0
 34 35  1  0  0  0  0
 34 36  1  0  0  0  0
 36 37  1  0  0  0  0
M  END
>  <CHROM.1>
-152.80647030,-64.69098414,-59.91129580,165.37122873,50.17320619,153.81843872
176.18090923,-76.20952870,154.29378947,70.38666367,-177.87526005,179.23849702
-159.64741185,-159.47306590,81.23870569,-6.26328472,15.87395452,6.55592605
-2.96738394,0.50042026,-2.20921561

>  <Name>
1o9m_lig

>  <RI>
0

>  <Rbt.Current_Directory>
/home/itssahil/PROJECTS/Mol_Feturizer/New_Systems/rnas/1o9m

>  <Rbt.Executable>
rbdock ($Id: //depot/dev/client3/rdock/2013.1/src/exe/rbdock.cxx#4 $)

>  <Rbt.Library>
libRbt.so (2013.1, Build901 2013/11/27)

>  <Rbt.Parameter_File>
/export/apps/rDock/src/rDock_2013.1_src/data/scripts/dock_solv.prm

>  <Rbt.Receptor>
prm/pocket_docking_5.prm

>  <SCORE>
-9.24574

>  <SCORE.INTER>
-7.68651

>  <SCORE.INTER.CONST>
1

>  <SCORE.INTER.POLAR>
-1.81094

>  <SCORE.INTER.ROT>
15

>  <SCORE.INTER.SOLV>
18.4117

>  <SCORE.INTER.VDW>
-18.8251

>  <SCORE.INTER.norm>
-0.207743

>  <SCORE.INTRA>
-1.55924

>  <SCORE.INTRA.DIHEDRAL>
-8.65753

>  <SCORE.INTRA.DIHEDRAL.0>
21.5987

>  <SCORE.INTRA.POLAR>
0

>  <SCORE.INTRA.POLAR.0>
0

>  <SCORE.INTRA.REPUL>
0

>  <SCORE.INTRA.REPUL.0>
0

>  <SCORE.INTRA.SOLV>
4.45691

>  <SCORE.INTRA.SOLV.lig_0>
-108.715

>  <SCORE.INTRA.VDW>
0.541075

>  <SCORE.INTRA.VDW.0>
-3.9485

>  <SCORE.INTRA.norm>
-0.0421416

>  <SCORE.RESTR>
0

>  <SCORE.RESTR.CAVITY>
0

>  <SCORE.RESTR.norm>
0

>  <SCORE.SYSTEM>
0

>  <SCORE.SYSTEM.CONST>
0

>  <SCORE.SYSTEM.DIHEDRAL>
0

>  <SCORE.SYSTEM.SOLV>
0

>  <SCORE.SYSTEM.norm>
0

>  <SCORE.heavy>
37

>  <SCORE.norm>
-0.249885

>  <RMSD>
8.266

$$$$
1o9m_lig
 OpenBabel11021811403D
libRbt.so/2013.1/901 2013/11/27
 37 38  0  0  0  0  0  0  0  0999 V2000
   -9.1576   19.3278    5.7413 C   0  0  2  0  0  0  0  0  0  0  0  0
   -8.4778   18.2375    6.4351 O   0  0  0  0  0  0  0  0  0  0  0  0
   -9.5337   20.3879    6.8409 C   0  0  2  0  0  0  0  0  0  0  0  0
   -8.3491   20.8876    7.5607 N   0  0  0  0  0  0  0  0  0  0  0  0
  -10.5658   19.7452    7.8437 C   0  0  1  0  0  0  0  0  0  0  0  0
  -10.9254   20.6917    8.8538 O   0  0  0  0  0  0  0  0  0  0  0  0
  -11.8043   19.2588    7.0209 C   0  0  2  0  0  0  0  0  0  0  0  0
  -12.8081   18.6365    7.8395 O   0  0  0  0  0  0  0  0  0  0  0  0
  -11.3699   18.2620    5.9181 C   0  0  2  0  0  0  0  0  0  0  0  0
  -10.3683   18.8422    5.0698 O   0  0  0  0  0  0  0  0  0  0  0  0
  -12.5378   17.8209    5.0742 C   0  0  0  0  0  0  0  0  0  0  0  0
  -13.1118   18.9041    4.4525 N   0  0  0  0  0  0  0  0  0  0  0  0
   -6.2107   14.6905    5.3865 C   0  0  1  0  0  0  0  0  0  0  0  0
   -5.2598   13.7986    4.6655 N   0  0  0  0  0  0  0  0  0  0  0  0
   -5.4445   15.8880    5.9318 C   0  0  2  0  0  0  0  0  0  0  0  0
   -4.4268   15.4065    6.7579 O   0  0  0  0  0  0  0  0  0  0  0  0
   -6.4003   16.8437    6.7133 C   0  0  1  0  0  0  0  0  0  0  0  0
   -5.6586   17.9984    7.2124 O   0  0  0  0  0  0  0  0  0  0  0  0
   -7.5459   17.3544    5.7476 C   0  0  1  0  0  0  0  0  0  0  0  0
   -8.3310   16.1673    5.2108 C   0  0  1  0  0  0  0  0  0  0  0  0
   -9.3868   16.6593    4.3385 N   0  0  0  0  0  0  0  0  0  0  0  0
   -7.3773   15.2071    4.4506 C   0  0  0  0  0  0  0  0  0  0  0  0
   -3.4149   14.5086    7.2644 C   0  0  0  0  0  0  0  0  0  0  0  0
   -3.9874   13.7117    8.4140 C   0  0  0  0  0  0  0  0  0  0  0  0
   -4.3514   14.5256    9.5921 N   0  0  0  0  0  0  0  0  0  0  0  0
   -4.2623   15.3126   10.8432 C   0  0  0  0  0  0  0  0  0  0  0  0
   -5.3315   16.3570   10.4983 C   0  0  0  0  0  0  0  0  0  0  0  0
   -5.5736   17.3495   11.6509 C   0  0  0  0  0  0  0  0  0  0  0  0
   -6.2733   16.6692   12.8235 C   0  0  0  0  0  0  0  0  0  0  0  0
   -6.3349   17.5741   13.9625 N   0  0  0  0  0  0  0  0  0  0  0  0
   -5.8185    9.4892    0.7030 N   0  0  0  0  0  0  0  0  0  0  0  0
   -6.1108   12.5026    3.8037 C   0  0  0  0  0  0  0  0  0  0  0  0
   -7.1451   12.2235    3.6755 O   0  0  0  0  0  0  0  0  0  0  0  0
   -4.7410   12.0215    3.3919 C   0  0  2  0  0  0  0  0  0  0  0  0
   -4.1361   12.9121    2.5417 O   0  0  0  0  0  0  0  0  0  0  0  0
   -4.9435   10.7308    2.6061 C   0  0  0  0  0  0  0  0  0  0  0  0
   -5.7810   10.8241    1.3178 C   0  0  0  0  0  0  0  0  0  0  0  0
  1  2  1  1  0  0  0
  1  3  1  0  0  0  0
  3  4  1  1  0  0  0
  3  5  1  0  0  0  0
  5  6  1  1  0  0  0
  5  7  1  0  0  0  0
  7  8  1  1  0  0  0
  9  7  1  0  0  0  0
  9 10  1  0  0  0  0
  9 11  1  6  0  0  0
 10  1  1  0  0  0  0
 11 12  1  0  0  0  0
 13 14  1  6  0  0  0
 13 15  1  0  0  0  0
 13 22  1  0  0  0  0
 14 32  1  0  0  0  0
 15 16  1  1  0  0  0
 15 17  1  0  0  0  0
 16 23  1  0  0  0  0
 17 18  1  6  0  0  0
 17 19  1  0  0  0  0
 19  2  1  1  0  0  0
 19 20  1  0  0  0  0
 20 21  1  6  0  0  0
 20 22  1  0  0  0  0
 23 24  1  0  0  0  0
 24 25  1  0  0  0  0
 25 26  1  0  0  0  0
 26 27  1  0  0  0  0
 27 28  1  0  0  0  0
 28 29  1  0  0  0  0
 29 30  1  0  0  0  0
 31 37  1  0  0  0  0
 32 33  2  0  0  0  0
 34 32  1  6  0  0  0
 34 35  1  0  0  0  0
 34 36  1  0  0  0  0
 36 37  1  0  0  0  0
M  END
>  <CHROM.1>
-155.63634126,60.41720116,-171.83573860,30.24603399,-98.23087538,148.39377942
-64.55866498,-79.72152404,143.21990426,177.10451952,-70.11441634,172.60490395
-67.26293464,60.83755822,178.41923820,-7.38953890,16.16691718,6.44478263
2.25444307,-0.63989418,1.02016861

>  <Name>
1o9m_lig

>  <RI>
0

>  <Rbt.Current_Directory>
/home/itssahil/PROJECTS/Mol_Feturizer/New_Systems/rnas/1o9m

>  <Rbt.Executable>
rbdock ($Id: //depot/dev/client3/rdock/2013.1/src/exe/rbdock.cxx#4 $)

>  <Rbt.Library>
libRbt.so (2013.1, Build901 2013/11/27)

>  <Rbt.Parameter_File>
/export/apps/rDock/src/rDock_2013.1_src/data/scripts/dock_solv.prm

>  <Rbt.Receptor>
prm/pocket_docking_5.prm

>  <SCORE>
-9.32807

>  <SCORE.INTER>
-10.5104

>  <SCORE.INTER.CONST>
1

>  <SCORE.INTER.POLAR>
-1.61911

>  <SCORE.INTER.ROT>
15

>  <SCORE.INTER.SOLV>
19.4697

>  <SCORE.INTER.VDW>
-21.6998

>  <SCORE.INTER.norm>
-0.284066

>  <SCORE.INTRA>
1.18236

>  <SCORE.INTRA.DIHEDRAL>
-3.75934

>  <SCORE.INTRA.DIHEDRAL.0>
21.5987

>  <SCORE.INTRA.POLAR>
0

>  <SCORE.INTRA.POLAR.0>
0

>  <SCORE.INTRA.REPUL>
0

>  <SCORE.INTRA.REPUL.0>
0

>  <SCORE.INTRA.SOLV>
4.24552

>  <SCORE.INTRA.SOLV.lig_0>
-108.715

>  <SCORE.INTRA.VDW>
0.939275

>  <SCORE.INTRA.VDW.0>
-3.9485

>  <SCORE.INTRA.norm>
0.0319558

>  <SCORE.RESTR>
0

>  <SCORE.RESTR.CAVITY>
0

>  <SCORE.RESTR.norm>
0

>  <SCORE.SYSTEM>
0

>  <SCORE.SYSTEM.CONST>
0

>  <SCORE.SYSTEM.DIHEDRAL>
0

>  <SCORE.SYSTEM.SOLV>
0

>  <SCORE.SYSTEM.norm>
0

>  <SCORE.heavy>
37

>  <SCORE.norm>
-0.25211

>  <RMSD>
8.273

$$$$
1o9m_lig
 OpenBabel11021811403D
libRbt.so/2013.1/901 2013/11/27
 37 38  0  0  0  0  0  0  0  0999 V2000
  -10.6477   20.5485    7.9838 C   0  0  2  0  0  0  0  0  0  0  0  0
  -10.5836   19.4038    7.0796 O   0  0  0  0  0  0  0  0  0  0  0  0
  -12.1299   21.0729    7.9321 C   0  0  2  0  0  0  0  0  0  0  0  0
  -13.1004   20.0389    8.3320 N   0  0  0  0  0  0  0  0  0  0  0  0
  -12.4401   21.5969    6.4784 C   0  0  1  0  0  0  0  0  0  0  0  0
  -13.7837   22.0815    6.4060 O   0  0  0  0  0  0  0  0  0  0  0  0
  -11.3920   22.7040    6.1270 C   0  0  2  0  0  0  0  0  0  0  0  0
  -11.5721   23.2435    4.8074 O   0  0  0  0  0  0  0  0  0  0  0  0
   -9.9510   22.1499    6.2484 C   0  0  2  0  0  0  0  0  0  0  0  0
   -9.7216   21.6026    7.5549 O   0  0  0  0  0  0  0  0  0  0  0  0
   -8.9200   23.2128    5.9694 C   0  0  0  0  0  0  0  0  0  0  0  0
   -8.8909   23.5069    4.6270 N   0  0  0  0  0  0  0  0  0  0  0  0
   -7.6869   16.1743    7.0818 C   0  0  1  0  0  0  0  0  0  0  0  0
   -6.4174   15.4316    6.8446 N   0  0  0  0  0  0  0  0  0  0  0  0
   -7.3885   17.3970    7.9388 C   0  0  2  0  0  0  0  0  0  0  0  0
   -6.7934   16.9566    9.1228 O   0  0  0  0  0  0  0  0  0  0  0  0
   -8.6967   18.1983    8.2294 C   0  0  1  0  0  0  0  0  0  0  0  0
   -8.3945   19.3795    9.0331 O   0  0  0  0  0  0  0  0  0  0  0  0
   -9.3469   18.6656    6.8639 C   0  0  1  0  0  0  0  0  0  0  0  0
   -9.6671   17.4508    6.0063 C   0  0  1  0  0  0  0  0  0  0  0  0
  -10.2768   17.9013    4.7641 N   0  0  0  0  0  0  0  0  0  0  0  0
   -8.3698   16.6433    5.7337 C   0  0  0  0  0  0  0  0  0  0  0  0
   -6.0948   17.0248   10.3853 C   0  0  0  0  0  0  0  0  0  0  0  0
   -6.6619   18.1597   11.2068 C   0  0  0  0  0  0  0  0  0  0  0  0
   -6.2729   19.5035   10.7317 N   0  0  0  0  0  0  0  0  0  0  0  0
   -6.1656   20.9742   10.5970 C   0  0  0  0  0  0  0  0  0  0  0  0
   -4.9063   21.0028    9.7217 C   0  0  0  0  0  0  0  0  0  0  0  0
   -3.6144   20.8754   10.5505 C   0  0  0  0  0  0  0  0  0  0  0  0
   -3.3499   19.4230   10.9352 C   0  0  0  0  0  0  0  0  0  0  0  0
   -2.1088   19.3237   11.6902 N   0  0  0  0  0  0  0  0  0  0  0  0
   -4.0635   12.7533    3.1787 N   0  0  0  0  0  0  0  0  0  0  0  0
   -5.1870   16.4697    6.0994 C   0  0  0  0  0  0  0  0  0  0  0  0
   -5.1453   17.5034    5.7935 O   0  0  0  0  0  0  0  0  0  0  0  0
   -4.3057   15.2445    6.0996 C   0  0  2  0  0  0  0  0  0  0  0  0
   -2.9779   15.5873    6.1383 O   0  0  0  0  0  0  0  0  0  0  0  0
   -4.5381   14.5328    4.7714 C   0  0  0  0  0  0  0  0  0  0  0  0
   -3.7699   13.2186    4.5419 C   0  0  0  0  0  0  0  0  0  0  0  0
  1  2  1  6  0  0  0
  1  3  1  0  0  0  0
  3  4  1  6  0  0  0
  3  5  1  0  0  0  0
  5  6  1  1  0  0  0
  5  7  1  0  0  0  0
  7  8  1  6  0  0  0
  9  7  1  0  0  0  0
  9 10  1  0  0  0  0
  9 11  1  1  0  0  0
 10  1  1  0  0  0  0
 11 12  1  0  0  0  0
 13 14  1  6  0  0  0
 13 15  1  0  0  0  0
 13 22  1  0  0  0  0
 14 32  1  0  0  0  0
 15 16  1  1  0  0  0
 15 17  1  0  0  0  0
 16 23  1  0  0  0  0
 17 18  1  1  0  0  0
 17 19  1  0  0  0  0
 19  2  1  1  0  0  0
 19 20  1  0  0  0  0
 20 21  1  6  0  0  0
 20 22  1  0  0  0  0
 23 24  1  0  0  0  0
 24 25  1  0  0  0  0
 25 26  1  0  0  0  0
 26 27  1  0  0  0  0
 27 28  1  0  0  0  0
 28 29  1  0  0  0  0
 29 30  1  0  0  0  0
 31 37  1  0  0  0  0
 32 33  2  0  0  0  0
 34 32  1  6  0  0  0
 34 35  1  0  0  0  0
 34 36  1  0  0  0  0
 36 37  1  0  0  0  0
M  END
>  <CHROM.1>
179.44353063,-72.55199372,-56.37273573,169.03385677,44.74837197,52.58036263
-73.44262537,176.32095277,164.23218519,-82.49799092,79.57335089,178.66938864
-153.36187386,-178.50365380,-176.13230998,-7.71272205,18.85738215,7.39603841
-2.70571386,0.55625734,-2.36754601

>  <Name>
1o9m_lig

>  <RI>
0

>  <Rbt.Current_Directory>
/home/itssahil/PROJECTS/Mol_Feturizer/New_Systems/rnas/1o9m

>  <Rbt.Executable>
rbdock ($Id: //depot/dev/client3/rdock/2013.1/src/exe/rbdock.cxx#4 $)

>  <Rbt.Library>
libRbt.so (2013.1, Build901 2013/11/27)

>  <Rbt.Parameter_File>
/export/apps/rDock/src/rDock_2013.1_src/data/scripts/dock_solv.prm

>  <Rbt.Receptor>
prm/pocket_docking_4.prm

>  <SCORE>
-9.86092

>  <SCORE.INTER>
-3.8996

>  <SCORE.INTER.CONST>
1

>  <SCORE.INTER.POLAR>
-1.17314

>  <SCORE.INTER.ROT>
15

>  <SCORE.INTER.SOLV>
12.6651

>  <SCORE.INTER.VDW>
-16.511

>  <SCORE.INTER.norm>
-0.105395

>  <SCORE.INTRA>
-5.96132

>  <SCORE.INTRA.DIHEDRAL>
-13.3263

>  <SCORE.INTRA.DIHEDRAL.0>
21.5987

>  <SCORE.INTRA.POLAR>
0

>  <SCORE.INTRA.POLAR.0>
0

>  <SCORE.INTRA.REPUL>
0

>  <SCORE.INTRA.REPUL.0>
0

>  <SCORE.INTRA.SOLV>
1.79327

>  <SCORE.INTRA.SOLV.lig_0>
-108.715

>  <SCORE.INTRA.VDW>
-0.194792

>  <SCORE.INTRA.VDW.0>
-3.9485

>  <SCORE.INTRA.norm>
-0.161117

>  <SCORE.RESTR>
0

>  <SCORE.RESTR.CAVITY>
0

>  <SCORE.RESTR.norm>
0

>  <SCORE.SYSTEM>
0

>  <SCORE.SYSTEM.CONST>
0

>  <SCORE.SYSTEM.DIHEDRAL>
0

>  <SCORE.SYSTEM.SOLV>
0

>  <SCORE.SYSTEM.norm>
0

>  <SCORE.heavy>
37

>  <SCORE.norm>
-0.266511

>  <RMSD>
8.281

$$$$
1o9m_lig
 OpenBabel11021811403D
libRbt.so/2013.1/901 2013/11/27
 37 38  0  0  0  0  0  0  0  0999 V2000
   -0.8154   19.1857    5.0439 C   0  0  2  0  0  0  0  0  0  0  0  0
   -0.3508   17.9938    4.3398 O   0  0  0  0  0  0  0  0  0  0  0  0
    0.4367   20.1250    5.2009 C   0  0  2  0  0  0  0  0  0  0  0  0
    1.0281   20.4861    3.9006 N   0  0  0  0  0  0  0  0  0  0  0  0
    1.5014   19.4140    6.1201 C   0  0  1  0  0  0  0  0  0  0  0  0
    2.6506   20.2503    6.2798 O   0  0  0  0  0  0  0  0  0  0  0  0
    0.8178   19.0804    7.4871 C   0  0  2  0  0  0  0  0  0  0  0  0
    1.6996   18.4100    8.4025 O   0  0  0  0  0  0  0  0  0  0  0  0
   -0.4388   18.2018    7.2692 C   0  0  2  0  0  0  0  0  0  0  0  0
   -1.3541   18.8339    6.3625 O   0  0  0  0  0  0  0  0  0  0  0  0
   -1.1483   17.9125    8.5667 C   0  0  0  0  0  0  0  0  0  0  0  0
   -2.2467   17.1175    8.3415 N   0  0  0  0  0  0  0  0  0  0  0  0
   -3.6927   15.2553    4.7307 C   0  0  1  0  0  0  0  0  0  0  0  0
   -4.5705   14.0745    4.4966 N   0  0  0  0  0  0  0  0  0  0  0  0
   -2.3191   14.7674    5.1707 C   0  0  2  0  0  0  0  0  0  0  0  0
   -2.4874   13.9864    6.3161 O   0  0  0  0  0  0  0  0  0  0  0  0
   -1.3682   15.9747    5.4462 C   0  0  1  0  0  0  0  0  0  0  0  0
   -0.0485   15.4940    5.8461 O   0  0  0  0  0  0  0  0  0  0  0  0
   -1.2161   16.8412    4.1303 C   0  0  1  0  0  0  0  0  0  0  0  0
   -2.5805   17.3504    3.6911 C   0  0  1  0  0  0  0  0  0  0  0  0
   -2.4161   18.1557    2.4902 N   0  0  0  0  0  0  0  0  0  0  0  0
   -3.5319   16.1508    3.4361 C   0  0  0  0  0  0  0  0  0  0  0  0
   -2.6625   13.6658    7.7136 C   0  0  0  0  0  0  0  0  0  0  0  0
   -4.0207   14.1486    8.1682 C   0  0  0  0  0  0  0  0  0  0  0  0
   -4.3045   13.8988    9.5965 N   0  0  0  0  0  0  0  0  0  0  0  0
   -4.3620   13.2600   10.9311 C   0  0  0  0  0  0  0  0  0  0  0  0
   -3.7029   14.3955   11.7242 C   0  0  0  0  0  0  0  0  0  0  0  0
   -3.5528   14.0552   13.2188 C   0  0  0  0  0  0  0  0  0  0  0  0
   -2.8192   15.1660   13.9639 C   0  0  0  0  0  0  0  0  0  0  0  0
   -1.4386   15.2467   13.5084 N   0  0  0  0  0  0  0  0  0  0  0  0
   -6.6042   11.0873    0.9103 N   0  0  0  0  0  0  0  0  0  0  0  0
   -3.8931   12.9962    3.2616 C   0  0  0  0  0  0  0  0  0  0  0  0
   -2.9987   12.9949    2.6583 O   0  0  0  0  0  0  0  0  0  0  0  0
   -5.1317   12.1584    3.4655 C   0  0  2  0  0  0  0  0  0  0  0  0
   -5.2724   11.7909    4.7797 O   0  0  0  0  0  0  0  0  0  0  0  0
   -4.9329   10.8742    2.6681 C   0  0  0  0  0  0  0  0  0  0  0  0
   -5.1593   10.9566    1.1476 C   0  0  0  0  0  0  0  0  0  0  0  0
  1  2  1  1  0  0  0
  1  3  1  0  0  0  0
  3  4  1  6  0  0  0
  3  5  1  0  0  0  0
  5  6  1  1  0  0  0
  5  7  1  0  0  0  0
  7  8  1  1  0  0  0
  9  7  1  0  0  0  0
  9 10  1  0  0  0  0
  9 11  1  1  0  0  0
 10  1  1  0  0  0  0
 11 12  1  0  0  0  0
 13 14  1  6  0  0  0
 13 15  1  0  0  0  0
 13 22  1  0  0  0  0
 14 32  1  0  0  0  0
 15 16  1  1  0  0  0
 15 17  1  0  0  0  0
 16 23  1  0  0  0  0
 17 18  1  6  0  0  0
 17 19  1  0  0  0  0
 19  2  1  1  0  0  0
 19 20  1  0  0  0  0
 20 21  1  6  0  0  0
 20 22  1  0  0  0  0
 23 24  1  0  0  0  0
 24 25  1  0  0  0  0
 25 26  1  0  0  0  0
 26 27  1  0  0  0  0
 27 28  1  0  0  0  0
 28 29  1  0  0  0  0
 29 30  1  0  0  0  0
 31 37  1  0  0  0  0
 32 33  2  0  0  0  0
 34 32  1  1  0  0  0
 34 35  1  0  0  0  0
 34 36  1  0  0  0  0
 36 37  1  0  0  0  0
M  END
>  <CHROM.1>
173.98942997,-179.19363439,-58.78981316,-82.44263801,67.57278564,-76.84346443
-178.85336406,-37.78101520,123.60562619,-178.44847297,176.55639577,-66.67092572
-56.15052620,-78.26326043,-72.27459583,-2.22699043,15.71893750,6.25133086
-0.53942630,-0.91106873,-1.52534090

>  <Name>
1o9m_lig

>  <RI>
0

>  <Rbt.Current_Directory>
/home/itssahil/PROJECTS/Mol_Feturizer/New_Systems/rnas/1o9m

>  <Rbt.Executable>
rbdock ($Id: //depot/dev/client3/rdock/2013.1/src/exe/rbdock.cxx#4 $)

>  <Rbt.Library>
libRbt.so (2013.1, Build901 2013/11/27)

>  <Rbt.Parameter_File>
/export/apps/rDock/src/rDock_2013.1_src/data/scripts/dock_solv.prm

>  <Rbt.Receptor>
prm/pocket_docking_8.prm

>  <SCORE>
-11.9055

>  <SCORE.INTER>
-7.94045

>  <SCORE.INTER.CONST>
1

>  <SCORE.INTER.POLAR>
-1.61324

>  <SCORE.INTER.ROT>
15

>  <SCORE.INTER.SOLV>
10.4351

>  <SCORE.INTER.VDW>
-16.9946

>  <SCORE.INTER.norm>
-0.214607

>  <SCORE.INTRA>
-3.97528

>  <SCORE.INTRA.DIHEDRAL>
-13.2979

>  <SCORE.INTRA.DIHEDRAL.0>
21.5987

>  <SCORE.INTRA.POLAR>
0

>  <SCORE.INTRA.POLAR.0>
0

>  <SCORE.INTRA.REPUL>
0

>  <SCORE.INTRA.REPUL.0>
0

>  <SCORE.INTRA.SOLV>
5.89612

>  <SCORE.INTRA.SOLV.lig_0>
-108.715

>  <SCORE.INTRA.VDW>
-0.274397

>  <SCORE.INTRA.VDW.0>
-3.9485

>  <SCORE.INTRA.norm>
-0.10744

>  <SCORE.RESTR>
0.0102327

>  <SCORE.RESTR.CAVITY>
0.0102327

>  <SCORE.RESTR.norm>
0.00027656

>  <SCORE.SYSTEM>
0

>  <SCORE.SYSTEM.CONST>
0

>  <SCORE.SYSTEM.DIHEDRAL>
0

>  <SCORE.SYSTEM.SOLV>
0

>  <SCORE.SYSTEM.norm>
0

>  <SCORE.heavy>
37

>  <SCORE.norm>
-0.32177

>  <RMSD>
8.293

$$$$
1o9m_lig
 OpenBabel11021811403D
libRbt.so/2013.1/901 2013/11/27
 37 38  0  0  0  0  0  0  0  0999 V2000
  -11.3483   19.2738    6.7334 C   0  0  2  0  0  0  0  0  0  0  0  0
  -11.0370   18.0789    5.9540 O   0  0  0  0  0  0  0  0  0  0  0  0
  -12.9107   19.2908    6.9153 C   0  0  2  0  0  0  0  0  0  0  0  0
  -13.4048   18.0816    7.5970 N   0  0  0  0  0  0  0  0  0  0  0  0
  -13.5916   19.4529    5.5033 C   0  0  1  0  0  0  0  0  0  0  0  0
  -15.0149   19.4729    5.6425 O   0  0  0  0  0  0  0  0  0  0  0  0
  -13.0429   20.7626    4.8467 C   0  0  2  0  0  0  0  0  0  0  0  0
  -13.5883   21.0014    3.5389 O   0  0  0  0  0  0  0  0  0  0  0  0
  -11.4984   20.7160    4.7435 C   0  0  2  0  0  0  0  0  0  0  0  0
  -10.9065   20.4833    6.0299 O   0  0  0  0  0  0  0  0  0  0  0  0
  -10.9398   21.9905    4.1653 C   0  0  0  0  0  0  0  0  0  0  0  0
   -9.5764   21.8908    4.0225 N   0  0  0  0  0  0  0  0  0  0  0  0
   -7.4765   15.9099    4.7544 C   0  0  1  0  0  0  0  0  0  0  0  0
   -6.0980   15.6489    4.2531 N   0  0  0  0  0  0  0  0  0  0  0  0
   -7.3902   16.7854    5.9972 C   0  0  2  0  0  0  0  0  0  0  0  0
   -6.5931   16.1239    6.9339 O   0  0  0  0  0  0  0  0  0  0  0  0
   -8.8144   17.0705    6.5699 C   0  0  1  0  0  0  0  0  0  0  0  0
   -8.7200   17.9283    7.7479 O   0  0  0  0  0  0  0  0  0  0  0  0
   -9.6891   17.8060    5.4746 C   0  0  1  0  0  0  0  0  0  0  0  0
   -9.7985   16.9323    4.2342 C   0  0  1  0  0  0  0  0  0  0  0  0
  -10.6178   17.6196    3.2474 N   0  0  0  0  0  0  0  0  0  0  0  0
   -8.3814   16.6325    3.6762 C   0  0  0  0  0  0  0  0  0  0  0  0
   -5.3959   15.6374    7.5793 C   0  0  0  0  0  0  0  0  0  0  0  0
   -4.6774   16.7956    8.2325 C   0  0  0  0  0  0  0  0  0  0  0  0
   -5.3744   17.3536    9.4096 N   0  0  0  0  0  0  0  0  0  0  0  0
   -6.1680   17.4671   10.6545 C   0  0  0  0  0  0  0  0  0  0  0  0
   -5.7197   18.8802   11.0485 C   0  0  0  0  0  0  0  0  0  0  0  0
   -6.2640   19.9556   10.0896 C   0  0  0  0  0  0  0  0  0  0  0  0
   -5.7714   21.3442   10.4852 C   0  0  0  0  0  0  0  0  0  0  0  0
   -4.3333   21.4422   10.2791 N   0  0  0  0  0  0  0  0  0  0  0  0
   -2.1981   15.4524    6.0443 N   0  0  0  0  0  0  0  0  0  0  0  0
   -5.5371   14.0288    4.7082 C   0  0  0  0  0  0  0  0  0  0  0  0
   -5.9642   13.1977    5.2477 O   0  0  0  0  0  0  0  0  0  0  0  0
   -4.2466   14.3975    4.0181 C   0  0  2  0  0  0  0  0  0  0  0  0
   -4.2453   13.9813    2.7109 O   0  0  0  0  0  0  0  0  0  0  0  0
   -3.1332   13.6322    4.7248 C   0  0  0  0  0  0  0  0  0  0  0  0
   -2.7605   14.0978    6.1440 C   0  0  0  0  0  0  0  0  0  0  0  0
  1  2  1  6  0  0  0
  1  3  1  0  0  0  0
  3  4  1  6  0  0  0
  3  5  1  0  0  0  0
  5  6  1  1  0  0  0
  5  7  1  0  0  0  0
  7  8  1  6  0  0  0
  9  7  1  0  0  0  0
  9 10  1  0  0  0  0
  9 11  1  1  0  0  0
 10  1  1  0  0  0  0
 11 12  1  0  0  0  0
 13 14  1  6  0  0  0
 13 15  1  0  0  0  0
 13 22  1  0  0  0  0
 14 32  1  0  0  0  0
 15 16  1  1  0  0  0
 15 17  1  0  0  0  0
 16 23  1  0  0  0  0
 17 18  1  1  0  0  0
 17 19  1  0  0  0  0
 19  2  1  1  0  0  0
 19 20  1  0  0  0  0
 20 21  1  6  0  0  0
 20 22  1  0  0  0  0
 23 24  1  0  0  0  0
 24 25  1  0  0  0  0
 25 26  1  0  0  0  0
 26 27  1  0  0  0  0
 27 28  1  0  0  0  0
 28 29  1  0  0  0  0
 29 30  1  0  0  0  0
 31 37  1  0  0  0  0
 32 33  2  0  0  0  0
 34 32  1  1  0  0  0
 34 35  1  0  0  0  0
 34 36  1  0  0  0  0
 36 37  1  0  0  0  0
M  END
>  <CHROM.1>
173.68109574,-176.88015615,101.76563042,78.50473403,71.47701529,85.17787171
69.84278334,37.47211352,162.88096823,68.91952352,-178.48949606,67.34807908
-93.59465005,-71.43783962,-65.31708353,-8.18070037,17.74802375,6.21503483
-2.91559336,0.48010439,-2.24871449

>  <Name>
1o9m_lig

>  <RI>
0

>  <Rbt.Current_Directory>
/home/itssahil/PROJECTS/Mol_Feturizer/New_Systems/rnas/1o9m

>  <Rbt.Executable>
rbdock ($Id: //depot/dev/client3/rdock/2013.1/src/exe/rbdock.cxx#4 $)

>  <Rbt.Library>
libRbt.so (2013.1, Build901 2013/11/27)

>  <Rbt.Parameter_File>
/export/apps/rDock/src/rDock_2013.1_src/data/scripts/dock_solv.prm

>  <Rbt.Receptor>
prm/pocket_docking_4.prm

>  <SCORE>
-10.9236

>  <SCORE.INTER>
-5.64247

>  <SCORE.INTER.CONST>
1

>  <SCORE.INTER.POLAR>
-1.26802

>  <SCORE.INTER.ROT>
15

>  <SCORE.INTER.SOLV>
13.7199

>  <SCORE.INTER.VDW>
-17.7082

>  <SCORE.INTER.norm>
-0.152499

>  <SCORE.INTRA>
-5.28113

>  <SCORE.INTRA.DIHEDRAL>
-11.8964

>  <SCORE.INTRA.DIHEDRAL.0>
21.5987

>  <SCORE.INTRA.POLAR>
0

>  <SCORE.INTRA.POLAR.0>
0

>  <SCORE.INTRA.REPUL>
0

>  <SCORE.INTRA.REPUL.0>
0

>  <SCORE.INTRA.SOLV>
5.00297

>  <SCORE.INTRA.SOLV.lig_0>
-108.715

>  <SCORE.INTRA.VDW>
-1.83443

>  <SCORE.INTRA.VDW.0>
-3.9485

>  <SCORE.INTRA.norm>
-0.142733

>  <SCORE.RESTR>
0

>  <SCORE.RESTR.CAVITY>
0

>  <SCORE.RESTR.norm>
0

>  <SCORE.SYSTEM>
0

>  <SCORE.SYSTEM.CONST>
0

>  <SCORE.SYSTEM.DIHEDRAL>
0

>  <SCORE.SYSTEM.SOLV>
0

>  <SCORE.SYSTEM.norm>
0

>  <SCORE.heavy>
37

>  <SCORE.norm>
-0.295232

>  <RMSD>
8.301

$$$$
1o9m_lig
 OpenBabel11021811403D
libRbt.so/2013.1/901 2013/11/27
 37 38  0  0  0  0  0  0  0  0999 V2000
  -11.5681   18.7329    5.2728 C   0  0  2  0  0  0  0  0  0  0  0  0
  -10.6926   18.0497    6.2209 O   0  0  0  0  0  0  0  0  0  0  0  0
  -11.6201   20.2395    5.7224 C   0  0  2  0  0  0  0  0  0  0  0  0
  -10.2846   20.8618    5.7390 N   0  0  0  0  0  0  0  0  0  0  0  0
  -12.2953   20.3295    7.1436 C   0  0  1  0  0  0  0  0  0  0  0  0
  -12.3560   21.6919    7.5744 O   0  0  0  0  0  0  0  0  0  0  0  0
  -13.7131   19.6747    7.0504 C   0  0  2  0  0  0  0  0  0  0  0  0
  -14.4163   19.6868    8.3035 O   0  0  0  0  0  0  0  0  0  0  0  0
  -13.6076   18.2128    6.5503 C   0  0  2  0  0  0  0  0  0  0  0  0
  -12.9145   18.1502    5.2953 O   0  0  0  0  0  0  0  0  0  0  0  0
  -14.9650   17.5767    6.3979 C   0  0  0  0  0  0  0  0  0  0  0  0
  -15.5942   17.5000    7.6176 N   0  0  0  0  0  0  0  0  0  0  0  0
   -7.0942   15.6372    5.9928 C   0  0  1  0  0  0  0  0  0  0  0  0
   -5.7305   15.1909    5.5920 N   0  0  0  0  0  0  0  0  0  0  0  0
   -6.9903   17.0080    6.6475 C   0  0  2  0  0  0  0  0  0  0  0  0
   -6.1185   16.9004    7.7331 O   0  0  0  0  0  0  0  0  0  0  0  0
   -8.3974   17.5093    7.1019 C   0  0  1  0  0  0  0  0  0  0  0  0
   -8.2876   18.8333    7.7081 O   0  0  0  0  0  0  0  0  0  0  0  0
   -9.3578   17.6030    5.8470 C   0  0  1  0  0  0  0  0  0  0  0  0
   -9.4847   16.2345    5.1951 C   0  0  1  0  0  0  0  0  0  0  0  0
  -10.3822   16.3400    4.0546 N   0  0  0  0  0  0  0  0  0  0  0  0
   -8.0833   15.7274    4.7611 C   0  0  0  0  0  0  0  0  0  0  0  0
   -5.3216   17.3101    8.8661 C   0  0  0  0  0  0  0  0  0  0  0  0
   -4.1745   18.1676    8.3832 C   0  0  0  0  0  0  0  0  0  0  0  0
   -3.7736   19.2299    9.3286 N   0  0  0  0  0  0  0  0  0  0  0  0
   -2.9554   20.1246   10.1785 C   0  0  0  0  0  0  0  0  0  0  0  0
   -3.5280   21.4559    9.6756 C   0  0  0  0  0  0  0  0  0  0  0  0
   -5.0032   21.6467   10.0750 C   0  0  0  0  0  0  0  0  0  0  0  0
   -5.1411   21.8664   11.5783 C   0  0  0  0  0  0  0  0  0  0  0  0
   -4.8652   20.6277   12.2922 N   0  0  0  0  0  0  0  0  0  0  0  0
   -3.1783   13.1512    1.6730 N   0  0  0  0  0  0  0  0  0  0  0  0
   -5.7963   13.7553    4.5520 C   0  0  0  0  0  0  0  0  0  0  0  0
   -6.5871   13.1474    4.1409 O   0  0  0  0  0  0  0  0  0  0  0  0
   -4.2882   13.8126    4.5578 C   0  0  2  0  0  0  0  0  0  0  0  0
   -3.8263   14.8293    3.7609 O   0  0  0  0  0  0  0  0  0  0  0  0
   -3.7940   12.5095    3.9396 C   0  0  0  0  0  0  0  0  0  0  0  0
   -4.0886   12.2924    2.4443 C   0  0  0  0  0  0  0  0  0  0  0  0
  1  2  1  1  0  0  0
  1  3  1  0  0  0  0
  3  4  1  1  0  0  0
  3  5  1  0  0  0  0
  5  6  1  6  0  0  0
  5  7  1  0  0  0  0
  7  8  1  1  0  0  0
  9  7  1  0  0  0  0
  9 10  1  0  0  0  0
  9 11  1  6  0  0  0
 10  1  1  0  0  0  0
 11 12  1  0  0  0  0
 13 14  1  6  0  0  0
 13 15  1  0  0  0  0
 13 22  1  0  0  0  0
 14 32  1  0  0  0  0
 15 16  1  1  0  0  0
 15 17  1  0  0  0  0
 16 23  1  0  0  0  0
 17 18  1  6  0  0  0
 17 19  1  0  0  0  0
 19  2  1  1  0  0  0
 19 20  1  0  0  0  0
 20 21  1  6  0  0  0
 20 22  1  0  0  0  0
 23 24  1  0  0  0  0
 24 25  1  0  0  0  0
 25 26  1  0  0  0  0
 26 27  1  0  0  0  0
 27 28  1  0  0  0  0
 28 29  1  0  0  0  0
 29 30  1  0  0  0  0
 31 37  1  0  0  0  0
 32 33  2  0  0  0  0
 34 32  1  6  0  0  0
 34 35  1  0  0  0  0
 34 36  1  0  0  0  0
 36 37  1  0  0  0  0
M  END
>  <CHROM.1>
-107.75886097,-63.19533371,-169.13701550,176.58190053,-68.52528603,154.21663290
146.78647992,132.48767208,128.43238826,67.22717893,69.58024083,-71.13380242
-74.64064381,67.15239625,74.58001641,-8.12649304,17.62525157,6.63141441,2.70396554
-0.18228797,0.73706619

>  <Name>
1o9m_lig

>  <RI>
0

>  <Rbt.Current_Directory>
/home/itssahil/PROJECTS/Mol_Feturizer/New_Systems/rnas/1o9m

>  <Rbt.Executable>
rbdock ($Id: //depot/dev/client3/rdock/2013.1/src/exe/rbdock.cxx#4 $)

>  <Rbt.Library>
libRbt.so (2013.1, Build901 2013/11/27)

>  <Rbt.Parameter_File>
/export/apps/rDock/src/rDock_2013.1_src/data/scripts/dock_solv.prm

>  <Rbt.Receptor>
prm/pocket_docking_3.prm

>  <SCORE>
-1.03493

>  <SCORE.INTER>
-6.00713

>  <SCORE.INTER.CONST>
1

>  <SCORE.INTER.POLAR>
0

>  <SCORE.INTER.ROT>
15

>  <SCORE.INTER.SOLV>
21.9513

>  <SCORE.INTER.VDW>
-24.9219

>  <SCORE.INTER.norm>
-0.162355

>  <SCORE.INTRA>
4.41638

>  <SCORE.INTRA.DIHEDRAL>
-3.41202

>  <SCORE.INTRA.DIHEDRAL.0>
21.5987

>  <SCORE.INTRA.POLAR>
0

>  <SCORE.INTRA.POLAR.0>
0

>  <SCORE.INTRA.REPUL>
0

>  <SCORE.INTRA.REPUL.0>
0

>  <SCORE.INTRA.SOLV>
7.39164

>  <SCORE.INTRA.SOLV.lig_0>
-108.715

>  <SCORE.INTRA.VDW>
2.42657

>  <SCORE.INTRA.VDW.0>
-3.9485

>  <SCORE.INTRA.norm>
0.119362

>  <SCORE.RESTR>
0.555822

>  <SCORE.RESTR.CAVITY>
0.555822

>  <SCORE.RESTR.norm>
0.0150222

>  <SCORE.SYSTEM>
0

>  <SCORE.SYSTEM.CONST>
0

>  <SCORE.SYSTEM.DIHEDRAL>
0

>  <SCORE.SYSTEM.SOLV>
0

>  <SCORE.SYSTEM.norm>
0

>  <SCORE.heavy>
37

>  <SCORE.norm>
-0.0279711

>  <RMSD>
8.306

$$$$
1o9m_lig
 OpenBabel11021811403D
libRbt.so/2013.1/901 2013/11/27
 37 38  0  0  0  0  0  0  0  0999 V2000
  -10.5698   20.4951    7.9101 C   0  0  2  0  0  0  0  0  0  0  0  0
  -10.2358   19.2860    7.1626 O   0  0  0  0  0  0  0  0  0  0  0  0
  -12.0643   20.8366    7.5575 C   0  0  2  0  0  0  0  0  0  0  0  0
  -12.9833   19.7389    7.9061 N   0  0  0  0  0  0  0  0  0  0  0  0
  -12.1650   21.1827    6.0232 C   0  0  1  0  0  0  0  0  0  0  0  0
  -13.5163   21.4990    5.6776 O   0  0  0  0  0  0  0  0  0  0  0  0
  -11.1859   22.3662    5.7267 C   0  0  2  0  0  0  0  0  0  0  0  0
  -11.1842   22.7553    4.3434 O   0  0  0  0  0  0  0  0  0  0  0  0
   -9.7409   21.9971    6.1441 C   0  0  2  0  0  0  0  0  0  0  0  0
   -9.6912   21.6048    7.5236 O   0  0  0  0  0  0  0  0  0  0  0  0
   -8.7868   23.1418    5.9207 C   0  0  0  0  0  0  0  0  0  0  0  0
   -7.4874   22.7026    6.0101 N   0  0  0  0  0  0  0  0  0  0  0  0
   -7.2052   16.3064    8.0332 C   0  0  1  0  0  0  0  0  0  0  0  0
   -5.8672   15.6607    8.1441 N   0  0  0  0  0  0  0  0  0  0  0  0
   -7.2054   17.5832    8.8628 C   0  0  2  0  0  0  0  0  0  0  0  0
   -6.8800   17.2412   10.1771 O   0  0  0  0  0  0  0  0  0  0  0  0
   -8.5976   18.2862    8.7913 C   0  0  1  0  0  0  0  0  0  0  0  0
   -8.5785   19.5198    9.5726 O   0  0  0  0  0  0  0  0  0  0  0  0
   -8.9350   18.6430    7.2864 C   0  0  1  0  0  0  0  0  0  0  0  0
   -8.9564   17.3723    6.4506 C   0  0  1  0  0  0  0  0  0  0  0  0
   -9.2827   17.7208    5.0759 N   0  0  0  0  0  0  0  0  0  0  0  0
   -7.5785   16.6630    6.5375 C   0  0  0  0  0  0  0  0  0  0  0  0
   -6.9053   16.5142   11.4251 C   0  0  0  0  0  0  0  0  0  0  0  0
   -6.5270   17.4476   12.5521 C   0  0  0  0  0  0  0  0  0  0  0  0
   -5.0759   17.7009   12.6664 N   0  0  0  0  0  0  0  0  0  0  0  0
   -3.7573   18.3743   12.6491 C   0  0  0  0  0  0  0  0  0  0  0  0
   -4.2715   19.8195   12.6510 C   0  0  0  0  0  0  0  0  0  0  0  0
   -4.8314   20.2434   11.2802 C   0  0  0  0  0  0  0  0  0  0  0  0
   -5.3174   21.6892   11.3089 C   0  0  0  0  0  0  0  0  0  0  0  0
   -5.7125   22.1106    9.9723 N   0  0  0  0  0  0  0  0  0  0  0  0
   -3.7051   14.7432    4.3138 N   0  0  0  0  0  0  0  0  0  0  0  0
   -5.4821   14.7112    6.6961 C   0  0  0  0  0  0  0  0  0  0  0  0
   -5.9835   14.5065    5.7630 O   0  0  0  0  0  0  0  0  0  0  0  0
   -4.1976   14.3524    7.4025 C   0  0  2  0  0  0  0  0  0  0  0  0
   -3.4768   15.4745    7.7238 O   0  0  0  0  0  0  0  0  0  0  0  0
   -3.3553   13.5570    6.4112 C   0  0  0  0  0  0  0  0  0  0  0  0
   -2.6720   14.3513    5.2834 C   0  0  0  0  0  0  0  0  0  0  0  0
  1  2  1  6  0  0  0
  1  3  1  0  0  0  0
  3  4  1  6  0  0  0
  3  5  1  0  0  0  0
  5  6  1  1  0  0  0
  5  7  1  0  0  0  0
  7  8  1  6  0  0  0
  9  7  1  0  0  0  0
  9 10  1  0  0  0  0
  9 11  1  1  0  0  0
 10  1  1  0  0  0  0
 11 12  1  0  0  0  0
 13 14  1  6  0  0  0
 13 15  1  0  0  0  0
 13 22  1  0  0  0  0
 14 32  1  0  0  0  0
 15 16  1  1  0  0  0
 15 17  1  0  0  0  0
 16 23  1  0  0  0  0
 17 18  1  1  0  0  0
 17 19  1  0  0  0  0
 19  2  1  1  0  0  0
 19 20  1  0  0  0  0
 20 21  1  6  0  0  0
 20 22  1  0  0  0  0
 23 24  1  0  0  0  0
 24 25  1  0  0  0  0
 25 26  1  0  0  0  0
 26 27  1  0  0  0  0
 27 28  1  0  0  0  0
 28 29  1  0  0  0  0
 29 30  1  0  0  0  0
 31 37  1  0  0  0  0
 32 33  2  0  0  0  0
 34 32  1  6  0  0  0
 34 35  1  0  0  0  0
 34 36  1  0  0  0  0
 36 37  1  0  0  0  0
M  END
>  <CHROM.1>
-177.54279236,-166.53251063,-151.69377576,-46.27114305,-152.18220891,55.58140802
-78.53297137,112.10082710,16.91391155,-74.99049610,-179.25252273,174.13787595
-58.22576637,75.13952721,-73.69487562,-7.57497511,18.61734253,7.96869266
-2.94311734,0.72170121,-2.22174015

>  <Name>
1o9m_lig

>  <RI>
0

>  <Rbt.Current_Directory>
/home/itssahil/PROJECTS/Mol_Feturizer/New_Systems/rnas/1o9m

>  <Rbt.Executable>
rbdock ($Id: //depot/dev/client3/rdock/2013.1/src/exe/rbdock.cxx#4 $)

>  <Rbt.Library>
libRbt.so (2013.1, Build901 2013/11/27)

>  <Rbt.Parameter_File>
/export/apps/rDock/src/rDock_2013.1_src/data/scripts/dock_solv.prm

>  <Rbt.Receptor>
prm/pocket_docking_4.prm

>  <SCORE>
-11.6116

>  <SCORE.INTER>
-10.9468

>  <SCORE.INTER.CONST>
1

>  <SCORE.INTER.POLAR>
-1.4998

>  <SCORE.INTER.ROT>
15

>  <SCORE.INTER.SOLV>
13.7345

>  <SCORE.INTER.VDW>
-20.4767

>  <SCORE.INTER.norm>
-0.295858

>  <SCORE.INTRA>
-0.784576

>  <SCORE.INTRA.DIHEDRAL>
-9.63661

>  <SCORE.INTRA.DIHEDRAL.0>
21.5987

>  <SCORE.INTRA.POLAR>
0

>  <SCORE.INTRA.POLAR.0>
0

>  <SCORE.INTRA.REPUL>
0

>  <SCORE.INTRA.REPUL.0>
0

>  <SCORE.INTRA.SOLV>
2.87594

>  <SCORE.INTRA.SOLV.lig_0>
-108.715

>  <SCORE.INTRA.VDW>
2.59576

>  <SCORE.INTRA.VDW.0>
-3.9485

>  <SCORE.INTRA.norm>
-0.0212047

>  <SCORE.RESTR>
0.119722

>  <SCORE.RESTR.CAVITY>
0.119722

>  <SCORE.RESTR.norm>
0.00323572

>  <SCORE.SYSTEM>
0

>  <SCORE.SYSTEM.CONST>
0

>  <SCORE.SYSTEM.DIHEDRAL>
0

>  <SCORE.SYSTEM.SOLV>
0

>  <SCORE.SYSTEM.norm>
0

>  <SCORE.heavy>
37

>  <SCORE.norm>
-0.313827

>  <RMSD>
8.311

$$$$
1o9m_lig
 OpenBabel11021811403D
libRbt.so/2013.1/901 2013/11/27
 37 38  0  0  0  0  0  0  0  0999 V2000
  -12.1008   17.5601    4.6047 C   0  0  2  0  0  0  0  0  0  0  0  0
  -11.3277   18.5117    5.3978 O   0  0  0  0  0  0  0  0  0  0  0  0
  -12.6316   18.3524    3.3537 C   0  0  2  0  0  0  0  0  0  0  0  0
  -11.5364   18.9280    2.5536 N   0  0  0  0  0  0  0  0  0  0  0  0
  -13.6197   19.4799    3.8399 C   0  0  1  0  0  0  0  0  0  0  0  0
  -14.1182   20.2146    2.7186 O   0  0  0  0  0  0  0  0  0  0  0  0
  -14.7663   18.8010    4.6595 C   0  0  2  0  0  0  0  0  0  0  0  0
  -15.7219   19.7454    5.1691 O   0  0  0  0  0  0  0  0  0  0  0  0
  -14.1845   17.9898    5.8436 C   0  0  2  0  0  0  0  0  0  0  0  0
  -13.2252   17.0274    5.3822 O   0  0  0  0  0  0  0  0  0  0  0  0
  -15.2654   17.2794    6.6168 C   0  0  0  0  0  0  0  0  0  0  0  0
  -16.0600   18.1906    7.2707 N   0  0  0  0  0  0  0  0  0  0  0  0
   -7.9792   18.3743    8.1525 C   0  0  1  0  0  0  0  0  0  0  0  0
   -7.0997   17.9208    9.2662 N   0  0  0  0  0  0  0  0  0  0  0  0
   -8.1138   17.2443    7.1409 C   0  0  2  0  0  0  0  0  0  0  0  0
   -6.8314   16.9005    6.7080 O   0  0  0  0  0  0  0  0  0  0  0  0
   -9.0147   17.6820    5.9432 C   0  0  1  0  0  0  0  0  0  0  0  0
   -9.1539   16.5834    4.9913 O   0  0  0  0  0  0  0  0  0  0  0  0
  -10.4517   18.0770    6.4769 C   0  0  1  0  0  0  0  0  0  0  0  0
  -10.3320   19.2186    7.4750 C   0  0  1  0  0  0  0  0  0  0  0  0
  -11.6635   19.5754    7.9410 N   0  0  0  0  0  0  0  0  0  0  0  0
   -9.4204   18.7904    8.6561 C   0  0  0  0  0  0  0  0  0  0  0  0
   -5.4882   16.3719    6.7627 C   0  0  0  0  0  0  0  0  0  0  0  0
   -4.8288   16.5490    5.4142 C   0  0  0  0  0  0  0  0  0  0  0  0
   -3.5691   15.7940    5.2531 N   0  0  0  0  0  0  0  0  0  0  0  0
   -2.6039   14.6872    5.0637 C   0  0  0  0  0  0  0  0  0  0  0  0
   -3.2635   13.6824    6.0167 C   0  0  0  0  0  0  0  0  0  0  0  0
   -3.1161   14.0929    7.4938 C   0  0  0  0  0  0  0  0  0  0  0  0
   -1.6592   14.0217    7.9407 C   0  0  0  0  0  0  0  0  0  0  0  0
   -1.5495   14.3801    9.3478 N   0  0  0  0  0  0  0  0  0  0  0  0
   -4.9791   15.8949   13.5373 N   0  0  0  0  0  0  0  0  0  0  0  0
   -7.8857   16.6683   10.2460 C   0  0  0  0  0  0  0  0  0  0  0  0
   -8.8368   16.1599   10.2133 O   0  0  0  0  0  0  0  0  0  0  0  0
   -6.6368   16.6965   11.0927 C   0  0  2  0  0  0  0  0  0  0  0  0
   -5.8490   15.5992   10.8532 O   0  0  0  0  0  0  0  0  0  0  0  0
   -7.0864   16.6066   12.5468 C   0  0  0  0  0  0  0  0  0  0  0  0
   -6.0305   16.9187   13.6227 C   0  0  0  0  0  0  0  0  0  0  0  0
  1  2  1  1  0  0  0
  1  3  1  0  0  0  0
  3  4  1  1  0  0  0
  3  5  1  0  0  0  0
  5  6  1  6  0  0  0
  5  7  1  0  0  0  0
  7  8  1  1  0  0  0
  9  7  1  0  0  0  0
  9 10  1  0  0  0  0
  9 11  1  6  0  0  0
 10  1  1  0  0  0  0
 11 12  1  0  0  0  0
 13 14  1  1  0  0  0
 13 15  1  0  0  0  0
 13 22  1  0  0  0  0
 14 32  1  0  0  0  0
 15 16  1  6  0  0  0
 15 17  1  0  0  0  0
 16 23  1  0  0  0  0
 17 18  1  6  0  0  0
 17 19  1  0  0  0  0
 19  2  1  6  0  0  0
 19 20  1  0  0  0  0
 20 21  1  1  0  0  0
 20 22  1  0  0  0  0
 23 24  1  0  0  0  0
 24 25  1  0  0  0  0
 25 26  1  0  0  0  0
 26 27  1  0  0  0  0
 27 28  1  0  0  0  0
 28 29  1  0  0  0  0
 29 30  1  0  0  0  0
 31 37  1  0  0  0  0
 32 33  2  0  0  0  0
 34 32  1  6  0  0  0
 34 35  1  0  0  0  0
 34 36  1  0  0  0  0
 36 37  1  0  0  0  0
M  END
>  <CHROM.1>
-166.76513387,-67.85110393,-69.07694465,69.16756169,179.29901467,85.62093836
-167.46027786,73.68018785,-42.82479284,-70.31661086,-67.16833930,-178.52524918
-104.91105649,-167.21472281,-64.51591462,-8.87925976,17.19865387,7.16280880
-2.77327551,-0.34001072,1.55398570

>  <Name>
1o9m_lig

>  <RI>
0

>  <Rbt.Current_Directory>
/home/itssahil/PROJECTS/Mol_Feturizer/New_Systems/rnas/1o9m

>  <Rbt.Executable>
rbdock ($Id: //depot/dev/client3/rdock/2013.1/src/exe/rbdock.cxx#4 $)

>  <Rbt.Library>
libRbt.so (2013.1, Build901 2013/11/27)

>  <Rbt.Parameter_File>
/export/apps/rDock/src/rDock_2013.1_src/data/scripts/dock_solv.prm

>  <Rbt.Receptor>
prm/pocket_docking_5.prm

>  <SCORE>
-15.6498

>  <SCORE.INTER>
-10.8705

>  <SCORE.INTER.CONST>
1

>  <SCORE.INTER.POLAR>
-1.17216

>  <SCORE.INTER.ROT>
15

>  <SCORE.INTER.SOLV>
16.014

>  <SCORE.INTER.VDW>
-22.2778

>  <SCORE.INTER.norm>
-0.293797

>  <SCORE.INTRA>
-4.7793

>  <SCORE.INTRA.DIHEDRAL>
-13.032

>  <SCORE.INTRA.DIHEDRAL.0>
21.5987

>  <SCORE.INTRA.POLAR>
0

>  <SCORE.INTRA.POLAR.0>
0

>  <SCORE.INTRA.REPUL>
0

>  <SCORE.INTRA.REPUL.0>
0

>  <SCORE.INTRA.SOLV>
2.76352

>  <SCORE.INTRA.SOLV.lig_0>
-108.715

>  <SCORE.INTRA.VDW>
0.354945

>  <SCORE.INTRA.VDW.0>
-3.9485

>  <SCORE.INTRA.norm>
-0.12917

>  <SCORE.RESTR>
0

>  <SCORE.RESTR.CAVITY>
0

>  <SCORE.RESTR.norm>
0

>  <SCORE.SYSTEM>
0

>  <SCORE.SYSTEM.CONST>
0

>  <SCORE.SYSTEM.DIHEDRAL>
0

>  <SCORE.SYSTEM.SOLV>
0

>  <SCORE.SYSTEM.norm>
0

>  <SCORE.heavy>
37

>  <SCORE.norm>
-0.422968

>  <RMSD>
8.314

$$$$
1o9m_lig
 OpenBabel11021811403D
libRbt.so/2013.1/901 2013/11/27
 37 38  0  0  0  0  0  0  0  0999 V2000
  -10.2449   19.3490    6.7889 C   0  0  2  0  0  0  0  0  0  0  0  0
  -10.1941   18.1973    5.8927 O   0  0  0  0  0  0  0  0  0  0  0  0
  -11.7647   19.5922    7.1139 C   0  0  2  0  0  0  0  0  0  0  0  0
  -12.3949   18.4170    7.7406 N   0  0  0  0  0  0  0  0  0  0  0  0
  -12.5177   19.9881    5.7872 C   0  0  1  0  0  0  0  0  0  0  0  0
  -13.9035   20.2166    6.0571 O   0  0  0  0  0  0  0  0  0  0  0  0
  -11.8155   21.2512    5.1882 C   0  0  2  0  0  0  0  0  0  0  0  0
  -12.4146   21.6918    3.9587 O   0  0  0  0  0  0  0  0  0  0  0  0
  -10.3120   20.9744    4.9409 C   0  0  2  0  0  0  0  0  0  0  0  0
   -9.6678   20.5346    6.1454 O   0  0  0  0  0  0  0  0  0  0  0  0
   -9.5998   22.1942    4.4161 C   0  0  0  0  0  0  0  0  0  0  0  0
   -8.2775   21.9063    4.1749 N   0  0  0  0  0  0  0  0  0  0  0  0
   -7.0369   15.5862    4.4661 C   0  0  1  0  0  0  0  0  0  0  0  0
   -5.7608   15.1474    3.8349 N   0  0  0  0  0  0  0  0  0  0  0  0
   -6.7166   16.5213    5.6244 C   0  0  2  0  0  0  0  0  0  0  0  0
   -5.8850   15.8355    6.5123 O   0  0  0  0  0  0  0  0  0  0  0  0
   -8.0272   16.9933    6.3296 C   0  0  1  0  0  0  0  0  0  0  0  0
   -7.7083   17.9059    7.4240 O   0  0  0  0  0  0  0  0  0  0  0  0
   -8.9468   17.7512    5.2876 C   0  0  1  0  0  0  0  0  0  0  0  0
   -9.2894   16.8206    4.1342 C   0  0  1  0  0  0  0  0  0  0  0  0
  -10.1463   17.5313    3.1970 N   0  0  0  0  0  0  0  0  0  0  0  0
   -7.9857   16.3357    3.4453 C   0  0  0  0  0  0  0  0  0  0  0  0
   -5.4404   14.7952    7.4104 C   0  0  0  0  0  0  0  0  0  0  0  0
   -4.1640   15.2363    8.0892 C   0  0  0  0  0  0  0  0  0  0  0  0
   -4.3368   16.3636    9.0285 N   0  0  0  0  0  0  0  0  0  0  0  0
   -4.0517   17.4551    9.9876 C   0  0  0  0  0  0  0  0  0  0  0  0
   -3.3553   18.4061    9.0060 C   0  0  0  0  0  0  0  0  0  0  0  0
   -1.9346   17.9352    8.6429 C   0  0  0  0  0  0  0  0  0  0  0  0
   -0.9934   18.0582    9.8373 C   0  0  0  0  0  0  0  0  0  0  0  0
   -0.7368   19.4614   10.1294 N   0  0  0  0  0  0  0  0  0  0  0  0
   -0.8322   15.5245    4.6137 N   0  0  0  0  0  0  0  0  0  0  0  0
   -5.2606   13.5504    4.4232 C   0  0  0  0  0  0  0  0  0  0  0  0
   -5.6693   12.8305    5.1151 O   0  0  0  0  0  0  0  0  0  0  0  0
   -4.0518   13.7194    3.5355 C   0  0  2  0  0  0  0  0  0  0  0  0
   -3.5495   12.5046    3.1430 O   0  0  0  0  0  0  0  0  0  0  0  0
   -2.9736   14.3895    4.3800 C   0  0  0  0  0  0  0  0  0  0  0  0
   -1.6692   14.7799    3.6618 C   0  0  0  0  0  0  0  0  0  0  0  0
  1  2  1  6  0  0  0
  1  3  1  0  0  0  0
  3  4  1  6  0  0  0
  3  5  1  0  0  0  0
  5  6  1  1  0  0  0
  5  7  1  0  0  0  0
  7  8  1  6  0  0  0
  9  7  1  0  0  0  0
  9 10  1  0  0  0  0
  9 11  1  1  0  0  0
 10  1  1  0  0  0  0
 11 12  1  0  0  0  0
 13 14  1  6  0  0  0
 13 15  1  0  0  0  0
 13 22  1  0  0  0  0
 14 32  1  0  0  0  0
 15 16  1  1  0  0  0
 15 17  1  0  0  0  0
 16 23  1  0  0  0  0
 17 18  1  1  0  0  0
 17 19  1  0  0  0  0
 19  2  1  1  0  0  0
 19 20  1  0  0  0  0
 20 21  1  6  0  0  0
 20 22  1  0  0  0  0
 23 24  1  0  0  0  0
 24 25  1  0  0  0  0
 25 26  1  0  0  0  0
 26 27  1  0  0  0  0
 27 28  1  0  0  0  0
 28 29  1  0  0  0  0
 29 30  1  0  0  0  0
 31 37  1  0  0  0  0
 32 33  2  0  0  0  0
 34 32  1  1  0  0  0
 34 35  1  0  0  0  0
 34 36  1  0  0  0  0
 36 37  1  0  0  0  0
M  END
>  <CHROM.1>
174.60320685,-178.45965437,98.02877008,-56.27313630,-172.13453824,75.23490446
67.84499791,-174.81953632,68.70497209,-74.19299953,-69.11052977,-69.76862919
-153.34339296,-175.04955776,174.38155788,-7.02720142,17.45539744,5.93680590
-2.85410280,0.43080069,-2.38921024

>  <Name>
1o9m_lig

>  <RI>
0

>  <Rbt.Current_Directory>
/home/itssahil/PROJECTS/Mol_Feturizer/New_Systems/rnas/1o9m

>  <Rbt.Executable>
rbdock ($Id: //depot/dev/client3/rdock/2013.1/src/exe/rbdock.cxx#4 $)

>  <Rbt.Library>
libRbt.so (2013.1, Build901 2013/11/27)

>  <Rbt.Parameter_File>
/export/apps/rDock/src/rDock_2013.1_src/data/scripts/dock_solv.prm

>  <Rbt.Receptor>
prm/pocket_docking_4.prm

>  <SCORE>
-11.5997

>  <SCORE.INTER>
-3.75909

>  <SCORE.INTER.CONST>
1

>  <SCORE.INTER.POLAR>
-1.82807

>  <SCORE.INTER.ROT>
15

>  <SCORE.INTER.SOLV>
15.8402

>  <SCORE.INTER.VDW>
-15.2926

>  <SCORE.INTER.norm>
-0.101597

>  <SCORE.INTRA>
-7.8455

>  <SCORE.INTRA.DIHEDRAL>
-15.5198

>  <SCORE.INTRA.DIHEDRAL.0>
21.5987

>  <SCORE.INTRA.POLAR>
0

>  <SCORE.INTRA.POLAR.0>
0

>  <SCORE.INTRA.REPUL>
0

>  <SCORE.INTRA.REPUL.0>
0

>  <SCORE.INTRA.SOLV>
1.32453

>  <SCORE.INTRA.SOLV.lig_0>
-108.715

>  <SCORE.INTRA.VDW>
-0.747879

>  <SCORE.INTRA.VDW.0>
-3.9485

>  <SCORE.INTRA.norm>
-0.212041

>  <SCORE.RESTR>
0.00493001

>  <SCORE.RESTR.CAVITY>
0.00493001

>  <SCORE.RESTR.norm>
0.000133243

>  <SCORE.SYSTEM>
0

>  <SCORE.SYSTEM.CONST>
0

>  <SCORE.SYSTEM.DIHEDRAL>
0

>  <SCORE.SYSTEM.SOLV>
0

>  <SCORE.SYSTEM.norm>
0

>  <SCORE.heavy>
37

>  <SCORE.norm>
-0.313504

>  <RMSD>
8.319

$$$$
1o9m_lig
 OpenBabel11021811403D
libRbt.so/2013.1/901 2013/11/27
 37 38  0  0  0  0  0  0  0  0999 V2000
   -6.1612   19.6258    7.4491 C   0  0  2  0  0  0  0  0  0  0  0  0
   -6.9286   18.5088    6.9055 O   0  0  0  0  0  0  0  0  0  0  0  0
   -7.2072   20.6214    8.0729 C   0  0  2  0  0  0  0  0  0  0  0  0
   -8.0200   19.9874    9.1257 N   0  0  0  0  0  0  0  0  0  0  0  0
   -8.1256   21.1892    6.9248 C   0  0  1  0  0  0  0  0  0  0  0  0
   -9.0856   22.0999    7.4674 O   0  0  0  0  0  0  0  0  0  0  0  0
   -7.2051   21.8667    5.8565 C   0  0  2  0  0  0  0  0  0  0  0  0
   -7.9423   22.4076    4.7480 O   0  0  0  0  0  0  0  0  0  0  0  0
   -6.1602   20.8585    5.3179 C   0  0  2  0  0  0  0  0  0  0  0  0
   -5.3939   20.2932    6.3915 O   0  0  0  0  0  0  0  0  0  0  0  0
   -5.2243   21.5018    4.3275 C   0  0  0  0  0  0  0  0  0  0  0  0
   -5.9081   21.8611    3.1906 N   0  0  0  0  0  0  0  0  0  0  0  0
   -5.6584   14.5132    5.7910 C   0  0  1  0  0  0  0  0  0  0  0  0
   -5.0052   13.4133    5.0273 N   0  0  0  0  0  0  0  0  0  0  0  0
   -4.5897   15.4972    6.2472 C   0  0  2  0  0  0  0  0  0  0  0  0
   -3.6555   14.7933    7.0100 O   0  0  0  0  0  0  0  0  0  0  0  0
   -5.2276   16.6607    7.0699 C   0  0  1  0  0  0  0  0  0  0  0  0
   -4.1963   17.6086    7.4829 O   0  0  0  0  0  0  0  0  0  0  0  0
   -6.2893   17.4223    6.1763 C   0  0  1  0  0  0  0  0  0  0  0  0
   -7.3732   16.4530    5.7298 C   0  0  1  0  0  0  0  0  0  0  0  0
   -8.3453   17.1758    4.9234 N   0  0  0  0  0  0  0  0  0  0  0  0
   -6.7367   15.2859    4.9286 C   0  0  0  0  0  0  0  0  0  0  0  0
   -2.4638   14.5466    7.7882 C   0  0  0  0  0  0  0  0  0  0  0  0
   -1.2503   14.9422    6.9786 C   0  0  0  0  0  0  0  0  0  0  0  0
    0.0355   14.7392    7.6774 N   0  0  0  0  0  0  0  0  0  0  0  0
    1.1667   14.8939    8.6201 C   0  0  0  0  0  0  0  0  0  0  0  0
    0.3529   14.8365    9.9191 C   0  0  0  0  0  0  0  0  0  0  0  0
    1.2413   14.9511   11.1720 C   0  0  0  0  0  0  0  0  0  0  0  0
    1.9586   13.6356   11.4588 C   0  0  0  0  0  0  0  0  0  0  0  0
    0.9992   12.6241   11.8791 N   0  0  0  0  0  0  0  0  0  0  0  0
   -7.2449   11.2142    2.0029 N   0  0  0  0  0  0  0  0  0  0  0  0
   -4.2604   14.0131    3.5333 C   0  0  0  0  0  0  0  0  0  0  0  0
   -4.1645   14.9799    3.0640 O   0  0  0  0  0  0  0  0  0  0  0  0
   -3.8779   12.5766    3.2728 C   0  0  2  0  0  0  0  0  0  0  0  0
   -2.7039   12.4948    2.5678 O   0  0  0  0  0  0  0  0  0  0  0  0
   -4.9666   11.9833    2.3854 C   0  0  0  0  0  0  0  0  0  0  0  0
   -6.3561   11.7940    3.0203 C   0  0  0  0  0  0  0  0  0  0  0  0
  1  2  1  6  0  0  0
  1  3  1  0  0  0  0
  3  4  1  1  0  0  0
  3  5  1  0  0  0  0
  5  6  1  1  0  0  0
  5  7  1  0  0  0  0
  7  8  1  6  0  0  0
  9  7  1  0  0  0  0
  9 10  1  0  0  0  0
  9 11  1  6  0  0  0
 10  1  1  0  0  0  0
 11 12  1  0  0  0  0
 13 14  1  6  0  0  0
 13 15  1  0  0  0  0
 13 22  1  0  0  0  0
 14 32  1  0  0  0  0
 15 16  1  1  0  0  0
 15 17  1  0  0  0  0
 16 23  1  0  0  0  0
 17 18  1  6  0  0  0
 17 19  1  0  0  0  0
 19  2  1  1  0  0  0
 19 20  1  0  0  0  0
 20 21  1  6  0  0  0
 20 22  1  0  0  0  0
 23 24  1  0  0  0  0
 24 25  1  0  0  0  0
 25 26  1  0  0  0  0
 26 27  1  0  0  0  0
 27 28  1  0  0  0  0
 28 29  1  0  0  0  0
 29 30  1  0  0  0  0
 31 37  1  0  0  0  0
 32 33  2  0  0  0  0
 34 32  1  6  0  0  0
 34 35  1  0  0  0  0
 34 36  1  0  0  0  0
 36 37  1  0  0  0  0
M  END
>  <CHROM.1>
176.38986630,-66.59877518,-64.49570579,176.07834538,-55.35172610,60.42794306
179.75268749,-71.25936129,53.80906631,179.17035317,-76.95412820,-68.53787932
-149.04933441,-68.41639327,-179.94968407,-4.64308572,16.61223078,6.25243851
-2.62435552,0.70976547,-2.55151889

>  <Name>
1o9m_lig

>  <RI>
0

>  <Rbt.Current_Directory>
/home/itssahil/PROJECTS/Mol_Feturizer/New_Systems/rnas/1o9m

>  <Rbt.Executable>
rbdock ($Id: //depot/dev/client3/rdock/2013.1/src/exe/rbdock.cxx#4 $)

>  <Rbt.Library>
libRbt.so (2013.1, Build901 2013/11/27)

>  <Rbt.Parameter_File>
/export/apps/rDock/src/rDock_2013.1_src/data/scripts/dock_solv.prm

>  <Rbt.Receptor>
prm/pocket_docking_7.prm

>  <SCORE>
-15.7054

>  <SCORE.INTER>
-7.73902

>  <SCORE.INTER.CONST>
1

>  <SCORE.INTER.POLAR>
-1.79672

>  <SCORE.INTER.ROT>
15

>  <SCORE.INTER.SOLV>
12.2233

>  <SCORE.INTER.VDW>
-16.8447

>  <SCORE.INTER.norm>
-0.209163

>  <SCORE.INTRA>
-7.96637

>  <SCORE.INTRA.DIHEDRAL>
-17.5334

>  <SCORE.INTRA.DIHEDRAL.0>
21.5987

>  <SCORE.INTRA.POLAR>
0

>  <SCORE.INTRA.POLAR.0>
0

>  <SCORE.INTRA.REPUL>
0

>  <SCORE.INTRA.REPUL.0>
0

>  <SCORE.INTRA.SOLV>
0.728088

>  <SCORE.INTRA.SOLV.lig_0>
-108.715

>  <SCORE.INTRA.VDW>
0.43629

>  <SCORE.INTRA.VDW.0>
-3.9485

>  <SCORE.INTRA.norm>
-0.215307

>  <SCORE.RESTR>
0

>  <SCORE.RESTR.CAVITY>
0

>  <SCORE.RESTR.norm>
0

>  <SCORE.SYSTEM>
0

>  <SCORE.SYSTEM.CONST>
0

>  <SCORE.SYSTEM.DIHEDRAL>
0

>  <SCORE.SYSTEM.SOLV>
0

>  <SCORE.SYSTEM.norm>
0

>  <SCORE.heavy>
37

>  <SCORE.norm>
-0.42447

>  <RMSD>
8.321

$$$$
1o9m_lig
 OpenBabel11021811403D
libRbt.so/2013.1/901 2013/11/27
 37 38  0  0  0  0  0  0  0  0999 V2000
  -11.6536   18.9874    5.5048 C   0  0  2  0  0  0  0  0  0  0  0  0
  -10.6565   18.2747    6.2986 O   0  0  0  0  0  0  0  0  0  0  0  0
  -11.6082   20.4871    5.9775 C   0  0  2  0  0  0  0  0  0  0  0  0
  -10.2745   21.0871    5.7981 N   0  0  0  0  0  0  0  0  0  0  0  0
  -12.0569   20.5650    7.4862 C   0  0  1  0  0  0  0  0  0  0  0  0
  -12.0257   21.9211    7.9397 O   0  0  0  0  0  0  0  0  0  0  0  0
  -13.4842   19.9352    7.6020 C   0  0  2  0  0  0  0  0  0  0  0  0
  -13.9877   19.9384    8.9479 O   0  0  0  0  0  0  0  0  0  0  0  0
  -13.4836   18.4801    7.0718 C   0  0  2  0  0  0  0  0  0  0  0  0
  -12.9914   18.4265    5.7249 O   0  0  0  0  0  0  0  0  0  0  0  0
  -14.8600   17.8688    7.1201 C   0  0  0  0  0  0  0  0  0  0  0  0
  -14.9066   16.7388    6.3389 N   0  0  0  0  0  0  0  0  0  0  0  0
   -7.0629   16.0069    5.4245 C   0  0  1  0  0  0  0  0  0  0  0  0
   -5.7344   15.6548    4.8496 N   0  0  0  0  0  0  0  0  0  0  0  0
   -6.9186   17.2745    6.2558 C   0  0  2  0  0  0  0  0  0  0  0  0
   -5.9536   17.0369    7.2369 O   0  0  0  0  0  0  0  0  0  0  0  0
   -8.2863   17.6724    6.8950 C   0  0  1  0  0  0  0  0  0  0  0  0
   -8.1399   18.9005    7.6714 O   0  0  0  0  0  0  0  0  0  0  0  0
   -9.3544   17.9177    5.7527 C   0  0  1  0  0  0  0  0  0  0  0  0
   -9.5213   16.6515    4.9264 C   0  0  1  0  0  0  0  0  0  0  0  0
  -10.5169   16.8939    3.8931 N   0  0  0  0  0  0  0  0  0  0  0  0
   -8.1575   16.2448    4.3069 C   0  0  0  0  0  0  0  0  0  0  0  0
   -4.6641   16.7303    7.8111 C   0  0  0  0  0  0  0  0  0  0  0  0
   -4.7534   16.8312    9.3165 C   0  0  0  0  0  0  0  0  0  0  0  0
   -3.9471   17.9240    9.8984 N   0  0  0  0  0  0  0  0  0  0  0  0
   -3.2645   19.2240   10.0890 C   0  0  0  0  0  0  0  0  0  0  0  0
   -4.3180   20.1045    9.4050 C   0  0  0  0  0  0  0  0  0  0  0  0
   -5.6344   20.1684   10.2021 C   0  0  0  0  0  0  0  0  0  0  0  0
   -6.7174   20.9004    9.4156 C   0  0  0  0  0  0  0  0  0  0  0  0
   -8.0289   20.6008    9.9728 N   0  0  0  0  0  0  0  0  0  0  0  0
   -4.4401   11.9232    4.6908 N   0  0  0  0  0  0  0  0  0  0  0  0
   -5.8784   14.4058    3.5983 C   0  0  0  0  0  0  0  0  0  0  0  0
   -6.6975   13.8591    3.1575 O   0  0  0  0  0  0  0  0  0  0  0  0
   -4.3750   14.4871    3.4938 C   0  0  2  0  0  0  0  0  0  0  0  0
   -3.9860   15.5806    2.7625 O   0  0  0  0  0  0  0  0  0  0  0  0
   -3.9184   13.2551    2.7204 C   0  0  0  0  0  0  0  0  0  0  0  0
   -4.4263   11.8908    3.2211 C   0  0  0  0  0  0  0  0  0  0  0  0
  1  2  1  1  0  0  0
  1  3  1  0  0  0  0
  3  4  1  1  0  0  0
  3  5  1  0  0  0  0
  5  6  1  6  0  0  0
  5  7  1  0  0  0  0
  7  8  1  1  0  0  0
  9  7  1  0  0  0  0
  9 10  1  0  0  0  0
  9 11  1  6  0  0  0
 10  1  1  0  0  0  0
 11 12  1  0  0  0  0
 13 14  1  6  0  0  0
 13 15  1  0  0  0  0
 13 22  1  0  0  0  0
 14 32  1  0  0  0  0
 15 16  1  1  0  0  0
 15 17  1  0  0  0  0
 16 23  1  0  0  0  0
 17 18  1  6  0  0  0
 17 19  1  0  0  0  0
 19  2  1  1  0  0  0
 19 20  1  0  0  0  0
 20 21  1  6  0  0  0
 20 22  1  0  0  0  0
 23 24  1  0  0  0  0
 24 25  1  0  0  0  0
 25 26  1  0  0  0  0
 26 27  1  0  0  0  0
 27 28  1  0  0  0  0
 28 29  1  0  0  0  0
 29 30  1  0  0  0  0
 31 37  1  0  0  0  0
 32 33  2  0  0  0  0
 34 32  1  6  0  0  0
 34 35  1  0  0  0  0
 34 36  1  0  0  0  0
 36 37  1  0  0  0  0
M  END
>  <CHROM.1>
-102.16726035,164.25231811,-167.77001242,61.98277100,176.00120170,158.25802885
-114.11729550,34.80099299,34.94261723,68.21576086,-172.75497542,162.50015248
-78.66175553,-51.61239586,-38.11650985,-8.29669230,17.60547684,6.46622599
2.58632128,-0.22021179,0.79547280

>  <Name>
1o9m_lig

>  <RI>
0

>  <Rbt.Current_Directory>
/home/itssahil/PROJECTS/Mol_Feturizer/New_Systems/rnas/1o9m

>  <Rbt.Executable>
rbdock ($Id: //depot/dev/client3/rdock/2013.1/src/exe/rbdock.cxx#4 $)

>  <Rbt.Library>
libRbt.so (2013.1, Build901 2013/11/27)

>  <Rbt.Parameter_File>
/export/apps/rDock/src/rDock_2013.1_src/data/scripts/dock_solv.prm

>  <Rbt.Receptor>
prm/pocket_docking_2.prm

>  <SCORE>
4.25072

>  <SCORE.INTER>
-2.94104

>  <SCORE.INTER.CONST>
1

>  <SCORE.INTER.POLAR>
-0.959166

>  <SCORE.INTER.ROT>
15

>  <SCORE.INTER.SOLV>
27.6459

>  <SCORE.INTER.VDW>
-21.5788

>  <SCORE.INTER.norm>
-0.0794876

>  <SCORE.INTRA>
3.03334

>  <SCORE.INTRA.DIHEDRAL>
-1.97752

>  <SCORE.INTRA.DIHEDRAL.0>
21.5987

>  <SCORE.INTRA.POLAR>
0

>  <SCORE.INTRA.POLAR.0>
0

>  <SCORE.INTRA.REPUL>
0

>  <SCORE.INTRA.REPUL.0>
0

>  <SCORE.INTRA.SOLV>
5.94763

>  <SCORE.INTRA.SOLV.lig_0>
-108.715

>  <SCORE.INTRA.VDW>
1.04829

>  <SCORE.INTRA.VDW.0>
-3.9485

>  <SCORE.INTRA.norm>
0.0819823

>  <SCORE.RESTR>
4.15842

>  <SCORE.RESTR.CAVITY>
4.15842

>  <SCORE.RESTR.norm>
0.11239

>  <SCORE.SYSTEM>
0

>  <SCORE.SYSTEM.CONST>
0

>  <SCORE.SYSTEM.DIHEDRAL>
0

>  <SCORE.SYSTEM.SOLV>
0

>  <SCORE.SYSTEM.norm>
0

>  <SCORE.heavy>
37

>  <SCORE.norm>
0.114884

>  <RMSD>
8.322

$$$$
1o9m_lig
 OpenBabel11021811403D
libRbt.so/2013.1/901 2013/11/27
 37 38  0  0  0  0  0  0  0  0999 V2000
   -6.5120   10.1821    0.5053 C   0  0  2  0  0  0  0  0  0  0  0  0
   -6.2535   10.7539    1.8238 O   0  0  0  0  0  0  0  0  0  0  0  0
   -8.0429    9.8222    0.4697 C   0  0  2  0  0  0  0  0  0  0  0  0
   -8.8972   10.9998    0.7028 N   0  0  0  0  0  0  0  0  0  0  0  0
   -8.3332    8.7018    1.5394 C   0  0  1  0  0  0  0  0  0  0  0  0
   -9.7207    8.3553    1.5253 O   0  0  0  0  0  0  0  0  0  0  0  0
   -7.4141    7.4764    1.2213 C   0  0  2  0  0  0  0  0  0  0  0  0
   -7.5851    6.3947    2.1517 O   0  0  0  0  0  0  0  0  0  0  0  0
   -5.9241    7.8987    1.2139 C   0  0  2  0  0  0  0  0  0  0  0  0
   -5.7025    8.9770    0.2932 O   0  0  0  0  0  0  0  0  0  0  0  0
   -5.0205    6.7477    0.8545 C   0  0  0  0  0  0  0  0  0  0  0  0
   -3.7044    7.1405    0.9103 N   0  0  0  0  0  0  0  0  0  0  0  0
   -3.0728   13.2901    3.3311 C   0  0  1  0  0  0  0  0  0  0  0  0
   -2.1843   14.4749    3.4932 N   0  0  0  0  0  0  0  0  0  0  0  0
   -4.5094   13.7111    3.6092 C   0  0  2  0  0  0  0  0  0  0  0  0
   -4.5578   14.2477    4.8976 O   0  0  0  0  0  0  0  0  0  0  0  0
   -5.4769   12.4937    3.4688 C   0  0  1  0  0  0  0  0  0  0  0  0
   -6.8533   12.9144    3.7163 O   0  0  0  0  0  0  0  0  0  0  0  0
   -5.3812   11.9064    2.0019 C   0  0  1  0  0  0  0  0  0  0  0  0
   -3.9534   11.4646    1.7188 C   0  0  1  0  0  0  0  0  0  0  0  0
   -3.8910   10.9150    0.3728 N   0  0  0  0  0  0  0  0  0  0  0  0
   -2.9890   12.6704    1.8776 C   0  0  0  0  0  0  0  0  0  0  0  0
   -5.1267   14.7613    6.1219 C   0  0  0  0  0  0  0  0  0  0  0  0
   -6.0309   15.9286    5.7988 C   0  0  0  0  0  0  0  0  0  0  0  0
   -6.7974   16.4380    6.9546 N   0  0  0  0  0  0  0  0  0  0  0  0
   -7.9089   16.9161    7.8081 C   0  0  0  0  0  0  0  0  0  0  0  0
   -8.0551   18.3093    7.1832 C   0  0  0  0  0  0  0  0  0  0  0  0
   -9.3131   19.0452    7.6812 C   0  0  0  0  0  0  0  0  0  0  0  0
  -10.5685   18.5090    7.0001 C   0  0  0  0  0  0  0  0  0  0  0  0
  -11.7567   19.0642    7.6328 N   0  0  0  0  0  0  0  0  0  0  0  0
   -0.7020   19.0106    5.0111 N   0  0  0  0  0  0  0  0  0  0  0  0
   -1.7678   14.7464    5.1960 C   0  0  0  0  0  0  0  0  0  0  0  0
   -1.9989   14.2503    6.1258 O   0  0  0  0  0  0  0  0  0  0  0  0
   -0.9986   15.9489    4.7060 C   0  0  2  0  0  0  0  0  0  0  0  0
    0.1731   15.5754    4.0981 O   0  0  0  0  0  0  0  0  0  0  0  0
   -0.6158   16.7609    5.9384 C   0  0  0  0  0  0  0  0  0  0  0  0
    0.1801   18.0567    5.6988 C   0  0  0  0  0  0  0  0  0  0  0  0
  1  2  1  1  0  0  0
  1  3  1  0  0  0  0
  3  4  1  1  0  0  0
  3  5  1  0  0  0  0
  5  6  1  6  0  0  0
  5  7  1  0  0  0  0
  7  8  1  1  0  0  0
  9  7  1  0  0  0  0
  9 10  1  0  0  0  0
  9 11  1  6  0  0  0
 10  1  1  0  0  0  0
 11 12  1  0  0  0  0
 13 14  1  6  0  0  0
 13 15  1  0  0  0  0
 13 22  1  0  0  0  0
 14 32  1  0  0  0  0
 15 16  1  1  0  0  0
 15 17  1  0  0  0  0
 16 23  1  0  0  0  0
 17 18  1  6  0  0  0
 17 19  1  0  0  0  0
 19  2  1  1  0  0  0
 19 20  1  0  0  0  0
 20 21  1  6  0  0  0
 20 22  1  0  0  0  0
 23 24  1  0  0  0  0
 24 25  1  0  0  0  0
 25 26  1  0  0  0  0
 26 27  1  0  0  0  0
 27 28  1  0  0  0  0
 28 29  1  0  0  0  0
 29 30  1  0  0  0  0
 31 37  1  0  0  0  0
 32 33  2  0  0  0  0
 34 32  1  1  0  0  0
 34 35  1  0  0  0  0
 34 36  1  0  0  0  0
 36 37  1  0  0  0  0
M  END
>  <CHROM.1>
-139.27480163,-177.53483324,82.53478902,-169.16216595,-56.91693733,169.38485017
173.08671966,-131.48511373,-74.80611373,170.44693988,-76.89126792,171.04568240
-74.96548037,-179.72166834,67.63311060,-5.34282772,13.08823246,3.64772940
1.71551593,-0.11312397,-2.58806300

>  <Name>
1o9m_lig

>  <RI>
0

>  <Rbt.Current_Directory>
/home/itssahil/PROJECTS/Mol_Feturizer/New_Systems/rnas/1o9m

>  <Rbt.Executable>
rbdock ($Id: //depot/dev/client3/rdock/2013.1/src/exe/rbdock.cxx#4 $)

>  <Rbt.Library>
libRbt.so (2013.1, Build901 2013/11/27)

>  <Rbt.Parameter_File>
/export/apps/rDock/src/rDock_2013.1_src/data/scripts/dock_solv.prm

>  <Rbt.Receptor>
prm/pocket_docking_6.prm

>  <SCORE>
-16.345

>  <SCORE.INTER>
-13.5622

>  <SCORE.INTER.CONST>
1

>  <SCORE.INTER.POLAR>
-1.72915

>  <SCORE.INTER.ROT>
15

>  <SCORE.INTER.SOLV>
18.9447

>  <SCORE.INTER.VDW>
-23.1926

>  <SCORE.INTER.norm>
-0.366547

>  <SCORE.INTRA>
-2.78272

>  <SCORE.INTRA.DIHEDRAL>
-10.1656

>  <SCORE.INTRA.DIHEDRAL.0>
21.5987

>  <SCORE.INTRA.POLAR>
0

>  <SCORE.INTRA.POLAR.0>
0

>  <SCORE.INTRA.REPUL>
0

>  <SCORE.INTRA.REPUL.0>
0

>  <SCORE.INTRA.SOLV>
3.39196

>  <SCORE.INTRA.SOLV.lig_0>
-108.715

>  <SCORE.INTRA.VDW>
0.604079

>  <SCORE.INTRA.VDW.0>
-3.9485

>  <SCORE.INTRA.norm>
-0.0752086

>  <SCORE.RESTR>
0

>  <SCORE.RESTR.CAVITY>
0

>  <SCORE.RESTR.norm>
0

>  <SCORE.SYSTEM>
0

>  <SCORE.SYSTEM.CONST>
0

>  <SCORE.SYSTEM.DIHEDRAL>
0

>  <SCORE.SYSTEM.SOLV>
0

>  <SCORE.SYSTEM.norm>
0

>  <SCORE.heavy>
37

>  <SCORE.norm>
-0.441756

>  <RMSD>
8.329

$$$$
1o9m_lig
 OpenBabel11021811403D
libRbt.so/2013.1/901 2013/11/27
 37 38  0  0  0  0  0  0  0  0999 V2000
  -11.4748   20.8978    3.0678 C   0  0  2  0  0  0  0  0  0  0  0  0
  -11.7014   19.7964    3.9992 O   0  0  0  0  0  0  0  0  0  0  0  0
  -12.6642   20.8612    2.0389 C   0  0  2  0  0  0  0  0  0  0  0  0
  -13.9748   20.9985    2.6981 N   0  0  0  0  0  0  0  0  0  0  0  0
  -12.5915   19.5193    1.2157 C   0  0  1  0  0  0  0  0  0  0  0  0
  -13.6634   19.4630    0.2705 O   0  0  0  0  0  0  0  0  0  0  0  0
  -11.1895   19.4481    0.5252 C   0  0  2  0  0  0  0  0  0  0  0  0
  -11.0070   18.2481   -0.2439 O   0  0  0  0  0  0  0  0  0  0  0  0
  -10.0572   19.5448    1.5773 C   0  0  2  0  0  0  0  0  0  0  0  0
  -10.1950   20.7335    2.3694 O   0  0  0  0  0  0  0  0  0  0  0  0
   -8.6952   19.5351    0.9326 C   0  0  0  0  0  0  0  0  0  0  0  0
   -8.5569   20.6171    0.0962 N   0  0  0  0  0  0  0  0  0  0  0  0
   -8.2022   19.9577    6.5585 C   0  0  1  0  0  0  0  0  0  0  0  0
   -7.2921   19.6823    7.7054 N   0  0  0  0  0  0  0  0  0  0  0  0
   -8.4963   18.6486    5.8387 C   0  0  2  0  0  0  0  0  0  0  0  0
   -7.2780   18.0957    5.4383 O   0  0  0  0  0  0  0  0  0  0  0  0
   -9.4344   18.8919    4.6147 C   0  0  1  0  0  0  0  0  0  0  0  0
   -9.7266   17.6270    3.9460 O   0  0  0  0  0  0  0  0  0  0  0  0
  -10.7955   19.5318    5.1084 C   0  0  1  0  0  0  0  0  0  0  0  0
  -10.5161   20.8506    5.8131 C   0  0  1  0  0  0  0  0  0  0  0  0
  -11.7800   21.4283    6.2450 N   0  0  0  0  0  0  0  0  0  0  0  0
   -9.5677   20.6117    7.0183 C   0  0  0  0  0  0  0  0  0  0  0  0
   -5.9662   17.5018    5.5528 C   0  0  0  0  0  0  0  0  0  0  0  0
   -5.4683   17.1267    4.1759 C   0  0  0  0  0  0  0  0  0  0  0  0
   -4.1684   16.4243    4.1734 N   0  0  0  0  0  0  0  0  0  0  0  0
   -2.9741   15.6719    3.7261 C   0  0  0  0  0  0  0  0  0  0  0  0
   -3.7124   14.5214    3.0303 C   0  0  0  0  0  0  0  0  0  0  0  0
   -2.7662   13.3712    2.6378 C   0  0  0  0  0  0  0  0  0  0  0  0
   -3.4959   12.3186    1.8089 C   0  0  0  0  0  0  0  0  0  0  0  0
   -4.5542   11.7053    2.5989 N   0  0  0  0  0  0  0  0  0  0  0  0
   -6.1929   15.9160   10.7161 N   0  0  0  0  0  0  0  0  0  0  0  0
   -8.0460   18.5941    8.8861 C   0  0  0  0  0  0  0  0  0  0  0  0
   -8.9947   18.0852    8.9567 O   0  0  0  0  0  0  0  0  0  0  0  0
   -6.7761   18.7542    9.6857 C   0  0  2  0  0  0  0  0  0  0  0  0
   -5.7501   18.0245    9.1407 O   0  0  0  0  0  0  0  0  0  0  0  0
   -7.0470   18.1690   11.0673 C   0  0  0  0  0  0  0  0  0  0  0  0
   -7.3846   16.6685   11.1340 C   0  0  0  0  0  0  0  0  0  0  0  0
  1  2  1  1  0  0  0
  1  3  1  0  0  0  0
  3  4  1  1  0  0  0
  3  5  1  0  0  0  0
  5  6  1  6  0  0  0
  5  7  1  0  0  0  0
  7  8  1  1  0  0  0
  9  7  1  0  0  0  0
  9 10  1  0  0  0  0
  9 11  1  6  0  0  0
 10  1  1  0  0  0  0
 11 12  1  0  0  0  0
 13 14  1  1  0  0  0
 13 15  1  0  0  0  0
 13 22  1  0  0  0  0
 14 32  1  0  0  0  0
 15 16  1  6  0  0  0
 15 17  1  0  0  0  0
 16 23  1  0  0  0  0
 17 18  1  1  0  0  0
 17 19  1  0  0  0  0
 19  2  1  6  0  0  0
 19 20  1  0  0  0  0
 20 21  1  1  0  0  0
 20 22  1  0  0  0  0
 23 24  1  0  0  0  0
 24 25  1  0  0  0  0
 25 26  1  0  0  0  0
 26 27  1  0  0  0  0
 27 28  1  0  0  0  0
 28 29  1  0  0  0  0
 29 30  1  0  0  0  0
 31 37  1  0  0  0  0
 32 33  2  0  0  0  0
 34 32  1  6  0  0  0
 34 35  1  0  0  0  0
 34 36  1  0  0  0  0
 36 37  1  0  0  0  0
M  END
>  <CHROM.1>
-179.33440812,61.28945984,-62.02005151,64.90678320,174.65679187,-73.62650153
-176.09526401,171.91421948,-51.43697998,-169.77210368,-173.47223546,-63.28886816
-75.63953112,62.34874182,66.01223987,-8.44174514,18.30258160,4.68665103,2.74784592
0.65712760,-1.76942195

>  <Name>
1o9m_lig

>  <RI>
0

>  <Rbt.Current_Directory>
/home/itssahil/PROJECTS/Mol_Feturizer/New_Systems/rnas/1o9m

>  <Rbt.Executable>
rbdock ($Id: //depot/dev/client3/rdock/2013.1/src/exe/rbdock.cxx#4 $)

>  <Rbt.Library>
libRbt.so (2013.1, Build901 2013/11/27)

>  <Rbt.Parameter_File>
/export/apps/rDock/src/rDock_2013.1_src/data/scripts/dock_solv.prm

>  <Rbt.Receptor>
prm/pocket_docking_8.prm

>  <SCORE>
-5.88074

>  <SCORE.INTER>
0.507916

>  <SCORE.INTER.CONST>
1

>  <SCORE.INTER.POLAR>
-0.391494

>  <SCORE.INTER.ROT>
15

>  <SCORE.INTER.SOLV>
11.4396

>  <SCORE.INTER.VDW>
-15.7696

>  <SCORE.INTER.norm>
0.0137275

>  <SCORE.INTRA>
-6.38866

>  <SCORE.INTRA.DIHEDRAL>
-18.5563

>  <SCORE.INTRA.DIHEDRAL.0>
21.5987

>  <SCORE.INTRA.POLAR>
0

>  <SCORE.INTRA.POLAR.0>
0

>  <SCORE.INTRA.REPUL>
0

>  <SCORE.INTRA.REPUL.0>
0

>  <SCORE.INTRA.SOLV>
4.81934

>  <SCORE.INTRA.SOLV.lig_0>
-108.715

>  <SCORE.INTRA.VDW>
0.479841

>  <SCORE.INTRA.VDW.0>
-3.9485

>  <SCORE.INTRA.norm>
-0.172666

>  <SCORE.RESTR>
0

>  <SCORE.RESTR.CAVITY>
0

>  <SCORE.RESTR.norm>
0

>  <SCORE.SYSTEM>
0

>  <SCORE.SYSTEM.CONST>
0

>  <SCORE.SYSTEM.DIHEDRAL>
0

>  <SCORE.SYSTEM.SOLV>
0

>  <SCORE.SYSTEM.norm>
0

>  <SCORE.heavy>
37

>  <SCORE.norm>
-0.158939

>  <RMSD>
8.332

$$$$
1o9m_lig
 OpenBabel11021811403D
libRbt.so/2013.1/901 2013/11/27
 37 38  0  0  0  0  0  0  0  0999 V2000
  -11.6242   21.5651    5.7866 C   0  0  2  0  0  0  0  0  0  0  0  0
  -11.2093   20.7582    6.9307 O   0  0  0  0  0  0  0  0  0  0  0  0
  -12.7268   22.5538    6.3170 C   0  0  2  0  0  0  0  0  0  0  0  0
  -12.2276   23.4122    7.4055 N   0  0  0  0  0  0  0  0  0  0  0  0
  -13.9786   21.7222    6.7916 C   0  0  1  0  0  0  0  0  0  0  0  0
  -14.9975   22.6003    7.2775 O   0  0  0  0  0  0  0  0  0  0  0  0
  -14.4707   20.8542    5.5866 C   0  0  2  0  0  0  0  0  0  0  0  0
  -15.6061   20.0370    5.9151 O   0  0  0  0  0  0  0  0  0  0  0  0
  -13.3310   19.9422    5.0693 C   0  0  2  0  0  0  0  0  0  0  0  0
  -12.1733   20.7163    4.7232 O   0  0  0  0  0  0  0  0  0  0  0  0
  -13.7628   19.1357    3.8718 C   0  0  0  0  0  0  0  0  0  0  0  0
  -12.7156   18.3766    3.4066 N   0  0  0  0  0  0  0  0  0  0  0  0
   -8.0813   18.0117    8.1524 C   0  0  1  0  0  0  0  0  0  0  0  0
   -6.8185   17.2219    8.1167 N   0  0  0  0  0  0  0  0  0  0  0  0
   -7.7370   19.4930    8.0782 C   0  0  2  0  0  0  0  0  0  0  0  0
   -6.8862   19.7900    9.1450 O   0  0  0  0  0  0  0  0  0  0  0  0
   -9.0326   20.3627    8.1314 C   0  0  1  0  0  0  0  0  0  0  0  0
   -8.6912   21.7794    8.0376 O   0  0  0  0  0  0  0  0  0  0  0  0
   -9.9748   19.9857    6.9165 C   0  0  1  0  0  0  0  0  0  0  0  0
  -10.3413   18.5112    6.9903 C   0  0  1  0  0  0  0  0  0  0  0  0
  -11.2185   18.1897    5.8746 N   0  0  0  0  0  0  0  0  0  0  0  0
   -9.0522   17.6472    6.9573 C   0  0  0  0  0  0  0  0  0  0  0  0
   -6.0314   20.5711   10.0087 C   0  0  0  0  0  0  0  0  0  0  0  0
   -4.9590   21.2366    9.1772 C   0  0  0  0  0  0  0  0  0  0  0  0
   -3.7650   21.6458    9.9451 N   0  0  0  0  0  0  0  0  0  0  0  0
   -2.3744   22.0101   10.3000 C   0  0  0  0  0  0  0  0  0  0  0  0
   -1.7148   20.6807    9.9117 C   0  0  0  0  0  0  0  0  0  0  0  0
   -0.2085   20.6590   10.2322 C   0  0  0  0  0  0  0  0  0  0  0  0
    0.0352   20.3385   11.7037 C   0  0  0  0  0  0  0  0  0  0  0  0
   -0.2251   21.5148   12.5215 N   0  0  0  0  0  0  0  0  0  0  0  0
   -5.5747   13.3822    4.9182 N   0  0  0  0  0  0  0  0  0  0  0  0
   -5.9603   17.4381    6.5793 C   0  0  0  0  0  0  0  0  0  0  0  0
   -6.1361   18.0110    5.6821 O   0  0  0  0  0  0  0  0  0  0  0  0
   -4.9467   16.4653    7.1303 C   0  0  2  0  0  0  0  0  0  0  0  0
   -3.6973   16.7049    6.6167 O   0  0  0  0  0  0  0  0  0  0  0  0
   -5.3604   15.0778    6.6524 C   0  0  0  0  0  0  0  0  0  0  0  0
   -5.2335   14.7941    5.1447 C   0  0  0  0  0  0  0  0  0  0  0  0
  1  2  1  1  0  0  0
  1  3  1  0  0  0  0
  3  4  1  1  0  0  0
  3  5  1  0  0  0  0
  5  6  1  6  0  0  0
  5  7  1  0  0  0  0
  7  8  1  1  0  0  0
  9  7  1  0  0  0  0
  9 10  1  0  0  0  0
  9 11  1  6  0  0  0
 10  1  1  0  0  0  0
 11 12  1  0  0  0  0
 13 14  1  6  0  0  0
 13 15  1  0  0  0  0
 13 22  1  0  0  0  0
 14 32  1  0  0  0  0
 15 16  1  1  0  0  0
 15 17  1  0  0  0  0
 16 23  1  0  0  0  0
 17 18  1  6  0  0  0
 17 19  1  0  0  0  0
 19  2  1  1  0  0  0
 19 20  1  0  0  0  0
 20 21  1  6  0  0  0
 20 22  1  0  0  0  0
 23 24  1  0  0  0  0
 24 25  1  0  0  0  0
 25 26  1  0  0  0  0
 26 27  1  0  0  0  0
 27 28  1  0  0  0  0
 28 29  1  0  0  0  0
 29 30  1  0  0  0  0
 31 37  1  0  0  0  0
 32 33  2  0  0  0  0
 34 32  1  6  0  0  0
 34 35  1  0  0  0  0
 34 36  1  0  0  0  0
 36 37  1  0  0  0  0
M  END
>  <CHROM.1>
-163.53320148,177.70650353,-63.82671138,178.19625099,-53.94710095,124.18320225
-158.94771017,154.69404374,-60.96590559,-176.62583519,81.32378320,-77.27872834
-150.81859852,68.37704572,175.44188811,-8.19481160,19.56073589,7.34892313
3.05532652,0.33996319,-2.60218736

>  <Name>
1o9m_lig

>  <RI>
0

>  <Rbt.Current_Directory>
/home/itssahil/PROJECTS/Mol_Feturizer/New_Systems/rnas/1o9m

>  <Rbt.Executable>
rbdock ($Id: //depot/dev/client3/rdock/2013.1/src/exe/rbdock.cxx#4 $)

>  <Rbt.Library>
libRbt.so (2013.1, Build901 2013/11/27)

>  <Rbt.Parameter_File>
/export/apps/rDock/src/rDock_2013.1_src/data/scripts/dock_solv.prm

>  <Rbt.Receptor>
prm/pocket_docking_4.prm

>  <SCORE>
3.9824

>  <SCORE.INTER>
4.54978

>  <SCORE.INTER.CONST>
1

>  <SCORE.INTER.POLAR>
-1.23243

>  <SCORE.INTER.ROT>
15

>  <SCORE.INTER.SOLV>
13.3994

>  <SCORE.INTER.VDW>
-10.9252

>  <SCORE.INTER.norm>
0.122967

>  <SCORE.INTRA>
-0.567385

>  <SCORE.INTRA.DIHEDRAL>
-6.10848

>  <SCORE.INTRA.DIHEDRAL.0>
21.5987

>  <SCORE.INTRA.POLAR>
0

>  <SCORE.INTRA.POLAR.0>
0

>  <SCORE.INTRA.REPUL>
0

>  <SCORE.INTRA.REPUL.0>
0

>  <SCORE.INTRA.SOLV>
5.5158

>  <SCORE.INTRA.SOLV.lig_0>
-108.715

>  <SCORE.INTRA.VDW>
-0.271048

>  <SCORE.INTRA.VDW.0>
-3.9485

>  <SCORE.INTRA.norm>
-0.0153347

>  <SCORE.RESTR>
0

>  <SCORE.RESTR.CAVITY>
0

>  <SCORE.RESTR.norm>
0

>  <SCORE.SYSTEM>
0

>  <SCORE.SYSTEM.CONST>
0

>  <SCORE.SYSTEM.DIHEDRAL>
0

>  <SCORE.SYSTEM.SOLV>
0

>  <SCORE.SYSTEM.norm>
0

>  <SCORE.heavy>
37

>  <SCORE.norm>
0.107632

>  <RMSD>
8.362

$$$$
1o9m_lig
 OpenBabel11021811403D
libRbt.so/2013.1/901 2013/11/27
 37 38  0  0  0  0  0  0  0  0999 V2000
  -10.5727   20.4669    8.0138 C   0  0  2  0  0  0  0  0  0  0  0  0
  -10.5557   19.3529    7.0700 O   0  0  0  0  0  0  0  0  0  0  0  0
  -12.0325   21.0523    7.9837 C   0  0  2  0  0  0  0  0  0  0  0  0
  -13.0438   20.0451    8.3494 N   0  0  0  0  0  0  0  0  0  0  0  0
  -12.3222   21.6390    6.5499 C   0  0  1  0  0  0  0  0  0  0  0  0
  -13.6452   22.1798    6.4975 O   0  0  0  0  0  0  0  0  0  0  0  0
  -11.2305   22.7144    6.2351 C   0  0  2  0  0  0  0  0  0  0  0  0
  -11.3896   23.3066    4.9356 O   0  0  0  0  0  0  0  0  0  0  0  0
   -9.8130   22.0985    6.3338 C   0  0  2  0  0  0  0  0  0  0  0  0
   -9.6049   21.4970    7.6200 O   0  0  0  0  0  0  0  0  0  0  0  0
   -8.7400   23.1280    6.0899 C   0  0  0  0  0  0  0  0  0  0  0  0
   -7.5074   22.5236    6.0211 N   0  0  0  0  0  0  0  0  0  0  0  0
   -7.5810   16.2004    6.8883 C   0  0  1  0  0  0  0  0  0  0  0  0
   -6.3230   15.4800    6.5444 N   0  0  0  0  0  0  0  0  0  0  0  0
   -7.2281   17.4668    7.6564 C   0  0  2  0  0  0  0  0  0  0  0  0
   -6.4955   17.0941    8.7854 O   0  0  0  0  0  0  0  0  0  0  0  0
   -8.5204   18.2470    8.0552 C   0  0  1  0  0  0  0  0  0  0  0  0
   -8.1683   19.4697    8.7718 O   0  0  0  0  0  0  0  0  0  0  0  0
   -9.3282   18.6372    6.7509 C   0  0  1  0  0  0  0  0  0  0  0  0
   -9.7030   17.3780    5.9842 C   0  0  1  0  0  0  0  0  0  0  0  0
  -10.4567   17.7579    4.7987 N   0  0  0  0  0  0  0  0  0  0  0  0
   -8.4194   16.5922    5.6048 C   0  0  0  0  0  0  0  0  0  0  0  0
   -5.3785   16.6228    9.5708 C   0  0  0  0  0  0  0  0  0  0  0  0
   -4.2120   17.5673    9.3930 C   0  0  0  0  0  0  0  0  0  0  0  0
   -3.2590   17.5708   10.5221 N   0  0  0  0  0  0  0  0  0  0  0  0
   -2.6969   17.6052   11.8914 C   0  0  0  0  0  0  0  0  0  0  0  0
   -2.2983   19.0864   11.9061 C   0  0  0  0  0  0  0  0  0  0  0  0
   -1.4978   19.4647   13.1664 C   0  0  0  0  0  0  0  0  0  0  0  0
   -0.0892   18.8806   13.1179 C   0  0  0  0  0  0  0  0  0  0  0  0
    0.7180   19.6017   12.1440 N   0  0  0  0  0  0  0  0  0  0  0  0
   -3.4132   13.4860    3.0498 N   0  0  0  0  0  0  0  0  0  0  0  0
   -5.2783   16.4603    5.4983 C   0  0  0  0  0  0  0  0  0  0  0  0
   -5.3402   17.4485    5.0697 O   0  0  0  0  0  0  0  0  0  0  0  0
   -4.3412   15.2773    5.5049 C   0  0  2  0  0  0  0  0  0  0  0  0
   -3.6368   15.2077    6.6801 O   0  0  0  0  0  0  0  0  0  0  0  0
   -3.3232   15.5137    4.3948 C   0  0  0  0  0  0  0  0  0  0  0  0
   -2.5285   14.2890    3.9064 C   0  0  0  0  0  0  0  0  0  0  0  0
  1  2  1  6  0  0  0
  1  3  1  0  0  0  0
  3  4  1  6  0  0  0
  3  5  1  0  0  0  0
  5  6  1  1  0  0  0
  5  7  1  0  0  0  0
  7  8  1  6  0  0  0
  9  7  1  0  0  0  0
  9 10  1  0  0  0  0
  9 11  1  1  0  0  0
 10  1  1  0  0  0  0
 11 12  1  0  0  0  0
 13 14  1  6  0  0  0
 13 15  1  0  0  0  0
 13 22  1  0  0  0  0
 14 32  1  0  0  0  0
 15 16  1  1  0  0  0
 15 17  1  0  0  0  0
 16 23  1  0  0  0  0
 17 18  1  6  0  0  0
 17 19  1  0  0  0  0
 19  2  1  1  0  0  0
 19 20  1  0  0  0  0
 20 21  1  6  0  0  0
 20 22  1  0  0  0  0
 23 24  1  0  0  0  0
 24 25  1  0  0  0  0
 25 26  1  0  0  0  0
 26 27  1  0  0  0  0
 27 28  1  0  0  0  0
 28 29  1  0  0  0  0
 29 30  1  0  0  0  0
 31 37  1  0  0  0  0
 32 33  2  0  0  0  0
 34 32  1  1  0  0  0
 34 35  1  0  0  0  0
 34 36  1  0  0  0  0
 36 37  1  0  0  0  0
M  END
>  <CHROM.1>
174.76884955,-172.62434203,-61.74621976,72.32874439,61.36830181,47.47958415
154.67495789,-47.06185103,-100.12158490,-173.05306979,71.98451053,72.66477638
-77.23726364,-161.95939999,76.23189169,-7.01271171,18.62689383,7.49925556
-3.07478778,0.50584286,-2.29239474

>  <Name>
1o9m_lig

>  <RI>
0

>  <Rbt.Current_Directory>
/home/itssahil/PROJECTS/Mol_Feturizer/New_Systems/rnas/1o9m

>  <Rbt.Executable>
rbdock ($Id: //depot/dev/client3/rdock/2013.1/src/exe/rbdock.cxx#4 $)

>  <Rbt.Library>
libRbt.so (2013.1, Build901 2013/11/27)

>  <Rbt.Parameter_File>
/export/apps/rDock/src/rDock_2013.1_src/data/scripts/dock_solv.prm

>  <Rbt.Receptor>
prm/pocket_docking_4.prm

>  <SCORE>
-6.58553

>  <SCORE.INTER>
-1.27146

>  <SCORE.INTER.CONST>
1

>  <SCORE.INTER.POLAR>
-1.11583

>  <SCORE.INTER.ROT>
15

>  <SCORE.INTER.SOLV>
10.5227

>  <SCORE.INTER.VDW>
-14.2358

>  <SCORE.INTER.norm>
-0.0343637

>  <SCORE.INTRA>
-5.31408

>  <SCORE.INTRA.DIHEDRAL>
-12.3069

>  <SCORE.INTRA.DIHEDRAL.0>
21.5987

>  <SCORE.INTRA.POLAR>
0

>  <SCORE.INTRA.POLAR.0>
0

>  <SCORE.INTRA.REPUL>
0

>  <SCORE.INTRA.REPUL.0>
0

>  <SCORE.INTRA.SOLV>
1.03549

>  <SCORE.INTRA.SOLV.lig_0>
-108.715

>  <SCORE.INTRA.VDW>
0.321652

>  <SCORE.INTRA.VDW.0>
-3.9485

>  <SCORE.INTRA.norm>
-0.143624

>  <SCORE.RESTR>
0

>  <SCORE.RESTR.CAVITY>
0

>  <SCORE.RESTR.norm>
0

>  <SCORE.SYSTEM>
0

>  <SCORE.SYSTEM.CONST>
0

>  <SCORE.SYSTEM.DIHEDRAL>
0

>  <SCORE.SYSTEM.SOLV>
0

>  <SCORE.SYSTEM.norm>
0

>  <SCORE.heavy>
37

>  <SCORE.norm>
-0.177987

>  <RMSD>
8.368

$$$$
1o9m_lig
 OpenBabel11021811403D
libRbt.so/2013.1/901 2013/11/27
 37 38  0  0  0  0  0  0  0  0999 V2000
   -5.8617   16.6289    9.7890 C   0  0  2  0  0  0  0  0  0  0  0  0
   -5.0991   16.6612    8.5442 O   0  0  0  0  0  0  0  0  0  0  0  0
   -5.4564   17.9196   10.5918 C   0  0  2  0  0  0  0  0  0  0  0  0
   -5.7397   19.1546    9.8399 N   0  0  0  0  0  0  0  0  0  0  0  0
   -3.9283   17.8332   10.9676 C   0  0  1  0  0  0  0  0  0  0  0  0
   -3.5351   18.9965   11.7009 O   0  0  0  0  0  0  0  0  0  0  0  0
   -3.7016   16.5163   11.7811 C   0  0  2  0  0  0  0  0  0  0  0  0
   -2.3295   16.3264   12.1636 O   0  0  0  0  0  0  0  0  0  0  0  0
   -4.1689   15.2844   10.9673 C   0  0  2  0  0  0  0  0  0  0  0  0
   -5.5392   15.4265   10.5655 O   0  0  0  0  0  0  0  0  0  0  0  0
   -4.0133   14.0069   11.7512 C   0  0  0  0  0  0  0  0  0  0  0  0
   -4.6693   14.1045   12.9551 N   0  0  0  0  0  0  0  0  0  0  0  0
   -5.9274   15.2943    4.5110 C   0  0  1  0  0  0  0  0  0  0  0  0
   -6.2422   14.3768    3.3803 N   0  0  0  0  0  0  0  0  0  0  0  0
   -7.0553   15.2223    5.5313 C   0  0  2  0  0  0  0  0  0  0  0  0
   -8.2446   15.5581    4.8810 O   0  0  0  0  0  0  0  0  0  0  0  0
   -6.7766   16.1844    6.7290 C   0  0  1  0  0  0  0  0  0  0  0  0
   -7.8538   16.0903    7.7105 O   0  0  0  0  0  0  0  0  0  0  0  0
   -5.4153   15.7802    7.4284 C   0  0  1  0  0  0  0  0  0  0  0  0
   -4.2770   15.8666    6.4231 C   0  0  1  0  0  0  0  0  0  0  0  0
   -3.0346   15.5061    7.0895 N   0  0  0  0  0  0  0  0  0  0  0  0
   -4.5634   14.9249    5.2229 C   0  0  0  0  0  0  0  0  0  0  0  0
   -9.1612   16.3048    4.0510 C   0  0  0  0  0  0  0  0  0  0  0  0
   -9.3110   17.7020    4.6078 C   0  0  0  0  0  0  0  0  0  0  0  0
  -10.3348   17.8248    5.6659 N   0  0  0  0  0  0  0  0  0  0  0  0
  -11.5406   18.2394    6.4187 C   0  0  0  0  0  0  0  0  0  0  0  0
  -11.9010   19.4594    5.5616 C   0  0  0  0  0  0  0  0  0  0  0  0
  -10.9401   20.6410    5.7917 C   0  0  0  0  0  0  0  0  0  0  0  0
  -11.1365   21.2463    7.1782 C   0  0  0  0  0  0  0  0  0  0  0  0
  -10.2106   22.3525    7.3767 N   0  0  0  0  0  0  0  0  0  0  0  0
   -6.0111    8.8744    0.8155 N   0  0  0  0  0  0  0  0  0  0  0  0
   -5.9816   12.6803    3.8283 C   0  0  0  0  0  0  0  0  0  0  0  0
   -5.6624   12.1685    4.7228 O   0  0  0  0  0  0  0  0  0  0  0  0
   -6.3888   12.3543    2.4121 C   0  0  2  0  0  0  0  0  0  0  0  0
   -7.7299   12.5691    2.2185 O   0  0  0  0  0  0  0  0  0  0  0  0
   -6.1493   10.8614    2.2159 C   0  0  0  0  0  0  0  0  0  0  0  0
   -6.3464   10.3056    0.7940 C   0  0  0  0  0  0  0  0  0  0  0  0
  1  2  1  6  0  0  0
  1  3  1  0  0  0  0
  3  4  1  6  0  0  0
  3  5  1  0  0  0  0
  5  6  1  1  0  0  0
  5  7  1  0  0  0  0
  7  8  1  6  0  0  0
  9  7  1  0  0  0  0
  9 10  1  0  0  0  0
  9 11  1  1  0  0  0
 10  1  1  0  0  0  0
 11 12  1  0  0  0  0
 13 14  1  6  0  0  0
 13 15  1  0  0  0  0
 13 22  1  0  0  0  0
 14 32  1  0  0  0  0
 15 16  1  6  0  0  0
 15 17  1  0  0  0  0
 16 23  1  0  0  0  0
 17 18  1  1  0  0  0
 17 19  1  0  0  0  0
 19  2  1  1  0  0  0
 19 20  1  0  0  0  0
 20 21  1  1  0  0  0
 20 22  1  0  0  0  0
 23 24  1  0  0  0  0
 24 25  1  0  0  0  0
 25 26  1  0  0  0  0
 26 27  1  0  0  0  0
 27 28  1  0  0  0  0
 28 29  1  0  0  0  0
 29 30  1  0  0  0  0
 31 37  1  0  0  0  0
 32 33  2  0  0  0  0
 34 32  1  1  0  0  0
 34 35  1  0  0  0  0
 34 36  1  0  0  0  0
 36 37  1  0  0  0  0
M  END
>  <CHROM.1>
-166.95749615,54.93825319,-75.27040061,-48.94639630,-59.83872069,70.62636862
-85.77243331,-119.33566369,-14.41539333,-73.10089119,-69.74383303,179.51000511
-70.93964061,-173.57150785,177.58716130,-6.55023249,15.87124327,6.88781454
-1.33573718,0.72239341,-2.28552954

>  <Name>
1o9m_lig

>  <RI>
0

>  <Rbt.Current_Directory>
/home/itssahil/PROJECTS/Mol_Feturizer/New_Systems/rnas/1o9m

>  <Rbt.Executable>
rbdock ($Id: //depot/dev/client3/rdock/2013.1/src/exe/rbdock.cxx#4 $)

>  <Rbt.Library>
libRbt.so (2013.1, Build901 2013/11/27)

>  <Rbt.Parameter_File>
/export/apps/rDock/src/rDock_2013.1_src/data/scripts/dock_solv.prm

>  <Rbt.Receptor>
prm/pocket_docking_6.prm

>  <SCORE>
-14.9541

>  <SCORE.INTER>
-10.0724

>  <SCORE.INTER.CONST>
1

>  <SCORE.INTER.POLAR>
-2.50579

>  <SCORE.INTER.ROT>
15

>  <SCORE.INTER.SOLV>
14.234

>  <SCORE.INTER.VDW>
-16.7069

>  <SCORE.INTER.norm>
-0.272226

>  <SCORE.INTRA>
-4.88174

>  <SCORE.INTRA.DIHEDRAL>
-12.9514

>  <SCORE.INTRA.DIHEDRAL.0>
21.5987

>  <SCORE.INTRA.POLAR>
0

>  <SCORE.INTRA.POLAR.0>
0

>  <SCORE.INTRA.REPUL>
0

>  <SCORE.INTRA.REPUL.0>
0

>  <SCORE.INTRA.SOLV>
1.39446

>  <SCORE.INTRA.SOLV.lig_0>
-108.715

>  <SCORE.INTRA.VDW>
0.896731

>  <SCORE.INTRA.VDW.0>
-3.9485

>  <SCORE.INTRA.norm>
-0.131939

>  <SCORE.RESTR>
0

>  <SCORE.RESTR.CAVITY>
0

>  <SCORE.RESTR.norm>
0

>  <SCORE.SYSTEM>
0

>  <SCORE.SYSTEM.CONST>
0

>  <SCORE.SYSTEM.DIHEDRAL>
0

>  <SCORE.SYSTEM.SOLV>
0

>  <SCORE.SYSTEM.norm>
0

>  <SCORE.heavy>
37

>  <SCORE.norm>
-0.404165

>  <RMSD>
8.376

$$$$
1o9m_lig
 OpenBabel11021811403D
libRbt.so/2013.1/901 2013/11/27
 37 38  0  0  0  0  0  0  0  0999 V2000
   -4.4609   19.5600    9.6748 C   0  0  2  0  0  0  0  0  0  0  0  0
   -5.8146   20.0887    9.8168 O   0  0  0  0  0  0  0  0  0  0  0  0
   -4.6149   18.0410    9.2958 C   0  0  2  0  0  0  0  0  0  0  0  0
   -5.3804   17.8528    8.0510 N   0  0  0  0  0  0  0  0  0  0  0  0
   -5.3003   17.2788   10.4930 C   0  0  1  0  0  0  0  0  0  0  0  0
   -5.4500   15.8929   10.1729 O   0  0  0  0  0  0  0  0  0  0  0  0
   -4.4279   17.4996   11.7727 C   0  0  2  0  0  0  0  0  0  0  0  0
   -4.9732   16.8575   12.9368 O   0  0  0  0  0  0  0  0  0  0  0  0
   -4.2624   19.0111   12.0667 C   0  0  2  0  0  0  0  0  0  0  0  0
   -3.7149   19.6962   10.9308 O   0  0  0  0  0  0  0  0  0  0  0  0
   -3.3789   19.2526   13.2632 C   0  0  0  0  0  0  0  0  0  0  0  0
   -2.1328   18.7123   13.0514 N   0  0  0  0  0  0  0  0  0  0  0  0
   -8.8000   21.8845    7.2316 C   0  0  1  0  0  0  0  0  0  0  0  0
   -9.6598   22.1198    6.0379 N   0  0  0  0  0  0  0  0  0  0  0  0
   -9.0715   20.4844    7.7649 C   0  0  2  0  0  0  0  0  0  0  0  0
  -10.4341   20.3928    8.0567 O   0  0  0  0  0  0  0  0  0  0  0  0
   -8.2034   20.1995    9.0309 C   0  0  1  0  0  0  0  0  0  0  0  0
   -8.4564   18.8469    9.5198 O   0  0  0  0  0  0  0  0  0  0  0  0
   -6.6693   20.3278    8.6621 C   0  0  1  0  0  0  0  0  0  0  0  0
   -6.3817   21.7293    8.1455 C   0  0  1  0  0  0  0  0  0  0  0  0
   -4.9654   21.8300    7.8271 N   0  0  0  0  0  0  0  0  0  0  0  0
   -7.2591   22.0199    6.8985 C   0  0  0  0  0  0  0  0  0  0  0  0
  -11.8624   20.4669    7.8547 C   0  0  0  0  0  0  0  0  0  0  0  0
  -12.2663   21.9134    7.6845 C   0  0  0  0  0  0  0  0  0  0  0  0
  -13.7079   22.1667    7.8863 N   0  0  0  0  0  0  0  0  0  0  0  0
  -15.1709   21.9692    7.9998 C   0  0  0  0  0  0  0  0  0  0  0  0
  -15.1882   21.4269    9.4345 C   0  0  0  0  0  0  0  0  0  0  0  0
  -16.5887   20.9507    9.8635 C   0  0  0  0  0  0  0  0  0  0  0  0
  -16.9865   19.6777    9.1229 C   0  0  0  0  0  0  0  0  0  0  0  0
  -18.3547   19.3102    9.4593 N   0  0  0  0  0  0  0  0  0  0  0  0
   -9.8768   19.9284    0.5640 N   0  0  0  0  0  0  0  0  0  0  0  0
   -9.3585   20.9139    4.7723 C   0  0  0  0  0  0  0  0  0  0  0  0
   -8.7121   20.0555    4.6756 O   0  0  0  0  0  0  0  0  0  0  0  0
  -10.3828   21.6670    3.9591 C   0  0  2  0  0  0  0  0  0  0  0  0
  -11.6472   21.1832    4.1812 O   0  0  0  0  0  0  0  0  0  0  0  0
  -10.0623   21.4041    2.4918 C   0  0  0  0  0  0  0  0  0  0  0  0
  -10.2211   19.9565    1.9929 C   0  0  0  0  0  0  0  0  0  0  0  0
  1  2  1  1  0  0  0
  1  3  1  0  0  0  0
  3  4  1  6  0  0  0
  3  5  1  0  0  0  0
  5  6  1  6  0  0  0
  5  7  1  0  0  0  0
  7  8  1  1  0  0  0
  9  7  1  0  0  0  0
  9 10  1  0  0  0  0
  9 11  1  1  0  0  0
 10  1  1  0  0  0  0
 11 12  1  0  0  0  0
 13 14  1  6  0  0  0
 13 15  1  0  0  0  0
 13 22  1  0  0  0  0
 14 32  1  0  0  0  0
 15 16  1  1  0  0  0
 15 17  1  0  0  0  0
 16 23  1  0  0  0  0
 17 18  1  6  0  0  0
 17 19  1  0  0  0  0
 19  2  1  1  0  0  0
 19 20  1  0  0  0  0
 20 21  1  6  0  0  0
 20 22  1  0  0  0  0
 23 24  1  0  0  0  0
 24 25  1  0  0  0  0
 25 26  1  0  0  0  0
 26 27  1  0  0  0  0
 27 28  1  0  0  0  0
 28 29  1  0  0  0  0
 29 30  1  0  0  0  0
 31 37  1  0  0  0  0
 32 33  2  0  0  0  0
 34 32  1  1  0  0  0
 34 35  1  0  0  0  0
 34 36  1  0  0  0  0
 36 37  1  0  0  0  0
M  END
>  <CHROM.1>
-72.99199582,59.37598505,-58.26605315,53.15993453,-67.21677758,151.89837358
-162.09005578,-20.83299069,81.38378834,-173.75168618,70.16168612,-175.22222108
-89.56920170,65.37027447,179.50568720,-8.76450752,20.04352161,8.19556536
-0.47190124,0.12970868,-1.32605855

>  <Name>
1o9m_lig

>  <RI>
0

>  <Rbt.Current_Directory>
/home/itssahil/PROJECTS/Mol_Feturizer/New_Systems/rnas/1o9m

>  <Rbt.Executable>
rbdock ($Id: //depot/dev/client3/rdock/2013.1/src/exe/rbdock.cxx#4 $)

>  <Rbt.Library>
libRbt.so (2013.1, Build901 2013/11/27)

>  <Rbt.Parameter_File>
/export/apps/rDock/src/rDock_2013.1_src/data/scripts/dock_solv.prm

>  <Rbt.Receptor>
prm/pocket_docking_8.prm

>  <SCORE>
-4.29766

>  <SCORE.INTER>
-0.363405

>  <SCORE.INTER.CONST>
1

>  <SCORE.INTER.POLAR>
-0.724368

>  <SCORE.INTER.ROT>
15

>  <SCORE.INTER.SOLV>
10.363

>  <SCORE.INTER.VDW>
-14.882

>  <SCORE.INTER.norm>
-0.00982177

>  <SCORE.INTRA>
-3.93425

>  <SCORE.INTRA.DIHEDRAL>
-12.5272

>  <SCORE.INTRA.DIHEDRAL.0>
21.5987

>  <SCORE.INTRA.POLAR>
0

>  <SCORE.INTRA.POLAR.0>
0

>  <SCORE.INTRA.REPUL>
0

>  <SCORE.INTRA.REPUL.0>
0

>  <SCORE.INTRA.SOLV>
4.38548

>  <SCORE.INTRA.SOLV.lig_0>
-108.715

>  <SCORE.INTRA.VDW>
0.136624

>  <SCORE.INTRA.VDW.0>
-3.9485

>  <SCORE.INTRA.norm>
-0.106331

>  <SCORE.RESTR>
0

>  <SCORE.RESTR.CAVITY>
0

>  <SCORE.RESTR.norm>
0

>  <SCORE.SYSTEM>
0

>  <SCORE.SYSTEM.CONST>
0

>  <SCORE.SYSTEM.DIHEDRAL>
0

>  <SCORE.SYSTEM.SOLV>
0

>  <SCORE.SYSTEM.norm>
0

>  <SCORE.heavy>
37

>  <SCORE.norm>
-0.116153

>  <RMSD>
8.379

$$$$
1o9m_lig
 OpenBabel11021811403D
libRbt.so/2013.1/901 2013/11/27
 37 38  0  0  0  0  0  0  0  0999 V2000
   -5.8344   18.8774    9.5447 C   0  0  2  0  0  0  0  0  0  0  0  0
   -5.1404   18.6999    8.2722 O   0  0  0  0  0  0  0  0  0  0  0  0
   -5.6730   20.3937    9.9309 C   0  0  2  0  0  0  0  0  0  0  0  0
   -6.2303   21.2919    8.9045 N   0  0  0  0  0  0  0  0  0  0  0  0
   -4.1469   20.7032   10.1742 C   0  0  1  0  0  0  0  0  0  0  0  0
   -3.9739   22.0778   10.5291 O   0  0  0  0  0  0  0  0  0  0  0  0
   -3.6259   19.7347   11.2869 C   0  0  2  0  0  0  0  0  0  0  0  0
   -2.2311   19.9195   11.5786 O   0  0  0  0  0  0  0  0  0  0  0  0
   -3.8604   18.2590   10.8799 C   0  0  2  0  0  0  0  0  0  0  0  0
   -5.2445   18.0241   10.5823 O   0  0  0  0  0  0  0  0  0  0  0  0
   -3.4181   17.3060   11.9601 C   0  0  0  0  0  0  0  0  0  0  0  0
   -3.5067   16.0084   11.5155 N   0  0  0  0  0  0  0  0  0  0  0  0
   -6.1212   16.4100    4.7206 C   0  0  1  0  0  0  0  0  0  0  0  0
   -6.3932   15.2397    3.8397 N   0  0  0  0  0  0  0  0  0  0  0  0
   -7.1218   16.4045    5.8683 C   0  0  2  0  0  0  0  0  0  0  0  0
   -8.4054   16.4312    5.3190 O   0  0  0  0  0  0  0  0  0  0  0  0
   -6.8861   17.6273    6.8101 C   0  0  1  0  0  0  0  0  0  0  0  0
   -7.8370   17.5990    7.9180 O   0  0  0  0  0  0  0  0  0  0  0  0
   -5.4179   17.5680    7.3990 C   0  0  1  0  0  0  0  0  0  0  0  0
   -4.4080   17.5919    6.2617 C   0  0  1  0  0  0  0  0  0  0  0  0
   -3.0668   17.5519    6.8249 N   0  0  0  0  0  0  0  0  0  0  0  0
   -4.6548   16.3873    5.3145 C   0  0  0  0  0  0  0  0  0  0  0  0
   -9.5638   15.9845    4.5805 C   0  0  0  0  0  0  0  0  0  0  0  0
  -10.6324   17.0519    4.6383 C   0  0  0  0  0  0  0  0  0  0  0  0
  -10.7016   17.7693    5.9281 N   0  0  0  0  0  0  0  0  0  0  0  0
  -10.8965   18.8315    6.9411 C   0  0  0  0  0  0  0  0  0  0  0  0
  -11.2210   19.9747    5.9711 C   0  0  0  0  0  0  0  0  0  0  0  0
  -11.0263   21.3608    6.6139 C   0  0  0  0  0  0  0  0  0  0  0  0
   -9.5450   21.6870    6.7773 C   0  0  0  0  0  0  0  0  0  0  0  0
   -8.9102   21.7978    5.4715 N   0  0  0  0  0  0  0  0  0  0  0  0
   -2.9208   12.4439    1.6994 N   0  0  0  0  0  0  0  0  0  0  0  0
   -5.8873   13.7205    4.6031 C   0  0  0  0  0  0  0  0  0  0  0  0
   -5.4444   13.4536    5.5500 O   0  0  0  0  0  0  0  0  0  0  0  0
   -6.3461   13.0516    3.3304 C   0  0  2  0  0  0  0  0  0  0  0  0
   -7.2677   12.0690    3.5894 O   0  0  0  0  0  0  0  0  0  0  0  0
   -5.1261   12.3632    2.7283 C   0  0  0  0  0  0  0  0  0  0  0  0
   -3.8909   13.2426    2.4624 C   0  0  0  0  0  0  0  0  0  0  0  0
  1  2  1  6  0  0  0
  1  3  1  0  0  0  0
  3  4  1  6  0  0  0
  3  5  1  0  0  0  0
  5  6  1  1  0  0  0
  5  7  1  0  0  0  0
  7  8  1  6  0  0  0
  9  7  1  0  0  0  0
  9 10  1  0  0  0  0
  9 11  1  1  0  0  0
 10  1  1  0  0  0  0
 11 12  1  0  0  0  0
 13 14  1  6  0  0  0
 13 15  1  0  0  0  0
 13 22  1  0  0  0  0
 14 32  1  0  0  0  0
 15 16  1  6  0  0  0
 15 17  1  0  0  0  0
 16 23  1  0  0  0  0
 17 18  1  1  0  0  0
 17 19  1  0  0  0  0
 19  2  1  1  0  0  0
 19 20  1  0  0  0  0
 20 21  1  1  0  0  0
 20 22  1  0  0  0  0
 23 24  1  0  0  0  0
 24 25  1  0  0  0  0
 25 26  1  0  0  0  0
 26 27  1  0  0  0  0
 27 28  1  0  0  0  0
 28 29  1  0  0  0  0
 29 30  1  0  0  0  0
 31 37  1  0  0  0  0
 32 33  2  0  0  0  0
 34 32  1  1  0  0  0
 34 35  1  0  0  0  0
 34 36  1  0  0  0  0
 36 37  1  0  0  0  0
M  END
>  <CHROM.1>
-160.19393866,-173.65058118,-72.94167576,65.29272012,-179.21310628,66.38443923
-36.39374175,147.47859470,-3.51049350,-160.60619555,73.11988317,64.71252267
-124.64100252,-55.57951644,-171.32666548,-6.28832713,17.43042068,6.94731786
-1.41428151,0.49185741,-2.39468928

>  <Name>
1o9m_lig

>  <RI>
0

>  <Rbt.Current_Directory>
/home/itssahil/PROJECTS/Mol_Feturizer/New_Systems/rnas/1o9m

>  <Rbt.Executable>
rbdock ($Id: //depot/dev/client3/rdock/2013.1/src/exe/rbdock.cxx#4 $)

>  <Rbt.Library>
libRbt.so (2013.1, Build901 2013/11/27)

>  <Rbt.Parameter_File>
/export/apps/rDock/src/rDock_2013.1_src/data/scripts/dock_solv.prm

>  <Rbt.Receptor>
prm/pocket_docking_3.prm

>  <SCORE>
-6.71827

>  <SCORE.INTER>
-2.11984

>  <SCORE.INTER.CONST>
1

>  <SCORE.INTER.POLAR>
-0.835549

>  <SCORE.INTER.ROT>
15

>  <SCORE.INTER.SOLV>
13.5908

>  <SCORE.INTER.VDW>
-16.7583

>  <SCORE.INTER.norm>
-0.0572929

>  <SCORE.INTRA>
-4.59844

>  <SCORE.INTRA.DIHEDRAL>
-10.5873

>  <SCORE.INTRA.DIHEDRAL.0>
21.5987

>  <SCORE.INTRA.POLAR>
0

>  <SCORE.INTRA.POLAR.0>
0

>  <SCORE.INTRA.REPUL>
0

>  <SCORE.INTRA.REPUL.0>
0

>  <SCORE.INTRA.SOLV>
1.99171

>  <SCORE.INTRA.SOLV.lig_0>
-108.715

>  <SCORE.INTRA.VDW>
-0.300652

>  <SCORE.INTRA.VDW.0>
-3.9485

>  <SCORE.INTRA.norm>
-0.124282

>  <SCORE.RESTR>
0

>  <SCORE.RESTR.CAVITY>
0

>  <SCORE.RESTR.norm>
0

>  <SCORE.SYSTEM>
0

>  <SCORE.SYSTEM.CONST>
0

>  <SCORE.SYSTEM.DIHEDRAL>
0

>  <SCORE.SYSTEM.SOLV>
0

>  <SCORE.SYSTEM.norm>
0

>  <SCORE.heavy>
37

>  <SCORE.norm>
-0.181575

>  <RMSD>
8.397

$$$$
1o9m_lig
 OpenBabel11021811403D
libRbt.so/2013.1/901 2013/11/27
 37 38  0  0  0  0  0  0  0  0999 V2000
   -3.1274   20.5376    8.4425 C   0  0  2  0  0  0  0  0  0  0  0  0
   -4.3736   21.2491    8.7127 O   0  0  0  0  0  0  0  0  0  0  0  0
   -2.2276   20.7170    9.7203 C   0  0  2  0  0  0  0  0  0  0  0  0
   -2.8745   20.1905   10.9350 N   0  0  0  0  0  0  0  0  0  0  0  0
   -1.8762   22.2437    9.8922 C   0  0  1  0  0  0  0  0  0  0  0  0
   -1.0558   22.4328   11.0484 O   0  0  0  0  0  0  0  0  0  0  0  0
   -1.1739   22.7312    8.5821 C   0  0  2  0  0  0  0  0  0  0  0  0
   -0.8226   24.1240    8.6230 O   0  0  0  0  0  0  0  0  0  0  0  0
   -2.0794   22.4798    7.3511 C   0  0  2  0  0  0  0  0  0  0  0  0
   -2.4538   21.0972    7.2653 O   0  0  0  0  0  0  0  0  0  0  0  0
   -1.4026   22.8896    6.0686 C   0  0  0  0  0  0  0  0  0  0  0  0
   -1.3025   24.2587    5.9997 N   0  0  0  0  0  0  0  0  0  0  0  0
   -8.2964   20.9459    6.8850 C   0  0  1  0  0  0  0  0  0  0  0  0
   -9.3772   21.0441    5.8643 N   0  0  0  0  0  0  0  0  0  0  0  0
   -7.1896   20.0506    6.3446 C   0  0  2  0  0  0  0  0  0  0  0  0
   -7.7527   18.8105    6.0361 O   0  0  0  0  0  0  0  0  0  0  0  0
   -6.0404   19.9032    7.3912 C   0  0  1  0  0  0  0  0  0  0  0  0
   -4.9758   19.0607    6.8532 O   0  0  0  0  0  0  0  0  0  0  0  0
   -5.4402   21.3296    7.7244 C   0  0  1  0  0  0  0  0  0  0  0  0
   -6.5331   22.2279    8.2832 C   0  0  1  0  0  0  0  0  0  0  0  0
   -5.9576   23.5273    8.5962 N   0  0  0  0  0  0  0  0  0  0  0  0
   -7.6848   22.3586    7.2507 C   0  0  0  0  0  0  0  0  0  0  0  0
   -7.8509   17.4707    5.5051 C   0  0  0  0  0  0  0  0  0  0  0  0
   -9.1223   16.8277    6.0098 C   0  0  0  0  0  0  0  0  0  0  0  0
  -10.3479   17.5988    5.7160 N   0  0  0  0  0  0  0  0  0  0  0  0
  -11.3443   18.6925    5.6563 C   0  0  0  0  0  0  0  0  0  0  0  0
  -12.5986   17.8300    5.8453 C   0  0  0  0  0  0  0  0  0  0  0  0
  -13.8781   18.6777    5.9734 C   0  0  0  0  0  0  0  0  0  0  0  0
  -15.0747   17.8116    6.3545 C   0  0  0  0  0  0  0  0  0  0  0  0
  -16.2921   18.6106    6.3500 N   0  0  0  0  0  0  0  0  0  0  0  0
  -12.9659   24.2407    4.4312 N   0  0  0  0  0  0  0  0  0  0  0  0
   -8.7852   21.7731    4.3594 C   0  0  0  0  0  0  0  0  0  0  0  0
   -7.8327   22.1459    4.0161 O   0  0  0  0  0  0  0  0  0  0  0  0
  -10.2009   21.6285    3.8570 C   0  0  2  0  0  0  0  0  0  0  0  0
  -10.2361   21.5393    2.4885 O   0  0  0  0  0  0  0  0  0  0  0  0
  -10.9367   22.9096    4.2338 C   0  0  0  0  0  0  0  0  0  0  0  0
  -12.4424   22.9662    3.9186 C   0  0  0  0  0  0  0  0  0  0  0  0
  1  2  1  1  0  0  0
  1  3  1  0  0  0  0
  3  4  1  1  0  0  0
  3  5  1  0  0  0  0
  5  6  1  1  0  0  0
  5  7  1  0  0  0  0
  7  8  1  1  0  0  0
  9  7  1  0  0  0  0
  9 10  1  0  0  0  0
  9 11  1  6  0  0  0
 10  1  1  0  0  0  0
 11 12  1  0  0  0  0
 13 14  1  6  0  0  0
 13 15  1  0  0  0  0
 13 22  1  0  0  0  0
 14 32  1  0  0  0  0
 15 16  1  1  0  0  0
 15 17  1  0  0  0  0
 16 23  1  0  0  0  0
 17 18  1  6  0  0  0
 17 19  1  0  0  0  0
 19  2  1  1  0  0  0
 19 20  1  0  0  0  0
 20 21  1  6  0  0  0
 20 22  1  0  0  0  0
 23 24  1  0  0  0  0
 24 25  1  0  0  0  0
 25 26  1  0  0  0  0
 26 27  1  0  0  0  0
 27 28  1  0  0  0  0
 28 29  1  0  0  0  0
 29 30  1  0  0  0  0
 31 37  1  0  0  0  0
 32 33  2  0  0  0  0
 34 32  1  6  0  0  0
 34 35  1  0  0  0  0
 34 36  1  0  0  0  0
 36 37  1  0  0  0  0
M  END
>  <CHROM.1>
178.24680790,-70.39697844,-61.49444317,170.75620325,170.01867031,63.72973537
55.39730719,-57.31408015,-141.03265712,174.44659548,-172.02409597,-174.81698559
-154.10749308,-175.62205783,176.64537006,-7.10689988,20.94328105,6.71207248
-0.04322725,0.38258206,2.63381160

>  <Name>
1o9m_lig

>  <RI>
0

>  <Rbt.Current_Directory>
/home/itssahil/PROJECTS/Mol_Feturizer/New_Systems/rnas/1o9m

>  <Rbt.Executable>
rbdock ($Id: //depot/dev/client3/rdock/2013.1/src/exe/rbdock.cxx#4 $)

>  <Rbt.Library>
libRbt.so (2013.1, Build901 2013/11/27)

>  <Rbt.Parameter_File>
/export/apps/rDock/src/rDock_2013.1_src/data/scripts/dock_solv.prm

>  <Rbt.Receptor>
prm/pocket_docking_7.prm

>  <SCORE>
-1.14547

>  <SCORE.INTER>
8.3226

>  <SCORE.INTER.CONST>
1

>  <SCORE.INTER.POLAR>
0

>  <SCORE.INTER.ROT>
15

>  <SCORE.INTER.SOLV>
8.48679

>  <SCORE.INTER.VDW>
-10.8805

>  <SCORE.INTER.norm>
0.224935

>  <SCORE.INTRA>
-9.47049

>  <SCORE.INTRA.DIHEDRAL>
-17.0498

>  <SCORE.INTRA.DIHEDRAL.0>
21.5987

>  <SCORE.INTRA.POLAR>
0

>  <SCORE.INTRA.POLAR.0>
0

>  <SCORE.INTRA.REPUL>
0

>  <SCORE.INTRA.REPUL.0>
0

>  <SCORE.INTRA.SOLV>
0.464149

>  <SCORE.INTRA.SOLV.lig_0>
-108.715

>  <SCORE.INTRA.VDW>
-1.17766

>  <SCORE.INTRA.VDW.0>
-3.9485

>  <SCORE.INTRA.norm>
-0.255959

>  <SCORE.RESTR>
0.00241438

>  <SCORE.RESTR.CAVITY>
0.00241438

>  <SCORE.RESTR.norm>
6.52534e-05

>  <SCORE.SYSTEM>
0

>  <SCORE.SYSTEM.CONST>
0

>  <SCORE.SYSTEM.DIHEDRAL>
0

>  <SCORE.SYSTEM.SOLV>
0

>  <SCORE.SYSTEM.norm>
0

>  <SCORE.heavy>
37

>  <SCORE.norm>
-0.0309588

>  <RMSD>
8.400

$$$$
1o9m_lig
 OpenBabel11021811403D
libRbt.so/2013.1/901 2013/11/27
 37 38  0  0  0  0  0  0  0  0999 V2000
  -11.3123   20.3152    6.4348 C   0  0  2  0  0  0  0  0  0  0  0  0
  -10.6032   19.6485    7.5233 O   0  0  0  0  0  0  0  0  0  0  0  0
  -11.5645   21.7938    6.9091 C   0  0  2  0  0  0  0  0  0  0  0  0
  -10.3096   22.4997    7.2219 N   0  0  0  0  0  0  0  0  0  0  0  0
  -12.5221   21.7766    8.1607 C   0  0  1  0  0  0  0  0  0  0  0  0
  -12.7685   23.1117    8.6104 O   0  0  0  0  0  0  0  0  0  0  0  0
  -13.8392   21.0364    7.7547 C   0  0  2  0  0  0  0  0  0  0  0  0
  -14.7839   20.9472    8.8338 O   0  0  0  0  0  0  0  0  0  0  0  0
  -13.5276   19.6081    7.2436 C   0  0  2  0  0  0  0  0  0  0  0  0
  -12.5887   19.6464    6.1590 O   0  0  0  0  0  0  0  0  0  0  0  0
  -14.7751   18.8931    6.7929 C   0  0  0  0  0  0  0  0  0  0  0  0
  -14.4921   17.5798    6.5020 N   0  0  0  0  0  0  0  0  0  0  0  0
   -7.9251   16.2369    7.4242 C   0  0  1  0  0  0  0  0  0  0  0  0
   -6.7075   15.4195    7.1616 N   0  0  0  0  0  0  0  0  0  0  0  0
   -7.5454   17.4126    8.3142 C   0  0  2  0  0  0  0  0  0  0  0  0
   -6.9785   16.9007    9.4832 O   0  0  0  0  0  0  0  0  0  0  0  0
   -8.7976   18.2895    8.6319 C   0  0  1  0  0  0  0  0  0  0  0  0
   -8.4170   19.4250    9.4675 O   0  0  0  0  0  0  0  0  0  0  0  0
   -9.4180   18.8371    7.2825 C   0  0  1  0  0  0  0  0  0  0  0  0
   -9.8189   17.6707    6.3921 C   0  0  1  0  0  0  0  0  0  0  0  0
  -10.3997   18.1954    5.1654 N   0  0  0  0  0  0  0  0  0  0  0  0
   -8.5779   16.7879    6.0923 C   0  0  0  0  0  0  0  0  0  0  0  0
   -6.4884   16.8722   10.8417 C   0  0  0  0  0  0  0  0  0  0  0  0
   -5.4135   17.9221   11.0047 C   0  0  0  0  0  0  0  0  0  0  0  0
   -4.2560   17.7477   10.1032 N   0  0  0  0  0  0  0  0  0  0  0  0
   -2.9193   17.8904    9.4824 C   0  0  0  0  0  0  0  0  0  0  0  0
   -2.1688   16.9159   10.3990 C   0  0  0  0  0  0  0  0  0  0  0  0
   -2.0314   17.4522   11.8363 C   0  0  0  0  0  0  0  0  0  0  0  0
   -1.1375   18.6878   11.8781 C   0  0  0  0  0  0  0  0  0  0  0  0
   -0.8083   19.0205   13.2569 N   0  0  0  0  0  0  0  0  0  0  0  0
   -4.5892   12.5620    4.6009 N   0  0  0  0  0  0  0  0  0  0  0  0
   -5.4258   16.3867    6.4076 C   0  0  0  0  0  0  0  0  0  0  0  0
   -5.3245   17.4189    6.1103 O   0  0  0  0  0  0  0  0  0  0  0  0
   -4.6223   15.1095    6.3838 C   0  0  2  0  0  0  0  0  0  0  0  0
   -3.5094   15.2074    7.1799 O   0  0  0  0  0  0  0  0  0  0  0  0
   -4.1259   14.9262    4.9538 C   0  0  0  0  0  0  0  0  0  0  0  0
   -3.5101   13.5603    4.6002 C   0  0  0  0  0  0  0  0  0  0  0  0
  1  2  1  1  0  0  0
  1  3  1  0  0  0  0
  3  4  1  1  0  0  0
  3  5  1  0  0  0  0
  5  6  1  6  0  0  0
  5  7  1  0  0  0  0
  7  8  1  1  0  0  0
  9  7  1  0  0  0  0
  9 10  1  0  0  0  0
  9 11  1  6  0  0  0
 10  1  1  0  0  0  0
 11 12  1  0  0  0  0
 13 14  1  6  0  0  0
 13 15  1  0  0  0  0
 13 22  1  0  0  0  0
 14 32  1  0  0  0  0
 15 16  1  1  0  0  0
 15 17  1  0  0  0  0
 16 23  1  0  0  0  0
 17 18  1  1  0  0  0
 17 19  1  0  0  0  0
 19  2  1  1  0  0  0
 19 20  1  0  0  0  0
 20 21  1  6  0  0  0
 20 22  1  0  0  0  0
 23 24  1  0  0  0  0
 24 25  1  0  0  0  0
 25 26  1  0  0  0  0
 26 27  1  0  0  0  0
 27 28  1  0  0  0  0
 28 29  1  0  0  0  0
 29 30  1  0  0  0  0
 31 37  1  0  0  0  0
 32 33  2  0  0  0  0
 34 32  1  6  0  0  0
 34 35  1  0  0  0  0
 34 36  1  0  0  0  0
 36 37  1  0  0  0  0
M  END
>  <CHROM.1>
-132.91208950,-172.60201438,-57.67000503,-164.96578871,-57.72272805,177.03206764
-59.26032190,-168.09258913,84.35495789,-69.14149841,-66.20131950,-168.86839128
-115.74026798,-168.49046407,69.47480285,-7.95367839,18.11810439,7.92605429
3.00590553,-0.39189790,0.83378092

>  <Name>
1o9m_lig

>  <RI>
0

>  <Rbt.Current_Directory>
/home/itssahil/PROJECTS/Mol_Feturizer/New_Systems/rnas/1o9m

>  <Rbt.Executable>
rbdock ($Id: //depot/dev/client3/rdock/2013.1/src/exe/rbdock.cxx#4 $)

>  <Rbt.Library>
libRbt.so (2013.1, Build901 2013/11/27)

>  <Rbt.Parameter_File>
/export/apps/rDock/src/rDock_2013.1_src/data/scripts/dock_solv.prm

>  <Rbt.Receptor>
prm/pocket_docking_4.prm

>  <SCORE>
-5.44065

>  <SCORE.INTER>
-2.9586

>  <SCORE.INTER.CONST>
1

>  <SCORE.INTER.POLAR>
-1.80769

>  <SCORE.INTER.ROT>
15

>  <SCORE.INTER.SOLV>
18.6453

>  <SCORE.INTER.VDW>
-15.7619

>  <SCORE.INTER.norm>
-0.0799622

>  <SCORE.INTRA>
-2.48205

>  <SCORE.INTRA.DIHEDRAL>
-9.22318

>  <SCORE.INTRA.DIHEDRAL.0>
21.5987

>  <SCORE.INTRA.POLAR>
0

>  <SCORE.INTRA.POLAR.0>
0

>  <SCORE.INTRA.REPUL>
0

>  <SCORE.INTRA.REPUL.0>
0

>  <SCORE.INTRA.SOLV>
3.59162

>  <SCORE.INTRA.SOLV.lig_0>
-108.715

>  <SCORE.INTRA.VDW>
0.33373

>  <SCORE.INTRA.VDW.0>
-3.9485

>  <SCORE.INTRA.norm>
-0.0670824

>  <SCORE.RESTR>
0

>  <SCORE.RESTR.CAVITY>
0

>  <SCORE.RESTR.norm>
0

>  <SCORE.SYSTEM>
0

>  <SCORE.SYSTEM.CONST>
0

>  <SCORE.SYSTEM.DIHEDRAL>
0

>  <SCORE.SYSTEM.SOLV>
0

>  <SCORE.SYSTEM.norm>
0

>  <SCORE.heavy>
37

>  <SCORE.norm>
-0.147045

>  <RMSD>
8.411

$$$$
1o9m_lig
 OpenBabel11021811403D
libRbt.so/2013.1/901 2013/11/27
 37 38  0  0  0  0  0  0  0  0999 V2000
  -12.2198   18.0439    5.2635 C   0  0  2  0  0  0  0  0  0  0  0  0
  -11.2081   17.4597    6.1395 O   0  0  0  0  0  0  0  0  0  0  0  0
  -11.9958   19.6004    5.3025 C   0  0  2  0  0  0  0  0  0  0  0  0
  -10.6425   19.9794    4.8597 N   0  0  0  0  0  0  0  0  0  0  0  0
  -12.2719   20.1237    6.7633 C   0  0  1  0  0  0  0  0  0  0  0  0
  -12.0764   21.5391    6.8243 O   0  0  0  0  0  0  0  0  0  0  0  0
  -13.7273   19.7098    7.1607 C   0  0  2  0  0  0  0  0  0  0  0  0
  -14.0816   20.1245    8.4901 O   0  0  0  0  0  0  0  0  0  0  0  0
  -13.9081   18.1756    7.0506 C   0  0  2  0  0  0  0  0  0  0  0  0
  -13.5694   17.7137    5.7349 O   0  0  0  0  0  0  0  0  0  0  0  0
  -15.3187   17.7561    7.3743 C   0  0  0  0  0  0  0  0  0  0  0  0
  -15.5141   16.4394    7.0314 N   0  0  0  0  0  0  0  0  0  0  0  0
   -7.1106   16.0795    5.7846 C   0  0  1  0  0  0  0  0  0  0  0  0
   -5.6781   16.0351    5.3778 N   0  0  0  0  0  0  0  0  0  0  0  0
   -7.3623   17.3665    6.5584 C   0  0  2  0  0  0  0  0  0  0  0  0
   -6.4919   17.3882    7.6503 O   0  0  0  0  0  0  0  0  0  0  0  0
   -8.8509   17.4478    7.0224 C   0  0  1  0  0  0  0  0  0  0  0  0
   -9.0850   18.6955    7.7441 O   0  0  0  0  0  0  0  0  0  0  0  0
   -9.8035   17.4052    5.7588 C   0  0  1  0  0  0  0  0  0  0  0  0
   -9.5745   16.1144    4.9874 C   0  0  1  0  0  0  0  0  0  0  0  0
  -10.4693   16.0888    3.8401 N   0  0  0  0  0  0  0  0  0  0  0  0
   -8.0900   16.0241    4.5430 C   0  0  0  0  0  0  0  0  0  0  0  0
   -5.8582   16.9609    8.8760 C   0  0  0  0  0  0  0  0  0  0  0  0
   -4.8248   17.9852    9.2849 C   0  0  0  0  0  0  0  0  0  0  0  0
   -5.3794   19.3261    9.5633 N   0  0  0  0  0  0  0  0  0  0  0  0
   -6.0661   20.4566   10.2286 C   0  0  0  0  0  0  0  0  0  0  0  0
   -7.3678   20.4036    9.4188 C   0  0  0  0  0  0  0  0  0  0  0  0
   -7.1465   20.7406    7.9323 C   0  0  0  0  0  0  0  0  0  0  0  0
   -7.2384   22.2441    7.6906 C   0  0  0  0  0  0  0  0  0  0  0  0
   -8.6325   22.6642    7.6772 N   0  0  0  0  0  0  0  0  0  0  0  0
   -0.7092   15.3139    7.3076 N   0  0  0  0  0  0  0  0  0  0  0  0
   -5.0579   14.3733    5.3639 C   0  0  0  0  0  0  0  0  0  0  0  0
   -5.4781   13.4010    5.5692 O   0  0  0  0  0  0  0  0  0  0  0  0
   -3.7360   14.9827    4.9652 C   0  0  2  0  0  0  0  0  0  0  0  0
   -3.1670   14.2972    3.9220 O   0  0  0  0  0  0  0  0  0  0  0  0
   -2.7994   14.8260    6.1580 C   0  0  0  0  0  0  0  0  0  0  0  0
   -1.3666   15.3644    5.9937 C   0  0  0  0  0  0  0  0  0  0  0  0
  1  2  1  1  0  0  0
  1  3  1  0  0  0  0
  3  4  1  1  0  0  0
  3  5  1  0  0  0  0
  5  6  1  6  0  0  0
  5  7  1  0  0  0  0
  7  8  1  1  0  0  0
  9  7  1  0  0  0  0
  9 10  1  0  0  0  0
  9 11  1  6  0  0  0
 10  1  1  0  0  0  0
 11 12  1  0  0  0  0
 13 14  1  6  0  0  0
 13 15  1  0  0  0  0
 13 22  1  0  0  0  0
 14 32  1  0  0  0  0
 15 16  1  1  0  0  0
 15 17  1  0  0  0  0
 16 23  1  0  0  0  0
 17 18  1  6  0  0  0
 17 19  1  0  0  0  0
 19  2  1  1  0  0  0
 19 20  1  0  0  0  0
 20 21  1  6  0  0  0
 20 22  1  0  0  0  0
 23 24  1  0  0  0  0
 24 25  1  0  0  0  0
 25 26  1  0  0  0  0
 26 27  1  0  0  0  0
 27 28  1  0  0  0  0
 28 29  1  0  0  0  0
 29 30  1  0  0  0  0
 31 37  1  0  0  0  0
 32 33  2  0  0  0  0
 34 32  1  1  0  0  0
 34 35  1  0  0  0  0
 34 36  1  0  0  0  0
 36 37  1  0  0  0  0
M  END
>  <CHROM.1>
-72.71290978,168.85040580,146.61467201,-58.88041890,-178.22903353,150.89059771
61.73992086,76.01355840,-102.12864419,-65.34533200,-87.59940322,-77.53450230
-133.88404214,179.43255058,170.99144519,-8.49076507,17.80926169,6.69465892
2.83145063,-0.15932683,0.57985210

>  <Name>
1o9m_lig

>  <RI>
0

>  <Rbt.Current_Directory>
/home/itssahil/PROJECTS/Mol_Feturizer/New_Systems/rnas/1o9m

>  <Rbt.Executable>
rbdock ($Id: //depot/dev/client3/rdock/2013.1/src/exe/rbdock.cxx#4 $)

>  <Rbt.Library>
libRbt.so (2013.1, Build901 2013/11/27)

>  <Rbt.Parameter_File>
/export/apps/rDock/src/rDock_2013.1_src/data/scripts/dock_solv.prm

>  <Rbt.Receptor>
prm/pocket_docking_4.prm

>  <SCORE>
-10.6849

>  <SCORE.INTER>
-8.01784

>  <SCORE.INTER.CONST>
1

>  <SCORE.INTER.POLAR>
-1.66645

>  <SCORE.INTER.ROT>
15

>  <SCORE.INTER.SOLV>
21.9008

>  <SCORE.INTER.VDW>
-20.6906

>  <SCORE.INTER.norm>
-0.216698

>  <SCORE.INTRA>
-2.70317

>  <SCORE.INTRA.DIHEDRAL>
-8.54401

>  <SCORE.INTRA.DIHEDRAL.0>
21.5987

>  <SCORE.INTRA.POLAR>
0

>  <SCORE.INTRA.POLAR.0>
0

>  <SCORE.INTRA.REPUL>
0

>  <SCORE.INTRA.REPUL.0>
0

>  <SCORE.INTRA.SOLV>
4.5491

>  <SCORE.INTRA.SOLV.lig_0>
-108.715

>  <SCORE.INTRA.VDW>
-0.70572

>  <SCORE.INTRA.VDW.0>
-3.9485

>  <SCORE.INTRA.norm>
-0.0730587

>  <SCORE.RESTR>
0.0361404

>  <SCORE.RESTR.CAVITY>
0.0361404

>  <SCORE.RESTR.norm>
0.000976768

>  <SCORE.SYSTEM>
0

>  <SCORE.SYSTEM.CONST>
0

>  <SCORE.SYSTEM.DIHEDRAL>
0

>  <SCORE.SYSTEM.SOLV>
0

>  <SCORE.SYSTEM.norm>
0

>  <SCORE.heavy>
37

>  <SCORE.norm>
-0.28878

>  <RMSD>
8.420

$$$$
1o9m_lig
 OpenBabel11021811403D
libRbt.so/2013.1/901 2013/11/27
 37 38  0  0  0  0  0  0  0  0999 V2000
  -12.6176   19.0839    5.9269 C   0  0  2  0  0  0  0  0  0  0  0  0
  -12.0055   17.7751    5.7158 O   0  0  0  0  0  0  0  0  0  0  0  0
  -14.0315   18.8156    6.5621 C   0  0  2  0  0  0  0  0  0  0  0  0
  -13.9396   18.0733    7.8316 N   0  0  0  0  0  0  0  0  0  0  0  0
  -14.9231   18.0354    5.5228 C   0  0  1  0  0  0  0  0  0  0  0  0
  -16.2166   17.7806    6.0772 O   0  0  0  0  0  0  0  0  0  0  0  0
  -14.9982   18.8859    4.2119 C   0  0  2  0  0  0  0  0  0  0  0  0
  -15.7784   18.2560    3.1826 O   0  0  0  0  0  0  0  0  0  0  0  0
  -13.5783   19.1674    3.6615 C   0  0  2  0  0  0  0  0  0  0  0  0
  -12.7608   19.8022    4.6556 O   0  0  0  0  0  0  0  0  0  0  0  0
  -13.6200   20.0332    2.4289 C   0  0  0  0  0  0  0  0  0  0  0  0
  -14.1855   19.3443    1.3824 N   0  0  0  0  0  0  0  0  0  0  0  0
   -7.9397   16.2633    5.6510 C   0  0  1  0  0  0  0  0  0  0  0  0
   -6.5017   16.1275    5.2856 N   0  0  0  0  0  0  0  0  0  0  0  0
   -8.1716   17.6539    6.2263 C   0  0  2  0  0  0  0  0  0  0  0  0
   -7.3206   17.8125    7.3222 O   0  0  0  0  0  0  0  0  0  0  0  0
   -9.6656   17.8357    6.6417 C   0  0  1  0  0  0  0  0  0  0  0  0
   -9.8800   19.1796    7.1714 O   0  0  0  0  0  0  0  0  0  0  0  0
  -10.5961   17.6336    5.3771 C   0  0  1  0  0  0  0  0  0  0  0  0
  -10.3871   16.2401    4.8043 C   0  0  1  0  0  0  0  0  0  0  0  0
  -11.2616   16.0702    3.6536 N   0  0  0  0  0  0  0  0  0  0  0  0
   -8.8977   16.0523    4.4095 C   0  0  0  0  0  0  0  0  0  0  0  0
   -6.7631   17.5948    8.6368 C   0  0  0  0  0  0  0  0  0  0  0  0
   -7.8427   17.7985    9.6748 C   0  0  0  0  0  0  0  0  0  0  0  0
   -7.5307   17.2128   10.9949 N   0  0  0  0  0  0  0  0  0  0  0  0
   -6.7894   16.7147   12.1759 C   0  0  0  0  0  0  0  0  0  0  0  0
   -5.7190   17.8128   12.2170 C   0  0  0  0  0  0  0  0  0  0  0  0
   -4.8282   17.7152   13.4697 C   0  0  0  0  0  0  0  0  0  0  0  0
   -3.6648   18.6992   13.3940 C   0  0  0  0  0  0  0  0  0  0  0  0
   -4.1679   20.0614   13.2871 N   0  0  0  0  0  0  0  0  0  0  0  0
   -1.6107   14.8669    4.9776 N   0  0  0  0  0  0  0  0  0  0  0  0
   -5.9925   14.4283    5.2724 C   0  0  0  0  0  0  0  0  0  0  0  0
   -6.4819   13.4843    5.4552 O   0  0  0  0  0  0  0  0  0  0  0  0
   -4.6220   14.9521    4.9189 C   0  0  2  0  0  0  0  0  0  0  0  0
   -4.6544   15.6878    3.7614 O   0  0  0  0  0  0  0  0  0  0  0  0
   -3.7420   13.7378    4.6442 C   0  0  0  0  0  0  0  0  0  0  0  0
   -2.3510   14.0077    4.0423 C   0  0  0  0  0  0  0  0  0  0  0  0
  1  2  1  6  0  0  0
  1  3  1  0  0  0  0
  3  4  1  1  0  0  0
  3  5  1  0  0  0  0
  5  6  1  1  0  0  0
  5  7  1  0  0  0  0
  7  8  1  6  0  0  0
  9  7  1  0  0  0  0
  9 10  1  0  0  0  0
  9 11  1  6  0  0  0
 10  1  1  0  0  0  0
 11 12  1  0  0  0  0
 13 14  1  6  0  0  0
 13 15  1  0  0  0  0
 13 22  1  0  0  0  0
 14 32  1  0  0  0  0
 15 16  1  1  0  0  0
 15 17  1  0  0  0  0
 16 23  1  0  0  0  0
 17 18  1  6  0  0  0
 17 19  1  0  0  0  0
 19  2  1  1  0  0  0
 19 20  1  0  0  0  0
 20 21  1  6  0  0  0
 20 22  1  0  0  0  0
 23 24  1  0  0  0  0
 24 25  1  0  0  0  0
 25 26  1  0  0  0  0
 26 27  1  0  0  0  0
 27 28  1  0  0  0  0
 28 29  1  0  0  0  0
 29 30  1  0  0  0  0
 31 37  1  0  0  0  0
 32 33  2  0  0  0  0
 34 32  1  6  0  0  0
 34 35  1  0  0  0  0
 34 36  1  0  0  0  0
 36 37  1  0  0  0  0
M  END
>  <CHROM.1>
-168.23083219,-68.05361622,155.76590694,-66.15996131,-56.65842201,76.92707920
162.06421823,29.10373529,39.13747698,172.95031909,172.54551659,59.67418901
-58.28458872,170.49281233,59.60771276,-9.09946186,17.32406785,6.49843517
2.79791204,0.35038086,-1.91668196

>  <Name>
1o9m_lig

>  <RI>
0

>  <Rbt.Current_Directory>
/home/itssahil/PROJECTS/Mol_Feturizer/New_Systems/rnas/1o9m

>  <Rbt.Executable>
rbdock ($Id: //depot/dev/client3/rdock/2013.1/src/exe/rbdock.cxx#4 $)

>  <Rbt.Library>
libRbt.so (2013.1, Build901 2013/11/27)

>  <Rbt.Parameter_File>
/export/apps/rDock/src/rDock_2013.1_src/data/scripts/dock_solv.prm

>  <Rbt.Receptor>
prm/pocket_docking_7.prm

>  <SCORE>
-14.4725

>  <SCORE.INTER>
-9.06175

>  <SCORE.INTER.CONST>
1

>  <SCORE.INTER.POLAR>
-1.0877

>  <SCORE.INTER.ROT>
15

>  <SCORE.INTER.SOLV>
29.1811

>  <SCORE.INTER.VDW>
-25.7425

>  <SCORE.INTER.norm>
-0.244912

>  <SCORE.INTRA>
-5.41072

>  <SCORE.INTRA.DIHEDRAL>
-15.0517

>  <SCORE.INTRA.DIHEDRAL.0>
21.5987

>  <SCORE.INTRA.POLAR>
0

>  <SCORE.INTRA.POLAR.0>
0

>  <SCORE.INTRA.REPUL>
0

>  <SCORE.INTRA.REPUL.0>
0

>  <SCORE.INTRA.SOLV>
1.70284

>  <SCORE.INTRA.SOLV.lig_0>
-108.715

>  <SCORE.INTRA.VDW>
1.26373

>  <SCORE.INTRA.VDW.0>
-3.9485

>  <SCORE.INTRA.norm>
-0.146236

>  <SCORE.RESTR>
0

>  <SCORE.RESTR.CAVITY>
0

>  <SCORE.RESTR.norm>
0

>  <SCORE.SYSTEM>
0

>  <SCORE.SYSTEM.CONST>
0

>  <SCORE.SYSTEM.DIHEDRAL>
0

>  <SCORE.SYSTEM.SOLV>
0

>  <SCORE.SYSTEM.norm>
0

>  <SCORE.heavy>
37

>  <SCORE.norm>
-0.391148

>  <RMSD>
8.448

$$$$
1o9m_lig
 OpenBabel11021811403D
libRbt.so/2013.1/901 2013/11/27
 37 38  0  0  0  0  0  0  0  0999 V2000
   -9.3672   22.4904    6.3078 C   0  0  2  0  0  0  0  0  0  0  0  0
   -9.2496   21.7233    7.5448 O   0  0  0  0  0  0  0  0  0  0  0  0
  -10.6882   23.3352    6.4330 C   0  0  2  0  0  0  0  0  0  0  0  0
  -10.6666   24.2324    7.6016 N   0  0  0  0  0  0  0  0  0  0  0  0
  -11.9208   22.3556    6.5043 C   0  0  1  0  0  0  0  0  0  0  0  0
  -13.1362   23.1010    6.6168 O   0  0  0  0  0  0  0  0  0  0  0  0
  -11.8973   21.4513    5.2279 C   0  0  2  0  0  0  0  0  0  0  0  0
  -12.9753   20.5017    5.1975 O   0  0  0  0  0  0  0  0  0  0  0  0
  -10.5544   20.6868    5.1250 C   0  0  2  0  0  0  0  0  0  0  0  0
   -9.4448   21.5965    5.1469 O   0  0  0  0  0  0  0  0  0  0  0  0
  -10.4838   19.8506    3.8734 C   0  0  0  0  0  0  0  0  0  0  0  0
  -10.6828   20.6370    2.7638 N   0  0  0  0  0  0  0  0  0  0  0  0
   -5.9854   19.5699    9.4231 C   0  0  1  0  0  0  0  0  0  0  0  0
   -4.8955   18.5737    9.6214 N   0  0  0  0  0  0  0  0  0  0  0  0
   -5.6689   20.4061    8.1906 C   0  0  2  0  0  0  0  0  0  0  0  0
   -4.4221   21.0042    8.3861 O   0  0  0  0  0  0  0  0  0  0  0  0
   -6.7779   21.4792    7.9536 C   0  0  1  0  0  0  0  0  0  0  0  0
   -6.4745   22.2598    6.7573 O   0  0  0  0  0  0  0  0  0  0  0  0
   -8.1749   20.7626    7.7518 C   0  0  1  0  0  0  0  0  0  0  0  0
   -8.5112   19.9384    8.9853 C   0  0  1  0  0  0  0  0  0  0  0  0
   -9.8041   19.3013    8.7852 N   0  0  0  0  0  0  0  0  0  0  0  0
   -7.3988   18.8846    9.2324 C   0  0  0  0  0  0  0  0  0  0  0  0
   -3.4314   21.9078    8.9231 C   0  0  0  0  0  0  0  0  0  0  0  0
   -3.4722   21.8502   10.4329 C   0  0  0  0  0  0  0  0  0  0  0  0
   -3.0805   20.5429   10.9991 N   0  0  0  0  0  0  0  0  0  0  0  0
   -3.1180   19.2551   11.7289 C   0  0  0  0  0  0  0  0  0  0  0  0
   -4.1297   19.6659   12.8063 C   0  0  0  0  0  0  0  0  0  0  0  0
   -4.6573   18.4589   13.6044 C   0  0  0  0  0  0  0  0  0  0  0  0
   -5.6175   17.6225   12.7643 C   0  0  0  0  0  0  0  0  0  0  0  0
   -6.0163   16.4302   13.4989 N   0  0  0  0  0  0  0  0  0  0  0  0
   -2.0887   14.4966   10.0691 N   0  0  0  0  0  0  0  0  0  0  0  0
   -4.7385   17.4953    8.2218 C   0  0  0  0  0  0  0  0  0  0  0  0
   -5.2374   17.4046    7.2695 O   0  0  0  0  0  0  0  0  0  0  0  0
   -3.6428   16.8134    9.0041 C   0  0  2  0  0  0  0  0  0  0  0  0
   -2.6041   16.4448    8.1872 O   0  0  0  0  0  0  0  0  0  0  0  0
   -4.2370   15.5274    9.5681 C   0  0  0  0  0  0  0  0  0  0  0  0
   -3.4120   14.7900   10.6383 C   0  0  0  0  0  0  0  0  0  0  0  0
  1  2  1  1  0  0  0
  1  3  1  0  0  0  0
  3  4  1  1  0  0  0
  3  5  1  0  0  0  0
  5  6  1  6  0  0  0
  5  7  1  0  0  0  0
  7  8  1  1  0  0  0
  9  7  1  0  0  0  0
  9 10  1  0  0  0  0
  9 11  1  6  0  0  0
 10  1  1  0  0  0  0
 11 12  1  0  0  0  0
 13 14  1  6  0  0  0
 13 15  1  0  0  0  0
 13 22  1  0  0  0  0
 14 32  1  0  0  0  0
 15 16  1  1  0  0  0
 15 17  1  0  0  0  0
 16 23  1  0  0  0  0
 17 18  1  6  0  0  0
 17 19  1  0  0  0  0
 19  2  1  1  0  0  0
 19 20  1  0  0  0  0
 20 21  1  6  0  0  0
 20 22  1  0  0  0  0
 23 24  1  0  0  0  0
 24 25  1  0  0  0  0
 25 26  1  0  0  0  0
 26 27  1  0  0  0  0
 27 28  1  0  0  0  0
 28 29  1  0  0  0  0
 29 30  1  0  0  0  0
 31 37  1  0  0  0  0
 32 33  2  0  0  0  0
 34 32  1  6  0  0  0
 34 35  1  0  0  0  0
 34 36  1  0  0  0  0
 36 37  1  0  0  0  0
M  END
>  <CHROM.1>
176.45624569,56.39930536,-59.91568749,-72.86629348,52.64296775,71.24094348
65.01452399,-119.16889268,-28.98845365,167.75590674,-72.78857507,175.31948934
-141.29908028,-167.96338050,-56.73496682,-6.99701960,19.81484132,8.38626923
-3.00805696,0.72821017,-2.63718767

>  <Name>
1o9m_lig

>  <RI>
0

>  <Rbt.Current_Directory>
/home/itssahil/PROJECTS/Mol_Feturizer/New_Systems/rnas/1o9m

>  <Rbt.Executable>
rbdock ($Id: //depot/dev/client3/rdock/2013.1/src/exe/rbdock.cxx#4 $)

>  <Rbt.Library>
libRbt.so (2013.1, Build901 2013/11/27)

>  <Rbt.Parameter_File>
/export/apps/rDock/src/rDock_2013.1_src/data/scripts/dock_solv.prm

>  <Rbt.Receptor>
prm/pocket_docking_5.prm

>  <SCORE>
-4.6337

>  <SCORE.INTER>
1.94364

>  <SCORE.INTER.CONST>
1

>  <SCORE.INTER.POLAR>
-0.953831

>  <SCORE.INTER.ROT>
15

>  <SCORE.INTER.SOLV>
14.7302

>  <SCORE.INTER.VDW>
-14.0349

>  <SCORE.INTER.norm>
0.0525309

>  <SCORE.INTRA>
-6.57734

>  <SCORE.INTRA.DIHEDRAL>
-13.9275

>  <SCORE.INTRA.DIHEDRAL.0>
21.5987

>  <SCORE.INTRA.POLAR>
0

>  <SCORE.INTRA.POLAR.0>
0

>  <SCORE.INTRA.REPUL>
0

>  <SCORE.INTRA.REPUL.0>
0

>  <SCORE.INTRA.SOLV>
5.13866

>  <SCORE.INTRA.SOLV.lig_0>
-108.715

>  <SCORE.INTRA.VDW>
-2.1829

>  <SCORE.INTRA.VDW.0>
-3.9485

>  <SCORE.INTRA.norm>
-0.177766

>  <SCORE.RESTR>
0

>  <SCORE.RESTR.CAVITY>
0

>  <SCORE.RESTR.norm>
0

>  <SCORE.SYSTEM>
0

>  <SCORE.SYSTEM.CONST>
0

>  <SCORE.SYSTEM.DIHEDRAL>
0

>  <SCORE.SYSTEM.SOLV>
0

>  <SCORE.SYSTEM.norm>
0

>  <SCORE.heavy>
37

>  <SCORE.norm>
-0.125235

>  <RMSD>
8.477

$$$$
1o9m_lig
 OpenBabel11021811403D
libRbt.so/2013.1/901 2013/11/27
 37 38  0  0  0  0  0  0  0  0999 V2000
   -8.0502   18.3374    6.6270 C   0  0  2  0  0  0  0  0  0  0  0  0
   -8.0635   16.9130    6.3062 O   0  0  0  0  0  0  0  0  0  0  0  0
   -9.2302   18.5757    7.6395 C   0  0  2  0  0  0  0  0  0  0  0  0
   -9.0870   17.7657    8.8619 N   0  0  0  0  0  0  0  0  0  0  0  0
  -10.5970   18.2629    6.9198 C   0  0  1  0  0  0  0  0  0  0  0  0
  -11.6874   18.4742    7.8208 O   0  0  0  0  0  0  0  0  0  0  0  0
  -10.6955   19.1696    5.6487 C   0  0  2  0  0  0  0  0  0  0  0  0
  -11.9039   18.9531    4.9018 O   0  0  0  0  0  0  0  0  0  0  0  0
   -9.4820   18.9353    4.7155 C   0  0  2  0  0  0  0  0  0  0  0  0
   -8.2484   19.1448    5.4180 O   0  0  0  0  0  0  0  0  0  0  0  0
   -9.5240   19.8380    3.5097 C   0  0  0  0  0  0  0  0  0  0  0  0
   -8.3886   19.6736    2.7525 N   0  0  0  0  0  0  0  0  0  0  0  0
   -5.4255   13.8611    4.7102 C   0  0  1  0  0  0  0  0  0  0  0  0
   -4.3138   13.2326    3.9430 N   0  0  0  0  0  0  0  0  0  0  0  0
   -4.8384   14.8641    5.6940 C   0  0  2  0  0  0  0  0  0  0  0  0
   -3.9361   14.1833    6.5141 O   0  0  0  0  0  0  0  0  0  0  0  0
   -5.9688   15.5362    6.5355 C   0  0  1  0  0  0  0  0  0  0  0  0
   -5.3956   16.5110    7.4594 O   0  0  0  0  0  0  0  0  0  0  0  0
   -6.9765   16.2829    5.5698 C   0  0  1  0  0  0  0  0  0  0  0  0
   -7.5843   15.2870    4.5937 C   0  0  1  0  0  0  0  0  0  0  0  0
   -8.5173   15.9905    3.7264 N   0  0  0  0  0  0  0  0  0  0  0  0
   -6.4591   14.6045    3.7707 C   0  0  0  0  0  0  0  0  0  0  0  0
   -3.0569   13.9337    7.6327 C   0  0  0  0  0  0  0  0  0  0  0  0
   -3.8775   13.8377    8.8984 C   0  0  0  0  0  0  0  0  0  0  0  0
   -3.0847   13.9304   10.1417 N   0  0  0  0  0  0  0  0  0  0  0  0
   -2.4518   14.4541   11.3736 C   0  0  0  0  0  0  0  0  0  0  0  0
   -3.7402   14.7181   12.1630 C   0  0  0  0  0  0  0  0  0  0  0  0
   -4.5751   15.8610   11.5554 C   0  0  0  0  0  0  0  0  0  0  0  0
   -5.8456   16.1030   12.3645 C   0  0  0  0  0  0  0  0  0  0  0  0
   -5.5112   16.6719   13.6625 N   0  0  0  0  0  0  0  0  0  0  0  0
   -3.6525   10.2906   -1.1657 N   0  0  0  0  0  0  0  0  0  0  0  0
   -4.9242   12.2845    2.5736 C   0  0  0  0  0  0  0  0  0  0  0  0
   -5.9015   12.0714    2.1692 O   0  0  0  0  0  0  0  0  0  0  0  0
   -3.4793   11.9435    2.3024 C   0  0  2  0  0  0  0  0  0  0  0  0
   -2.7896   13.0348    1.8382 O   0  0  0  0  0  0  0  0  0  0  0  0
   -3.4719   10.9091    1.1824 C   0  0  0  0  0  0  0  0  0  0  0  0
   -3.8407   11.4063   -0.2271 C   0  0  0  0  0  0  0  0  0  0  0  0
  1  2  1  6  0  0  0
  1  3  1  0  0  0  0
  3  4  1  1  0  0  0
  3  5  1  0  0  0  0
  5  6  1  1  0  0  0
  5  7  1  0  0  0  0
  7  8  1  6  0  0  0
  9  7  1  0  0  0  0
  9 10  1  0  0  0  0
  9 11  1  6  0  0  0
 10  1  1  0  0  0  0
 11 12  1  0  0  0  0
 13 14  1  6  0  0  0
 13 15  1  0  0  0  0
 13 22  1  0  0  0  0
 14 32  1  0  0  0  0
 15 16  1  1  0  0  0
 15 17  1  0  0  0  0
 16 23  1  0  0  0  0
 17 18  1  1  0  0  0
 17 19  1  0  0  0  0
 19  2  1  1  0  0  0
 19 20  1  0  0  0  0
 20 21  1  6  0  0  0
 20 22  1  0  0  0  0
 23 24  1  0  0  0  0
 24 25  1  0  0  0  0
 25 26  1  0  0  0  0
 26 27  1  0  0  0  0
 27 28  1  0  0  0  0
 28 29  1  0  0  0  0
 29 30  1  0  0  0  0
 31 37  1  0  0  0  0
 32 33  2  0  0  0  0
 34 32  1  6  0  0  0
 34 35  1  0  0  0  0
 34 36  1  0  0  0  0
 36 37  1  0  0  0  0
M  END
>  <CHROM.1>
-169.62503735,175.72962309,-169.25552514,-166.39160941,66.76639091,99.11992746
-165.13093448,100.80973660,64.61091718,-67.77815121,-179.77833909,69.29265660
-70.42239544,71.63433466,174.87683360,-6.34835401,15.57516941,5.95089475
2.20495123,-0.71492490,1.29216761

>  <Name>
1o9m_lig

>  <RI>
0

>  <Rbt.Current_Directory>
/home/itssahil/PROJECTS/Mol_Feturizer/New_Systems/rnas/1o9m

>  <Rbt.Executable>
rbdock ($Id: //depot/dev/client3/rdock/2013.1/src/exe/rbdock.cxx#4 $)

>  <Rbt.Library>
libRbt.so (2013.1, Build901 2013/11/27)

>  <Rbt.Parameter_File>
/export/apps/rDock/src/rDock_2013.1_src/data/scripts/dock_solv.prm

>  <Rbt.Receptor>
prm/pocket_docking_6.prm

>  <SCORE>
-7.70079

>  <SCORE.INTER>
-4.37606

>  <SCORE.INTER.CONST>
1

>  <SCORE.INTER.POLAR>
-0.862335

>  <SCORE.INTER.ROT>
15

>  <SCORE.INTER.SOLV>
16.1661

>  <SCORE.INTER.VDW>
-19.0316

>  <SCORE.INTER.norm>
-0.118272

>  <SCORE.INTRA>
-3.32474

>  <SCORE.INTRA.DIHEDRAL>
-10.8736

>  <SCORE.INTRA.DIHEDRAL.0>
21.5987

>  <SCORE.INTRA.POLAR>
0

>  <SCORE.INTRA.POLAR.0>
0

>  <SCORE.INTRA.REPUL>
0

>  <SCORE.INTRA.REPUL.0>
0

>  <SCORE.INTRA.SOLV>
2.35917

>  <SCORE.INTRA.SOLV.lig_0>
-108.715

>  <SCORE.INTRA.VDW>
0.932463

>  <SCORE.INTRA.VDW.0>
-3.9485

>  <SCORE.INTRA.norm>
-0.0898578

>  <SCORE.RESTR>
0

>  <SCORE.RESTR.CAVITY>
0

>  <SCORE.RESTR.norm>
0

>  <SCORE.SYSTEM>
0

>  <SCORE.SYSTEM.CONST>
0

>  <SCORE.SYSTEM.DIHEDRAL>
0

>  <SCORE.SYSTEM.SOLV>
0

>  <SCORE.SYSTEM.norm>
0

>  <SCORE.heavy>
37

>  <SCORE.norm>
-0.20813

>  <RMSD>
8.477

$$$$
1o9m_lig
 OpenBabel11021811403D
libRbt.so/2013.1/901 2013/11/27
 37 38  0  0  0  0  0  0  0  0999 V2000
   -5.5130   19.7305    7.1960 C   0  0  2  0  0  0  0  0  0  0  0  0
   -5.2593   18.4140    7.7746 O   0  0  0  0  0  0  0  0  0  0  0  0
   -4.9507   20.7822    8.2218 C   0  0  2  0  0  0  0  0  0  0  0  0
   -3.5120   20.5952    8.4786 N   0  0  0  0  0  0  0  0  0  0  0  0
   -5.7741   20.6849    9.5621 C   0  0  1  0  0  0  0  0  0  0  0  0
   -5.2822   21.6343   10.5120 O   0  0  0  0  0  0  0  0  0  0  0  0
   -7.2838   20.9152    9.2228 C   0  0  2  0  0  0  0  0  0  0  0  0
   -8.1341   20.8306   10.3782 O   0  0  0  0  0  0  0  0  0  0  0  0
   -7.7691   19.8897    8.1687 C   0  0  2  0  0  0  0  0  0  0  0  0
   -6.9506   19.9402    6.9911 O   0  0  0  0  0  0  0  0  0  0  0  0
   -9.2065   20.1254    7.7825 C   0  0  0  0  0  0  0  0  0  0  0  0
   -9.6654   19.0909    7.0024 N   0  0  0  0  0  0  0  0  0  0  0  0
   -4.4970   14.5969    5.8591 C   0  0  1  0  0  0  0  0  0  0  0  0
   -4.7353   13.3445    5.0882 N   0  0  0  0  0  0  0  0  0  0  0  0
   -4.8074   15.7905    4.9662 C   0  0  2  0  0  0  0  0  0  0  0  0
   -4.0022   15.6970    3.8291 O   0  0  0  0  0  0  0  0  0  0  0  0
   -4.5533   17.1292    5.7284 C   0  0  1  0  0  0  0  0  0  0  0  0
   -4.8751   18.2656    4.8695 O   0  0  0  0  0  0  0  0  0  0  0  0
   -5.4722   17.1892    7.0160 C   0  0  1  0  0  0  0  0  0  0  0  0
   -5.1578   16.0113    7.9256 C   0  0  1  0  0  0  0  0  0  0  0  0
   -6.0017   16.0939    9.1082 N   0  0  0  0  0  0  0  0  0  0  0  0
   -5.3916   14.6805    7.1615 C   0  0  0  0  0  0  0  0  0  0  0  0
   -3.3055   15.0906    2.7184 C   0  0  0  0  0  0  0  0  0  0  0  0
   -2.1305   14.2970    3.2420 C   0  0  0  0  0  0  0  0  0  0  0  0
   -1.1170   15.1097    3.9456 N   0  0  0  0  0  0  0  0  0  0  0  0
   -0.0314   16.0779    4.2225 C   0  0  0  0  0  0  0  0  0  0  0  0
   -0.2116   16.1495    5.7442 C   0  0  0  0  0  0  0  0  0  0  0  0
    0.6201   15.0842    6.4828 C   0  0  0  0  0  0  0  0  0  0  0  0
    0.4200   15.1807    7.9921 C   0  0  0  0  0  0  0  0  0  0  0  0
   -0.9697   14.9085    8.3309 N   0  0  0  0  0  0  0  0  0  0  0  0
   -8.3776    9.7647    1.8138 N   0  0  0  0  0  0  0  0  0  0  0  0
   -6.2006   13.4618    4.0952 C   0  0  0  0  0  0  0  0  0  0  0  0
   -6.9413   14.2256    3.9165 O   0  0  0  0  0  0  0  0  0  0  0  0
   -5.9041   12.0418    3.6788 C   0  0  2  0  0  0  0  0  0  0  0  0
   -4.8975   11.9967    2.7478 O   0  0  0  0  0  0  0  0  0  0  0  0
   -7.1593   11.5102    2.9960 C   0  0  0  0  0  0  0  0  0  0  0  0
   -7.1514   10.0278    2.5808 C   0  0  0  0  0  0  0  0  0  0  0  0
  1  2  1  1  0  0  0
  1  3  1  0  0  0  0
  3  4  1  1  0  0  0
  3  5  1  0  0  0  0
  5  6  1  1  0  0  0
  5  7  1  0  0  0  0
  7  8  1  1  0  0  0
  9  7  1  0  0  0  0
  9 10  1  0  0  0  0
  9 11  1  6  0  0  0
 10  1  1  0  0  0  0
 11 12  1  0  0  0  0
 13 14  1  6  0  0  0
 13 15  1  0  0  0  0
 13 22  1  0  0  0  0
 14 32  1  0  0  0  0
 15 16  1  6  0  0  0
 15 17  1  0  0  0  0
 16 23  1  0  0  0  0
 17 18  1  6  0  0  0
 17 19  1  0  0  0  0
 19  2  1  1  0  0  0
 19 20  1  0  0  0  0
 20 21  1  1  0  0  0
 20 22  1  0  0  0  0
 23 24  1  0  0  0  0
 24 25  1  0  0  0  0
 25 26  1  0  0  0  0
 26 27  1  0  0  0  0
 27 28  1  0  0  0  0
 28 29  1  0  0  0  0
 29 30  1  0  0  0  0
 31 37  1  0  0  0  0
 32 33  2  0  0  0  0
 34 32  1  6  0  0  0
 34 35  1  0  0  0  0
 34 36  1  0  0  0  0
 36 37  1  0  0  0  0
M  END
>  <CHROM.1>
-171.00604715,-171.14652643,-40.78851001,40.13472587,-72.02747993,61.03596418
-62.27016552,-69.46138266,164.82065077,88.99281391,-179.99827758,62.97645914
-77.38858485,-174.99749207,-173.69241758,-4.92985412,16.40904466,6.14029230
1.75188210,-0.04820384,0.61582391

>  <Name>
1o9m_lig

>  <RI>
0

>  <Rbt.Current_Directory>
/home/itssahil/PROJECTS/Mol_Feturizer/New_Systems/rnas/1o9m

>  <Rbt.Executable>
rbdock ($Id: //depot/dev/client3/rdock/2013.1/src/exe/rbdock.cxx#4 $)

>  <Rbt.Library>
libRbt.so (2013.1, Build901 2013/11/27)

>  <Rbt.Parameter_File>
/export/apps/rDock/src/rDock_2013.1_src/data/scripts/dock_solv.prm

>  <Rbt.Receptor>
prm/pocket_docking_5.prm

>  <SCORE>
-18.6081

>  <SCORE.INTER>
-11.6997

>  <SCORE.INTER.CONST>
1

>  <SCORE.INTER.POLAR>
-0.997247

>  <SCORE.INTER.ROT>
15

>  <SCORE.INTER.SOLV>
14.4475

>  <SCORE.INTER.VDW>
-22.8915

>  <SCORE.INTER.norm>
-0.316209

>  <SCORE.INTRA>
-6.90839

>  <SCORE.INTRA.DIHEDRAL>
-14.0081

>  <SCORE.INTRA.DIHEDRAL.0>
21.5987

>  <SCORE.INTRA.POLAR>
0

>  <SCORE.INTRA.POLAR.0>
0

>  <SCORE.INTRA.REPUL>
0

>  <SCORE.INTRA.REPUL.0>
0

>  <SCORE.INTRA.SOLV>
1.70515

>  <SCORE.INTRA.SOLV.lig_0>
-108.715

>  <SCORE.INTRA.VDW>
-0.756931

>  <SCORE.INTRA.VDW.0>
-3.9485

>  <SCORE.INTRA.norm>
-0.186713

>  <SCORE.RESTR>
0

>  <SCORE.RESTR.CAVITY>
0

>  <SCORE.RESTR.norm>
0

>  <SCORE.SYSTEM>
0

>  <SCORE.SYSTEM.CONST>
0

>  <SCORE.SYSTEM.DIHEDRAL>
0

>  <SCORE.SYSTEM.SOLV>
0

>  <SCORE.SYSTEM.norm>
0

>  <SCORE.heavy>
37

>  <SCORE.norm>
-0.502923

>  <RMSD>
8.490

$$$$
1o9m_lig
 OpenBabel11021811403D
libRbt.so/2013.1/901 2013/11/27
 37 38  0  0  0  0  0  0  0  0999 V2000
   -3.8740   15.1445    9.6426 C   0  0  2  0  0  0  0  0  0  0  0  0
   -5.2729   15.5348    9.4909 O   0  0  0  0  0  0  0  0  0  0  0  0
   -3.7681   14.3992   11.0238 C   0  0  2  0  0  0  0  0  0  0  0  0
   -4.6476   13.2189   11.0883 N   0  0  0  0  0  0  0  0  0  0  0  0
   -4.1078   15.4121   12.1825 C   0  0  1  0  0  0  0  0  0  0  0  0
   -4.0166   14.7577   13.4509 O   0  0  0  0  0  0  0  0  0  0  0  0
   -3.1264   16.6253   12.0707 C   0  0  2  0  0  0  0  0  0  0  0  0
   -3.3596   17.6255   13.0757 O   0  0  0  0  0  0  0  0  0  0  0  0
   -3.2317   17.2859   10.6739 C   0  0  2  0  0  0  0  0  0  0  0  0
   -3.0012   16.3238    9.6343 O   0  0  0  0  0  0  0  0  0  0  0  0
   -2.2555   18.4234   10.5205 C   0  0  0  0  0  0  0  0  0  0  0  0
   -2.4687   19.0762    9.3298 N   0  0  0  0  0  0  0  0  0  0  0  0
   -7.8356   16.1621    6.0471 C   0  0  1  0  0  0  0  0  0  0  0  0
   -8.3517   16.7312    4.7707 N   0  0  0  0  0  0  0  0  0  0  0  0
   -6.4459   15.5894    5.8037 C   0  0  2  0  0  0  0  0  0  0  0  0
   -6.5467   14.6339    4.7903 O   0  0  0  0  0  0  0  0  0  0  0  0
   -5.8711   14.9635    7.1135 C   0  0  1  0  0  0  0  0  0  0  0  0
   -4.5303   14.4375    6.8729 O   0  0  0  0  0  0  0  0  0  0  0  0
   -5.7872   16.0733    8.2393 C   0  0  1  0  0  0  0  0  0  0  0  0
   -7.1735   16.6401    8.5048 C   0  0  1  0  0  0  0  0  0  0  0  0
   -7.0760   17.6461    9.5517 N   0  0  0  0  0  0  0  0  0  0  0  0
   -7.7531   17.2448    7.1980 C   0  0  0  0  0  0  0  0  0  0  0  0
   -6.8210   14.0789    3.4852 C   0  0  0  0  0  0  0  0  0  0  0  0
   -6.5708   12.5886    3.5160 C   0  0  0  0  0  0  0  0  0  0  0  0
   -7.2175   11.8438    2.4159 N   0  0  0  0  0  0  0  0  0  0  0  0
   -7.9315   11.5257    1.1584 C   0  0  0  0  0  0  0  0  0  0  0  0
   -8.1191   10.0242    1.4100 C   0  0  0  0  0  0  0  0  0  0  0  0
   -9.2119    9.7382    2.4570 C   0  0  0  0  0  0  0  0  0  0  0  0
   -9.3773    8.2385    2.6823 C   0  0  0  0  0  0  0  0  0  0  0  0
  -10.4659    7.9903    3.6170 N   0  0  0  0  0  0  0  0  0  0  0  0
  -10.3134   20.1701    1.5557 N   0  0  0  0  0  0  0  0  0  0  0  0
   -9.9321   17.5047    4.9963 C   0  0  0  0  0  0  0  0  0  0  0  0
  -10.5898   17.6641    5.8365 O   0  0  0  0  0  0  0  0  0  0  0  0
   -9.8883   17.7842    3.5139 C   0  0  2  0  0  0  0  0  0  0  0  0
   -8.8311   18.5972    3.1923 O   0  0  0  0  0  0  0  0  0  0  0  0
  -11.1576   18.5566    3.1720 C   0  0  0  0  0  0  0  0  0  0  0  0
  -11.2862   19.0819    1.7307 C   0  0  0  0  0  0  0  0  0  0  0  0
  1  2  1  1  0  0  0
  1  3  1  0  0  0  0
  3  4  1  6  0  0  0
  3  5  1  0  0  0  0
  5  6  1  1  0  0  0
  5  7  1  0  0  0  0
  7  8  1  1  0  0  0
  9  7  1  0  0  0  0
  9 10  1  0  0  0  0
  9 11  1  1  0  0  0
 10  1  1  0  0  0  0
 11 12  1  0  0  0  0
 13 14  1  6  0  0  0
 13 15  1  0  0  0  0
 13 22  1  0  0  0  0
 14 32  1  0  0  0  0
 15 16  1  6  0  0  0
 15 17  1  0  0  0  0
 16 23  1  0  0  0  0
 17 18  1  6  0  0  0
 17 19  1  0  0  0  0
 19  2  1  1  0  0  0
 19 20  1  0  0  0  0
 20 21  1  1  0  0  0
 20 22  1  0  0  0  0
 23 24  1  0  0  0  0
 24 25  1  0  0  0  0
 25 26  1  0  0  0  0
 26 27  1  0  0  0  0
 27 28  1  0  0  0  0
 28 29  1  0  0  0  0
 29 30  1  0  0  0  0
 31 37  1  0  0  0  0
 32 33  2  0  0  0  0
 34 32  1  1  0  0  0
 34 35  1  0  0  0  0
 34 36  1  0  0  0  0
 36 37  1  0  0  0  0
M  END
>  <CHROM.1>
-170.71044490,-173.68748065,-176.65522810,60.21444755,-177.06967421,70.94421293
161.03410739,11.08893611,-171.53720991,74.52594782,179.84551560,-176.75869289
-62.27468599,174.28409200,-70.09556665,-6.69196453,15.39063828,6.65808708
-0.49865368,0.93257091,-2.87069334

>  <Name>
1o9m_lig

>  <RI>
0

>  <Rbt.Current_Directory>
/home/itssahil/PROJECTS/Mol_Feturizer/New_Systems/rnas/1o9m

>  <Rbt.Executable>
rbdock ($Id: //depot/dev/client3/rdock/2013.1/src/exe/rbdock.cxx#4 $)

>  <Rbt.Library>
libRbt.so (2013.1, Build901 2013/11/27)

>  <Rbt.Parameter_File>
/export/apps/rDock/src/rDock_2013.1_src/data/scripts/dock_solv.prm

>  <Rbt.Receptor>
prm/pocket_docking_6.prm

>  <SCORE>
-12.8239

>  <SCORE.INTER>
-6.13029

>  <SCORE.INTER.CONST>
1

>  <SCORE.INTER.POLAR>
-0.824747

>  <SCORE.INTER.ROT>
15

>  <SCORE.INTER.SOLV>
14.1493

>  <SCORE.INTER.VDW>
-19.6541

>  <SCORE.INTER.norm>
-0.165684

>  <SCORE.INTRA>
-6.69362

>  <SCORE.INTRA.DIHEDRAL>
-15.8724

>  <SCORE.INTRA.DIHEDRAL.0>
21.5987

>  <SCORE.INTRA.POLAR>
0

>  <SCORE.INTRA.POLAR.0>
0

>  <SCORE.INTRA.REPUL>
0

>  <SCORE.INTRA.REPUL.0>
0

>  <SCORE.INTRA.SOLV>
0.324123

>  <SCORE.INTRA.SOLV.lig_0>
-108.715

>  <SCORE.INTRA.VDW>
1.0805

>  <SCORE.INTRA.VDW.0>
-3.9485

>  <SCORE.INTRA.norm>
-0.180909

>  <SCORE.RESTR>
0

>  <SCORE.RESTR.CAVITY>
0

>  <SCORE.RESTR.norm>
0

>  <SCORE.SYSTEM>
0

>  <SCORE.SYSTEM.CONST>
0

>  <SCORE.SYSTEM.DIHEDRAL>
0

>  <SCORE.SYSTEM.SOLV>
0

>  <SCORE.SYSTEM.norm>
0

>  <SCORE.heavy>
37

>  <SCORE.norm>
-0.346592

>  <RMSD>
8.500

$$$$
1o9m_lig
 OpenBabel11021811403D
libRbt.so/2013.1/901 2013/11/27
 37 38  0  0  0  0  0  0  0  0999 V2000
   -9.7934   21.7629    5.0512 C   0  0  2  0  0  0  0  0  0  0  0  0
  -10.1054   21.2649    6.3879 O   0  0  0  0  0  0  0  0  0  0  0  0
  -10.6903   23.0364    4.8311 C   0  0  2  0  0  0  0  0  0  0  0  0
  -10.4398   24.0756    5.8452 N   0  0  0  0  0  0  0  0  0  0  0  0
  -12.2062   22.6055    4.8365 C   0  0  1  0  0  0  0  0  0  0  0  0
  -13.0434   23.7476    4.6361 O   0  0  0  0  0  0  0  0  0  0  0  0
  -12.4075   21.5222    3.7259 C   0  0  2  0  0  0  0  0  0  0  0  0
  -13.7600   21.0425    3.6534 O   0  0  0  0  0  0  0  0  0  0  0  0
  -11.4617   20.3183    3.9596 C   0  0  2  0  0  0  0  0  0  0  0  0
  -10.0948   20.7486    4.0348 O   0  0  0  0  0  0  0  0  0  0  0  0
  -11.5958   19.2849    2.8712 C   0  0  0  0  0  0  0  0  0  0  0  0
  -12.7876   18.6118    2.9982 N   0  0  0  0  0  0  0  0  0  0  0  0
   -7.8784   18.9175    9.2776 C   0  0  1  0  0  0  0  0  0  0  0  0
   -7.1322   17.7763    9.8779 N   0  0  0  0  0  0  0  0  0  0  0  0
   -7.1502   19.3745    8.0209 C   0  0  2  0  0  0  0  0  0  0  0  0
   -5.8446   19.7150    8.3810 O   0  0  0  0  0  0  0  0  0  0  0  0
   -7.8882   20.5845    7.3661 C   0  0  1  0  0  0  0  0  0  0  0  0
   -7.1929   20.9994    6.1508 O   0  0  0  0  0  0  0  0  0  0  0  0
   -9.3661   20.1626    6.9872 C   0  0  1  0  0  0  0  0  0  0  0  0
  -10.1102   19.7217    8.2384 C   0  0  1  0  0  0  0  0  0  0  0  0
  -11.4689   19.3530    7.8704 N   0  0  0  0  0  0  0  0  0  0  0  0
   -9.3657   18.5313    8.9004 C   0  0  0  0  0  0  0  0  0  0  0  0
   -4.4562   20.0813    8.2235 C   0  0  0  0  0  0  0  0  0  0  0  0
   -3.6747   18.8770    7.7508 C   0  0  0  0  0  0  0  0  0  0  0  0
   -4.3563   18.0856    6.7059 N   0  0  0  0  0  0  0  0  0  0  0  0
   -4.6109   17.2777    5.4914 C   0  0  0  0  0  0  0  0  0  0  0  0
   -5.5440   16.2427    6.1326 C   0  0  0  0  0  0  0  0  0  0  0  0
   -4.7920   15.2751    7.0655 C   0  0  0  0  0  0  0  0  0  0  0  0
   -3.8196   14.4000    6.2805 C   0  0  0  0  0  0  0  0  0  0  0  0
   -4.5544   13.4448    5.4632 N   0  0  0  0  0  0  0  0  0  0  0  0
   -3.2701   14.8584   11.8961 N   0  0  0  0  0  0  0  0  0  0  0  0
   -5.9737   18.3295   11.1020 C   0  0  0  0  0  0  0  0  0  0  0  0
   -5.6981   19.2884   11.5126 O   0  0  0  0  0  0  0  0  0  0  0  0
   -5.5921   16.8763   11.2444 C   0  0  2  0  0  0  0  0  0  0  0  0
   -5.4901   16.5161   12.5642 O   0  0  0  0  0  0  0  0  0  0  0  0
   -4.2017   16.7230   10.6376 C   0  0  0  0  0  0  0  0  0  0  0  0
   -3.6379   15.2938   10.5410 C   0  0  0  0  0  0  0  0  0  0  0  0
  1  2  1  1  0  0  0
  1  3  1  0  0  0  0
  3  4  1  1  0  0  0
  3  5  1  0  0  0  0
  5  6  1  6  0  0  0
  5  7  1  0  0  0  0
  7  8  1  1  0  0  0
  9  7  1  0  0  0  0
  9 10  1  0  0  0  0
  9 11  1  6  0  0  0
 10  1  1  0  0  0  0
 11 12  1  0  0  0  0
 13 14  1  6  0  0  0
 13 15  1  0  0  0  0
 13 22  1  0  0  0  0
 14 32  1  0  0  0  0
 15 16  1  1  0  0  0
 15 17  1  0  0  0  0
 16 23  1  0  0  0  0
 17 18  1  6  0  0  0
 17 19  1  0  0  0  0
 19  2  1  1  0  0  0
 19 20  1  0  0  0  0
 20 21  1  6  0  0  0
 20 22  1  0  0  0  0
 23 24  1  0  0  0  0
 24 25  1  0  0  0  0
 25 26  1  0  0  0  0
 26 27  1  0  0  0  0
 27 28  1  0  0  0  0
 28 29  1  0  0  0  0
 29 30  1  0  0  0  0
 31 37  1  0  0  0  0
 32 33  2  0  0  0  0
 34 32  1  1  0  0  0
 34 35  1  0  0  0  0
 34 36  1  0  0  0  0
 36 37  1  0  0  0  0
M  END
>  <CHROM.1>
-173.98115275,-72.44477972,92.95134127,170.18207731,-73.28980128,70.28680609
42.34053425,139.40358825,137.03288175,-71.74215025,-65.88931456,-70.12677557
-134.86475357,-174.42206770,-72.95879271,-7.88104927,19.06142868,7.19783160
2.92698114,0.75438328,-2.04034050

>  <Name>
1o9m_lig

>  <RI>
0

>  <Rbt.Current_Directory>
/home/itssahil/PROJECTS/Mol_Feturizer/New_Systems/rnas/1o9m

>  <Rbt.Executable>
rbdock ($Id: //depot/dev/client3/rdock/2013.1/src/exe/rbdock.cxx#4 $)

>  <Rbt.Library>
libRbt.so (2013.1, Build901 2013/11/27)

>  <Rbt.Parameter_File>
/export/apps/rDock/src/rDock_2013.1_src/data/scripts/dock_solv.prm

>  <Rbt.Receptor>
prm/pocket_docking_7.prm

>  <SCORE>
-0.425334

>  <SCORE.INTER>
5.07441

>  <SCORE.INTER.CONST>
1

>  <SCORE.INTER.POLAR>
-1.49389

>  <SCORE.INTER.ROT>
15

>  <SCORE.INTER.SOLV>
11.4234

>  <SCORE.INTER.VDW>
-9.04523

>  <SCORE.INTER.norm>
0.137146

>  <SCORE.INTRA>
-5.49974

>  <SCORE.INTRA.DIHEDRAL>
-11.3077

>  <SCORE.INTRA.DIHEDRAL.0>
21.5987

>  <SCORE.INTRA.POLAR>
0

>  <SCORE.INTRA.POLAR.0>
0

>  <SCORE.INTRA.REPUL>
0

>  <SCORE.INTRA.REPUL.0>
0

>  <SCORE.INTRA.SOLV>
4.23748

>  <SCORE.INTRA.SOLV.lig_0>
-108.715

>  <SCORE.INTRA.VDW>
-1.96461

>  <SCORE.INTRA.VDW.0>
-3.9485

>  <SCORE.INTRA.norm>
-0.148642

>  <SCORE.RESTR>
0

>  <SCORE.RESTR.CAVITY>
0

>  <SCORE.RESTR.norm>
0

>  <SCORE.SYSTEM>
0

>  <SCORE.SYSTEM.CONST>
0

>  <SCORE.SYSTEM.DIHEDRAL>
0

>  <SCORE.SYSTEM.SOLV>
0

>  <SCORE.SYSTEM.norm>
0

>  <SCORE.heavy>
37

>  <SCORE.norm>
-0.0114955

>  <RMSD>
8.512

$$$$
1o9m_lig
 OpenBabel11021811403D
libRbt.so/2013.1/901 2013/11/27
 37 38  0  0  0  0  0  0  0  0999 V2000
   -2.6099   17.0247    9.5337 C   0  0  2  0  0  0  0  0  0  0  0  0
   -2.2956   15.6228    9.2725 O   0  0  0  0  0  0  0  0  0  0  0  0
   -1.6940   17.4692   10.7328 C   0  0  2  0  0  0  0  0  0  0  0  0
   -0.2614   17.3048   10.4299 N   0  0  0  0  0  0  0  0  0  0  0  0
   -2.0909   16.6455   12.0165 C   0  0  1  0  0  0  0  0  0  0  0  0
   -1.2721   17.0335   13.1231 O   0  0  0  0  0  0  0  0  0  0  0  0
   -3.6122   16.8822   12.2945 C   0  0  2  0  0  0  0  0  0  0  0  0
   -4.0884   16.1594   13.4416 O   0  0  0  0  0  0  0  0  0  0  0  0
   -4.4612   16.4812   11.0630 C   0  0  2  0  0  0  0  0  0  0  0  0
   -4.0243   17.1830    9.8900 O   0  0  0  0  0  0  0  0  0  0  0  0
   -5.9268   16.7522   11.2844 C   0  0  0  0  0  0  0  0  0  0  0  0
   -6.1490   18.1039   11.3981 N   0  0  0  0  0  0  0  0  0  0  0  0
   -3.5115   15.0706    5.1449 C   0  0  1  0  0  0  0  0  0  0  0  0
   -3.8852   14.3881    3.8744 N   0  0  0  0  0  0  0  0  0  0  0  0
   -4.4863   14.6475    6.2355 C   0  0  2  0  0  0  0  0  0  0  0  0
   -5.7756   14.9729    5.8088 O   0  0  0  0  0  0  0  0  0  0  0  0
   -4.1437   15.3544    7.5847 C   0  0  1  0  0  0  0  0  0  0  0  0
   -5.0714   14.9243    8.6273 O   0  0  0  0  0  0  0  0  0  0  0  0
   -2.6719   14.9724    8.0250 C   0  0  1  0  0  0  0  0  0  0  0  0
   -1.6863   15.4074    6.9512 C   0  0  1  0  0  0  0  0  0  0  0  0
   -0.3403   15.0608    7.3821 N   0  0  0  0  0  0  0  0  0  0  0  0
   -2.0388   14.7198    5.6049 C   0  0  0  0  0  0  0  0  0  0  0  0
   -6.9996   14.9012    5.0452 C   0  0  0  0  0  0  0  0  0  0  0  0
   -7.8338   16.1299    5.3263 C   0  0  0  0  0  0  0  0  0  0  0  0
   -7.2197   17.3947    4.8723 N   0  0  0  0  0  0  0  0  0  0  0  0
   -6.7684   18.8040    4.8232 C   0  0  0  0  0  0  0  0  0  0  0  0
   -5.6889   18.7055    5.9086 C   0  0  0  0  0  0  0  0  0  0  0  0
   -4.9041   20.0203    6.0746 C   0  0  0  0  0  0  0  0  0  0  0  0
   -3.8922   19.9160    7.2115 C   0  0  0  0  0  0  0  0  0  0  0  0
   -4.5810   19.9003    8.4943 N   0  0  0  0  0  0  0  0  0  0  0  0
   -3.8796    9.4066    0.7295 N   0  0  0  0  0  0  0  0  0  0  0  0
   -4.5032   12.7524    4.1730 C   0  0  0  0  0  0  0  0  0  0  0  0
   -4.6778   12.1521    5.0523 O   0  0  0  0  0  0  0  0  0  0  0  0
   -4.6293   12.6409    2.6732 C   0  0  2  0  0  0  0  0  0  0  0  0
   -5.8966   12.9598    2.2559 O   0  0  0  0  0  0  0  0  0  0  0  0
   -4.4048   11.1751    2.3186 C   0  0  0  0  0  0  0  0  0  0  0  0
   -4.1321   10.8507    0.8386 C   0  0  0  0  0  0  0  0  0  0  0  0
  1  2  1  1  0  0  0
  1  3  1  0  0  0  0
  3  4  1  6  0  0  0
  3  5  1  0  0  0  0
  5  6  1  1  0  0  0
  5  7  1  0  0  0  0
  7  8  1  1  0  0  0
  9  7  1  0  0  0  0
  9 10  1  0  0  0  0
  9 11  1  1  0  0  0
 10  1  1  0  0  0  0
 11 12  1  0  0  0  0
 13 14  1  6  0  0  0
 13 15  1  0  0  0  0
 13 22  1  0  0  0  0
 14 32  1  0  0  0  0
 15 16  1  6  0  0  0
 15 17  1  0  0  0  0
 16 23  1  0  0  0  0
 17 18  1  1  0  0  0
 17 19  1  0  0  0  0
 19  2  1  1  0  0  0
 19 20  1  0  0  0  0
 20 21  1  1  0  0  0
 20 22  1  0  0  0  0
 23 24  1  0  0  0  0
 24 25  1  0  0  0  0
 25 26  1  0  0  0  0
 26 27  1  0  0  0  0
 27 28  1  0  0  0  0
 28 29  1  0  0  0  0
 29 30  1  0  0  0  0
 31 37  1  0  0  0  0
 32 33  2  0  0  0  0
 34 32  1  1  0  0  0
 34 35  1  0  0  0  0
 34 36  1  0  0  0  0
 36 37  1  0  0  0  0
M  END
>  <CHROM.1>
-163.25221210,65.61867673,-35.37505227,71.55349554,-169.09276365,-43.03611213
64.78619331,-138.49067004,70.11778625,176.01131870,176.85225161,-71.44089164
-95.03893684,-165.13807675,177.20279448,-4.12901137,15.66700285,7.20016156
-1.34437764,0.77979592,-2.25152482

>  <Name>
1o9m_lig

>  <RI>
0

>  <Rbt.Current_Directory>
/home/itssahil/PROJECTS/Mol_Feturizer/New_Systems/rnas/1o9m

>  <Rbt.Executable>
rbdock ($Id: //depot/dev/client3/rdock/2013.1/src/exe/rbdock.cxx#4 $)

>  <Rbt.Library>
libRbt.so (2013.1, Build901 2013/11/27)

>  <Rbt.Parameter_File>
/export/apps/rDock/src/rDock_2013.1_src/data/scripts/dock_solv.prm

>  <Rbt.Receptor>
prm/pocket_docking_4.prm

>  <SCORE>
-7.58943

>  <SCORE.INTER>
-2.43212

>  <SCORE.INTER.CONST>
1

>  <SCORE.INTER.POLAR>
-1.51274

>  <SCORE.INTER.ROT>
15

>  <SCORE.INTER.SOLV>
12.1331

>  <SCORE.INTER.VDW>
-14.2233

>  <SCORE.INTER.norm>
-0.0657329

>  <SCORE.INTRA>
-5.17769

>  <SCORE.INTRA.DIHEDRAL>
-13.0791

>  <SCORE.INTRA.DIHEDRAL.0>
21.5987

>  <SCORE.INTRA.POLAR>
0

>  <SCORE.INTRA.POLAR.0>
0

>  <SCORE.INTRA.REPUL>
0

>  <SCORE.INTRA.REPUL.0>
0

>  <SCORE.INTRA.SOLV>
6.00096

>  <SCORE.INTRA.SOLV.lig_0>
-108.715

>  <SCORE.INTRA.VDW>
-1.63862

>  <SCORE.INTRA.VDW.0>
-3.9485

>  <SCORE.INTRA.norm>
-0.139937

>  <SCORE.RESTR>
0.0203759

>  <SCORE.RESTR.CAVITY>
0.0203759

>  <SCORE.RESTR.norm>
0.000550701

>  <SCORE.SYSTEM>
0

>  <SCORE.SYSTEM.CONST>
0

>  <SCORE.SYSTEM.DIHEDRAL>
0

>  <SCORE.SYSTEM.SOLV>
0

>  <SCORE.SYSTEM.norm>
0

>  <SCORE.heavy>
37

>  <SCORE.norm>
-0.20512

>  <RMSD>
8.530

$$$$
1o9m_lig
 OpenBabel11021811403D
libRbt.so/2013.1/901 2013/11/27
 37 38  0  0  0  0  0  0  0  0999 V2000
  -11.9067   20.0698    6.3408 C   0  0  2  0  0  0  0  0  0  0  0  0
  -11.0140   18.9401    6.5834 O   0  0  0  0  0  0  0  0  0  0  0  0
  -13.3718   19.5221    6.5087 C   0  0  2  0  0  0  0  0  0  0  0  0
  -13.6036   18.9540    7.8482 N   0  0  0  0  0  0  0  0  0  0  0  0
  -13.6505   18.4469    5.3906 C   0  0  1  0  0  0  0  0  0  0  0  0
  -14.9793   17.9342    5.5210 O   0  0  0  0  0  0  0  0  0  0  0  0
  -13.4097   19.1194    3.9988 C   0  0  2  0  0  0  0  0  0  0  0  0
  -13.6204   18.2177    2.9000 O   0  0  0  0  0  0  0  0  0  0  0  0
  -11.9727   19.6897    3.9092 C   0  0  2  0  0  0  0  0  0  0  0  0
  -11.7162   20.6019    4.9869 O   0  0  0  0  0  0  0  0  0  0  0  0
  -11.7330   20.3929    2.5982 C   0  0  0  0  0  0  0  0  0  0  0  0
  -12.5610   21.4841    2.4851 N   0  0  0  0  0  0  0  0  0  0  0  0
   -6.9378   18.7080    8.0502 C   0  0  1  0  0  0  0  0  0  0  0  0
   -5.4593   18.8807    8.1107 N   0  0  0  0  0  0  0  0  0  0  0  0
   -7.5909   20.0817    7.9810 C   0  0  2  0  0  0  0  0  0  0  0  0
   -7.1794   20.8096    9.0995 O   0  0  0  0  0  0  0  0  0  0  0  0
   -9.1460   19.9504    7.9347 C   0  0  1  0  0  0  0  0  0  0  0  0
   -9.7596   21.2726    7.8465 O   0  0  0  0  0  0  0  0  0  0  0  0
   -9.5695   19.1079    6.6632 C   0  0  1  0  0  0  0  0  0  0  0  0
   -8.9380   17.7257    6.7305 C   0  0  1  0  0  0  0  0  0  0  0  0
   -9.3517   16.9639    5.5617 N   0  0  0  0  0  0  0  0  0  0  0  0
   -7.3927   17.8567    6.7964 C   0  0  0  0  0  0  0  0  0  0  0  0
   -6.2839   21.4049   10.0641 C   0  0  0  0  0  0  0  0  0  0  0  0
   -5.2341   22.2124    9.3358 C   0  0  0  0  0  0  0  0  0  0  0  0
   -5.7837   23.2406    8.4283 N   0  0  0  0  0  0  0  0  0  0  0  0
   -6.5477   24.3969    7.9069 C   0  0  0  0  0  0  0  0  0  0  0  0
   -6.6056   23.9523    6.4399 C   0  0  0  0  0  0  0  0  0  0  0  0
   -7.5643   24.8197    5.6029 C   0  0  0  0  0  0  0  0  0  0  0  0
   -7.6082   24.3470    4.1530 C   0  0  0  0  0  0  0  0  0  0  0  0
   -8.0983   22.9774    4.0881 N   0  0  0  0  0  0  0  0  0  0  0  0
   -0.5094   18.8048    6.8724 N   0  0  0  0  0  0  0  0  0  0  0  0
   -4.8519   19.7775    6.7059 C   0  0  0  0  0  0  0  0  0  0  0  0
   -5.3035   20.2290    5.8363 O   0  0  0  0  0  0  0  0  0  0  0  0
   -3.4811   19.5784    7.3049 C   0  0  2  0  0  0  0  0  0  0  0  0
   -2.6479   20.6242    6.9983 O   0  0  0  0  0  0  0  0  0  0  0  0
   -2.8882   18.3363    6.6489 C   0  0  0  0  0  0  0  0  0  0  0  0
   -1.5501   17.8233    7.2111 C   0  0  0  0  0  0  0  0  0  0  0  0
  1  2  1  6  0  0  0
  1  3  1  0  0  0  0
  3  4  1  1  0  0  0
  3  5  1  0  0  0  0
  5  6  1  6  0  0  0
  5  7  1  0  0  0  0
  7  8  1  6  0  0  0
  9  7  1  0  0  0  0
  9 10  1  0  0  0  0
  9 11  1  6  0  0  0
 10  1  1  0  0  0  0
 11 12  1  0  0  0  0
 13 14  1  6  0  0  0
 13 15  1  0  0  0  0
 13 22  1  0  0  0  0
 14 32  1  0  0  0  0
 15 16  1  1  0  0  0
 15 17  1  0  0  0  0
 16 23  1  0  0  0  0
 17 18  1  6  0  0  0
 17 19  1  0  0  0  0
 19  2  1  1  0  0  0
 19 20  1  0  0  0  0
 20 21  1  6  0  0  0
 20 22  1  0  0  0  0
 23 24  1  0  0  0  0
 24 25  1  0  0  0  0
 25 26  1  0  0  0  0
 26 27  1  0  0  0  0
 27 28  1  0  0  0  0
 28 29  1  0  0  0  0
 29 30  1  0  0  0  0
 31 37  1  0  0  0  0
 32 33  2  0  0  0  0
 34 32  1  6  0  0  0
 34 35  1  0  0  0  0
 34 36  1  0  0  0  0
 36 37  1  0  0  0  0
M  END
>  <CHROM.1>
-172.88626953,63.42857460,-58.24099478,52.17999685,52.16813935,66.89190128
55.44701371,54.90119423,-155.07379627,169.90641292,-179.57239933,61.38902889
-148.85609651,-173.08503068,-68.62804579,-8.38769791,20.20620734,6.40994095
3.06185542,0.29473348,3.01918275

>  <Name>
1o9m_lig

>  <RI>
0

>  <Rbt.Current_Directory>
/home/itssahil/PROJECTS/Mol_Feturizer/New_Systems/rnas/1o9m

>  <Rbt.Executable>
rbdock ($Id: //depot/dev/client3/rdock/2013.1/src/exe/rbdock.cxx#4 $)

>  <Rbt.Library>
libRbt.so (2013.1, Build901 2013/11/27)

>  <Rbt.Parameter_File>
/export/apps/rDock/src/rDock_2013.1_src/data/scripts/dock_solv.prm

>  <Rbt.Receptor>
prm/pocket_docking_6.prm

>  <SCORE>
-6.42654

>  <SCORE.INTER>
2.02701

>  <SCORE.INTER.CONST>
1

>  <SCORE.INTER.POLAR>
-1.05056

>  <SCORE.INTER.ROT>
15

>  <SCORE.INTER.SOLV>
10.9226

>  <SCORE.INTER.VDW>
-12.3877

>  <SCORE.INTER.norm>
0.054784

>  <SCORE.INTRA>
-8.45355

>  <SCORE.INTRA.DIHEDRAL>
-17.2298

>  <SCORE.INTRA.DIHEDRAL.0>
21.5987

>  <SCORE.INTRA.POLAR>
0

>  <SCORE.INTRA.POLAR.0>
0

>  <SCORE.INTRA.REPUL>
0.0168846

>  <SCORE.INTRA.REPUL.0>
0

>  <SCORE.INTRA.SOLV>
3.95614

>  <SCORE.INTRA.SOLV.lig_0>
-108.715

>  <SCORE.INTRA.VDW>
-1.90114

>  <SCORE.INTRA.VDW.0>
-3.9485

>  <SCORE.INTRA.norm>
-0.228474

>  <SCORE.RESTR>
0

>  <SCORE.RESTR.CAVITY>
0

>  <SCORE.RESTR.norm>
0

>  <SCORE.SYSTEM>
0

>  <SCORE.SYSTEM.CONST>
0

>  <SCORE.SYSTEM.DIHEDRAL>
0

>  <SCORE.SYSTEM.SOLV>
0

>  <SCORE.SYSTEM.norm>
0

>  <SCORE.heavy>
37

>  <SCORE.norm>
-0.17369

>  <RMSD>
8.546

$$$$
1o9m_lig
 OpenBabel11021811403D
libRbt.so/2013.1/901 2013/11/27
 37 38  0  0  0  0  0  0  0  0999 V2000
  -11.3166   20.5821    8.1014 C   0  0  2  0  0  0  0  0  0  0  0  0
  -11.1262   19.6765    6.9720 O   0  0  0  0  0  0  0  0  0  0  0  0
  -12.8684   20.8005    8.2388 C   0  0  2  0  0  0  0  0  0  0  0  0
  -13.5912   19.5355    8.4586 N   0  0  0  0  0  0  0  0  0  0  0  0
  -13.4017   21.5309    6.9481 C   0  0  1  0  0  0  0  0  0  0  0  0
  -14.8124   21.7428    7.0498 O   0  0  0  0  0  0  0  0  0  0  0  0
  -12.6120   22.8718    6.7873 C   0  0  2  0  0  0  0  0  0  0  0  0
  -13.0086   23.6164    5.6240 O   0  0  0  0  0  0  0  0  0  0  0  0
  -11.0886   22.6029    6.7136 C   0  0  2  0  0  0  0  0  0  0  0  0
  -10.6436   21.8633    7.8600 O   0  0  0  0  0  0  0  0  0  0  0  0
  -10.3009   23.8837    6.6148 C   0  0  0  0  0  0  0  0  0  0  0  0
  -10.5237   24.4870    5.4001 N   0  0  0  0  0  0  0  0  0  0  0  0
   -7.7934   16.9992    6.2337 C   0  0  1  0  0  0  0  0  0  0  0  0
   -6.4406   16.5263    5.8265 N   0  0  0  0  0  0  0  0  0  0  0  0
   -7.6398   18.0374    7.3369 C   0  0  2  0  0  0  0  0  0  0  0  0
   -6.9374   17.4456    8.3888 O   0  0  0  0  0  0  0  0  0  0  0  0
   -9.0371   18.5494    7.8095 C   0  0  1  0  0  0  0  0  0  0  0  0
   -8.8761   19.5598    8.8515 O   0  0  0  0  0  0  0  0  0  0  0  0
   -9.8055   19.1982    6.5870 C   0  0  1  0  0  0  0  0  0  0  0  0
   -9.9818   18.1644    5.4852 C   0  0  1  0  0  0  0  0  0  0  0  0
  -10.7025   18.7765    4.3791 N   0  0  0  0  0  0  0  0  0  0  0  0
   -8.5936   17.6410    5.0290 C   0  0  0  0  0  0  0  0  0  0  0  0
   -5.8265   16.8710    9.1115 C   0  0  0  0  0  0  0  0  0  0  0  0
   -4.7010   17.8778    9.1757 C   0  0  0  0  0  0  0  0  0  0  0  0
   -5.0131   19.0842    9.9695 N   0  0  0  0  0  0  0  0  0  0  0  0
   -5.2295   20.0038   11.1096 C   0  0  0  0  0  0  0  0  0  0  0  0
   -4.8631   19.0221   12.2299 C   0  0  0  0  0  0  0  0  0  0  0  0
   -3.3515   18.7314   12.2821 C   0  0  0  0  0  0  0  0  0  0  0  0
   -3.0387   17.6298   13.2901 C   0  0  0  0  0  0  0  0  0  0  0  0
   -1.6345   17.2549   13.2018 N   0  0  0  0  0  0  0  0  0  0  0  0
   -3.4485   18.1615    1.6025 N   0  0  0  0  0  0  0  0  0  0  0  0
   -5.3730   17.8834    5.4201 C   0  0  0  0  0  0  0  0  0  0  0  0
   -5.4750   18.9575    5.4111 O   0  0  0  0  0  0  0  0  0  0  0  0
   -4.3364   16.8342    5.1006 C   0  0  2  0  0  0  0  0  0  0  0  0
   -3.1474   17.1021    5.7303 O   0  0  0  0  0  0  0  0  0  0  0  0
   -4.0695   16.9184    3.6018 C   0  0  0  0  0  0  0  0  0  0  0  0
   -3.5025   18.2467    3.0691 C   0  0  0  0  0  0  0  0  0  0  0  0
  1  2  1  6  0  0  0
  1  3  1  0  0  0  0
  3  4  1  6  0  0  0
  3  5  1  0  0  0  0
  5  6  1  1  0  0  0
  5  7  1  0  0  0  0
  7  8  1  6  0  0  0
  9  7  1  0  0  0  0
  9 10  1  0  0  0  0
  9 11  1  1  0  0  0
 10  1  1  0  0  0  0
 11 12  1  0  0  0  0
 13 14  1  6  0  0  0
 13 15  1  0  0  0  0
 13 22  1  0  0  0  0
 14 32  1  0  0  0  0
 15 16  1  1  0  0  0
 15 17  1  0  0  0  0
 16 23  1  0  0  0  0
 17 18  1  1  0  0  0
 17 19  1  0  0  0  0
 19  2  1  1  0  0  0
 19 20  1  0  0  0  0
 20 21  1  6  0  0  0
 20 22  1  0  0  0  0
 23 24  1  0  0  0  0
 24 25  1  0  0  0  0
 25 26  1  0  0  0  0
 26 27  1  0  0  0  0
 27 28  1  0  0  0  0
 28 29  1  0  0  0  0
 29 30  1  0  0  0  0
 31 37  1  0  0  0  0
 32 33  2  0  0  0  0
 34 32  1  1  0  0  0
 34 35  1  0  0  0  0
 34 36  1  0  0  0  0
 36 37  1  0  0  0  0
M  END
>  <CHROM.1>
-177.07257494,-68.34637611,-52.62142671,69.98571283,57.71262520,53.03035423
65.80246623,79.30100440,1.49072441,71.96746798,-173.16548362,172.84545579
-129.48783013,61.68940674,-174.42410188,-7.95519294,19.33442552,7.33168028
3.00448972,0.46814612,-1.70138523

>  <Name>
1o9m_lig

>  <RI>
0

>  <Rbt.Current_Directory>
/home/itssahil/PROJECTS/Mol_Feturizer/New_Systems/rnas/1o9m

>  <Rbt.Executable>
rbdock ($Id: //depot/dev/client3/rdock/2013.1/src/exe/rbdock.cxx#4 $)

>  <Rbt.Library>
libRbt.so (2013.1, Build901 2013/11/27)

>  <Rbt.Parameter_File>
/export/apps/rDock/src/rDock_2013.1_src/data/scripts/dock_solv.prm

>  <Rbt.Receptor>
prm/pocket_docking_5.prm

>  <SCORE>
-5.03304

>  <SCORE.INTER>
2.14401

>  <SCORE.INTER.CONST>
1

>  <SCORE.INTER.POLAR>
-0.844973

>  <SCORE.INTER.ROT>
15

>  <SCORE.INTER.SOLV>
11.8109

>  <SCORE.INTER.VDW>
-13.2911

>  <SCORE.INTER.norm>
0.0579463

>  <SCORE.INTRA>
-7.17705

>  <SCORE.INTRA.DIHEDRAL>
-15.4494

>  <SCORE.INTRA.DIHEDRAL.0>
21.5987

>  <SCORE.INTRA.POLAR>
0

>  <SCORE.INTRA.POLAR.0>
0

>  <SCORE.INTRA.REPUL>
0

>  <SCORE.INTRA.REPUL.0>
0

>  <SCORE.INTRA.SOLV>
0.997559

>  <SCORE.INTRA.SOLV.lig_0>
-108.715

>  <SCORE.INTRA.VDW>
0.0488684

>  <SCORE.INTRA.VDW.0>
-3.9485

>  <SCORE.INTRA.norm>
-0.193974

>  <SCORE.RESTR>
0

>  <SCORE.RESTR.CAVITY>
0

>  <SCORE.RESTR.norm>
0

>  <SCORE.SYSTEM>
0

>  <SCORE.SYSTEM.CONST>
0

>  <SCORE.SYSTEM.DIHEDRAL>
0

>  <SCORE.SYSTEM.SOLV>
0

>  <SCORE.SYSTEM.norm>
0

>  <SCORE.heavy>
37

>  <SCORE.norm>
-0.136028

>  <RMSD>
8.547

$$$$
1o9m_lig
 OpenBabel11021811403D
libRbt.so/2013.1/901 2013/11/27
 37 38  0  0  0  0  0  0  0  0999 V2000
   -9.1728   20.5903    7.2245 C   0  0  2  0  0  0  0  0  0  0  0  0
   -9.2073   20.1228    5.8416 O   0  0  0  0  0  0  0  0  0  0  0  0
  -10.2717   19.7722    7.9975 C   0  0  2  0  0  0  0  0  0  0  0  0
  -10.0324   18.3197    7.9331 N   0  0  0  0  0  0  0  0  0  0  0  0
  -11.6892   20.1308    7.4092 C   0  0  1  0  0  0  0  0  0  0  0  0
  -12.7073   19.3996    8.0979 O   0  0  0  0  0  0  0  0  0  0  0  0
  -11.8879   21.6779    7.5292 C   0  0  2  0  0  0  0  0  0  0  0  0
  -13.1498   22.1204    7.0032 O   0  0  0  0  0  0  0  0  0  0  0  0
  -10.7496   22.4329    6.7995 C   0  0  2  0  0  0  0  0  0  0  0  0
   -9.4659   22.0262    7.2956 O   0  0  0  0  0  0  0  0  0  0  0  0
  -10.8868   23.9261    6.9477 C   0  0  0  0  0  0  0  0  0  0  0  0
  -12.0425   24.3601    6.3433 N   0  0  0  0  0  0  0  0  0  0  0  0
   -6.8058   16.6967    4.6947 C   0  0  1  0  0  0  0  0  0  0  0  0
   -5.6963   15.9005    4.0993 N   0  0  0  0  0  0  0  0  0  0  0  0
   -6.2240   17.6613    5.7192 C   0  0  2  0  0  0  0  0  0  0  0  0
   -5.5300   16.9103    6.6703 O   0  0  0  0  0  0  0  0  0  0  0  0
   -7.3557   18.5064    6.3846 C   0  0  1  0  0  0  0  0  0  0  0  0
   -6.7835   19.4421    7.3487 O   0  0  0  0  0  0  0  0  0  0  0  0
   -8.1263   19.3294    5.2734 C   0  0  1  0  0  0  0  0  0  0  0  0
   -8.7285   18.3749    4.2536 C   0  0  1  0  0  0  0  0  0  0  0  0
   -9.4437   19.1502    3.2511 N   0  0  0  0  0  0  0  0  0  0  0  0
   -7.6056   17.5209    3.6062 C   0  0  0  0  0  0  0  0  0  0  0  0
   -5.3137   16.0063    7.7760 C   0  0  0  0  0  0  0  0  0  0  0  0
   -6.0661   16.5113    8.9857 C   0  0  0  0  0  0  0  0  0  0  0  0
   -5.5559   15.9970   10.2734 N   0  0  0  0  0  0  0  0  0  0  0  0
   -5.1961   15.8924   11.7059 C   0  0  0  0  0  0  0  0  0  0  0  0
   -4.6375   17.3110   11.8751 C   0  0  0  0  0  0  0  0  0  0  0  0
   -4.5368   17.7278   13.3544 C   0  0  0  0  0  0  0  0  0  0  0  0
   -3.8612   19.0882   13.4968 C   0  0  0  0  0  0  0  0  0  0  0  0
   -4.5361   20.0716   12.6616 N   0  0  0  0  0  0  0  0  0  0  0  0
   -0.8875   15.4964    4.5960 N   0  0  0  0  0  0  0  0  0  0  0  0
   -5.5690   14.2993    4.8522 C   0  0  0  0  0  0  0  0  0  0  0  0
   -6.1105   13.7745    5.6237 O   0  0  0  0  0  0  0  0  0  0  0  0
   -4.3899   14.0795    3.9362 C   0  0  2  0  0  0  0  0  0  0  0  0
   -4.1595   12.7422    3.7346 O   0  0  0  0  0  0  0  0  0  0  0  0
   -3.1639   14.6343    4.6530 C   0  0  0  0  0  0  0  0  0  0  0  0
   -1.8451   14.6589    3.8593 C   0  0  0  0  0  0  0  0  0  0  0  0
  1  2  1  6  0  0  0
  1  3  1  0  0  0  0
  3  4  1  6  0  0  0
  3  5  1  0  0  0  0
  5  6  1  1  0  0  0
  5  7  1  0  0  0  0
  7  8  1  6  0  0  0
  9  7  1  0  0  0  0
  9 10  1  0  0  0  0
  9 11  1  1  0  0  0
 10  1  1  0  0  0  0
 11 12  1  0  0  0  0
 13 14  1  6  0  0  0
 13 15  1  0  0  0  0
 13 22  1  0  0  0  0
 14 32  1  0  0  0  0
 15 16  1  1  0  0  0
 15 17  1  0  0  0  0
 16 23  1  0  0  0  0
 17 18  1  1  0  0  0
 17 19  1  0  0  0  0
 19  2  1  1  0  0  0
 19 20  1  0  0  0  0
 20 21  1  6  0  0  0
 20 22  1  0  0  0  0
 23 24  1  0  0  0  0
 24 25  1  0  0  0  0
 25 26  1  0  0  0  0
 26 27  1  0  0  0  0
 27 28  1  0  0  0  0
 28 29  1  0  0  0  0
 29 30  1  0  0  0  0
 31 37  1  0  0  0  0
 32 33  2  0  0  0  0
 34 32  1  1  0  0  0
 34 35  1  0  0  0  0
 34 36  1  0  0  0  0
 36 37  1  0  0  0  0
M  END
>  <CHROM.1>
-109.95084481,-63.79234855,99.18056484,-71.22342500,-56.46269358,26.78450209
-158.56728327,148.98930428,-42.72973593,162.89928453,174.80120391,53.42962412
-156.85816829,-173.94174858,167.14139575,-7.29153390,18.18122732,7.01349697
-2.81086005,0.68746103,-1.91594054

>  <Name>
1o9m_lig

>  <RI>
0

>  <Rbt.Current_Directory>
/home/itssahil/PROJECTS/Mol_Feturizer/New_Systems/rnas/1o9m

>  <Rbt.Executable>
rbdock ($Id: //depot/dev/client3/rdock/2013.1/src/exe/rbdock.cxx#4 $)

>  <Rbt.Library>
libRbt.so (2013.1, Build901 2013/11/27)

>  <Rbt.Parameter_File>
/export/apps/rDock/src/rDock_2013.1_src/data/scripts/dock_solv.prm

>  <Rbt.Receptor>
prm/pocket_docking_6.prm

>  <SCORE>
-12.3688

>  <SCORE.INTER>
-13.2173

>  <SCORE.INTER.CONST>
1

>  <SCORE.INTER.POLAR>
-2.86358

>  <SCORE.INTER.ROT>
15

>  <SCORE.INTER.SOLV>
19.3064

>  <SCORE.INTER.VDW>
-19.3017

>  <SCORE.INTER.norm>
-0.357224

>  <SCORE.INTRA>
0.848496

>  <SCORE.INTRA.DIHEDRAL>
-3.09684

>  <SCORE.INTRA.DIHEDRAL.0>
21.5987

>  <SCORE.INTRA.POLAR>
0

>  <SCORE.INTRA.POLAR.0>
0

>  <SCORE.INTRA.REPUL>
0

>  <SCORE.INTRA.REPUL.0>
0

>  <SCORE.INTRA.SOLV>
2.64677

>  <SCORE.INTRA.SOLV.lig_0>
-108.715

>  <SCORE.INTRA.VDW>
1.07353

>  <SCORE.INTRA.VDW.0>
-3.9485

>  <SCORE.INTRA.norm>
0.0229323

>  <SCORE.RESTR>
0

>  <SCORE.RESTR.CAVITY>
0

>  <SCORE.RESTR.norm>
0

>  <SCORE.SYSTEM>
0

>  <SCORE.SYSTEM.CONST>
0

>  <SCORE.SYSTEM.DIHEDRAL>
0

>  <SCORE.SYSTEM.SOLV>
0

>  <SCORE.SYSTEM.norm>
0

>  <SCORE.heavy>
37

>  <SCORE.norm>
-0.334292

>  <RMSD>
8.571

$$$$
1o9m_lig
 OpenBabel11021811403D
libRbt.so/2013.1/901 2013/11/27
 37 38  0  0  0  0  0  0  0  0999 V2000
  -12.1499   17.9536    5.2343 C   0  0  2  0  0  0  0  0  0  0  0  0
  -11.1479   17.4272    6.1569 O   0  0  0  0  0  0  0  0  0  0  0  0
  -12.0741   19.5210    5.3433 C   0  0  2  0  0  0  0  0  0  0  0  0
  -10.7358   20.0382    5.0084 N   0  0  0  0  0  0  0  0  0  0  0  0
  -12.4925   19.9565    6.7990 C   0  0  1  0  0  0  0  0  0  0  0  0
  -12.4332   21.3801    6.9232 O   0  0  0  0  0  0  0  0  0  0  0  0
  -13.9261   19.3971    7.0805 C   0  0  2  0  0  0  0  0  0  0  0  0
  -14.4034   19.7231    8.3962 O   0  0  0  0  0  0  0  0  0  0  0  0
  -13.9564   17.8588    6.9044 C   0  0  2  0  0  0  0  0  0  0  0  0
  -13.4910   17.4840    5.5997 O   0  0  0  0  0  0  0  0  0  0  0  0
  -15.3402   17.3009    7.1152 C   0  0  0  0  0  0  0  0  0  0  0  0
  -16.2190   17.8554    6.2155 N   0  0  0  0  0  0  0  0  0  0  0  0
   -7.0068   16.1444    5.9967 C   0  0  1  0  0  0  0  0  0  0  0  0
   -5.5649   16.1098    5.6235 N   0  0  0  0  0  0  0  0  0  0  0  0
   -7.3113   17.4814    6.6586 C   0  0  2  0  0  0  0  0  0  0  0  0
   -6.4664   17.6164    7.7623 O   0  0  0  0  0  0  0  0  0  0  0  0
   -8.8116   17.5558    7.0847 C   0  0  1  0  0  0  0  0  0  0  0  0
   -9.0963   18.8500    7.6982 O   0  0  0  0  0  0  0  0  0  0  0  0
   -9.7342   17.3837    5.8099 C   0  0  1  0  0  0  0  0  0  0  0  0
   -9.4523   16.0424    5.1503 C   0  0  1  0  0  0  0  0  0  0  0  0
  -10.3202   15.8984    3.9912 N   0  0  0  0  0  0  0  0  0  0  0  0
   -7.9563   15.9606    4.7444 C   0  0  0  0  0  0  0  0  0  0  0  0
   -5.8012   17.2764    8.9986 C   0  0  0  0  0  0  0  0  0  0  0  0
   -4.4821   16.6081    8.6861 C   0  0  0  0  0  0  0  0  0  0  0  0
   -3.3828   17.5492    8.3884 N   0  0  0  0  0  0  0  0  0  0  0  0
   -2.5581   18.5918    7.7362 C   0  0  0  0  0  0  0  0  0  0  0  0
   -2.3556   17.8756    6.3949 C   0  0  0  0  0  0  0  0  0  0  0  0
   -1.3528   18.6096    5.4850 C   0  0  0  0  0  0  0  0  0  0  0  0
   -1.1866   17.8839    4.1534 C   0  0  0  0  0  0  0  0  0  0  0  0
   -0.0466   18.4256    3.4274 N   0  0  0  0  0  0  0  0  0  0  0  0
   -1.5130   13.5479    8.0321 N   0  0  0  0  0  0  0  0  0  0  0  0
   -4.9591   14.4455    5.5251 C   0  0  0  0  0  0  0  0  0  0  0  0
   -5.3928   13.4670    5.6611 O   0  0  0  0  0  0  0  0  0  0  0  0
   -3.6223   15.0641    5.1966 C   0  0  2  0  0  0  0  0  0  0  0  0
   -3.3281   14.9331    3.8630 O   0  0  0  0  0  0  0  0  0  0  0  0
   -2.5682   14.2700    5.9600 C   0  0  0  0  0  0  0  0  0  0  0  0
   -2.6869   14.2509    7.4947 C   0  0  0  0  0  0  0  0  0  0  0  0
  1  2  1  1  0  0  0
  1  3  1  0  0  0  0
  3  4  1  1  0  0  0
  3  5  1  0  0  0  0
  5  6  1  6  0  0  0
  5  7  1  0  0  0  0
  7  8  1  1  0  0  0
  9  7  1  0  0  0  0
  9 10  1  0  0  0  0
  9 11  1  6  0  0  0
 10  1  1  0  0  0  0
 11 12  1  0  0  0  0
 13 14  1  6  0  0  0
 13 15  1  0  0  0  0
 13 22  1  0  0  0  0
 14 32  1  0  0  0  0
 15 16  1  1  0  0  0
 15 17  1  0  0  0  0
 16 23  1  0  0  0  0
 17 18  1  6  0  0  0
 17 19  1  0  0  0  0
 19  2  1  1  0  0  0
 19 20  1  0  0  0  0
 20 21  1  6  0  0  0
 20 22  1  0  0  0  0
 23 24  1  0  0  0  0
 24 25  1  0  0  0  0
 25 26  1  0  0  0  0
 26 27  1  0  0  0  0
 27 28  1  0  0  0  0
 28 29  1  0  0  0  0
 29 30  1  0  0  0  0
 31 37  1  0  0  0  0
 32 33  2  0  0  0  0
 34 32  1  6  0  0  0
 34 35  1  0  0  0  0
 34 36  1  0  0  0  0
 36 37  1  0  0  0  0
M  END
>  <CHROM.1>
-79.46660021,59.54363784,154.97486457,-51.70576380,92.54420528,148.65844508
82.36504739,-63.78051152,-61.20218957,-172.36312866,-179.26415512,-168.28969272
-105.09733776,-60.40676632,-174.63013657,-7.72590658,17.24909821,6.29179990
2.91833022,-0.03040157,0.31298875

>  <Name>
1o9m_lig

>  <RI>
0

>  <Rbt.Current_Directory>
/home/itssahil/PROJECTS/Mol_Feturizer/New_Systems/rnas/1o9m

>  <Rbt.Executable>
rbdock ($Id: //depot/dev/client3/rdock/2013.1/src/exe/rbdock.cxx#4 $)

>  <Rbt.Library>
libRbt.so (2013.1, Build901 2013/11/27)

>  <Rbt.Parameter_File>
/export/apps/rDock/src/rDock_2013.1_src/data/scripts/dock_solv.prm

>  <Rbt.Receptor>
prm/pocket_docking_6.prm

>  <SCORE>
-5.69304

>  <SCORE.INTER>
-2.35977

>  <SCORE.INTER.CONST>
1

>  <SCORE.INTER.POLAR>
-0.78842

>  <SCORE.INTER.ROT>
15

>  <SCORE.INTER.SOLV>
17.419

>  <SCORE.INTER.VDW>
-18.3515

>  <SCORE.INTER.norm>
-0.0637775

>  <SCORE.INTRA>
-3.33328

>  <SCORE.INTRA.DIHEDRAL>
-6.55849

>  <SCORE.INTRA.DIHEDRAL.0>
21.5987

>  <SCORE.INTRA.POLAR>
0

>  <SCORE.INTRA.POLAR.0>
0

>  <SCORE.INTRA.REPUL>
0

>  <SCORE.INTRA.REPUL.0>
0

>  <SCORE.INTRA.SOLV>
4.64237

>  <SCORE.INTRA.SOLV.lig_0>
-108.715

>  <SCORE.INTRA.VDW>
-2.37522

>  <SCORE.INTRA.VDW.0>
-3.9485

>  <SCORE.INTRA.norm>
-0.0900886

>  <SCORE.RESTR>
0

>  <SCORE.RESTR.CAVITY>
0

>  <SCORE.RESTR.norm>
0

>  <SCORE.SYSTEM>
0

>  <SCORE.SYSTEM.CONST>
0

>  <SCORE.SYSTEM.DIHEDRAL>
0

>  <SCORE.SYSTEM.SOLV>
0

>  <SCORE.SYSTEM.norm>
0

>  <SCORE.heavy>
37

>  <SCORE.norm>
-0.153866

>  <RMSD>
8.576

$$$$
1o9m_lig
 OpenBabel11021811403D
libRbt.so/2013.1/901 2013/11/27
 37 38  0  0  0  0  0  0  0  0999 V2000
   -2.1384   21.7705   10.3863 C   0  0  2  0  0  0  0  0  0  0  0  0
   -2.0131   21.2739    9.0189 O   0  0  0  0  0  0  0  0  0  0  0  0
   -0.8379   22.6066   10.6761 C   0  0  2  0  0  0  0  0  0  0  0  0
   -0.6721   23.7239    9.7300 N   0  0  0  0  0  0  0  0  0  0  0  0
    0.4116   21.6472   10.6310 C   0  0  1  0  0  0  0  0  0  0  0  0
    1.6084   22.3848   10.8936 O   0  0  0  0  0  0  0  0  0  0  0  0
    0.1824   20.5014   11.6713 C   0  0  2  0  0  0  0  0  0  0  0  0
    1.2609   19.5524   11.7022 O   0  0  0  0  0  0  0  0  0  0  0  0
   -1.1377   19.7487   11.3725 C   0  0  2  0  0  0  0  0  0  0  0  0
   -2.2478   20.6573   11.3359 O   0  0  0  0  0  0  0  0  0  0  0  0
   -1.4105   18.6753   12.3943 C   0  0  0  0  0  0  0  0  0  0  0  0
   -2.5140   17.9411   12.0301 N   0  0  0  0  0  0  0  0  0  0  0  0
   -5.2099   19.8721    6.4429 C   0  0  1  0  0  0  0  0  0  0  0  0
   -6.2271   18.9658    5.8399 N   0  0  0  0  0  0  0  0  0  0  0  0
   -5.5114   20.0314    7.9269 C   0  0  2  0  0  0  0  0  0  0  0  0
   -6.8121   20.5245    8.0502 O   0  0  0  0  0  0  0  0  0  0  0  0
   -4.4787   20.9906    8.5986 C   0  0  1  0  0  0  0  0  0  0  0  0
   -4.7650   21.1181   10.0249 O   0  0  0  0  0  0  0  0  0  0  0  0
   -3.0186   20.4045    8.4239 C   0  0  1  0  0  0  0  0  0  0  0  0
   -2.6986   20.2584    6.9440 C   0  0  1  0  0  0  0  0  0  0  0  0
   -1.3485   19.7331    6.8060 N   0  0  0  0  0  0  0  0  0  0  0  0
   -3.7368   19.3205    6.2720 C   0  0  0  0  0  0  0  0  0  0  0  0
   -7.9073   21.4645    7.9902 C   0  0  0  0  0  0  0  0  0  0  0  0
   -7.9743   22.0620    6.6035 C   0  0  0  0  0  0  0  0  0  0  0  0
   -8.9859   23.1282    6.4525 N   0  0  0  0  0  0  0  0  0  0  0  0
   -9.8243   24.2038    5.8758 C   0  0  0  0  0  0  0  0  0  0  0  0
  -10.8666   24.2682    6.9993 C   0  0  0  0  0  0  0  0  0  0  0  0
  -11.7406   23.0014    7.0602 C   0  0  0  0  0  0  0  0  0  0  0  0
  -12.8141   23.1263    8.1370 C   0  0  0  0  0  0  0  0  0  0  0  0
  -13.6426   21.9291    8.1583 N   0  0  0  0  0  0  0  0  0  0  0  0
   -8.9607   19.0488    0.8988 N   0  0  0  0  0  0  0  0  0  0  0  0
   -5.9764   18.7781    4.0939 C   0  0  0  0  0  0  0  0  0  0  0  0
   -5.2595   19.1562    3.3816 O   0  0  0  0  0  0  0  0  0  0  0  0
   -7.2027   17.8989    4.1197 C   0  0  2  0  0  0  0  0  0  0  0  0
   -6.8737   16.5947    4.3897 O   0  0  0  0  0  0  0  0  0  0  0  0
   -7.7929   17.9220    2.7141 C   0  0  0  0  0  0  0  0  0  0  0  0
   -8.3197   19.2750    2.2023 C   0  0  0  0  0  0  0  0  0  0  0  0
  1  2  1  6  0  0  0
  1  3  1  0  0  0  0
  3  4  1  6  0  0  0
  3  5  1  0  0  0  0
  5  6  1  1  0  0  0
  5  7  1  0  0  0  0
  7  8  1  6  0  0  0
  9  7  1  0  0  0  0
  9 10  1  0  0  0  0
  9 11  1  1  0  0  0
 10  1  1  0  0  0  0
 11 12  1  0  0  0  0
 13 14  1  1  0  0  0
 13 15  1  0  0  0  0
 13 22  1  0  0  0  0
 14 32  1  0  0  0  0
 15 16  1  6  0  0  0
 15 17  1  0  0  0  0
 16 23  1  0  0  0  0
 17 18  1  1  0  0  0
 17 19  1  0  0  0  0
 19  2  1  6  0  0  0
 19 20  1  0  0  0  0
 20 21  1  1  0  0  0
 20 22  1  0  0  0  0
 23 24  1  0  0  0  0
 24 25  1  0  0  0  0
 25 26  1  0  0  0  0
 26 27  1  0  0  0  0
 27 28  1  0  0  0  0
 28 29  1  0  0  0  0
 29 30  1  0  0  0  0
 31 37  1  0  0  0  0
 32 33  2  0  0  0  0
 34 32  1  6  0  0  0
 34 35  1  0  0  0  0
 34 36  1  0  0  0  0
 36 37  1  0  0  0  0
M  END
>  <CHROM.1>
177.35264371,-174.07462306,177.91011767,-71.54622308,52.72531967,50.38089155
-174.97707686,178.33961023,167.34104054,-68.17197825,-176.96927955,178.91633485
-87.91531054,-64.25654978,-174.39812401,-5.05079236,20.63188944,7.75343891
0.43307949,-0.35313643,0.96670602

>  <Name>
1o9m_lig

>  <RI>
0

>  <Rbt.Current_Directory>
/home/itssahil/PROJECTS/Mol_Feturizer/New_Systems/rnas/1o9m

>  <Rbt.Executable>
rbdock ($Id: //depot/dev/client3/rdock/2013.1/src/exe/rbdock.cxx#4 $)

>  <Rbt.Library>
libRbt.so (2013.1, Build901 2013/11/27)

>  <Rbt.Parameter_File>
/export/apps/rDock/src/rDock_2013.1_src/data/scripts/dock_solv.prm

>  <Rbt.Receptor>
prm/pocket_docking_7.prm

>  <SCORE>
-1.13332

>  <SCORE.INTER>
8.14929

>  <SCORE.INTER.CONST>
1

>  <SCORE.INTER.POLAR>
0

>  <SCORE.INTER.ROT>
15

>  <SCORE.INTER.SOLV>
8.91547

>  <SCORE.INTER.VDW>
-11.139

>  <SCORE.INTER.norm>
0.220251

>  <SCORE.INTRA>
-9.2826

>  <SCORE.INTRA.DIHEDRAL>
-18.0122

>  <SCORE.INTRA.DIHEDRAL.0>
21.5987

>  <SCORE.INTRA.POLAR>
0

>  <SCORE.INTRA.POLAR.0>
0

>  <SCORE.INTRA.REPUL>
0

>  <SCORE.INTRA.REPUL.0>
0

>  <SCORE.INTRA.SOLV>
-1.59633

>  <SCORE.INTRA.SOLV.lig_0>
-108.715

>  <SCORE.INTRA.VDW>
0.521662

>  <SCORE.INTRA.VDW.0>
-3.9485

>  <SCORE.INTRA.norm>
-0.250881

>  <SCORE.RESTR>
0

>  <SCORE.RESTR.CAVITY>
0

>  <SCORE.RESTR.norm>
0

>  <SCORE.SYSTEM>
0

>  <SCORE.SYSTEM.CONST>
0

>  <SCORE.SYSTEM.DIHEDRAL>
0

>  <SCORE.SYSTEM.SOLV>
0

>  <SCORE.SYSTEM.norm>
0

>  <SCORE.heavy>
37

>  <SCORE.norm>
-0.0306302

>  <RMSD>
8.578

$$$$
1o9m_lig
 OpenBabel11021811403D
libRbt.so/2013.1/901 2013/11/27
 37 38  0  0  0  0  0  0  0  0999 V2000
   -6.4292   18.6048   10.0778 C   0  0  2  0  0  0  0  0  0  0  0  0
   -5.3880   18.0034    9.2493 O   0  0  0  0  0  0  0  0  0  0  0  0
   -6.0917   20.1384   10.1715 C   0  0  2  0  0  0  0  0  0  0  0  0
   -6.0458   20.7803    8.8460 N   0  0  0  0  0  0  0  0  0  0  0  0
   -4.7199   20.3182   10.9263 C   0  0  1  0  0  0  0  0  0  0  0  0
   -4.3913   21.7066   11.0261 O   0  0  0  0  0  0  0  0  0  0  0  0
   -4.8444   19.6374   12.3293 C   0  0  2  0  0  0  0  0  0  0  0  0
   -3.6361   19.7272   13.1019 O   0  0  0  0  0  0  0  0  0  0  0  0
   -5.2325   18.1456   12.1798 C   0  0  2  0  0  0  0  0  0  0  0  0
   -6.4397   18.0050   11.4167 O   0  0  0  0  0  0  0  0  0  0  0  0
   -5.4138   17.4800   13.5195 C   0  0  0  0  0  0  0  0  0  0  0  0
   -5.6453   16.1351   13.3553 N   0  0  0  0  0  0  0  0  0  0  0  0
   -5.4636   15.0391    6.0826 C   0  0  1  0  0  0  0  0  0  0  0  0
   -5.6757   13.7396    5.3856 N   0  0  0  0  0  0  0  0  0  0  0  0
   -6.7976   15.5256    6.6325 C   0  0  2  0  0  0  0  0  0  0  0  0
   -7.6909   15.6275    5.5640 O   0  0  0  0  0  0  0  0  0  0  0  0
   -6.6268   16.8978    7.3575 C   0  0  1  0  0  0  0  0  0  0  0  0
   -7.9079   17.3430    7.8989 O   0  0  0  0  0  0  0  0  0  0  0  0
   -5.5973   16.7432    8.5500 C   0  0  1  0  0  0  0  0  0  0  0  0
   -4.2542   16.2754    8.0104 C   0  0  1  0  0  0  0  0  0  0  0  0
   -3.3198   16.1545    9.1194 N   0  0  0  0  0  0  0  0  0  0  0  0
   -4.4274   14.9208    7.2726 C   0  0  0  0  0  0  0  0  0  0  0  0
   -8.8866   15.9878    4.8381 C   0  0  0  0  0  0  0  0  0  0  0  0
   -8.9075   17.4841    4.6257 C   0  0  0  0  0  0  0  0  0  0  0  0
   -7.8752   17.9768    3.6906 N   0  0  0  0  0  0  0  0  0  0  0  0
   -6.6984   18.6839    3.1358 C   0  0  0  0  0  0  0  0  0  0  0  0
   -5.6235   17.9475    3.9453 C   0  0  0  0  0  0  0  0  0  0  0  0
   -4.2013   18.4323    3.6069 C   0  0  0  0  0  0  0  0  0  0  0  0
   -3.1490   17.5806    4.3102 C   0  0  0  0  0  0  0  0  0  0  0  0
   -1.8174   18.0993    4.0309 N   0  0  0  0  0  0  0  0  0  0  0  0
   -6.8493   10.4217    1.7409 N   0  0  0  0  0  0  0  0  0  0  0  0
   -4.6355   13.5916    3.9564 C   0  0  0  0  0  0  0  0  0  0  0  0
   -3.8878   14.2140    3.4899 O   0  0  0  0  0  0  0  0  0  0  0  0
   -5.3030   12.2555    3.7401 C   0  0  2  0  0  0  0  0  0  0  0  0
   -4.5219   11.4278    2.9741 O   0  0  0  0  0  0  0  0  0  0  0  0
   -6.5758   12.5210    2.9438 C   0  0  0  0  0  0  0  0  0  0  0  0
   -7.5079   11.3203    2.7001 C   0  0  0  0  0  0  0  0  0  0  0  0
  1  2  1  6  0  0  0
  1  3  1  0  0  0  0
  3  4  1  6  0  0  0
  3  5  1  0  0  0  0
  5  6  1  1  0  0  0
  5  7  1  0  0  0  0
  7  8  1  6  0  0  0
  9  7  1  0  0  0  0
  9 10  1  0  0  0  0
  9 11  1  1  0  0  0
 10  1  1  0  0  0  0
 11 12  1  0  0  0  0
 13 14  1  1  0  0  0
 13 15  1  0  0  0  0
 13 22  1  0  0  0  0
 14 32  1  0  0  0  0
 15 16  1  6  0  0  0
 15 17  1  0  0  0  0
 16 23  1  0  0  0  0
 17 18  1  1  0  0  0
 17 19  1  0  0  0  0
 19  2  1  6  0  0  0
 19 20  1  0  0  0  0
 20 21  1  1  0  0  0
 20 22  1  0  0  0  0
 23 24  1  0  0  0  0
 24 25  1  0  0  0  0
 25 26  1  0  0  0  0
 26 27  1  0  0  0  0
 27 28  1  0  0  0  0
 28 29  1  0  0  0  0
 29 30  1  0  0  0  0
 31 37  1  0  0  0  0
 32 33  2  0  0  0  0
 34 32  1  6  0  0  0
 34 35  1  0  0  0  0
 34 36  1  0  0  0  0
 36 37  1  0  0  0  0
M  END
>  <CHROM.1>
-157.65523955,-174.90606827,144.06550802,-168.05656501,69.77281440,69.87594241
68.77816821,-116.44892880,65.12610786,179.41716773,-173.76441048,-177.08111118
-157.58225627,-174.68705058,-70.77754094,-5.63511643,16.62919103,7.08339079
-0.24089000,1.48608373,2.79091052

>  <Name>
1o9m_lig

>  <RI>
0

>  <Rbt.Current_Directory>
/home/itssahil/PROJECTS/Mol_Feturizer/New_Systems/rnas/1o9m

>  <Rbt.Executable>
rbdock ($Id: //depot/dev/client3/rdock/2013.1/src/exe/rbdock.cxx#4 $)

>  <Rbt.Library>
libRbt.so (2013.1, Build901 2013/11/27)

>  <Rbt.Parameter_File>
/export/apps/rDock/src/rDock_2013.1_src/data/scripts/dock_solv.prm

>  <Rbt.Receptor>
prm/pocket_docking_6.prm

>  <SCORE>
-16.9582

>  <SCORE.INTER>
-8.4128

>  <SCORE.INTER.CONST>
1

>  <SCORE.INTER.POLAR>
-0.777347

>  <SCORE.INTER.ROT>
15

>  <SCORE.INTER.SOLV>
10.1832

>  <SCORE.INTER.VDW>
-20.0118

>  <SCORE.INTER.norm>
-0.227373

>  <SCORE.INTRA>
-8.54544

>  <SCORE.INTRA.DIHEDRAL>
-13.1866

>  <SCORE.INTRA.DIHEDRAL.0>
21.5987

>  <SCORE.INTRA.POLAR>
0

>  <SCORE.INTRA.POLAR.0>
0

>  <SCORE.INTRA.REPUL>
0

>  <SCORE.INTRA.REPUL.0>
0

>  <SCORE.INTRA.SOLV>
1.22611

>  <SCORE.INTRA.SOLV.lig_0>
-108.715

>  <SCORE.INTRA.VDW>
-2.5652

>  <SCORE.INTRA.VDW.0>
-3.9485

>  <SCORE.INTRA.norm>
-0.230958

>  <SCORE.RESTR>
0

>  <SCORE.RESTR.CAVITY>
0

>  <SCORE.RESTR.norm>
0

>  <SCORE.SYSTEM>
0

>  <SCORE.SYSTEM.CONST>
0

>  <SCORE.SYSTEM.DIHEDRAL>
0

>  <SCORE.SYSTEM.SOLV>
0

>  <SCORE.SYSTEM.norm>
0

>  <SCORE.heavy>
37

>  <SCORE.norm>
-0.458331

>  <RMSD>
8.597

$$$$
1o9m_lig
 OpenBabel11021811403D
libRbt.so/2013.1/901 2013/11/27
 37 38  0  0  0  0  0  0  0  0999 V2000
  -10.5402   20.7504    7.6922 C   0  0  2  0  0  0  0  0  0  0  0  0
  -10.4774   19.8842    6.5184 O   0  0  0  0  0  0  0  0  0  0  0  0
  -12.0578   21.1092    7.8987 C   0  0  2  0  0  0  0  0  0  0  0  0
  -12.8920   19.9101    8.0917 N   0  0  0  0  0  0  0  0  0  0  0  0
  -12.5617   21.9464    6.6621 C   0  0  1  0  0  0  0  0  0  0  0  0
  -13.9409   22.2869    6.8272 O   0  0  0  0  0  0  0  0  0  0  0  0
  -11.6516   23.2118    6.5286 C   0  0  2  0  0  0  0  0  0  0  0  0
  -12.0137   24.0440    5.4145 O   0  0  0  0  0  0  0  0  0  0  0  0
  -10.1649   22.8025    6.3846 C   0  0  2  0  0  0  0  0  0  0  0  0
   -9.7547   21.9714    7.4802 O   0  0  0  0  0  0  0  0  0  0  0  0
   -9.2605   24.0055    6.3106 C   0  0  0  0  0  0  0  0  0  0  0  0
   -9.2974   24.5519    5.0499 N   0  0  0  0  0  0  0  0  0  0  0  0
   -7.5899   16.7382    5.7528 C   0  0  1  0  0  0  0  0  0  0  0  0
   -6.3256   16.0686    5.3372 N   0  0  0  0  0  0  0  0  0  0  0  0
   -7.2771   17.7357    6.8599 C   0  0  2  0  0  0  0  0  0  0  0  0
   -6.6681   17.0392    7.9059 O   0  0  0  0  0  0  0  0  0  0  0  0
   -8.5792   18.4503    7.3412 C   0  0  1  0  0  0  0  0  0  0  0  0
   -8.2634   19.4194    8.3870 O   0  0  0  0  0  0  0  0  0  0  0  0
   -9.2456   19.2140    6.1252 C   0  0  1  0  0  0  0  0  0  0  0  0
   -9.5802   18.2244    5.0196 C   0  0  1  0  0  0  0  0  0  0  0  0
  -10.2045   18.9439    3.9195 N   0  0  0  0  0  0  0  0  0  0  0  0
   -8.2888   17.4997    4.5546 C   0  0  0  0  0  0  0  0  0  0  0  0
   -6.0957   16.7983    9.2101 C   0  0  0  0  0  0  0  0  0  0  0  0
   -7.1288   17.1027   10.2705 C   0  0  0  0  0  0  0  0  0  0  0  0
   -6.6096   17.0529   11.6528 N   0  0  0  0  0  0  0  0  0  0  0  0
   -5.6931   17.0767   12.8156 C   0  0  0  0  0  0  0  0  0  0  0  0
   -4.8456   18.2776   12.3768 C   0  0  0  0  0  0  0  0  0  0  0  0
   -3.6065   18.4769   13.2695 C   0  0  0  0  0  0  0  0  0  0  0  0
   -2.6332   19.4713   12.6439 C   0  0  0  0  0  0  0  0  0  0  0  0
   -1.4475   19.6033   13.4786 N   0  0  0  0  0  0  0  0  0  0  0  0
   -2.1308   15.8737    4.3897 N   0  0  0  0  0  0  0  0  0  0  0  0
   -5.8522   14.8035    6.4870 C   0  0  0  0  0  0  0  0  0  0  0  0
   -6.2704   14.4070    7.3991 O   0  0  0  0  0  0  0  0  0  0  0  0
   -4.6453   14.6007    5.6039 C   0  0  2  0  0  0  0  0  0  0  0  0
   -4.3575   13.2678    5.4538 O   0  0  0  0  0  0  0  0  0  0  0  0
   -3.4585   15.2287    6.3261 C   0  0  0  0  0  0  0  0  0  0  0  0
   -2.0842   15.1073    5.6433 C   0  0  0  0  0  0  0  0  0  0  0  0
  1  2  1  6  0  0  0
  1  3  1  0  0  0  0
  3  4  1  6  0  0  0
  3  5  1  0  0  0  0
  5  6  1  1  0  0  0
  5  7  1  0  0  0  0
  7  8  1  6  0  0  0
  9  7  1  0  0  0  0
  9 10  1  0  0  0  0
  9 11  1  1  0  0  0
 10  1  1  0  0  0  0
 11 12  1  0  0  0  0
 13 14  1  6  0  0  0
 13 15  1  0  0  0  0
 13 22  1  0  0  0  0
 14 32  1  0  0  0  0
 15 16  1  1  0  0  0
 15 17  1  0  0  0  0
 16 23  1  0  0  0  0
 17 18  1  1  0  0  0
 17 19  1  0  0  0  0
 19  2  1  1  0  0  0
 19 20  1  0  0  0  0
 20 21  1  6  0  0  0
 20 22  1  0  0  0  0
 23 24  1  0  0  0  0
 24 25  1  0  0  0  0
 25 26  1  0  0  0  0
 26 27  1  0  0  0  0
 27 28  1  0  0  0  0
 28 29  1  0  0  0  0
 29 30  1  0  0  0  0
 31 37  1  0  0  0  0
 32 33  2  0  0  0  0
 34 32  1  1  0  0  0
 34 35  1  0  0  0  0
 34 36  1  0  0  0  0
 36 37  1  0  0  0  0
M  END
>  <CHROM.1>
-172.02253088,-78.50860992,78.39307453,-173.39734617,58.24532918,49.93399851
-172.87451468,22.68563378,42.76675423,-170.99597412,167.73623392,-177.76339740
-139.15909087,177.87204301,65.36421006,-7.67081781,18.73616302,7.54958582
-3.02215379,0.70478365,-2.13079909

>  <Name>
1o9m_lig

>  <RI>
0

>  <Rbt.Current_Directory>
/home/itssahil/PROJECTS/Mol_Feturizer/New_Systems/rnas/1o9m

>  <Rbt.Executable>
rbdock ($Id: //depot/dev/client3/rdock/2013.1/src/exe/rbdock.cxx#4 $)

>  <Rbt.Library>
libRbt.so (2013.1, Build901 2013/11/27)

>  <Rbt.Parameter_File>
/export/apps/rDock/src/rDock_2013.1_src/data/scripts/dock_solv.prm

>  <Rbt.Receptor>
prm/pocket_docking_7.prm

>  <SCORE>
-17.01

>  <SCORE.INTER>
-9.91788

>  <SCORE.INTER.CONST>
1

>  <SCORE.INTER.POLAR>
-2.54924

>  <SCORE.INTER.ROT>
15

>  <SCORE.INTER.SOLV>
15.2537

>  <SCORE.INTER.VDW>
-16.799

>  <SCORE.INTER.norm>
-0.268051

>  <SCORE.INTRA>
-7.09213

>  <SCORE.INTRA.DIHEDRAL>
-14.665

>  <SCORE.INTRA.DIHEDRAL.0>
21.5987

>  <SCORE.INTRA.POLAR>
0

>  <SCORE.INTRA.POLAR.0>
0

>  <SCORE.INTRA.REPUL>
0

>  <SCORE.INTRA.REPUL.0>
0

>  <SCORE.INTRA.SOLV>
0.40069

>  <SCORE.INTRA.SOLV.lig_0>
-108.715

>  <SCORE.INTRA.VDW>
0.040034

>  <SCORE.INTRA.VDW.0>
-3.9485

>  <SCORE.INTRA.norm>
-0.191679

>  <SCORE.RESTR>
0

>  <SCORE.RESTR.CAVITY>
0

>  <SCORE.RESTR.norm>
0

>  <SCORE.SYSTEM>
0

>  <SCORE.SYSTEM.CONST>
0

>  <SCORE.SYSTEM.DIHEDRAL>
0

>  <SCORE.SYSTEM.SOLV>
0

>  <SCORE.SYSTEM.norm>
0

>  <SCORE.heavy>
37

>  <SCORE.norm>
-0.45973

>  <RMSD>
8.602

$$$$
1o9m_lig
 OpenBabel11021811403D
libRbt.so/2013.1/901 2013/11/27
 37 38  0  0  0  0  0  0  0  0999 V2000
  -10.4610   20.6194    7.4507 C   0  0  2  0  0  0  0  0  0  0  0  0
  -10.4986   19.9533    6.1519 O   0  0  0  0  0  0  0  0  0  0  0  0
  -11.9535   20.9451    7.8261 C   0  0  2  0  0  0  0  0  0  0  0  0
  -12.7893   19.7332    7.8869 N   0  0  0  0  0  0  0  0  0  0  0  0
  -12.5347   21.9720    6.7814 C   0  0  1  0  0  0  0  0  0  0  0  0
  -13.8926   22.2859    7.1027 O   0  0  0  0  0  0  0  0  0  0  0  0
  -11.6178   23.2395    6.7841 C   0  0  2  0  0  0  0  0  0  0  0  0
  -12.0488   24.2414    5.8484 O   0  0  0  0  0  0  0  0  0  0  0  0
  -10.1524   22.8541    6.4644 C   0  0  2  0  0  0  0  0  0  0  0  0
   -9.6748   21.8561    7.3784 O   0  0  0  0  0  0  0  0  0  0  0  0
   -9.2376   24.0504    6.5161 C   0  0  0  0  0  0  0  0  0  0  0  0
   -8.0357   23.7567    5.9173 N   0  0  0  0  0  0  0  0  0  0  0  0
   -7.8382   16.9125    4.5718 C   0  0  1  0  0  0  0  0  0  0  0  0
   -6.6247   16.2851    3.9774 N   0  0  0  0  0  0  0  0  0  0  0  0
   -7.4533   17.5808    5.8847 C   0  0  2  0  0  0  0  0  0  0  0  0
   -6.8901   16.6075    6.7128 O   0  0  0  0  0  0  0  0  0  0  0  0
   -8.7011   18.2378    6.5547 C   0  0  1  0  0  0  0  0  0  0  0  0
   -8.3154   18.8936    7.8011 O   0  0  0  0  0  0  0  0  0  0  0  0
   -9.3175   19.3219    5.5797 C   0  0  1  0  0  0  0  0  0  0  0  0
   -9.7236   18.6624    4.2706 C   0  0  1  0  0  0  0  0  0  0  0  0
  -10.3006   19.6723    3.3961 N   0  0  0  0  0  0  0  0  0  0  0  0
   -8.4870   17.9922    3.6141 C   0  0  0  0  0  0  0  0  0  0  0  0
   -6.3563   16.0045    7.9120 C   0  0  0  0  0  0  0  0  0  0  0  0
   -5.3101   16.9197    8.5055 C   0  0  0  0  0  0  0  0  0  0  0  0
   -5.2412   16.8830    9.9810 N   0  0  0  0  0  0  0  0  0  0  0  0
   -5.0722   16.4056   11.3723 C   0  0  0  0  0  0  0  0  0  0  0  0
   -5.9564   17.4582   12.0530 C   0  0  0  0  0  0  0  0  0  0  0  0
   -5.6428   17.6040   13.5539 C   0  0  0  0  0  0  0  0  0  0  0  0
   -4.4844   18.5703   13.7814 C   0  0  0  0  0  0  0  0  0  0  0  0
   -3.3281   18.1581   12.9982 N   0  0  0  0  0  0  0  0  0  0  0  0
   -2.5470   14.4563    6.5277 N   0  0  0  0  0  0  0  0  0  0  0  0
   -6.4127   14.6170    4.5424 C   0  0  0  0  0  0  0  0  0  0  0  0
   -6.9599   13.9595    5.1999 O   0  0  0  0  0  0  0  0  0  0  0  0
   -5.1573   14.6053    3.7049 C   0  0  2  0  0  0  0  0  0  0  0  0
   -4.9051   13.3530    3.2047 O   0  0  0  0  0  0  0  0  0  0  0  0
   -4.0007   14.9481    4.6373 C   0  0  0  0  0  0  0  0  0  0  0  0
   -3.7098   13.9574    5.7792 C   0  0  0  0  0  0  0  0  0  0  0  0
  1  2  1  6  0  0  0
  1  3  1  0  0  0  0
  3  4  1  6  0  0  0
  3  5  1  0  0  0  0
  5  6  1  1  0  0  0
  5  7  1  0  0  0  0
  7  8  1  6  0  0  0
  9  7  1  0  0  0  0
  9 10  1  0  0  0  0
  9 11  1  1  0  0  0
 10  1  1  0  0  0  0
 11 12  1  0  0  0  0
 13 14  1  6  0  0  0
 13 15  1  0  0  0  0
 13 22  1  0  0  0  0
 14 32  1  0  0  0  0
 15 16  1  1  0  0  0
 15 17  1  0  0  0  0
 16 23  1  0  0  0  0
 17 18  1  1  0  0  0
 17 19  1  0  0  0  0
 19  2  1  1  0  0  0
 19 20  1  0  0  0  0
 20 21  1  6  0  0  0
 20 22  1  0  0  0  0
 23 24  1  0  0  0  0
 24 25  1  0  0  0  0
 25 26  1  0  0  0  0
 26 27  1  0  0  0  0
 27 28  1  0  0  0  0
 28 29  1  0  0  0  0
 29 30  1  0  0  0  0
 31 37  1  0  0  0  0
 32 33  2  0  0  0  0
 34 32  1  1  0  0  0
 34 35  1  0  0  0  0
 34 36  1  0  0  0  0
 36 37  1  0  0  0  0
M  END
>  <CHROM.1>
-170.45011854,-165.13651688,89.32187840,-170.37726979,-50.63575159,56.09302831
146.91688276,60.76071309,-154.84308503,-159.49287549,85.10091686,-54.17115563
-148.13435621,63.52647613,178.56266496,-7.89100659,18.47988929,6.98512446
-2.91263160,0.78271959,-2.01472532

>  <Name>
1o9m_lig

>  <RI>
0

>  <Rbt.Current_Directory>
/home/itssahil/PROJECTS/Mol_Feturizer/New_Systems/rnas/1o9m

>  <Rbt.Executable>
rbdock ($Id: //depot/dev/client3/rdock/2013.1/src/exe/rbdock.cxx#4 $)

>  <Rbt.Library>
libRbt.so (2013.1, Build901 2013/11/27)

>  <Rbt.Parameter_File>
/export/apps/rDock/src/rDock_2013.1_src/data/scripts/dock_solv.prm

>  <Rbt.Receptor>
prm/pocket_docking_8.prm

>  <SCORE>
-11.7402

>  <SCORE.INTER>
-7.88945

>  <SCORE.INTER.CONST>
1

>  <SCORE.INTER.POLAR>
-1.5759

>  <SCORE.INTER.ROT>
15

>  <SCORE.INTER.SOLV>
13.0136

>  <SCORE.INTER.VDW>
-17.9445

>  <SCORE.INTER.norm>
-0.213229

>  <SCORE.INTRA>
-3.85072

>  <SCORE.INTRA.DIHEDRAL>
-9.39922

>  <SCORE.INTRA.DIHEDRAL.0>
21.5987

>  <SCORE.INTRA.POLAR>
0

>  <SCORE.INTRA.POLAR.0>
0

>  <SCORE.INTRA.REPUL>
0

>  <SCORE.INTRA.REPUL.0>
0

>  <SCORE.INTRA.SOLV>
2.11698

>  <SCORE.INTRA.SOLV.lig_0>
-108.715

>  <SCORE.INTRA.VDW>
-0.209604

>  <SCORE.INTRA.VDW.0>
-3.9485

>  <SCORE.INTRA.norm>
-0.104074

>  <SCORE.RESTR>
0

>  <SCORE.RESTR.CAVITY>
0

>  <SCORE.RESTR.norm>
0

>  <SCORE.SYSTEM>
0

>  <SCORE.SYSTEM.CONST>
0

>  <SCORE.SYSTEM.DIHEDRAL>
0

>  <SCORE.SYSTEM.SOLV>
0

>  <SCORE.SYSTEM.norm>
0

>  <SCORE.heavy>
37

>  <SCORE.norm>
-0.317302

>  <RMSD>
8.603

$$$$
1o9m_lig
 OpenBabel11021811403D
libRbt.so/2013.1/901 2013/11/27
 37 38  0  0  0  0  0  0  0  0999 V2000
  -10.5324   20.2025    8.0216 C   0  0  2  0  0  0  0  0  0  0  0  0
  -10.2723   19.1378    7.0566 O   0  0  0  0  0  0  0  0  0  0  0  0
  -12.0651   20.5383    7.9100 C   0  0  2  0  0  0  0  0  0  0  0  0
  -12.9134   19.3659    8.1875 N   0  0  0  0  0  0  0  0  0  0  0  0
  -12.3625   21.1148    6.4737 C   0  0  1  0  0  0  0  0  0  0  0  0
  -13.7518   21.4301    6.3478 O   0  0  0  0  0  0  0  0  0  0  0  0
  -11.4495   22.3661    6.2537 C   0  0  2  0  0  0  0  0  0  0  0  0
  -11.6274   22.9655    4.9599 O   0  0  0  0  0  0  0  0  0  0  0  0
   -9.9574   21.9911    6.4303 C   0  0  2  0  0  0  0  0  0  0  0  0
   -9.7291   21.3910    7.7138 O   0  0  0  0  0  0  0  0  0  0  0  0
   -9.0594   23.1916    6.2788 C   0  0  0  0  0  0  0  0  0  0  0  0
   -9.0835   23.9515    7.4239 N   0  0  0  0  0  0  0  0  0  0  0  0
   -6.7035   16.6803    6.8461 C   0  0  1  0  0  0  0  0  0  0  0  0
   -5.3188   16.2480    6.5063 N   0  0  0  0  0  0  0  0  0  0  0  0
   -6.6320   17.9692    7.6536 C   0  0  2  0  0  0  0  0  0  0  0  0
   -5.8517   17.7240    8.7855 O   0  0  0  0  0  0  0  0  0  0  0  0
   -8.0634   18.4512    8.0492 C   0  0  1  0  0  0  0  0  0  0  0  0
   -7.9829   19.6987    8.8040 O   0  0  0  0  0  0  0  0  0  0  0  0
   -8.9187   18.7030    6.7412 C   0  0  1  0  0  0  0  0  0  0  0  0
   -9.0132   17.4167    5.9349 C   0  0  1  0  0  0  0  0  0  0  0  0
   -9.8148   17.6662    4.7463 N   0  0  0  0  0  0  0  0  0  0  0  0
   -7.5893   16.9268    5.5583 C   0  0  0  0  0  0  0  0  0  0  0  0
   -5.4906   17.2121   10.0871 C   0  0  0  0  0  0  0  0  0  0  0  0
   -6.3082   17.9189   11.1438 C   0  0  0  0  0  0  0  0  0  0  0  0
   -5.8009   17.7419   12.5200 N   0  0  0  0  0  0  0  0  0  0  0  0
   -4.9194   17.4269   13.6673 C   0  0  0  0  0  0  0  0  0  0  0  0
   -3.5979   17.3612   12.8913 C   0  0  0  0  0  0  0  0  0  0  0  0
   -2.4794   16.6742   13.6970 C   0  0  0  0  0  0  0  0  0  0  0  0
   -1.2016   16.5561   12.8720 C   0  0  0  0  0  0  0  0  0  0  0  0
   -0.6599   17.8794   12.5969 N   0  0  0  0  0  0  0  0  0  0  0  0
   -0.5264   15.0092    6.2062 N   0  0  0  0  0  0  0  0  0  0  0  0
   -4.6904   15.0888    7.6929 C   0  0  0  0  0  0  0  0  0  0  0  0
   -5.0804   14.6241    8.5851 O   0  0  0  0  0  0  0  0  0  0  0  0
   -3.4201   15.1054    6.8783 C   0  0  2  0  0  0  0  0  0  0  0  0
   -3.5476   14.3457    5.7430 O   0  0  0  0  0  0  0  0  0  0  0  0
   -2.3404   14.4466    7.7298 C   0  0  0  0  0  0  0  0  0  0  0  0
   -0.9187   15.0271    7.6229 C   0  0  0  0  0  0  0  0  0  0  0  0
  1  2  1  6  0  0  0
  1  3  1  0  0  0  0
  3  4  1  6  0  0  0
  3  5  1  0  0  0  0
  5  6  1  1  0  0  0
  5  7  1  0  0  0  0
  7  8  1  6  0  0  0
  9  7  1  0  0  0  0
  9 10  1  0  0  0  0
  9 11  1  1  0  0  0
 10  1  1  0  0  0  0
 11 12  1  0  0  0  0
 13 14  1  6  0  0  0
 13 15  1  0  0  0  0
 13 22  1  0  0  0  0
 14 32  1  0  0  0  0
 15 16  1  1  0  0  0
 15 17  1  0  0  0  0
 16 23  1  0  0  0  0
 17 18  1  6  0  0  0
 17 19  1  0  0  0  0
 19  2  1  1  0  0  0
 19 20  1  0  0  0  0
 20 21  1  6  0  0  0
 20 22  1  0  0  0  0
 23 24  1  0  0  0  0
 24 25  1  0  0  0  0
 25 26  1  0  0  0  0
 26 27  1  0  0  0  0
 27 28  1  0  0  0  0
 28 29  1  0  0  0  0
 29 30  1  0  0  0  0
 31 37  1  0  0  0  0
 32 33  2  0  0  0  0
 34 32  1  1  0  0  0
 34 35  1  0  0  0  0
 34 36  1  0  0  0  0
 36 37  1  0  0  0  0
M  END
>  <CHROM.1>
170.91421339,77.82853367,94.13495353,-73.64577858,-68.63295338,47.94659268
-165.20106559,15.88611027,15.09325160,-164.35300165,176.90798603,65.90457126
-77.62472945,-143.69783922,-55.24157859,-7.02929628,18.32521708,8.17723164
3.06365235,0.63020209,-2.00175623

>  <Name>
1o9m_lig

>  <RI>
0

>  <Rbt.Current_Directory>
/home/itssahil/PROJECTS/Mol_Feturizer/New_Systems/rnas/1o9m

>  <Rbt.Executable>
rbdock ($Id: //depot/dev/client3/rdock/2013.1/src/exe/rbdock.cxx#4 $)

>  <Rbt.Library>
libRbt.so (2013.1, Build901 2013/11/27)

>  <Rbt.Parameter_File>
/export/apps/rDock/src/rDock_2013.1_src/data/scripts/dock_solv.prm

>  <Rbt.Receptor>
prm/pocket_docking_6.prm

>  <SCORE>
-9.29059

>  <SCORE.INTER>
-6.18882

>  <SCORE.INTER.CONST>
1

>  <SCORE.INTER.POLAR>
-2.55753

>  <SCORE.INTER.ROT>
15

>  <SCORE.INTER.SOLV>
17.8258

>  <SCORE.INTER.VDW>
-15.1427

>  <SCORE.INTER.norm>
-0.167265

>  <SCORE.INTRA>
-3.10177

>  <SCORE.INTRA.DIHEDRAL>
-9.10899

>  <SCORE.INTRA.DIHEDRAL.0>
21.5987

>  <SCORE.INTRA.POLAR>
0

>  <SCORE.INTRA.POLAR.0>
0

>  <SCORE.INTRA.REPUL>
0

>  <SCORE.INTRA.REPUL.0>
0

>  <SCORE.INTRA.SOLV>
2.02259

>  <SCORE.INTRA.SOLV.lig_0>
-108.715

>  <SCORE.INTRA.VDW>
0.441434

>  <SCORE.INTRA.VDW.0>
-3.9485

>  <SCORE.INTRA.norm>
-0.0838315

>  <SCORE.RESTR>
0

>  <SCORE.RESTR.CAVITY>
0

>  <SCORE.RESTR.norm>
0

>  <SCORE.SYSTEM>
0

>  <SCORE.SYSTEM.CONST>
0

>  <SCORE.SYSTEM.DIHEDRAL>
0

>  <SCORE.SYSTEM.SOLV>
0

>  <SCORE.SYSTEM.norm>
0

>  <SCORE.heavy>
37

>  <SCORE.norm>
-0.251097

>  <RMSD>
8.605

$$$$
1o9m_lig
 OpenBabel11021811403D
libRbt.so/2013.1/901 2013/11/27
 37 38  0  0  0  0  0  0  0  0999 V2000
   -4.0105   15.3667   10.0511 C   0  0  2  0  0  0  0  0  0  0  0  0
   -3.3425   15.3671    8.7526 O   0  0  0  0  0  0  0  0  0  0  0  0
   -2.9366   15.8298   11.1031 C   0  0  2  0  0  0  0  0  0  0  0  0
   -2.3966   17.1659   10.7961 N   0  0  0  0  0  0  0  0  0  0  0  0
   -1.7801   14.7608   11.1628 C   0  0  1  0  0  0  0  0  0  0  0  0
   -0.7903   15.1589   12.1153 O   0  0  0  0  0  0  0  0  0  0  0  0
   -2.4164   13.3756   11.5146 C   0  0  2  0  0  0  0  0  0  0  0  0
   -1.4470   12.3168   11.5787 O   0  0  0  0  0  0  0  0  0  0  0  0
   -3.5042   12.9957   10.4798 C   0  0  2  0  0  0  0  0  0  0  0  0
   -4.5003   14.0243   10.3837 O   0  0  0  0  0  0  0  0  0  0  0  0
   -4.1726   11.6908   10.8275 C   0  0  0  0  0  0  0  0  0  0  0  0
   -4.7691   11.7759   12.0629 N   0  0  0  0  0  0  0  0  0  0  0  0
   -4.9027   14.8652    4.7359 C   0  0  1  0  0  0  0  0  0  0  0  0
   -5.5147   14.2174    3.5420 N   0  0  0  0  0  0  0  0  0  0  0  0
   -5.8871   14.7900    5.8950 C   0  0  2  0  0  0  0  0  0  0  0  0
   -7.0715   15.4114    5.4935 O   0  0  0  0  0  0  0  0  0  0  0  0
   -5.2940   15.4751    7.1665 C   0  0  1  0  0  0  0  0  0  0  0  0
   -6.2378   15.3773    8.2766 O   0  0  0  0  0  0  0  0  0  0  0  0
   -3.9475   14.7523    7.5792 C   0  0  1  0  0  0  0  0  0  0  0  0
   -2.9485   14.8374    6.4352 C   0  0  1  0  0  0  0  0  0  0  0  0
   -1.7146   14.1810    6.8406 N   0  0  0  0  0  0  0  0  0  0  0  0
   -3.5459   14.1737    5.1656 C   0  0  0  0  0  0  0  0  0  0  0  0
   -7.9513   16.4539    5.0185 C   0  0  0  0  0  0  0  0  0  0  0  0
   -9.3861   16.0144    5.1991 C   0  0  0  0  0  0  0  0  0  0  0  0
  -10.3438   17.1277    5.3614 N   0  0  0  0  0  0  0  0  0  0  0  0
  -11.5986   17.9129    5.3994 C   0  0  0  0  0  0  0  0  0  0  0  0
  -12.0605   17.6200    3.9663 C   0  0  0  0  0  0  0  0  0  0  0  0
  -11.5159   18.6457    2.9546 C   0  0  0  0  0  0  0  0  0  0  0  0
  -10.0259   18.4332    2.7053 C   0  0  0  0  0  0  0  0  0  0  0  0
   -9.5081   19.4856    1.8424 N   0  0  0  0  0  0  0  0  0  0  0  0
   -3.9907    9.7069    0.9882 N   0  0  0  0  0  0  0  0  0  0  0  0
   -5.7608   12.4797    3.8004 C   0  0  0  0  0  0  0  0  0  0  0  0
   -5.5811   11.7974    4.6166 O   0  0  0  0  0  0  0  0  0  0  0  0
   -6.2927   12.4530    2.3883 C   0  0  2  0  0  0  0  0  0  0  0  0
   -7.6630   12.3900    2.3743 O   0  0  0  0  0  0  0  0  0  0  0  0
   -5.7862   11.1645    1.7496 C   0  0  0  0  0  0  0  0  0  0  0  0
   -4.2651   11.0374    1.5499 C   0  0  0  0  0  0  0  0  0  0  0  0
  1  2  1  6  0  0  0
  1  3  1  0  0  0  0
  3  4  1  6  0  0  0
  3  5  1  0  0  0  0
  5  6  1  1  0  0  0
  5  7  1  0  0  0  0
  7  8  1  6  0  0  0
  9  7  1  0  0  0  0
  9 10  1  0  0  0  0
  9 11  1  1  0  0  0
 10  1  1  0  0  0  0
 11 12  1  0  0  0  0
 13 14  1  6  0  0  0
 13 15  1  0  0  0  0
 13 22  1  0  0  0  0
 14 32  1  0  0  0  0
 15 16  1  6  0  0  0
 15 17  1  0  0  0  0
 16 23  1  0  0  0  0
 17 18  1  1  0  0  0
 17 19  1  0  0  0  0
 19  2  1  1  0  0  0
 19 20  1  0  0  0  0
 20 21  1  1  0  0  0
 20 22  1  0  0  0  0
 23 24  1  0  0  0  0
 24 25  1  0  0  0  0
 25 26  1  0  0  0  0
 26 27  1  0  0  0  0
 27 28  1  0  0  0  0
 28 29  1  0  0  0  0
 29 30  1  0  0  0  0
 31 37  1  0  0  0  0
 32 33  2  0  0  0  0
 34 32  1  1  0  0  0
 34 35  1  0  0  0  0
 34 36  1  0  0  0  0
 36 37  1  0  0  0  0
M  END
>  <CHROM.1>
168.09953641,59.75722310,-65.35253167,-58.70075919,-168.39333871,63.50289447
153.02250227,160.30068049,-54.91137503,-89.20543412,73.05275418,-174.86326528
-102.89226411,-65.31185199,177.22591842,-5.53977466,14.60311299,6.55848289
0.56305602,-0.72061811,1.02924251

>  <Name>
1o9m_lig

>  <RI>
0

>  <Rbt.Current_Directory>
/home/itssahil/PROJECTS/Mol_Feturizer/New_Systems/rnas/1o9m

>  <Rbt.Executable>
rbdock ($Id: //depot/dev/client3/rdock/2013.1/src/exe/rbdock.cxx#4 $)

>  <Rbt.Library>
libRbt.so (2013.1, Build901 2013/11/27)

>  <Rbt.Parameter_File>
/export/apps/rDock/src/rDock_2013.1_src/data/scripts/dock_solv.prm

>  <Rbt.Receptor>
prm/pocket_docking_7.prm

>  <SCORE>
-16.169

>  <SCORE.INTER>
-10.7001

>  <SCORE.INTER.CONST>
1

>  <SCORE.INTER.POLAR>
-1.74342

>  <SCORE.INTER.ROT>
15

>  <SCORE.INTER.SOLV>
18.8309

>  <SCORE.INTER.VDW>
-21.199

>  <SCORE.INTER.norm>
-0.289193

>  <SCORE.INTRA>
-5.46882

>  <SCORE.INTRA.DIHEDRAL>
-11.9813

>  <SCORE.INTRA.DIHEDRAL.0>
21.5987

>  <SCORE.INTRA.POLAR>
0

>  <SCORE.INTRA.POLAR.0>
0

>  <SCORE.INTRA.REPUL>
0

>  <SCORE.INTRA.REPUL.0>
0

>  <SCORE.INTRA.SOLV>
1.01879

>  <SCORE.INTRA.SOLV.lig_0>
-108.715

>  <SCORE.INTRA.VDW>
0.0124452

>  <SCORE.INTRA.VDW.0>
-3.9485

>  <SCORE.INTRA.norm>
-0.147806

>  <SCORE.RESTR>
0

>  <SCORE.RESTR.CAVITY>
0

>  <SCORE.RESTR.norm>
0

>  <SCORE.SYSTEM>
0

>  <SCORE.SYSTEM.CONST>
0

>  <SCORE.SYSTEM.DIHEDRAL>
0

>  <SCORE.SYSTEM.SOLV>
0

>  <SCORE.SYSTEM.norm>
0

>  <SCORE.heavy>
37

>  <SCORE.norm>
-0.436999

>  <RMSD>
8.618

$$$$
1o9m_lig
 OpenBabel11021811403D
libRbt.so/2013.1/901 2013/11/27
 37 38  0  0  0  0  0  0  0  0999 V2000
  -12.9903   17.9432    6.5009 C   0  0  2  0  0  0  0  0  0  0  0  0
  -12.5812   18.1864    5.1204 O   0  0  0  0  0  0  0  0  0  0  0  0
  -14.5095   18.3416    6.5906 C   0  0  2  0  0  0  0  0  0  0  0  0
  -15.3443   17.5664    5.6563 N   0  0  0  0  0  0  0  0  0  0  0  0
  -14.6534   19.8870    6.3170 C   0  0  1  0  0  0  0  0  0  0  0  0
  -16.0278   20.2748    6.3948 O   0  0  0  0  0  0  0  0  0  0  0  0
  -13.7638   20.6490    7.3540 C   0  0  2  0  0  0  0  0  0  0  0  0
  -13.8068   22.0753    7.1839 O   0  0  0  0  0  0  0  0  0  0  0  0
  -12.2914   20.1784    7.2606 C   0  0  2  0  0  0  0  0  0  0  0  0
  -12.1970   18.7565    7.4294 O   0  0  0  0  0  0  0  0  0  0  0  0
  -11.4232   20.8572    8.2882 C   0  0  0  0  0  0  0  0  0  0  0  0
  -11.1499   22.1479    7.9026 N   0  0  0  0  0  0  0  0  0  0  0  0
   -8.5134   16.6798    5.0620 C   0  0  1  0  0  0  0  0  0  0  0  0
   -7.1555   16.3331    4.5565 N   0  0  0  0  0  0  0  0  0  0  0  0
   -8.7160   18.1836    4.9355 C   0  0  2  0  0  0  0  0  0  0  0  0
   -7.6975   18.8159    5.6517 O   0  0  0  0  0  0  0  0  0  0  0  0
  -10.1228   18.5967    5.4721 C   0  0  1  0  0  0  0  0  0  0  0  0
  -10.3136   20.0371    5.3254 O   0  0  0  0  0  0  0  0  0  0  0  0
  -11.2466   17.8486    4.6456 C   0  0  1  0  0  0  0  0  0  0  0  0
  -11.0658   16.3442    4.7798 C   0  0  1  0  0  0  0  0  0  0  0  0
  -12.1164   15.6767    4.0259 N   0  0  0  0  0  0  0  0  0  0  0  0
   -9.6598   15.9359    4.2645 C   0  0  0  0  0  0  0  0  0  0  0  0
   -6.9488   19.8869    6.2673 C   0  0  0  0  0  0  0  0  0  0  0  0
   -7.7114   20.4012    7.4667 C   0  0  0  0  0  0  0  0  0  0  0  0
   -7.2071   19.9032    8.7631 N   0  0  0  0  0  0  0  0  0  0  0  0
   -7.0574   19.6533   10.2148 C   0  0  0  0  0  0  0  0  0  0  0  0
   -6.9945   18.1221   10.1480 C   0  0  0  0  0  0  0  0  0  0  0  0
   -6.8499   17.4809   11.5409 C   0  0  0  0  0  0  0  0  0  0  0  0
   -5.4725   17.7611   12.1340 C   0  0  0  0  0  0  0  0  0  0  0  0
   -5.2704   16.9569   13.3310 N   0  0  0  0  0  0  0  0  0  0  0  0
   -2.0826   16.0734    4.5771 N   0  0  0  0  0  0  0  0  0  0  0  0
   -6.2527   15.3608    5.7338 C   0  0  0  0  0  0  0  0  0  0  0  0
   -6.4634   14.9600    6.7131 O   0  0  0  0  0  0  0  0  0  0  0  0
   -5.1196   15.3997    4.7377 C   0  0  2  0  0  0  0  0  0  0  0  0
   -5.4218   14.6757    3.6123 O   0  0  0  0  0  0  0  0  0  0  0  0
   -3.9283   14.7128    5.3963 C   0  0  0  0  0  0  0  0  0  0  0  0
   -2.6073   14.7004    4.6059 C   0  0  0  0  0  0  0  0  0  0  0  0
  1  2  1  6  0  0  0
  1  3  1  0  0  0  0
  3  4  1  6  0  0  0
  3  5  1  0  0  0  0
  5  6  1  1  0  0  0
  5  7  1  0  0  0  0
  7  8  1  6  0  0  0
  9  7  1  0  0  0  0
  9 10  1  0  0  0  0
  9 11  1  1  0  0  0
 10  1  1  0  0  0  0
 11 12  1  0  0  0  0
 13 14  1  6  0  0  0
 13 15  1  0  0  0  0
 13 22  1  0  0  0  0
 14 32  1  0  0  0  0
 15 16  1  1  0  0  0
 15 17  1  0  0  0  0
 16 23  1  0  0  0  0
 17 18  1  6  0  0  0
 17 19  1  0  0  0  0
 19  2  1  1  0  0  0
 19 20  1  0  0  0  0
 20 21  1  6  0  0  0
 20 22  1  0  0  0  0
 23 24  1  0  0  0  0
 24 25  1  0  0  0  0
 25 26  1  0  0  0  0
 26 27  1  0  0  0  0
 27 28  1  0  0  0  0
 28 29  1  0  0  0  0
 29 30  1  0  0  0  0
 31 37  1  0  0  0  0
 32 33  2  0  0  0  0
 34 32  1  1  0  0  0
 34 35  1  0  0  0  0
 34 36  1  0  0  0  0
 36 37  1  0  0  0  0
M  END
>  <CHROM.1>
-176.09509300,-76.23485401,128.31391328,-172.48902355,70.56453927,-58.62200977
101.12011508,-177.89160914,128.28071868,-179.31384770,-69.65551345,-169.93619020
-68.42319868,-176.32087899,70.00686612,-9.27346043,18.05727015,6.64755683
2.96756599,-0.34786217,1.05417094

>  <Name>
1o9m_lig

>  <RI>
0

>  <Rbt.Current_Directory>
/home/itssahil/PROJECTS/Mol_Feturizer/New_Systems/rnas/1o9m

>  <Rbt.Executable>
rbdock ($Id: //depot/dev/client3/rdock/2013.1/src/exe/rbdock.cxx#4 $)

>  <Rbt.Library>
libRbt.so (2013.1, Build901 2013/11/27)

>  <Rbt.Parameter_File>
/export/apps/rDock/src/rDock_2013.1_src/data/scripts/dock_solv.prm

>  <Rbt.Receptor>
prm/pocket_docking_4.prm

>  <SCORE>
-7.73348

>  <SCORE.INTER>
-3.6414

>  <SCORE.INTER.CONST>
1

>  <SCORE.INTER.POLAR>
-1.09771

>  <SCORE.INTER.ROT>
15

>  <SCORE.INTER.SOLV>
21.1144

>  <SCORE.INTER.VDW>
-19.4067

>  <SCORE.INTER.norm>
-0.0984162

>  <SCORE.INTRA>
-4.09208

>  <SCORE.INTRA.DIHEDRAL>
-11.2381

>  <SCORE.INTRA.DIHEDRAL.0>
21.5987

>  <SCORE.INTRA.POLAR>
0

>  <SCORE.INTRA.POLAR.0>
0

>  <SCORE.INTRA.REPUL>
0

>  <SCORE.INTRA.REPUL.0>
0

>  <SCORE.INTRA.SOLV>
2.89451

>  <SCORE.INTRA.SOLV.lig_0>
-108.715

>  <SCORE.INTRA.VDW>
0.0797162

>  <SCORE.INTRA.VDW.0>
-3.9485

>  <SCORE.INTRA.norm>
-0.110597

>  <SCORE.RESTR>
0

>  <SCORE.RESTR.CAVITY>
0

>  <SCORE.RESTR.norm>
0

>  <SCORE.SYSTEM>
0

>  <SCORE.SYSTEM.CONST>
0

>  <SCORE.SYSTEM.DIHEDRAL>
0

>  <SCORE.SYSTEM.SOLV>
0

>  <SCORE.SYSTEM.norm>
0

>  <SCORE.heavy>
37

>  <SCORE.norm>
-0.209013

>  <RMSD>
8.620

$$$$
1o9m_lig
 OpenBabel11021811403D
libRbt.so/2013.1/901 2013/11/27
 37 38  0  0  0  0  0  0  0  0999 V2000
  -12.0228   17.6033    4.5344 C   0  0  2  0  0  0  0  0  0  0  0  0
  -11.2538   18.5780    5.3029 O   0  0  0  0  0  0  0  0  0  0  0  0
  -12.4119   18.3098    3.1838 C   0  0  2  0  0  0  0  0  0  0  0  0
  -11.2284   18.7528    2.4263 N   0  0  0  0  0  0  0  0  0  0  0  0
  -13.3630   19.5272    3.4953 C   0  0  1  0  0  0  0  0  0  0  0  0
  -13.7330   20.1861    2.2810 O   0  0  0  0  0  0  0  0  0  0  0  0
  -14.6054   18.9858    4.2769 C   0  0  2  0  0  0  0  0  0  0  0  0
  -15.5371   20.0215    4.6294 O   0  0  0  0  0  0  0  0  0  0  0  0
  -14.1618   18.2520    5.5665 C   0  0  2  0  0  0  0  0  0  0  0  0
  -13.2312   17.2025    5.2637 O   0  0  0  0  0  0  0  0  0  0  0  0
  -15.3372   17.6716    6.3097 C   0  0  0  0  0  0  0  0  0  0  0  0
  -14.9337   17.1779    7.5273 N   0  0  0  0  0  0  0  0  0  0  0  0
   -7.9569   18.3173    8.1106 C   0  0  1  0  0  0  0  0  0  0  0  0
   -7.1638   17.9147    9.3058 N   0  0  0  0  0  0  0  0  0  0  0  0
   -8.3106   17.0699    7.3122 C   0  0  2  0  0  0  0  0  0  0  0  0
   -7.1194   16.4239    6.9750 O   0  0  0  0  0  0  0  0  0  0  0  0
   -9.1286   17.4461    6.0367 C   0  0  1  0  0  0  0  0  0  0  0  0
   -9.4803   16.2406    5.2914 O   0  0  0  0  0  0  0  0  0  0  0  0
  -10.4611   18.1881    6.4607 C   0  0  1  0  0  0  0  0  0  0  0  0
  -10.1200   19.4471    7.2434 C   0  0  1  0  0  0  0  0  0  0  0  0
  -11.3568   20.1207    7.6099 N   0  0  0  0  0  0  0  0  0  0  0  0
   -9.2899   19.0750    8.5012 C   0  0  0  0  0  0  0  0  0  0  0  0
   -6.2431   15.3956    6.4639 C   0  0  0  0  0  0  0  0  0  0  0  0
   -4.8241   15.9158    6.4446 C   0  0  0  0  0  0  0  0  0  0  0  0
   -3.8663   15.0348    5.7451 N   0  0  0  0  0  0  0  0  0  0  0  0
   -2.7012   14.1680    5.4558 C   0  0  0  0  0  0  0  0  0  0  0  0
   -2.3984   14.7036    4.0506 C   0  0  0  0  0  0  0  0  0  0  0  0
   -3.3850   14.1694    2.9954 C   0  0  0  0  0  0  0  0  0  0  0  0
   -3.1888   12.6737    2.7678 C   0  0  0  0  0  0  0  0  0  0  0  0
   -4.1071   12.1992    1.7423 N   0  0  0  0  0  0  0  0  0  0  0  0
   -7.0601   16.3757   15.0419 N   0  0  0  0  0  0  0  0  0  0  0  0
   -8.0372   16.7300   10.2961 C   0  0  0  0  0  0  0  0  0  0  0  0
   -8.9926   16.2339   10.2255 O   0  0  0  0  0  0  0  0  0  0  0  0
   -6.8488   16.7883   11.2245 C   0  0  2  0  0  0  0  0  0  0  0  0
   -5.9538   15.7855   10.9499 O   0  0  0  0  0  0  0  0  0  0  0  0
   -7.3753   16.5350   12.6328 C   0  0  0  0  0  0  0  0  0  0  0  0
   -6.4063   16.8066   13.7977 C   0  0  0  0  0  0  0  0  0  0  0  0
  1  2  1  1  0  0  0
  1  3  1  0  0  0  0
  3  4  1  1  0  0  0
  3  5  1  0  0  0  0
  5  6  1  6  0  0  0
  5  7  1  0  0  0  0
  7  8  1  1  0  0  0
  9  7  1  0  0  0  0
  9 10  1  0  0  0  0
  9 11  1  6  0  0  0
 10  1  1  0  0  0  0
 11 12  1  0  0  0  0
 13 14  1  1  0  0  0
 13 15  1  0  0  0  0
 13 22  1  0  0  0  0
 14 32  1  0  0  0  0
 15 16  1  6  0  0  0
 15 17  1  0  0  0  0
 16 23  1  0  0  0  0
 17 18  1  1  0  0  0
 17 19  1  0  0  0  0
 19  2  1  6  0  0  0
 19 20  1  0  0  0  0
 20 21  1  1  0  0  0
 20 22  1  0  0  0  0
 23 24  1  0  0  0  0
 24 25  1  0  0  0  0
 25 26  1  0  0  0  0
 26 27  1  0  0  0  0
 27 28  1  0  0  0  0
 28 29  1  0  0  0  0
 29 30  1  0  0  0  0
 31 37  1  0  0  0  0
 32 33  2  0  0  0  0
 34 32  1  6  0  0  0
 34 35  1  0  0  0  0
 34 36  1  0  0  0  0
 36 37  1  0  0  0  0
M  END
>  <CHROM.1>
-165.26034166,-172.38436767,-56.42472424,172.33333857,171.60408425,74.89677901
-170.85210723,-122.39781917,-139.00316206,-76.34707128,-68.44728961,-178.50463308
-94.97486080,-168.65390035,-174.47383829,-9.03074949,17.07518721,6.67660110
-2.92853978,-0.42547517,1.45314915

>  <Name>
1o9m_lig

>  <RI>
0

>  <Rbt.Current_Directory>
/home/itssahil/PROJECTS/Mol_Feturizer/New_Systems/rnas/1o9m

>  <Rbt.Executable>
rbdock ($Id: //depot/dev/client3/rdock/2013.1/src/exe/rbdock.cxx#4 $)

>  <Rbt.Library>
libRbt.so (2013.1, Build901 2013/11/27)

>  <Rbt.Parameter_File>
/export/apps/rDock/src/rDock_2013.1_src/data/scripts/dock_solv.prm

>  <Rbt.Receptor>
prm/pocket_docking_8.prm

>  <SCORE>
-16.7502

>  <SCORE.INTER>
-9.95515

>  <SCORE.INTER.CONST>
1

>  <SCORE.INTER.POLAR>
-0.497165

>  <SCORE.INTER.ROT>
15

>  <SCORE.INTER.SOLV>
26.0275

>  <SCORE.INTER.VDW>
-27.2554

>  <SCORE.INTER.norm>
-0.269058

>  <SCORE.INTRA>
-6.79503

>  <SCORE.INTRA.DIHEDRAL>
-12.7737

>  <SCORE.INTRA.DIHEDRAL.0>
21.5987

>  <SCORE.INTRA.POLAR>
0

>  <SCORE.INTRA.POLAR.0>
0

>  <SCORE.INTRA.REPUL>
0

>  <SCORE.INTRA.REPUL.0>
0

>  <SCORE.INTRA.SOLV>
-0.669911

>  <SCORE.INTRA.SOLV.lig_0>
-108.715

>  <SCORE.INTRA.VDW>
-0.0732321

>  <SCORE.INTRA.VDW.0>
-3.9485

>  <SCORE.INTRA.norm>
-0.183649

>  <SCORE.RESTR>
0

>  <SCORE.RESTR.CAVITY>
0

>  <SCORE.RESTR.norm>
0

>  <SCORE.SYSTEM>
0

>  <SCORE.SYSTEM.CONST>
0

>  <SCORE.SYSTEM.DIHEDRAL>
0

>  <SCORE.SYSTEM.SOLV>
0

>  <SCORE.SYSTEM.norm>
0

>  <SCORE.heavy>
37

>  <SCORE.norm>
-0.452708

>  <RMSD>
8.625

$$$$
1o9m_lig
 OpenBabel11021811403D
libRbt.so/2013.1/901 2013/11/27
 37 38  0  0  0  0  0  0  0  0999 V2000
   -4.4357   15.5552   10.2025 C   0  0  2  0  0  0  0  0  0  0  0  0
   -3.4823   15.4905    9.0985 O   0  0  0  0  0  0  0  0  0  0  0  0
   -3.6818   16.2407   11.4009 C   0  0  2  0  0  0  0  0  0  0  0  0
   -3.1945   17.5874   11.0546 N   0  0  0  0  0  0  0  0  0  0  0  0
   -2.4895   15.3157   11.8555 C   0  0  1  0  0  0  0  0  0  0  0  0
   -1.7882   15.9174   12.9471 O   0  0  0  0  0  0  0  0  0  0  0  0
   -3.0767   13.9148   12.2297 C   0  0  2  0  0  0  0  0  0  0  0  0
   -2.0674   12.9801   12.6452 O   0  0  0  0  0  0  0  0  0  0  0  0
   -3.8548   13.3118   11.0342 C   0  0  2  0  0  0  0  0  0  0  0  0
   -4.8799   14.2103   10.5856 O   0  0  0  0  0  0  0  0  0  0  0  0
   -4.4786   11.9863   11.3869 C   0  0  0  0  0  0  0  0  0  0  0  0
   -3.5027   11.0390   11.5858 N   0  0  0  0  0  0  0  0  0  0  0  0
   -3.8843   14.6770    4.8562 C   0  0  1  0  0  0  0  0  0  0  0  0
   -4.2030   13.9545    3.5928 N   0  0  0  0  0  0  0  0  0  0  0  0
   -5.1593   14.8189    5.6764 C   0  0  2  0  0  0  0  0  0  0  0  0
   -6.1003   15.4920    4.8942 O   0  0  0  0  0  0  0  0  0  0  0  0
   -4.8764   15.5887    7.0050 C   0  0  1  0  0  0  0  0  0  0  0  0
   -6.1013   15.6993    7.7923 O   0  0  0  0  0  0  0  0  0  0  0  0
   -3.7961   14.8025    7.8539 C   0  0  1  0  0  0  0  0  0  0  0  0
   -2.5105   14.6706    7.0516 C   0  0  1  0  0  0  0  0  0  0  0  0
   -1.5275   13.9591    7.8548 N   0  0  0  0  0  0  0  0  0  0  0  0
   -2.7954   13.9227    5.7217 C   0  0  0  0  0  0  0  0  0  0  0  0
   -6.7097   16.5701    4.1507 C   0  0  0  0  0  0  0  0  0  0  0  0
   -7.9456   16.0545    3.4499 C   0  0  0  0  0  0  0  0  0  0  0  0
   -9.1329   15.9418    4.3221 N   0  0  0  0  0  0  0  0  0  0  0  0
  -10.2875   16.2876    5.1821 C   0  0  0  0  0  0  0  0  0  0  0  0
   -9.6691   17.5159    5.8617 C   0  0  0  0  0  0  0  0  0  0  0  0
   -8.5954   17.1332    6.8975 C   0  0  0  0  0  0  0  0  0  0  0  0
   -8.0963   18.3623    7.6508 C   0  0  0  0  0  0  0  0  0  0  0  0
   -7.4702   19.2960    6.7253 N   0  0  0  0  0  0  0  0  0  0  0  0
   -3.4984    9.0587    0.6182 N   0  0  0  0  0  0  0  0  0  0  0  0
   -4.8039   12.3168    3.9148 C   0  0  0  0  0  0  0  0  0  0  0  0
   -4.9986   11.7373    4.8037 O   0  0  0  0  0  0  0  0  0  0  0  0
   -4.8766   12.1632    2.4152 C   0  0  2  0  0  0  0  0  0  0  0  0
   -6.1606   12.3263    1.9605 O   0  0  0  0  0  0  0  0  0  0  0  0
   -4.4765   10.7265    2.0981 C   0  0  0  0  0  0  0  0  0  0  0  0
   -4.0197   10.4327    0.6578 C   0  0  0  0  0  0  0  0  0  0  0  0
  1  2  1  6  0  0  0
  1  3  1  0  0  0  0
  3  4  1  6  0  0  0
  3  5  1  0  0  0  0
  5  6  1  1  0  0  0
  5  7  1  0  0  0  0
  7  8  1  6  0  0  0
  9  7  1  0  0  0  0
  9 10  1  0  0  0  0
  9 11  1  1  0  0  0
 10  1  1  0  0  0  0
 11 12  1  0  0  0  0
 13 14  1  6  0  0  0
 13 15  1  0  0  0  0
 13 22  1  0  0  0  0
 14 32  1  0  0  0  0
 15 16  1  6  0  0  0
 15 17  1  0  0  0  0
 16 23  1  0  0  0  0
 17 18  1  1  0  0  0
 17 19  1  0  0  0  0
 19  2  1  1  0  0  0
 19 20  1  0  0  0  0
 20 21  1  1  0  0  0
 20 22  1  0  0  0  0
 23 24  1  0  0  0  0
 24 25  1  0  0  0  0
 25 26  1  0  0  0  0
 26 27  1  0  0  0  0
 27 28  1  0  0  0  0
 28 29  1  0  0  0  0
 29 30  1  0  0  0  0
 31 37  1  0  0  0  0
 32 33  2  0  0  0  0
 34 32  1  1  0  0  0
 34 35  1  0  0  0  0
 34 36  1  0  0  0  0
 36 37  1  0  0  0  0
M  END
>  <CHROM.1>
174.29149956,-67.88047662,-61.98930944,-65.81523649,173.67728600,70.98192021
79.53760023,68.88891494,-35.73638927,-73.49834839,-174.51434200,-62.05574664
-100.69120870,-160.32198392,171.82780455,-4.94419665,14.51233033,7.01779528
1.15281597,-0.78576497,1.08261099

>  <Name>
1o9m_lig

>  <RI>
0

>  <Rbt.Current_Directory>
/home/itssahil/PROJECTS/Mol_Feturizer/New_Systems/rnas/1o9m

>  <Rbt.Executable>
rbdock ($Id: //depot/dev/client3/rdock/2013.1/src/exe/rbdock.cxx#4 $)

>  <Rbt.Library>
libRbt.so (2013.1, Build901 2013/11/27)

>  <Rbt.Parameter_File>
/export/apps/rDock/src/rDock_2013.1_src/data/scripts/dock_solv.prm

>  <Rbt.Receptor>
prm/pocket_docking_8.prm

>  <SCORE>
-18.1508

>  <SCORE.INTER>
-11.2145

>  <SCORE.INTER.CONST>
1

>  <SCORE.INTER.POLAR>
-2.23099

>  <SCORE.INTER.ROT>
15

>  <SCORE.INTER.SOLV>
15.7064

>  <SCORE.INTER.VDW>
-18.8752

>  <SCORE.INTER.norm>
-0.303095

>  <SCORE.INTRA>
-6.93624

>  <SCORE.INTRA.DIHEDRAL>
-14.2662

>  <SCORE.INTRA.DIHEDRAL.0>
21.5987

>  <SCORE.INTRA.POLAR>
0

>  <SCORE.INTRA.POLAR.0>
0

>  <SCORE.INTRA.REPUL>
0

>  <SCORE.INTRA.REPUL.0>
0

>  <SCORE.INTRA.SOLV>
2.44433

>  <SCORE.INTRA.SOLV.lig_0>
-108.715

>  <SCORE.INTRA.VDW>
-1.02531

>  <SCORE.INTRA.VDW.0>
-3.9485

>  <SCORE.INTRA.norm>
-0.187466

>  <SCORE.RESTR>
0

>  <SCORE.RESTR.CAVITY>
0

>  <SCORE.RESTR.norm>
0

>  <SCORE.SYSTEM>
0

>  <SCORE.SYSTEM.CONST>
0

>  <SCORE.SYSTEM.DIHEDRAL>
0

>  <SCORE.SYSTEM.SOLV>
0

>  <SCORE.SYSTEM.norm>
0

>  <SCORE.heavy>
37

>  <SCORE.norm>
-0.490561

>  <RMSD>
8.633

$$$$
1o9m_lig
 OpenBabel11021811403D
libRbt.so/2013.1/901 2013/11/27
 37 38  0  0  0  0  0  0  0  0999 V2000
  -11.9337   20.9280    6.1661 C   0  0  2  0  0  0  0  0  0  0  0  0
  -10.6570   20.2814    5.8762 O   0  0  0  0  0  0  0  0  0  0  0  0
  -12.8855   19.8039    6.7186 C   0  0  2  0  0  0  0  0  0  0  0  0
  -12.3425   19.1591    7.9270 N   0  0  0  0  0  0  0  0  0  0  0  0
  -13.1379   18.7397    5.5839 C   0  0  1  0  0  0  0  0  0  0  0  0
  -14.0035   17.7063    6.0619 O   0  0  0  0  0  0  0  0  0  0  0  0
  -13.7338   19.4839    4.3435 C   0  0  2  0  0  0  0  0  0  0  0  0
  -13.9886   18.6052    3.2354 O   0  0  0  0  0  0  0  0  0  0  0  0
  -12.7840   20.6146    3.8769 C   0  0  2  0  0  0  0  0  0  0  0  0
  -12.5030   21.5229    4.9518 O   0  0  0  0  0  0  0  0  0  0  0  0
  -13.3612   21.3842    2.7171 C   0  0  0  0  0  0  0  0  0  0  0  0
  -12.5025   22.3880    2.3374 N   0  0  0  0  0  0  0  0  0  0  0  0
   -6.9405   19.6097    8.0110 C   0  0  1  0  0  0  0  0  0  0  0  0
   -6.0027   19.2390    9.1076 N   0  0  0  0  0  0  0  0  0  0  0  0
   -7.7844   18.3937    7.6537 C   0  0  2  0  0  0  0  0  0  0  0  0
   -6.9173   17.3600    7.2938 O   0  0  0  0  0  0  0  0  0  0  0  0
   -8.7722   18.7310    6.4925 C   0  0  1  0  0  0  0  0  0  0  0  0
   -9.5905   17.5642    6.1739 O   0  0  0  0  0  0  0  0  0  0  0  0
   -9.7256   19.9149    6.9341 C   0  0  1  0  0  0  0  0  0  0  0  0
   -8.8945   21.1422    7.2758 C   0  0  1  0  0  0  0  0  0  0  0  0
   -9.7900   22.2216    7.6641 N   0  0  0  0  0  0  0  0  0  0  0  0
   -7.8988   20.8016    8.4168 C   0  0  0  0  0  0  0  0  0  0  0  0
   -5.8606   16.6728    6.5881 C   0  0  0  0  0  0  0  0  0  0  0  0
   -5.7669   15.2517    7.0944 C   0  0  0  0  0  0  0  0  0  0  0  0
   -4.6221   14.4909    6.5526 N   0  0  0  0  0  0  0  0  0  0  0  0
   -3.3118   13.8121    6.4317 C   0  0  0  0  0  0  0  0  0  0  0  0
   -2.6562   14.4209    7.6777 C   0  0  0  0  0  0  0  0  0  0  0  0
   -1.2374   13.8726    7.9198 C   0  0  0  0  0  0  0  0  0  0  0  0
   -0.6162   14.4893    9.1693 C   0  0  0  0  0  0  0  0  0  0  0  0
   -0.4217   15.9195    8.9773 N   0  0  0  0  0  0  0  0  0  0  0  0
   -2.6312   19.1447   13.0544 N   0  0  0  0  0  0  0  0  0  0  0  0
   -4.9096   20.5775    9.5079 C   0  0  0  0  0  0  0  0  0  0  0  0
   -4.7782   21.5872    9.1511 O   0  0  0  0  0  0  0  0  0  0  0  0
   -4.2959   19.6353   10.5145 C   0  0  2  0  0  0  0  0  0  0  0  0
   -5.0362   19.5898   11.6685 O   0  0  0  0  0  0  0  0  0  0  0  0
   -2.9346   20.2121   10.8871 C   0  0  0  0  0  0  0  0  0  0  0  0
   -2.0088   19.3203   11.7342 C   0  0  0  0  0  0  0  0  0  0  0  0
  1  2  1  6  0  0  0
  1  3  1  0  0  0  0
  3  4  1  1  0  0  0
  3  5  1  0  0  0  0
  5  6  1  1  0  0  0
  5  7  1  0  0  0  0
  7  8  1  6  0  0  0
  9  7  1  0  0  0  0
  9 10  1  0  0  0  0
  9 11  1  6  0  0  0
 10  1  1  0  0  0  0
 11 12  1  0  0  0  0
 13 14  1  1  0  0  0
 13 15  1  0  0  0  0
 13 22  1  0  0  0  0
 14 32  1  0  0  0  0
 15 16  1  6  0  0  0
 15 17  1  0  0  0  0
 16 23  1  0  0  0  0
 17 18  1  1  0  0  0
 17 19  1  0  0  0  0
 19  2  1  6  0  0  0
 19 20  1  0  0  0  0
 20 21  1  1  0  0  0
 20 22  1  0  0  0  0
 23 24  1  0  0  0  0
 24 25  1  0  0  0  0
 25 26  1  0  0  0  0
 26 27  1  0  0  0  0
 27 28  1  0  0  0  0
 28 29  1  0  0  0  0
 29 30  1  0  0  0  0
 31 37  1  0  0  0  0
 32 33  2  0  0  0  0
 34 32  1  6  0  0  0
 34 35  1  0  0  0  0
 34 36  1  0  0  0  0
 36 37  1  0  0  0  0
M  END
>  <CHROM.1>
-76.05212592,179.32268192,176.27075559,-54.98442402,-178.19999525,155.41284634
-173.59204250,104.25232733,-14.44771098,177.43048940,-179.62635299,-64.95675903
-81.19222885,-170.59131231,-66.12605247,-7.78330646,18.76070777,7.33352298
-3.11935411,0.50945449,-2.57063844

>  <Name>
1o9m_lig

>  <RI>
0

>  <Rbt.Current_Directory>
/home/itssahil/PROJECTS/Mol_Feturizer/New_Systems/rnas/1o9m

>  <Rbt.Executable>
rbdock ($Id: //depot/dev/client3/rdock/2013.1/src/exe/rbdock.cxx#4 $)

>  <Rbt.Library>
libRbt.so (2013.1, Build901 2013/11/27)

>  <Rbt.Parameter_File>
/export/apps/rDock/src/rDock_2013.1_src/data/scripts/dock_solv.prm

>  <Rbt.Receptor>
prm/pocket_docking_5.prm

>  <SCORE>
-3.79228

>  <SCORE.INTER>
0.72501

>  <SCORE.INTER.CONST>
1

>  <SCORE.INTER.POLAR>
-1.71163

>  <SCORE.INTER.ROT>
15

>  <SCORE.INTER.SOLV>
13.4441

>  <SCORE.INTER.VDW>
-11.8926

>  <SCORE.INTER.norm>
0.0195949

>  <SCORE.INTRA>
-4.58144

>  <SCORE.INTRA.DIHEDRAL>
-13.7719

>  <SCORE.INTRA.DIHEDRAL.0>
21.5987

>  <SCORE.INTRA.POLAR>
0

>  <SCORE.INTRA.POLAR.0>
0

>  <SCORE.INTRA.REPUL>
0

>  <SCORE.INTRA.REPUL.0>
0

>  <SCORE.INTRA.SOLV>
3.81263

>  <SCORE.INTRA.SOLV.lig_0>
-108.715

>  <SCORE.INTRA.VDW>
0.398217

>  <SCORE.INTRA.VDW.0>
-3.9485

>  <SCORE.INTRA.norm>
-0.123823

>  <SCORE.RESTR>
0.0641477

>  <SCORE.RESTR.CAVITY>
0.0641477

>  <SCORE.RESTR.norm>
0.00173372

>  <SCORE.SYSTEM>
0

>  <SCORE.SYSTEM.CONST>
0

>  <SCORE.SYSTEM.DIHEDRAL>
0

>  <SCORE.SYSTEM.SOLV>
0

>  <SCORE.SYSTEM.norm>
0

>  <SCORE.heavy>
37

>  <SCORE.norm>
-0.102494

>  <RMSD>
8.646

$$$$
1o9m_lig
 OpenBabel11021811403D
libRbt.so/2013.1/901 2013/11/27
 37 38  0  0  0  0  0  0  0  0999 V2000
   -7.5124   19.3876    7.4046 C   0  0  2  0  0  0  0  0  0  0  0  0
   -6.4392   18.5122    6.9418 O   0  0  0  0  0  0  0  0  0  0  0  0
   -7.6177   20.5543    6.3548 C   0  0  2  0  0  0  0  0  0  0  0  0
   -7.9007   20.0574    4.9969 N   0  0  0  0  0  0  0  0  0  0  0  0
   -6.2806   21.3884    6.3764 C   0  0  1  0  0  0  0  0  0  0  0  0
   -6.3524   22.4582    5.4298 O   0  0  0  0  0  0  0  0  0  0  0  0
   -6.0529   21.9039    7.8358 C   0  0  2  0  0  0  0  0  0  0  0  0
   -4.8440   22.6681    7.9749 O   0  0  0  0  0  0  0  0  0  0  0  0
   -6.0137   20.7199    8.8332 C   0  0  2  0  0  0  0  0  0  0  0  0
   -7.2062   19.9277    8.7340 O   0  0  0  0  0  0  0  0  0  0  0  0
   -5.8515   21.1937   10.2544 C   0  0  0  0  0  0  0  0  0  0  0  0
   -4.5688   21.6416   10.4632 N   0  0  0  0  0  0  0  0  0  0  0  0
   -6.5122   14.8926    4.5515 C   0  0  1  0  0  0  0  0  0  0  0  0
   -6.7075   13.9902    3.3823 N   0  0  0  0  0  0  0  0  0  0  0  0
   -5.5044   15.9709    4.1774 C   0  0  2  0  0  0  0  0  0  0  0  0
   -4.3239   15.3373    3.7835 O   0  0  0  0  0  0  0  0  0  0  0  0
   -5.2535   16.9319    5.3821 C   0  0  1  0  0  0  0  0  0  0  0  0
   -4.3025   17.9737    5.0044 O   0  0  0  0  0  0  0  0  0  0  0  0
   -6.6158   17.6172    5.8066 C   0  0  1  0  0  0  0  0  0  0  0  0
   -7.6255   16.5501    6.2009 C   0  0  1  0  0  0  0  0  0  0  0  0
   -8.8637   17.2013    6.6013 N   0  0  0  0  0  0  0  0  0  0  0  0
   -7.8602   15.5830    5.0097 C   0  0  0  0  0  0  0  0  0  0  0  0
   -3.4245   14.5478    2.9746 C   0  0  0  0  0  0  0  0  0  0  0  0
   -2.1309   14.3395    3.7281 C   0  0  0  0  0  0  0  0  0  0  0  0
   -1.3791   15.5832    3.9946 N   0  0  0  0  0  0  0  0  0  0  0  0
   -0.4033   16.5483    4.5503 C   0  0  0  0  0  0  0  0  0  0  0  0
    0.1894   15.6334    5.6295 C   0  0  0  0  0  0  0  0  0  0  0  0
   -0.8207   15.3175    6.7484 C   0  0  0  0  0  0  0  0  0  0  0  0
   -1.1649   16.5708    7.5473 C   0  0  0  0  0  0  0  0  0  0  0  0
   -2.0867   16.2396    8.6248 N   0  0  0  0  0  0  0  0  0  0  0  0
   -5.2916   10.8696   -0.3285 N   0  0  0  0  0  0  0  0  0  0  0  0
   -6.0708   12.3657    3.7019 C   0  0  0  0  0  0  0  0  0  0  0  0
   -5.5915   11.8862    4.5412 O   0  0  0  0  0  0  0  0  0  0  0  0
   -6.4986   12.0362    2.2926 C   0  0  2  0  0  0  0  0  0  0  0  0
   -7.8655   11.9917    2.1855 O   0  0  0  0  0  0  0  0  0  0  0  0
   -5.9876   10.6314    1.9926 C   0  0  0  0  0  0  0  0  0  0  0  0
   -6.1854   10.1101    0.5577 C   0  0  0  0  0  0  0  0  0  0  0  0
  1  2  1  6  0  0  0
  1  3  1  0  0  0  0
  3  4  1  6  0  0  0
  3  5  1  0  0  0  0
  5  6  1  6  0  0  0
  5  7  1  0  0  0  0
  7  8  1  6  0  0  0
  9  7  1  0  0  0  0
  9 10  1  0  0  0  0
  9 11  1  1  0  0  0
 10  1  1  0  0  0  0
 11 12  1  0  0  0  0
 13 14  1  6  0  0  0
 13 15  1  0  0  0  0
 13 22  1  0  0  0  0
 14 32  1  0  0  0  0
 15 16  1  1  0  0  0
 15 17  1  0  0  0  0
 16 23  1  0  0  0  0
 17 18  1  6  0  0  0
 17 19  1  0  0  0  0
 19  2  1  1  0  0  0
 19 20  1  0  0  0  0
 20 21  1  6  0  0  0
 20 22  1  0  0  0  0
 23 24  1  0  0  0  0
 24 25  1  0  0  0  0
 25 26  1  0  0  0  0
 26 27  1  0  0  0  0
 27 28  1  0  0  0  0
 28 29  1  0  0  0  0
 29 30  1  0  0  0  0
 31 37  1  0  0  0  0
 32 33  2  0  0  0  0
 34 32  1  1  0  0  0
 34 35  1  0  0  0  0
 34 36  1  0  0  0  0
 36 37  1  0  0  0  0
M  END
>  <CHROM.1>
-74.26603745,-72.94368846,112.49908426,68.90185563,-172.44508091,171.95536262
-63.91312302,165.84524795,-7.02813276,-68.06297630,-66.40191083,-178.17419528
-70.09079710,-174.50850969,69.76928365,-5.25695358,16.69567650,5.41243783
1.63287508,-0.17613638,0.57911691

>  <Name>
1o9m_lig

>  <RI>
0

>  <Rbt.Current_Directory>
/home/itssahil/PROJECTS/Mol_Feturizer/New_Systems/rnas/1o9m

>  <Rbt.Executable>
rbdock ($Id: //depot/dev/client3/rdock/2013.1/src/exe/rbdock.cxx#4 $)

>  <Rbt.Library>
libRbt.so (2013.1, Build901 2013/11/27)

>  <Rbt.Parameter_File>
/export/apps/rDock/src/rDock_2013.1_src/data/scripts/dock_solv.prm

>  <Rbt.Receptor>
prm/pocket_docking_5.prm

>  <SCORE>
-12.614

>  <SCORE.INTER>
-9.46797

>  <SCORE.INTER.CONST>
1

>  <SCORE.INTER.POLAR>
-0.909052

>  <SCORE.INTER.ROT>
15

>  <SCORE.INTER.SOLV>
10.6545

>  <SCORE.INTER.VDW>
-20.4333

>  <SCORE.INTER.norm>
-0.255891

>  <SCORE.INTRA>
-3.14606

>  <SCORE.INTRA.DIHEDRAL>
-14.8244

>  <SCORE.INTRA.DIHEDRAL.0>
21.5987

>  <SCORE.INTRA.POLAR>
0

>  <SCORE.INTRA.POLAR.0>
0

>  <SCORE.INTRA.REPUL>
0

>  <SCORE.INTRA.REPUL.0>
0

>  <SCORE.INTRA.SOLV>
5.98118

>  <SCORE.INTRA.SOLV.lig_0>
-108.715

>  <SCORE.INTRA.VDW>
1.27554

>  <SCORE.INTRA.VDW.0>
-3.9485

>  <SCORE.INTRA.norm>
-0.0850286

>  <SCORE.RESTR>
0

>  <SCORE.RESTR.CAVITY>
0

>  <SCORE.RESTR.norm>
0

>  <SCORE.SYSTEM>
0

>  <SCORE.SYSTEM.CONST>
0

>  <SCORE.SYSTEM.DIHEDRAL>
0

>  <SCORE.SYSTEM.SOLV>
0

>  <SCORE.SYSTEM.norm>
0

>  <SCORE.heavy>
37

>  <SCORE.norm>
-0.34092

>  <RMSD>
8.649

$$$$
1o9m_lig
 OpenBabel11021811403D
libRbt.so/2013.1/901 2013/11/27
 37 38  0  0  0  0  0  0  0  0999 V2000
   -5.5140   17.1259   10.7330 C   0  0  2  0  0  0  0  0  0  0  0  0
   -4.5528   16.8617    9.6660 O   0  0  0  0  0  0  0  0  0  0  0  0
   -5.2326   18.5911   11.2315 C   0  0  2  0  0  0  0  0  0  0  0  0
   -5.3696   19.5828   10.1505 N   0  0  0  0  0  0  0  0  0  0  0  0
   -3.7906   18.6513   11.8646 C   0  0  1  0  0  0  0  0  0  0  0  0
   -3.5113   19.9753   12.3278 O   0  0  0  0  0  0  0  0  0  0  0  0
   -3.7209   17.5946   13.0161 C   0  0  2  0  0  0  0  0  0  0  0  0
   -2.4351   17.5517   13.6564 O   0  0  0  0  0  0  0  0  0  0  0  0
   -4.0607   16.1814   12.4816 C   0  0  2  0  0  0  0  0  0  0  0  0
   -5.3421   16.1732   11.8356 O   0  0  0  0  0  0  0  0  0  0  0  0
   -4.0555   15.1530   13.5829 C   0  0  0  0  0  0  0  0  0  0  0  0
   -3.9971   13.8867   13.0514 N   0  0  0  0  0  0  0  0  0  0  0  0
   -4.6057   14.5369    6.0037 C   0  0  1  0  0  0  0  0  0  0  0  0
   -4.7640   13.3751    5.0846 N   0  0  0  0  0  0  0  0  0  0  0  0
   -5.9352   14.7995    6.6978 C   0  0  2  0  0  0  0  0  0  0  0  0
   -6.8982   15.0213    5.7111 O   0  0  0  0  0  0  0  0  0  0  0  0
   -5.8216   16.0238    7.6600 C   0  0  1  0  0  0  0  0  0  0  0  0
   -7.0959   16.2521    8.3356 O   0  0  0  0  0  0  0  0  0  0  0  0
   -4.7115   15.7391    8.7520 C   0  0  1  0  0  0  0  0  0  0  0  0
   -3.3736   15.4936    8.0710 C   0  0  1  0  0  0  0  0  0  0  0  0
   -2.3658   15.2492    9.0920 N   0  0  0  0  0  0  0  0  0  0  0  0
   -3.4917   14.2887    7.0997 C   0  0  0  0  0  0  0  0  0  0  0  0
   -7.9987   15.6536    5.0213 C   0  0  0  0  0  0  0  0  0  0  0  0
   -7.5871   17.0452    4.5989 C   0  0  0  0  0  0  0  0  0  0  0  0
   -7.4797   18.0088    5.7137 N   0  0  0  0  0  0  0  0  0  0  0  0
   -7.7750   18.7816    6.9417 C   0  0  0  0  0  0  0  0  0  0  0  0
   -9.1463   19.3195    6.5137 C   0  0  0  0  0  0  0  0  0  0  0  0
   -9.0316   20.4890    5.5180 C   0  0  0  0  0  0  0  0  0  0  0  0
   -8.5698   21.7632    6.2184 C   0  0  0  0  0  0  0  0  0  0  0  0
   -9.5481   22.1668    7.2185 N   0  0  0  0  0  0  0  0  0  0  0  0
   -6.1404   10.4673    1.5987 N   0  0  0  0  0  0  0  0  0  0  0  0
   -3.5978   13.4392    3.7495 C   0  0  0  0  0  0  0  0  0  0  0  0
   -2.8047   14.1117    3.4616 O   0  0  0  0  0  0  0  0  0  0  0  0
   -4.2543   12.1732    3.2557 C   0  0  2  0  0  0  0  0  0  0  0  0
   -3.5591   11.6299    2.2052 O   0  0  0  0  0  0  0  0  0  0  0  0
   -5.6261   12.5670    2.7192 C   0  0  0  0  0  0  0  0  0  0  0  0
   -6.6643   11.4404    2.5681 C   0  0  0  0  0  0  0  0  0  0  0  0
  1  2  1  6  0  0  0
  1  3  1  0  0  0  0
  3  4  1  6  0  0  0
  3  5  1  0  0  0  0
  5  6  1  1  0  0  0
  5  7  1  0  0  0  0
  7  8  1  6  0  0  0
  9  7  1  0  0  0  0
  9 10  1  0  0  0  0
  9 11  1  1  0  0  0
 10  1  1  0  0  0  0
 11 12  1  0  0  0  0
 13 14  1  6  0  0  0
 13 15  1  0  0  0  0
 13 22  1  0  0  0  0
 14 32  1  0  0  0  0
 15 16  1  6  0  0  0
 15 17  1  0  0  0  0
 16 23  1  0  0  0  0
 17 18  1  1  0  0  0
 17 19  1  0  0  0  0
 19  2  1  1  0  0  0
 19 20  1  0  0  0  0
 20 21  1  1  0  0  0
 20 22  1  0  0  0  0
 23 24  1  0  0  0  0
 24 25  1  0  0  0  0
 25 26  1  0  0  0  0
 26 27  1  0  0  0  0
 27 28  1  0  0  0  0
 28 29  1  0  0  0  0
 29 30  1  0  0  0  0
 31 37  1  0  0  0  0
 32 33  2  0  0  0  0
 34 32  1  6  0  0  0
 34 35  1  0  0  0  0
 34 36  1  0  0  0  0
 36 37  1  0  0  0  0
M  END
>  <CHROM.1>
-164.97151483,-163.73396953,154.16749257,-133.37072225,63.79841789,76.43080384
-72.09320515,-45.83477769,-55.95702644,-77.14017674,-73.67430658,-62.30622414
-171.93217680,-161.24788198,-61.92761174,-5.41350798,16.14541492,7.66725408
-1.45203159,0.87921136,-2.19215095

>  <Name>
1o9m_lig

>  <RI>
0

>  <Rbt.Current_Directory>
/home/itssahil/PROJECTS/Mol_Feturizer/New_Systems/rnas/1o9m

>  <Rbt.Executable>
rbdock ($Id: //depot/dev/client3/rdock/2013.1/src/exe/rbdock.cxx#4 $)

>  <Rbt.Library>
libRbt.so (2013.1, Build901 2013/11/27)

>  <Rbt.Parameter_File>
/export/apps/rDock/src/rDock_2013.1_src/data/scripts/dock_solv.prm

>  <Rbt.Receptor>
prm/pocket_docking_5.prm

>  <SCORE>
-11.4414

>  <SCORE.INTER>
-10.1792

>  <SCORE.INTER.CONST>
1

>  <SCORE.INTER.POLAR>
-1.77895

>  <SCORE.INTER.ROT>
15

>  <SCORE.INTER.SOLV>
13.4973

>  <SCORE.INTER.VDW>
-18.9554

>  <SCORE.INTER.norm>
-0.275114

>  <SCORE.INTRA>
-1.27549

>  <SCORE.INTRA.DIHEDRAL>
-6.84317

>  <SCORE.INTRA.DIHEDRAL.0>
21.5987

>  <SCORE.INTRA.POLAR>
0

>  <SCORE.INTRA.POLAR.0>
0

>  <SCORE.INTRA.REPUL>
0

>  <SCORE.INTRA.REPUL.0>
0

>  <SCORE.INTRA.SOLV>
3.98004

>  <SCORE.INTRA.SOLV.lig_0>
-108.715

>  <SCORE.INTRA.VDW>
0.156072

>  <SCORE.INTRA.VDW.0>
-3.9485

>  <SCORE.INTRA.norm>
-0.0344728

>  <SCORE.RESTR>
0.0132672

>  <SCORE.RESTR.CAVITY>
0.0132672

>  <SCORE.RESTR.norm>
0.000358572

>  <SCORE.SYSTEM>
0

>  <SCORE.SYSTEM.CONST>
0

>  <SCORE.SYSTEM.DIHEDRAL>
0

>  <SCORE.SYSTEM.SOLV>
0

>  <SCORE.SYSTEM.norm>
0

>  <SCORE.heavy>
37

>  <SCORE.norm>
-0.309228

>  <RMSD>
8.656

$$$$
1o9m_lig
 OpenBabel11021811403D
libRbt.so/2013.1/901 2013/11/27
 37 38  0  0  0  0  0  0  0  0999 V2000
   -6.6162   18.0561    9.3527 C   0  0  2  0  0  0  0  0  0  0  0  0
   -5.9975   18.0732    8.0302 O   0  0  0  0  0  0  0  0  0  0  0  0
   -7.0615   19.5345    9.6538 C   0  0  2  0  0  0  0  0  0  0  0  0
   -8.0045   20.0482    8.6449 N   0  0  0  0  0  0  0  0  0  0  0  0
   -5.7818   20.4503    9.7390 C   0  0  1  0  0  0  0  0  0  0  0  0
   -6.1609   21.8016   10.0143 O   0  0  0  0  0  0  0  0  0  0  0  0
   -4.8376   19.8647   10.8404 C   0  0  2  0  0  0  0  0  0  0  0  0
   -3.6232   20.6179   10.9917 O   0  0  0  0  0  0  0  0  0  0  0  0
   -4.4766   18.3924   10.5237 C   0  0  2  0  0  0  0  0  0  0  0  0
   -5.6612   17.5974   10.3678 O   0  0  0  0  0  0  0  0  0  0  0  0
   -3.6125   17.7867   11.5994 C   0  0  0  0  0  0  0  0  0  0  0  0
   -2.3654   18.3645   11.5896 N   0  0  0  0  0  0  0  0  0  0  0  0
   -6.5360   15.8047    4.3717 C   0  0  1  0  0  0  0  0  0  0  0  0
   -6.6414   14.6399    3.4489 N   0  0  0  0  0  0  0  0  0  0  0  0
   -7.6010   15.6740    5.4521 C   0  0  2  0  0  0  0  0  0  0  0  0
   -8.8448   15.5976    4.8219 O   0  0  0  0  0  0  0  0  0  0  0  0
   -7.5403   16.8859    6.4346 C   0  0  1  0  0  0  0  0  0  0  0  0
   -8.5513   16.7382    7.4779 O   0  0  0  0  0  0  0  0  0  0  0  0
   -6.1125   16.9459    7.1155 C   0  0  1  0  0  0  0  0  0  0  0  0
   -5.0407   17.0956    6.0465 C   0  0  1  0  0  0  0  0  0  0  0  0
   -3.7392   17.1636    6.6940 N   0  0  0  0  0  0  0  0  0  0  0  0
   -5.1137   15.9008    5.0583 C   0  0  0  0  0  0  0  0  0  0  0  0
  -10.0014   16.0240    4.0687 C   0  0  0  0  0  0  0  0  0  0  0  0
  -10.9908   16.6788    5.0050 C   0  0  0  0  0  0  0  0  0  0  0  0
  -10.4418   17.8232    5.7612 N   0  0  0  0  0  0  0  0  0  0  0  0
  -10.2773   19.1663    6.3625 C   0  0  0  0  0  0  0  0  0  0  0  0
  -11.6430   19.2424    7.0569 C   0  0  0  0  0  0  0  0  0  0  0  0
  -11.9510   20.6544    7.5893 C   0  0  0  0  0  0  0  0  0  0  0  0
  -13.3003   20.6908    8.3004 C   0  0  0  0  0  0  0  0  0  0  0  0
  -14.3807   20.6151    7.3272 N   0  0  0  0  0  0  0  0  0  0  0  0
   -3.6771   13.0858    1.6769 N   0  0  0  0  0  0  0  0  0  0  0  0
   -6.0445   13.1526    4.2092 C   0  0  0  0  0  0  0  0  0  0  0  0
   -5.6388   12.9008    5.1767 O   0  0  0  0  0  0  0  0  0  0  0  0
   -6.3578   12.4809    2.8946 C   0  0  2  0  0  0  0  0  0  0  0  0
   -7.5233   11.7611    2.9694 O   0  0  0  0  0  0  0  0  0  0  0  0
   -5.2382   11.4798    2.6318 C   0  0  0  0  0  0  0  0  0  0  0  0
   -3.7969   12.0184    2.6806 C   0  0  0  0  0  0  0  0  0  0  0  0
  1  2  1  6  0  0  0
  1  3  1  0  0  0  0
  3  4  1  6  0  0  0
  3  5  1  0  0  0  0
  5  6  1  1  0  0  0
  5  7  1  0  0  0  0
  7  8  1  6  0  0  0
  9  7  1  0  0  0  0
  9 10  1  0  0  0  0
  9 11  1  1  0  0  0
 10  1  1  0  0  0  0
 11 12  1  0  0  0  0
 13 14  1  6  0  0  0
 13 15  1  0  0  0  0
 13 22  1  0  0  0  0
 14 32  1  0  0  0  0
 15 16  1  6  0  0  0
 15 17  1  0  0  0  0
 16 23  1  0  0  0  0
 17 18  1  1  0  0  0
 17 19  1  0  0  0  0
 19  2  1  1  0  0  0
 19 20  1  0  0  0  0
 20 21  1  1  0  0  0
 20 22  1  0  0  0  0
 23 24  1  0  0  0  0
 24 25  1  0  0  0  0
 25 26  1  0  0  0  0
 26 27  1  0  0  0  0
 27 28  1  0  0  0  0
 28 29  1  0  0  0  0
 29 30  1  0  0  0  0
 31 37  1  0  0  0  0
 32 33  2  0  0  0  0
 34 32  1  1  0  0  0
 34 35  1  0  0  0  0
 34 36  1  0  0  0  0
 36 37  1  0  0  0  0
M  END
>  <CHROM.1>
-146.06582253,-68.83016568,-72.89386484,-69.25378609,-85.47641655,76.21432775
56.90419876,130.57953679,52.72450168,-169.02937487,-178.75331190,-73.15205258
-102.60112783,-53.41068000,-58.84409770,-7.06473176,17.05186506,6.82618891
-1.74743367,0.32245672,-2.34136159

>  <Name>
1o9m_lig

>  <RI>
0

>  <Rbt.Current_Directory>
/home/itssahil/PROJECTS/Mol_Feturizer/New_Systems/rnas/1o9m

>  <Rbt.Executable>
rbdock ($Id: //depot/dev/client3/rdock/2013.1/src/exe/rbdock.cxx#4 $)

>  <Rbt.Library>
libRbt.so (2013.1, Build901 2013/11/27)

>  <Rbt.Parameter_File>
/export/apps/rDock/src/rDock_2013.1_src/data/scripts/dock_solv.prm

>  <Rbt.Receptor>
prm/pocket_docking_2.prm

>  <SCORE>
-6.90725

>  <SCORE.INTER>
-6.72726

>  <SCORE.INTER.CONST>
1

>  <SCORE.INTER.POLAR>
-0.959166

>  <SCORE.INTER.ROT>
15

>  <SCORE.INTER.SOLV>
13.2066

>  <SCORE.INTER.VDW>
-19.2898

>  <SCORE.INTER.norm>
-0.181818

>  <SCORE.INTRA>
-1.55746

>  <SCORE.INTRA.DIHEDRAL>
-8.05875

>  <SCORE.INTRA.DIHEDRAL.0>
21.5987

>  <SCORE.INTRA.POLAR>
0

>  <SCORE.INTRA.POLAR.0>
0

>  <SCORE.INTRA.REPUL>
0

>  <SCORE.INTRA.REPUL.0>
0

>  <SCORE.INTRA.SOLV>
6.93835

>  <SCORE.INTRA.SOLV.lig_0>
-108.715

>  <SCORE.INTRA.VDW>
-0.997263

>  <SCORE.INTRA.VDW.0>
-3.9485

>  <SCORE.INTRA.norm>
-0.0420936

>  <SCORE.RESTR>
1.37748

>  <SCORE.RESTR.CAVITY>
1.37748

>  <SCORE.RESTR.norm>
0.0372291

>  <SCORE.SYSTEM>
0

>  <SCORE.SYSTEM.CONST>
0

>  <SCORE.SYSTEM.DIHEDRAL>
0

>  <SCORE.SYSTEM.SOLV>
0

>  <SCORE.SYSTEM.norm>
0

>  <SCORE.heavy>
37

>  <SCORE.norm>
-0.186682

>  <RMSD>
8.657

$$$$
1o9m_lig
 OpenBabel11021811403D
libRbt.so/2013.1/901 2013/11/27
 37 38  0  0  0  0  0  0  0  0999 V2000
   -7.9830   10.8191    1.1355 C   0  0  2  0  0  0  0  0  0  0  0  0
   -6.8140   10.7481    2.0076 O   0  0  0  0  0  0  0  0  0  0  0  0
   -8.9469    9.6618    1.5895 C   0  0  2  0  0  0  0  0  0  0  0  0
   -9.3435    9.7899    3.0027 N   0  0  0  0  0  0  0  0  0  0  0  0
   -8.2438    8.2752    1.3307 C   0  0  1  0  0  0  0  0  0  0  0  0
   -9.1024    7.2050    1.7344 O   0  0  0  0  0  0  0  0  0  0  0  0
   -7.8715    8.1948   -0.1866 C   0  0  2  0  0  0  0  0  0  0  0  0
   -7.2050    6.9698   -0.5330 O   0  0  0  0  0  0  0  0  0  0  0  0
   -6.9693    9.3867   -0.5914 C   0  0  2  0  0  0  0  0  0  0  0  0
   -7.5966   10.6362   -0.2681 O   0  0  0  0  0  0  0  0  0  0  0  0
   -6.6419    9.3635   -2.0621 C   0  0  0  0  0  0  0  0  0  0  0  0
   -5.6030   10.2221   -2.3320 N   0  0  0  0  0  0  0  0  0  0  0  0
   -3.5676   13.3170    3.3044 C   0  0  1  0  0  0  0  0  0  0  0  0
   -2.5076   14.3631    3.2635 N   0  0  0  0  0  0  0  0  0  0  0  0
   -4.9116   13.9668    3.0048 C   0  0  2  0  0  0  0  0  0  0  0  0
   -5.1180   14.9792    3.9443 O   0  0  0  0  0  0  0  0  0  0  0  0
   -6.0584   12.9085    3.0552 C   0  0  1  0  0  0  0  0  0  0  0  0
   -7.3384   13.5392    2.7450 O   0  0  0  0  0  0  0  0  0  0  0  0
   -5.7796   11.7730    1.9881 C   0  0  1  0  0  0  0  0  0  0  0  0
   -4.4473   11.1031    2.2885 C   0  0  1  0  0  0  0  0  0  0  0  0
   -4.2181   10.0542    1.3062 N   0  0  0  0  0  0  0  0  0  0  0  0
   -3.3098   12.1587    2.2577 C   0  0  0  0  0  0  0  0  0  0  0  0
   -4.8825   16.1955    4.6870 C   0  0  0  0  0  0  0  0  0  0  0  0
   -6.0604   16.4585    5.5969 C   0  0  0  0  0  0  0  0  0  0  0  0
   -7.3684   16.0957    5.0133 N   0  0  0  0  0  0  0  0  0  0  0  0
   -8.5320   16.0200    4.1009 C   0  0  0  0  0  0  0  0  0  0  0  0
   -9.5353   16.7589    4.9955 C   0  0  0  0  0  0  0  0  0  0  0  0
  -10.9478   16.7979    4.3828 C   0  0  0  0  0  0  0  0  0  0  0  0
  -11.9073   17.5907    5.2651 C   0  0  0  0  0  0  0  0  0  0  0  0
  -11.5052   18.9894    5.3105 N   0  0  0  0  0  0  0  0  0  0  0  0
   -0.8201   19.5004    5.1501 N   0  0  0  0  0  0  0  0  0  0  0  0
   -1.9422   14.7792    4.8925 C   0  0  0  0  0  0  0  0  0  0  0  0
   -2.1796   14.4448    5.8905 O   0  0  0  0  0  0  0  0  0  0  0  0
   -1.0414   15.7790    4.2094 C   0  0  2  0  0  0  0  0  0  0  0  0
    0.2806   15.4542    4.3790 O   0  0  0  0  0  0  0  0  0  0  0  0
   -1.2587   17.1178    4.9058 C   0  0  0  0  0  0  0  0  0  0  0  0
   -0.6205   18.3556    4.2497 C   0  0  0  0  0  0  0  0  0  0  0  0
  1  2  1  1  0  0  0
  1  3  1  0  0  0  0
  3  4  1  1  0  0  0
  3  5  1  0  0  0  0
  5  6  1  6  0  0  0
  5  7  1  0  0  0  0
  7  8  1  1  0  0  0
  9  7  1  0  0  0  0
  9 10  1  0  0  0  0
  9 11  1  6  0  0  0
 10  1  1  0  0  0  0
 11 12  1  0  0  0  0
 13 14  1  6  0  0  0
 13 15  1  0  0  0  0
 13 22  1  0  0  0  0
 14 32  1  0  0  0  0
 15 16  1  1  0  0  0
 15 17  1  0  0  0  0
 16 23  1  0  0  0  0
 17 18  1  6  0  0  0
 17 19  1  0  0  0  0
 19  2  1  1  0  0  0
 19 20  1  0  0  0  0
 20 21  1  6  0  0  0
 20 22  1  0  0  0  0
 23 24  1  0  0  0  0
 24 25  1  0  0  0  0
 25 26  1  0  0  0  0
 26 27  1  0  0  0  0
 27 28  1  0  0  0  0
 28 29  1  0  0  0  0
 29 30  1  0  0  0  0
 31 37  1  0  0  0  0
 32 33  2  0  0  0  0
 34 32  1  1  0  0  0
 34 35  1  0  0  0  0
 34 36  1  0  0  0  0
 36 37  1  0  0  0  0
M  END
>  <CHROM.1>
-172.26997916,-165.61905857,106.06313370,59.96041899,173.74412618,92.29359370
-36.91349959,-55.90191731,-110.51453189,-176.30358177,-177.51362498,65.38637814
-114.83874434,-170.50831154,-173.75270149,-5.89466379,13.22527222,2.83912968
1.98510988,-0.01999078,-2.61342024

>  <Name>
1o9m_lig

>  <RI>
0

>  <Rbt.Current_Directory>
/home/itssahil/PROJECTS/Mol_Feturizer/New_Systems/rnas/1o9m

>  <Rbt.Executable>
rbdock ($Id: //depot/dev/client3/rdock/2013.1/src/exe/rbdock.cxx#4 $)

>  <Rbt.Library>
libRbt.so (2013.1, Build901 2013/11/27)

>  <Rbt.Parameter_File>
/export/apps/rDock/src/rDock_2013.1_src/data/scripts/dock_solv.prm

>  <Rbt.Receptor>
prm/pocket_docking_6.prm

>  <SCORE>
-12.5435

>  <SCORE.INTER>
-7.27802

>  <SCORE.INTER.CONST>
1

>  <SCORE.INTER.POLAR>
0

>  <SCORE.INTER.ROT>
15

>  <SCORE.INTER.SOLV>
17.6497

>  <SCORE.INTER.VDW>
-24.3353

>  <SCORE.INTER.norm>
-0.196703

>  <SCORE.INTRA>
-5.26552

>  <SCORE.INTRA.DIHEDRAL>
-9.38443

>  <SCORE.INTRA.DIHEDRAL.0>
21.5987

>  <SCORE.INTRA.POLAR>
0

>  <SCORE.INTRA.POLAR.0>
0

>  <SCORE.INTRA.REPUL>
0

>  <SCORE.INTRA.REPUL.0>
0

>  <SCORE.INTRA.SOLV>
2.4506

>  <SCORE.INTRA.SOLV.lig_0>
-108.715

>  <SCORE.INTRA.VDW>
-1.79861

>  <SCORE.INTRA.VDW.0>
-3.9485

>  <SCORE.INTRA.norm>
-0.142311

>  <SCORE.RESTR>
0

>  <SCORE.RESTR.CAVITY>
0

>  <SCORE.RESTR.norm>
0

>  <SCORE.SYSTEM>
0

>  <SCORE.SYSTEM.CONST>
0

>  <SCORE.SYSTEM.DIHEDRAL>
0

>  <SCORE.SYSTEM.SOLV>
0

>  <SCORE.SYSTEM.norm>
0

>  <SCORE.heavy>
37

>  <SCORE.norm>
-0.339015

>  <RMSD>
8.668

$$$$
1o9m_lig
 OpenBabel11021811403D
libRbt.so/2013.1/901 2013/11/27
 37 38  0  0  0  0  0  0  0  0999 V2000
  -10.1746   20.5529    7.8878 C   0  0  2  0  0  0  0  0  0  0  0  0
   -9.5848   19.5567    6.9978 O   0  0  0  0  0  0  0  0  0  0  0  0
  -11.7152   20.5754    7.5703 C   0  0  2  0  0  0  0  0  0  0  0  0
  -12.3446   19.2587    7.7733 N   0  0  0  0  0  0  0  0  0  0  0  0
  -11.9285   21.0737    6.0905 C   0  0  1  0  0  0  0  0  0  0  0  0
  -13.3238   21.1046    5.7778 O   0  0  0  0  0  0  0  0  0  0  0  0
  -11.2594   22.4809    5.9503 C   0  0  2  0  0  0  0  0  0  0  0  0
  -11.3799   23.0261    4.6263 O   0  0  0  0  0  0  0  0  0  0  0  0
   -9.7591   22.4122    6.3282 C   0  0  2  0  0  0  0  0  0  0  0  0
   -9.5881   21.8763    7.6485 O   0  0  0  0  0  0  0  0  0  0  0  0
   -9.1036   23.7670    6.2556 C   0  0  0  0  0  0  0  0  0  0  0  0
   -8.8421   24.0996    4.9478 N   0  0  0  0  0  0  0  0  0  0  0  0
   -5.7353   17.5621    6.8463 C   0  0  1  0  0  0  0  0  0  0  0  0
   -4.2604   17.3690    6.7623 N   0  0  0  0  0  0  0  0  0  0  0  0
   -6.0519   18.4030    8.0755 C   0  0  2  0  0  0  0  0  0  0  0  0
   -5.5309   17.7450    9.1917 O   0  0  0  0  0  0  0  0  0  0  0  0
   -7.5923   18.6163    8.2149 C   0  0  1  0  0  0  0  0  0  0  0  0
   -7.8816   19.4417    9.3843 O   0  0  0  0  0  0  0  0  0  0  0  0
   -8.1451   19.3499    6.9257 C   0  0  1  0  0  0  0  0  0  0  0  0
   -7.8512   18.5098    5.6921 C   0  0  1  0  0  0  0  0  0  0  0  0
   -8.3802   19.1943    4.5219 N   0  0  0  0  0  0  0  0  0  0  0  0
   -6.3213   18.2812    5.5644 C   0  0  0  0  0  0  0  0  0  0  0  0
   -5.3548   16.7110   10.1848 C   0  0  0  0  0  0  0  0  0  0  0  0
   -6.6443   16.5349   10.9534 C   0  0  0  0  0  0  0  0  0  0  0  0
   -6.6338   17.1431   12.2998 N   0  0  0  0  0  0  0  0  0  0  0  0
   -6.3923   17.3658   13.7436 C   0  0  0  0  0  0  0  0  0  0  0  0
   -4.8915   17.6687   13.6504 C   0  0  0  0  0  0  0  0  0  0  0  0
   -4.6089   19.0270   12.9814 C   0  0  0  0  0  0  0  0  0  0  0  0
   -3.1161   19.3414   12.9861 C   0  0  0  0  0  0  0  0  0  0  0  0
   -2.4060   18.4094   12.1217 N   0  0  0  0  0  0  0  0  0  0  0  0
    0.2345   15.2527    6.5810 N   0  0  0  0  0  0  0  0  0  0  0  0
   -3.8102   16.4156    5.3357 C   0  0  0  0  0  0  0  0  0  0  0  0
   -4.3518   15.9598    4.5215 O   0  0  0  0  0  0  0  0  0  0  0  0
   -2.3894   16.5482    5.8269 C   0  0  2  0  0  0  0  0  0  0  0  0
   -1.9202   17.8254    5.6521 O   0  0  0  0  0  0  0  0  0  0  0  0
   -1.5325   15.6407    4.9513 C   0  0  0  0  0  0  0  0  0  0  0  0
   -0.0126   15.6720    5.1938 C   0  0  0  0  0  0  0  0  0  0  0  0
  1  2  1  6  0  0  0
  1  3  1  0  0  0  0
  3  4  1  6  0  0  0
  3  5  1  0  0  0  0
  5  6  1  1  0  0  0
  5  7  1  0  0  0  0
  7  8  1  6  0  0  0
  9  7  1  0  0  0  0
  9 10  1  0  0  0  0
  9 11  1  1  0  0  0
 10  1  1  0  0  0  0
 11 12  1  0  0  0  0
 13 14  1  6  0  0  0
 13 15  1  0  0  0  0
 13 22  1  0  0  0  0
 14 32  1  0  0  0  0
 15 16  1  1  0  0  0
 15 17  1  0  0  0  0
 16 23  1  0  0  0  0
 17 18  1  1  0  0  0
 17 19  1  0  0  0  0
 19  2  1  1  0  0  0
 19 20  1  0  0  0  0
 20 21  1  6  0  0  0
 20 22  1  0  0  0  0
 23 24  1  0  0  0  0
 24 25  1  0  0  0  0
 25 26  1  0  0  0  0
 26 27  1  0  0  0  0
 27 28  1  0  0  0  0
 28 29  1  0  0  0  0
 29 30  1  0  0  0  0
 31 37  1  0  0  0  0
 32 33  2  0  0  0  0
 34 32  1  6  0  0  0
 34 35  1  0  0  0  0
 34 36  1  0  0  0  0
 36 37  1  0  0  0  0
M  END
>  <CHROM.1>
174.28961970,-77.63961791,-179.12772712,-63.74920651,-61.36180863,72.74280274
-103.29094080,-79.63627936,72.64468208,70.22225417,176.25440483,67.11308831
-72.10322183,175.96185329,60.52748752,-6.78467204,18.92672642,7.72758750
2.89011540,0.52385226,-1.51671728

>  <Name>
1o9m_lig

>  <RI>
0

>  <Rbt.Current_Directory>
/home/itssahil/PROJECTS/Mol_Feturizer/New_Systems/rnas/1o9m

>  <Rbt.Executable>
rbdock ($Id: //depot/dev/client3/rdock/2013.1/src/exe/rbdock.cxx#4 $)

>  <Rbt.Library>
libRbt.so (2013.1, Build901 2013/11/27)

>  <Rbt.Parameter_File>
/export/apps/rDock/src/rDock_2013.1_src/data/scripts/dock_solv.prm

>  <Rbt.Receptor>
prm/pocket_docking_5.prm

>  <SCORE>
-11.0989

>  <SCORE.INTER>
-5.94958

>  <SCORE.INTER.CONST>
1

>  <SCORE.INTER.POLAR>
-1.58027

>  <SCORE.INTER.ROT>
15

>  <SCORE.INTER.SOLV>
11.6088

>  <SCORE.INTER.VDW>
-16.1684

>  <SCORE.INTER.norm>
-0.160799

>  <SCORE.INTRA>
-5.14934

>  <SCORE.INTRA.DIHEDRAL>
-13.0319

>  <SCORE.INTRA.DIHEDRAL.0>
21.5987

>  <SCORE.INTRA.POLAR>
0

>  <SCORE.INTRA.POLAR.0>
0

>  <SCORE.INTRA.REPUL>
0

>  <SCORE.INTRA.REPUL.0>
0

>  <SCORE.INTRA.SOLV>
2.7101

>  <SCORE.INTRA.SOLV.lig_0>
-108.715

>  <SCORE.INTRA.VDW>
0.0115474

>  <SCORE.INTRA.VDW.0>
-3.9485

>  <SCORE.INTRA.norm>
-0.139171

>  <SCORE.RESTR>
0

>  <SCORE.RESTR.CAVITY>
0

>  <SCORE.RESTR.norm>
0

>  <SCORE.SYSTEM>
0

>  <SCORE.SYSTEM.CONST>
0

>  <SCORE.SYSTEM.DIHEDRAL>
0

>  <SCORE.SYSTEM.SOLV>
0

>  <SCORE.SYSTEM.norm>
0

>  <SCORE.heavy>
37

>  <SCORE.norm>
-0.299971

>  <RMSD>
8.678

$$$$
1o9m_lig
 OpenBabel11021811403D
libRbt.so/2013.1/901 2013/11/27
 37 38  0  0  0  0  0  0  0  0999 V2000
   -8.0067   20.4235    6.3051 C   0  0  2  0  0  0  0  0  0  0  0  0
   -8.3771   19.4076    7.2865 O   0  0  0  0  0  0  0  0  0  0  0  0
   -9.2993   21.2813    6.0444 C   0  0  2  0  0  0  0  0  0  0  0  0
   -9.8085   21.9091    7.2763 N   0  0  0  0  0  0  0  0  0  0  0  0
  -10.4012   20.3653    5.3883 C   0  0  1  0  0  0  0  0  0  0  0  0
  -11.5878   21.1239    5.1394 O   0  0  0  0  0  0  0  0  0  0  0  0
   -9.8058   19.7513    4.0783 C   0  0  2  0  0  0  0  0  0  0  0  0
  -10.7266   18.8791    3.4027 O   0  0  0  0  0  0  0  0  0  0  0  0
   -8.5065   18.9662    4.3846 C   0  0  2  0  0  0  0  0  0  0  0  0
   -7.5517   19.7998    5.0574 O   0  0  0  0  0  0  0  0  0  0  0  0
   -7.8819   18.4114    3.1306 C   0  0  0  0  0  0  0  0  0  0  0  0
   -7.4822   19.4350    2.3050 N   0  0  0  0  0  0  0  0  0  0  0  0
   -4.5211   17.9489    8.6371 C   0  0  1  0  0  0  0  0  0  0  0  0
   -3.5092   17.1418    9.3748 N   0  0  0  0  0  0  0  0  0  0  0  0
   -5.3813   17.0125    7.7995 C   0  0  2  0  0  0  0  0  0  0  0  0
   -4.5355   16.3002    6.9467 O   0  0  0  0  0  0  0  0  0  0  0  0
   -6.4472   17.8186    6.9921 C   0  0  1  0  0  0  0  0  0  0  0  0
   -7.2795   16.9084    6.2102 O   0  0  0  0  0  0  0  0  0  0  0  0
   -7.3743   18.6221    7.9924 C   0  0  1  0  0  0  0  0  0  0  0  0
   -6.5280   19.5754    8.8224 C   0  0  1  0  0  0  0  0  0  0  0  0
   -7.4004   20.3137    9.7232 N   0  0  0  0  0  0  0  0  0  0  0  0
   -5.4555   18.7761    9.6099 C   0  0  0  0  0  0  0  0  0  0  0  0
   -3.4998   15.3802    6.5372 C   0  0  0  0  0  0  0  0  0  0  0  0
   -4.0044   13.9636    6.6892 C   0  0  0  0  0  0  0  0  0  0  0  0
   -4.2819   13.2797    5.4093 N   0  0  0  0  0  0  0  0  0  0  0  0
   -4.1341   12.7441    4.0368 C   0  0  0  0  0  0  0  0  0  0  0  0
   -4.3647   14.0603    3.2834 C   0  0  0  0  0  0  0  0  0  0  0  0
   -3.1807   15.0342    3.4307 C   0  0  0  0  0  0  0  0  0  0  0  0
   -3.5113   16.3957    2.8270 C   0  0  0  0  0  0  0  0  0  0  0  0
   -2.4898   17.3666    3.1932 N   0  0  0  0  0  0  0  0  0  0  0  0
   -2.2250   14.0801   14.1969 N   0  0  0  0  0  0  0  0  0  0  0  0
   -4.2347   15.6926   10.0962 C   0  0  0  0  0  0  0  0  0  0  0  0
   -5.2243   15.2632   10.1131 O   0  0  0  0  0  0  0  0  0  0  0  0
   -2.8585   15.4068   10.6459 C   0  0  2  0  0  0  0  0  0  0  0  0
   -2.1883   14.5019    9.8624 O   0  0  0  0  0  0  0  0  0  0  0  0
   -3.0543   14.7500   12.0079 C   0  0  0  0  0  0  0  0  0  0  0  0
   -1.7958   14.5496   12.8716 C   0  0  0  0  0  0  0  0  0  0  0  0
  1  2  1  1  0  0  0
  1  3  1  0  0  0  0
  3  4  1  1  0  0  0
  3  5  1  0  0  0  0
  5  6  1  6  0  0  0
  5  7  1  0  0  0  0
  7  8  1  1  0  0  0
  9  7  1  0  0  0  0
  9 10  1  0  0  0  0
  9 11  1  6  0  0  0
 10  1  1  0  0  0  0
 11 12  1  0  0  0  0
 13 14  1  1  0  0  0
 13 15  1  0  0  0  0
 13 22  1  0  0  0  0
 14 32  1  0  0  0  0
 15 16  1  6  0  0  0
 15 17  1  0  0  0  0
 16 23  1  0  0  0  0
 17 18  1  1  0  0  0
 17 19  1  0  0  0  0
 19  2  1  6  0  0  0
 19 20  1  0  0  0  0
 20 21  1  1  0  0  0
 20 22  1  0  0  0  0
 23 24  1  0  0  0  0
 24 25  1  0  0  0  0
 25 26  1  0  0  0  0
 26 27  1  0  0  0  0
 27 28  1  0  0  0  0
 28 29  1  0  0  0  0
 29 30  1  0  0  0  0
 31 37  1  0  0  0  0
 32 33  2  0  0  0  0
 34 32  1  6  0  0  0
 34 35  1  0  0  0  0
 34 36  1  0  0  0  0
 36 37  1  0  0  0  0
M  END
>  <CHROM.1>
-166.05522391,64.12578816,-44.51217465,65.26609384,74.32626918,-58.27240781
108.34157929,50.75925326,-77.25763606,71.56242287,-172.63820178,169.44182161
-98.17768299,-171.11035258,172.34858173,-5.93448366,17.35613777,6.92937359
2.70642456,0.76988823,-1.76192722

>  <Name>
1o9m_lig

>  <RI>
0

>  <Rbt.Current_Directory>
/home/itssahil/PROJECTS/Mol_Feturizer/New_Systems/rnas/1o9m

>  <Rbt.Executable>
rbdock ($Id: //depot/dev/client3/rdock/2013.1/src/exe/rbdock.cxx#4 $)

>  <Rbt.Library>
libRbt.so (2013.1, Build901 2013/11/27)

>  <Rbt.Parameter_File>
/export/apps/rDock/src/rDock_2013.1_src/data/scripts/dock_solv.prm

>  <Rbt.Receptor>
prm/pocket_docking_5.prm

>  <SCORE>
-7.40874

>  <SCORE.INTER>
-2.85

>  <SCORE.INTER.CONST>
1

>  <SCORE.INTER.POLAR>
-2.48155

>  <SCORE.INTER.ROT>
15

>  <SCORE.INTER.SOLV>
12.8209

>  <SCORE.INTER.VDW>
-11.5018

>  <SCORE.INTER.norm>
-0.0770269

>  <SCORE.INTRA>
-4.55874

>  <SCORE.INTRA.DIHEDRAL>
-10.5652

>  <SCORE.INTRA.DIHEDRAL.0>
21.5987

>  <SCORE.INTRA.POLAR>
0

>  <SCORE.INTRA.POLAR.0>
0

>  <SCORE.INTRA.REPUL>
0

>  <SCORE.INTRA.REPUL.0>
0

>  <SCORE.INTRA.SOLV>
3.13219

>  <SCORE.INTRA.SOLV.lig_0>
-108.715

>  <SCORE.INTRA.VDW>
-0.84223

>  <SCORE.INTRA.VDW.0>
-3.9485

>  <SCORE.INTRA.norm>
-0.123209

>  <SCORE.RESTR>
0

>  <SCORE.RESTR.CAVITY>
0

>  <SCORE.RESTR.norm>
0

>  <SCORE.SYSTEM>
0

>  <SCORE.SYSTEM.CONST>
0

>  <SCORE.SYSTEM.DIHEDRAL>
0

>  <SCORE.SYSTEM.SOLV>
0

>  <SCORE.SYSTEM.norm>
0

>  <SCORE.heavy>
37

>  <SCORE.norm>
-0.200236

>  <RMSD>
8.693

$$$$
1o9m_lig
 OpenBabel11021811403D
libRbt.so/2013.1/901 2013/11/27
 37 38  0  0  0  0  0  0  0  0999 V2000
   -1.6221   15.9567   12.2216 C   0  0  2  0  0  0  0  0  0  0  0  0
   -2.9658   16.3213   12.6618 O   0  0  0  0  0  0  0  0  0  0  0  0
   -0.8385   15.5102   13.5104 C   0  0  2  0  0  0  0  0  0  0  0  0
   -1.4881   14.3770   14.1923 N   0  0  0  0  0  0  0  0  0  0  0  0
   -0.7024   16.7429   14.4829 C   0  0  1  0  0  0  0  0  0  0  0  0
    0.0094   16.3622   15.6636 O   0  0  0  0  0  0  0  0  0  0  0  0
    0.0134   17.8974   13.7069 C   0  0  2  0  0  0  0  0  0  0  0  0
    0.1755   19.0851   14.4994 O   0  0  0  0  0  0  0  0  0  0  0  0
   -0.7694   18.2578   12.4202 C   0  0  2  0  0  0  0  0  0  0  0  0
   -0.9528   17.1004   11.5919 O   0  0  0  0  0  0  0  0  0  0  0  0
   -0.0706   19.3298   11.6246 C   0  0  0  0  0  0  0  0  0  0  0  0
   -0.7622   19.5894   10.4655 N   0  0  0  0  0  0  0  0  0  0  0  0
   -6.6284   16.7712   10.3807 C   0  0  1  0  0  0  0  0  0  0  0  0
   -7.6309   17.3459    9.4404 N   0  0  0  0  0  0  0  0  0  0  0  0
   -5.3451   16.4811    9.6143 C   0  0  2  0  0  0  0  0  0  0  0  0
   -5.6582   15.6139    8.5655 O   0  0  0  0  0  0  0  0  0  0  0  0
   -4.2687   15.8585   10.5584 C   0  0  1  0  0  0  0  0  0  0  0  0
   -3.0362   15.6051    9.8173 O   0  0  0  0  0  0  0  0  0  0  0  0
   -3.9537   16.8641   11.7396 C   0  0  1  0  0  0  0  0  0  0  0  0
   -5.2253   17.1472   12.5249 C   0  0  1  0  0  0  0  0  0  0  0  0
   -4.9107   18.0605   13.6132 N   0  0  0  0  0  0  0  0  0  0  0  0
   -6.3022   17.7479   11.5821 C   0  0  0  0  0  0  0  0  0  0  0  0
   -5.4553   14.7564    7.4208 C   0  0  0  0  0  0  0  0  0  0  0  0
   -4.8425   15.5622    6.2984 C   0  0  0  0  0  0  0  0  0  0  0  0
   -3.9629   14.7817    5.4038 N   0  0  0  0  0  0  0  0  0  0  0  0
   -2.8121   14.0109    4.8804 C   0  0  0  0  0  0  0  0  0  0  0  0
   -3.4617   13.5480    3.5701 C   0  0  0  0  0  0  0  0  0  0  0  0
   -4.5395   12.4720    3.7994 C   0  0  0  0  0  0  0  0  0  0  0  0
   -5.0863   11.9514    2.4737 C   0  0  0  0  0  0  0  0  0  0  0  0
   -6.2736   11.1411    2.7061 N   0  0  0  0  0  0  0  0  0  0  0  0
   -9.9939   21.6859    7.4938 N   0  0  0  0  0  0  0  0  0  0  0  0
   -6.9739   18.7406    8.5630 C   0  0  0  0  0  0  0  0  0  0  0  0
   -6.0246   19.2531    8.5473 O   0  0  0  0  0  0  0  0  0  0  0  0
   -8.3336   18.8395    7.9157 C   0  0  2  0  0  0  0  0  0  0  0  0
   -8.6007   17.7340    7.1486 O   0  0  0  0  0  0  0  0  0  0  0  0
   -8.2859   20.0324    6.9673 C   0  0  0  0  0  0  0  0  0  0  0  0
   -9.6360   20.6317    6.5338 C   0  0  0  0  0  0  0  0  0  0  0  0
  1  2  1  1  0  0  0
  1  3  1  0  0  0  0
  3  4  1  1  0  0  0
  3  5  1  0  0  0  0
  5  6  1  1  0  0  0
  5  7  1  0  0  0  0
  7  8  1  1  0  0  0
  9  7  1  0  0  0  0
  9 10  1  0  0  0  0
  9 11  1  6  0  0  0
 10  1  1  0  0  0  0
 11 12  1  0  0  0  0
 13 14  1  6  0  0  0
 13 15  1  0  0  0  0
 13 22  1  0  0  0  0
 14 32  1  0  0  0  0
 15 16  1  6  0  0  0
 15 17  1  0  0  0  0
 16 23  1  0  0  0  0
 17 18  1  6  0  0  0
 17 19  1  0  0  0  0
 19  2  1  1  0  0  0
 19 20  1  0  0  0  0
 20 21  1  1  0  0  0
 20 22  1  0  0  0  0
 23 24  1  0  0  0  0
 24 25  1  0  0  0  0
 25 26  1  0  0  0  0
 26 27  1  0  0  0  0
 27 28  1  0  0  0  0
 28 29  1  0  0  0  0
 29 30  1  0  0  0  0
 31 37  1  0  0  0  0
 32 33  2  0  0  0  0
 34 32  1  6  0  0  0
 34 35  1  0  0  0  0
 34 36  1  0  0  0  0
 36 37  1  0  0  0  0
M  END
>  <CHROM.1>
176.23570955,177.66759132,-53.03195212,-177.01547956,-59.98061409,59.93841608
149.48784247,-71.37017832,171.13474251,-72.07791191,-175.40906094,-168.79587967
-64.26250247,-160.64882931,90.50936437,-4.22960660,16.73424043,9.58689351
-0.85798764,0.61041484,-2.23752874

>  <Name>
1o9m_lig

>  <RI>
0

>  <Rbt.Current_Directory>
/home/itssahil/PROJECTS/Mol_Feturizer/New_Systems/rnas/1o9m

>  <Rbt.Executable>
rbdock ($Id: //depot/dev/client3/rdock/2013.1/src/exe/rbdock.cxx#4 $)

>  <Rbt.Library>
libRbt.so (2013.1, Build901 2013/11/27)

>  <Rbt.Parameter_File>
/export/apps/rDock/src/rDock_2013.1_src/data/scripts/dock_solv.prm

>  <Rbt.Receptor>
prm/pocket_docking_5.prm

>  <SCORE>
-9.44066

>  <SCORE.INTER>
-3.38629

>  <SCORE.INTER.CONST>
1

>  <SCORE.INTER.POLAR>
-1.01017

>  <SCORE.INTER.ROT>
15

>  <SCORE.INTER.SOLV>
13.9671

>  <SCORE.INTER.VDW>
-17.146

>  <SCORE.INTER.norm>
-0.0915213

>  <SCORE.INTRA>
-6.118

>  <SCORE.INTRA.DIHEDRAL>
-12.4832

>  <SCORE.INTRA.DIHEDRAL.0>
21.5987

>  <SCORE.INTRA.POLAR>
0

>  <SCORE.INTRA.POLAR.0>
0

>  <SCORE.INTRA.REPUL>
0

>  <SCORE.INTRA.REPUL.0>
0

>  <SCORE.INTRA.SOLV>
-0.183788

>  <SCORE.INTRA.SOLV.lig_0>
-108.715

>  <SCORE.INTRA.VDW>
0.215478

>  <SCORE.INTRA.VDW.0>
-3.9485

>  <SCORE.INTRA.norm>
-0.165351

>  <SCORE.RESTR>
0.0636284

>  <SCORE.RESTR.CAVITY>
0.0636284

>  <SCORE.RESTR.norm>
0.00171969

>  <SCORE.SYSTEM>
0

>  <SCORE.SYSTEM.CONST>
0

>  <SCORE.SYSTEM.DIHEDRAL>
0

>  <SCORE.SYSTEM.SOLV>
0

>  <SCORE.SYSTEM.norm>
0

>  <SCORE.heavy>
37

>  <SCORE.norm>
-0.255153

>  <RMSD>
8.694

$$$$
1o9m_lig
 OpenBabel11021811403D
libRbt.so/2013.1/901 2013/11/27
 37 38  0  0  0  0  0  0  0  0999 V2000
   -6.5306   17.3182   10.1556 C   0  0  2  0  0  0  0  0  0  0  0  0
   -5.5436   17.3130    9.0796 O   0  0  0  0  0  0  0  0  0  0  0  0
   -6.6812   18.8157   10.6130 C   0  0  2  0  0  0  0  0  0  0  0  0
   -7.1090   19.6943    9.5102 N   0  0  0  0  0  0  0  0  0  0  0  0
   -5.3128   19.3084   11.2203 C   0  0  1  0  0  0  0  0  0  0  0  0
   -5.4247   20.6692   11.6459 O   0  0  0  0  0  0  0  0  0  0  0  0
   -4.9299   18.3503   12.3962 C   0  0  2  0  0  0  0  0  0  0  0  0
   -3.6813   18.6993   13.0157 O   0  0  0  0  0  0  0  0  0  0  0  0
   -4.8507   16.8845   11.9025 C   0  0  2  0  0  0  0  0  0  0  0  0
   -6.0805   16.4877   11.2783 O   0  0  0  0  0  0  0  0  0  0  0  0
   -4.5382   15.9334   13.0287 C   0  0  0  0  0  0  0  0  0  0  0  0
   -4.2232   14.6920   12.5296 N   0  0  0  0  0  0  0  0  0  0  0  0
   -6.2363   16.0632    4.9834 C   0  0  1  0  0  0  0  0  0  0  0  0
   -6.3740   15.1767    3.7940 N   0  0  0  0  0  0  0  0  0  0  0  0
   -7.2452   15.6306    6.0386 C   0  0  2  0  0  0  0  0  0  0  0  0
   -8.5177   15.6915    5.4664 O   0  0  0  0  0  0  0  0  0  0  0  0
   -7.1498   16.5460    7.2998 C   0  0  1  0  0  0  0  0  0  0  0  0
   -8.1064   16.1079    8.3124 O   0  0  0  0  0  0  0  0  0  0  0  0
   -5.6909   16.4603    7.9082 C   0  0  1  0  0  0  0  0  0  0  0  0
   -4.6747   16.9084    6.8688 C   0  0  1  0  0  0  0  0  0  0  0  0
   -3.3438   16.8363    7.4528 N   0  0  0  0  0  0  0  0  0  0  0  0
   -4.7830   16.0108    5.6071 C   0  0  0  0  0  0  0  0  0  0  0  0
   -9.7293   16.2722    4.9359 C   0  0  0  0  0  0  0  0  0  0  0  0
   -9.3725   17.2631    3.8518 C   0  0  0  0  0  0  0  0  0  0  0  0
  -10.4419   18.2355    3.5455 N   0  0  0  0  0  0  0  0  0  0  0  0
  -11.5144   19.2451    3.6974 C   0  0  0  0  0  0  0  0  0  0  0  0
  -10.6106   20.4629    3.9277 C   0  0  0  0  0  0  0  0  0  0  0  0
   -9.8754   20.8970    2.6459 C   0  0  0  0  0  0  0  0  0  0  0  0
   -8.9263   22.0586    2.9239 C   0  0  0  0  0  0  0  0  0  0  0  0
   -9.6806   23.2317    3.3422 N   0  0  0  0  0  0  0  0  0  0  0  0
   -6.9110    9.3861    2.7514 N   0  0  0  0  0  0  0  0  0  0  0  0
   -6.0942   13.4764    4.2152 C   0  0  0  0  0  0  0  0  0  0  0  0
   -5.8613   12.9446    5.1246 O   0  0  0  0  0  0  0  0  0  0  0  0
   -6.3156   13.1874    2.7506 C   0  0  2  0  0  0  0  0  0  0  0  0
   -7.6025   13.4790    2.3753 O   0  0  0  0  0  0  0  0  0  0  0  0
   -6.1322   11.6854    2.5637 C   0  0  0  0  0  0  0  0  0  0  0  0
   -7.3041   10.7825    2.9895 C   0  0  0  0  0  0  0  0  0  0  0  0
  1  2  1  6  0  0  0
  1  3  1  0  0  0  0
  3  4  1  6  0  0  0
  3  5  1  0  0  0  0
  5  6  1  1  0  0  0
  5  7  1  0  0  0  0
  7  8  1  6  0  0  0
  9  7  1  0  0  0  0
  9 10  1  0  0  0  0
  9 11  1  1  0  0  0
 10  1  1  0  0  0  0
 11 12  1  0  0  0  0
 13 14  1  6  0  0  0
 13 15  1  0  0  0  0
 13 22  1  0  0  0  0
 14 32  1  0  0  0  0
 15 16  1  6  0  0  0
 15 17  1  0  0  0  0
 16 23  1  0  0  0  0
 17 18  1  1  0  0  0
 17 19  1  0  0  0  0
 19  2  1  1  0  0  0
 19 20  1  0  0  0  0
 20 21  1  1  0  0  0
 20 22  1  0  0  0  0
 23 24  1  0  0  0  0
 24 25  1  0  0  0  0
 25 26  1  0  0  0  0
 26 27  1  0  0  0  0
 27 28  1  0  0  0  0
 28 29  1  0  0  0  0
 29 30  1  0  0  0  0
 31 37  1  0  0  0  0
 32 33  2  0  0  0  0
 34 32  1  1  0  0  0
 34 35  1  0  0  0  0
 34 36  1  0  0  0  0
 36 37  1  0  0  0  0
M  END
>  <CHROM.1>
-140.90049178,-168.51567839,-59.22617652,-73.19134429,54.31037560,47.34635774
-160.69110065,48.09305154,78.87085746,71.67823719,-176.79423523,-64.08840855
-65.11261029,78.13039574,-178.90520935,-6.85529595,16.70887958,6.82564345
-0.90389983,1.01165669,-2.46204632

>  <Name>
1o9m_lig

>  <RI>
0

>  <Rbt.Current_Directory>
/home/itssahil/PROJECTS/Mol_Feturizer/New_Systems/rnas/1o9m

>  <Rbt.Executable>
rbdock ($Id: //depot/dev/client3/rdock/2013.1/src/exe/rbdock.cxx#4 $)

>  <Rbt.Library>
libRbt.so (2013.1, Build901 2013/11/27)

>  <Rbt.Parameter_File>
/export/apps/rDock/src/rDock_2013.1_src/data/scripts/dock_solv.prm

>  <Rbt.Receptor>
prm/pocket_docking_5.prm

>  <SCORE>
-9.46979

>  <SCORE.INTER>
-6.48386

>  <SCORE.INTER.CONST>
1

>  <SCORE.INTER.POLAR>
-0.936141

>  <SCORE.INTER.ROT>
15

>  <SCORE.INTER.SOLV>
14.6518

>  <SCORE.INTER.VDW>
-19.6861

>  <SCORE.INTER.norm>
-0.17524

>  <SCORE.INTRA>
-2.98592

>  <SCORE.INTRA.DIHEDRAL>
-9.954

>  <SCORE.INTRA.DIHEDRAL.0>
21.5987

>  <SCORE.INTRA.POLAR>
0

>  <SCORE.INTRA.POLAR.0>
0

>  <SCORE.INTRA.REPUL>
0

>  <SCORE.INTRA.REPUL.0>
0

>  <SCORE.INTRA.SOLV>
0.87164

>  <SCORE.INTRA.SOLV.lig_0>
-108.715

>  <SCORE.INTRA.VDW>
1.55526

>  <SCORE.INTRA.VDW.0>
-3.9485

>  <SCORE.INTRA.norm>
-0.0807006

>  <SCORE.RESTR>
0

>  <SCORE.RESTR.CAVITY>
0

>  <SCORE.RESTR.norm>
0

>  <SCORE.SYSTEM>
0

>  <SCORE.SYSTEM.CONST>
0

>  <SCORE.SYSTEM.DIHEDRAL>
0

>  <SCORE.SYSTEM.SOLV>
0

>  <SCORE.SYSTEM.norm>
0

>  <SCORE.heavy>
37

>  <SCORE.norm>
-0.25594

>  <RMSD>
8.696

$$$$
1o9m_lig
 OpenBabel11021811403D
libRbt.so/2013.1/901 2013/11/27
 37 38  0  0  0  0  0  0  0  0999 V2000
  -10.2964   19.6369    7.5437 C   0  0  2  0  0  0  0  0  0  0  0  0
  -10.4975   18.9230    6.2859 O   0  0  0  0  0  0  0  0  0  0  0  0
  -11.6902   20.2542    7.9319 C   0  0  2  0  0  0  0  0  0  0  0  0
  -12.7335   19.2242    8.0792 N   0  0  0  0  0  0  0  0  0  0  0  0
  -12.1041   21.3159    6.8432 C   0  0  1  0  0  0  0  0  0  0  0  0
  -13.3696   21.8937    7.1751 O   0  0  0  0  0  0  0  0  0  0  0  0
  -10.9689   22.3886    6.7543 C   0  0  2  0  0  0  0  0  0  0  0  0
  -11.2363   23.4034    5.7727 O   0  0  0  0  0  0  0  0  0  0  0  0
   -9.6108   21.7206    6.4257 C   0  0  2  0  0  0  0  0  0  0  0  0
   -9.2976   20.6998    7.3845 O   0  0  0  0  0  0  0  0  0  0  0  0
   -8.4894   22.7264    6.3898 C   0  0  0  0  0  0  0  0  0  0  0  0
   -8.4004   23.3832    7.5939 N   0  0  0  0  0  0  0  0  0  0  0  0
   -7.9377   15.9781    4.3898 C   0  0  1  0  0  0  0  0  0  0  0  0
   -6.7973   15.3975    3.6269 N   0  0  0  0  0  0  0  0  0  0  0  0
   -7.3916   16.7181    5.6032 C   0  0  2  0  0  0  0  0  0  0  0  0
   -6.6447   15.8117    6.3586 O   0  0  0  0  0  0  0  0  0  0  0  0
   -8.5557   17.3293    6.4453 C   0  0  1  0  0  0  0  0  0  0  0  0
   -8.0186   18.0544    7.5935 O   0  0  0  0  0  0  0  0  0  0  0  0
   -9.3852   18.3376    5.5503 C   0  0  1  0  0  0  0  0  0  0  0  0
   -9.9522   17.6051    4.3437 C   0  0  1  0  0  0  0  0  0  0  0  0
  -10.7224   18.5456    3.5437 N   0  0  0  0  0  0  0  0  0  0  0  0
   -8.7962   16.9808    3.5172 C   0  0  0  0  0  0  0  0  0  0  0  0
   -5.8303   15.3102    7.4411 C   0  0  0  0  0  0  0  0  0  0  0  0
   -4.5959   16.1721    7.5752 C   0  0  0  0  0  0  0  0  0  0  0  0
   -3.5538   15.6035    8.4549 N   0  0  0  0  0  0  0  0  0  0  0  0
   -2.5620   14.6783    9.0488 C   0  0  0  0  0  0  0  0  0  0  0  0
   -1.3649   15.0851    8.1802 C   0  0  0  0  0  0  0  0  0  0  0  0
   -0.1199   14.2220    8.4582 C   0  0  0  0  0  0  0  0  0  0  0  0
    1.0434   14.6310    7.5600 C   0  0  0  0  0  0  0  0  0  0  0  0
    1.4800   15.9803    7.8903 N   0  0  0  0  0  0  0  0  0  0  0  0
   -2.0699   14.9481    5.2022 N   0  0  0  0  0  0  0  0  0  0  0  0
   -6.2483   13.8696    4.3416 C   0  0  0  0  0  0  0  0  0  0  0  0
   -6.5543   13.2684    5.1836 O   0  0  0  0  0  0  0  0  0  0  0  0
   -5.2011   13.8603    3.2549 C   0  0  2  0  0  0  0  0  0  0  0  0
   -4.7347   12.5909    3.0248 O   0  0  0  0  0  0  0  0  0  0  0  0
   -4.0210   14.6760    3.7712 C   0  0  0  0  0  0  0  0  0  0  0  0
   -3.2477   14.0993    4.9709 C   0  0  0  0  0  0  0  0  0  0  0  0
  1  2  1  6  0  0  0
  1  3  1  0  0  0  0
  3  4  1  6  0  0  0
  3  5  1  0  0  0  0
  5  6  1  1  0  0  0
  5  7  1  0  0  0  0
  7  8  1  6  0  0  0
  9  7  1  0  0  0  0
  9 10  1  0  0  0  0
  9 11  1  1  0  0  0
 10  1  1  0  0  0  0
 11 12  1  0  0  0  0
 13 14  1  6  0  0  0
 13 15  1  0  0  0  0
 13 22  1  0  0  0  0
 14 32  1  0  0  0  0
 15 16  1  1  0  0  0
 15 17  1  0  0  0  0
 16 23  1  0  0  0  0
 17 18  1  1  0  0  0
 17 19  1  0  0  0  0
 19  2  1  1  0  0  0
 19 20  1  0  0  0  0
 20 21  1  6  0  0  0
 20 22  1  0  0  0  0
 23 24  1  0  0  0  0
 24 25  1  0  0  0  0
 25 26  1  0  0  0  0
 26 27  1  0  0  0  0
 27 28  1  0  0  0  0
 28 29  1  0  0  0  0
 29 30  1  0  0  0  0
 31 37  1  0  0  0  0
 32 33  2  0  0  0  0
 34 32  1  1  0  0  0
 34 35  1  0  0  0  0
 34 36  1  0  0  0  0
 36 37  1  0  0  0  0
M  END
>  <CHROM.1>
173.54908190,57.89661111,81.39828062,-178.34004042,-55.78997617,55.88308836
-167.99836521,54.34778844,87.66098282,-175.75918669,178.82510246,65.76982007
-157.67933139,66.42570860,173.38277763,-7.04673225,17.44861025,6.21301747
-2.62653194,0.41161607,-2.49875536

>  <Name>
1o9m_lig

>  <RI>
0

>  <Rbt.Current_Directory>
/home/itssahil/PROJECTS/Mol_Feturizer/New_Systems/rnas/1o9m

>  <Rbt.Executable>
rbdock ($Id: //depot/dev/client3/rdock/2013.1/src/exe/rbdock.cxx#4 $)

>  <Rbt.Library>
libRbt.so (2013.1, Build901 2013/11/27)

>  <Rbt.Parameter_File>
/export/apps/rDock/src/rDock_2013.1_src/data/scripts/dock_solv.prm

>  <Rbt.Receptor>
prm/pocket_docking_8.prm

>  <SCORE>
-16.0938

>  <SCORE.INTER>
-9.31539

>  <SCORE.INTER.CONST>
1

>  <SCORE.INTER.POLAR>
-2.07208

>  <SCORE.INTER.ROT>
15

>  <SCORE.INTER.SOLV>
18.1861

>  <SCORE.INTER.VDW>
-18.9654

>  <SCORE.INTER.norm>
-0.251767

>  <SCORE.INTRA>
-6.7784

>  <SCORE.INTRA.DIHEDRAL>
-17.7712

>  <SCORE.INTRA.DIHEDRAL.0>
21.5987

>  <SCORE.INTRA.POLAR>
0

>  <SCORE.INTRA.POLAR.0>
0

>  <SCORE.INTRA.REPUL>
0

>  <SCORE.INTRA.REPUL.0>
0

>  <SCORE.INTRA.SOLV>
6.01692

>  <SCORE.INTRA.SOLV.lig_0>
-108.715

>  <SCORE.INTRA.VDW>
-0.901239

>  <SCORE.INTRA.VDW.0>
-3.9485

>  <SCORE.INTRA.norm>
-0.1832

>  <SCORE.RESTR>
0

>  <SCORE.RESTR.CAVITY>
0

>  <SCORE.RESTR.norm>
0

>  <SCORE.SYSTEM>
0

>  <SCORE.SYSTEM.CONST>
0

>  <SCORE.SYSTEM.DIHEDRAL>
0

>  <SCORE.SYSTEM.SOLV>
0

>  <SCORE.SYSTEM.norm>
0

>  <SCORE.heavy>
37

>  <SCORE.norm>
-0.434967

>  <RMSD>
8.703

$$$$
1o9m_lig
 OpenBabel11021811403D
libRbt.so/2013.1/901 2013/11/27
 37 38  0  0  0  0  0  0  0  0999 V2000
  -10.9096   19.8691    7.1804 C   0  0  2  0  0  0  0  0  0  0  0  0
  -10.9733   18.6908    6.3203 O   0  0  0  0  0  0  0  0  0  0  0  0
  -12.3973   20.3060    7.4459 C   0  0  2  0  0  0  0  0  0  0  0  0
  -13.1857   19.2375    8.0846 N   0  0  0  0  0  0  0  0  0  0  0  0
  -13.0553   20.7466    6.0833 C   0  0  1  0  0  0  0  0  0  0  0  0
  -14.4102   21.1508    6.2990 O   0  0  0  0  0  0  0  0  0  0  0  0
  -12.1855   21.8945    5.4724 C   0  0  2  0  0  0  0  0  0  0  0  0
  -12.6883   22.3639    4.2108 O   0  0  0  0  0  0  0  0  0  0  0  0
  -10.7205   21.4287    5.2848 C   0  0  2  0  0  0  0  0  0  0  0  0
  -10.1721   20.9537    6.5229 O   0  0  0  0  0  0  0  0  0  0  0  0
   -9.8483   22.5348    4.7495 C   0  0  0  0  0  0  0  0  0  0  0  0
   -9.7297   23.5398    5.6798 N   0  0  0  0  0  0  0  0  0  0  0  0
   -7.9820   15.9774    4.7358 C   0  0  1  0  0  0  0  0  0  0  0  0
   -6.7866   15.4907    3.9918 N   0  0  0  0  0  0  0  0  0  0  0  0
   -7.5347   17.0043    5.7673 C   0  0  2  0  0  0  0  0  0  0  0  0
   -6.5939   16.3946    6.6001 O   0  0  0  0  0  0  0  0  0  0  0  0
   -8.7556   17.5300    6.5862 C   0  0  1  0  0  0  0  0  0  0  0  0
   -8.3172   18.5294    7.5566 O   0  0  0  0  0  0  0  0  0  0  0  0
   -9.8033   18.1990    5.6060 C   0  0  1  0  0  0  0  0  0  0  0  0
  -10.2722   17.1769    4.5817 C   0  0  1  0  0  0  0  0  0  0  0  0
  -11.2443   17.8075    3.7013 N   0  0  0  0  0  0  0  0  0  0  0  0
   -9.0559   16.6396    3.7809 C   0  0  0  0  0  0  0  0  0  0  0  0
   -5.6724   16.2357    7.7011 C   0  0  0  0  0  0  0  0  0  0  0  0
   -5.0904   14.8412    7.6652 C   0  0  0  0  0  0  0  0  0  0  0  0
   -4.4819   14.4068    8.9395 N   0  0  0  0  0  0  0  0  0  0  0  0
   -3.6529   14.3729   10.1659 C   0  0  0  0  0  0  0  0  0  0  0  0
   -4.5119   15.3201   11.0133 C   0  0  0  0  0  0  0  0  0  0  0  0
   -4.0296   15.3986   12.4739 C   0  0  0  0  0  0  0  0  0  0  0  0
   -4.9735   16.2486   13.3188 C   0  0  0  0  0  0  0  0  0  0  0  0
   -4.9939   17.6173   12.8221 N   0  0  0  0  0  0  0  0  0  0  0  0
   -2.7139   12.9698    2.1179 N   0  0  0  0  0  0  0  0  0  0  0  0
   -6.2201   13.9318    4.6207 C   0  0  0  0  0  0  0  0  0  0  0  0
   -6.5455   13.2606    5.4003 O   0  0  0  0  0  0  0  0  0  0  0  0
   -5.1219   14.0356    3.5908 C   0  0  2  0  0  0  0  0  0  0  0  0
   -5.4168   13.2962    2.4735 O   0  0  0  0  0  0  0  0  0  0  0  0
   -3.8741   13.4171    4.2113 C   0  0  0  0  0  0  0  0  0  0  0  0
   -2.5533   13.5918    3.4402 C   0  0  0  0  0  0  0  0  0  0  0  0
  1  2  1  6  0  0  0
  1  3  1  0  0  0  0
  3  4  1  6  0  0  0
  3  5  1  0  0  0  0
  5  6  1  1  0  0  0
  5  7  1  0  0  0  0
  7  8  1  6  0  0  0
  9  7  1  0  0  0  0
  9 10  1  0  0  0  0
  9 11  1  1  0  0  0
 10  1  1  0  0  0  0
 11 12  1  0  0  0  0
 13 14  1  6  0  0  0
 13 15  1  0  0  0  0
 13 22  1  0  0  0  0
 14 32  1  0  0  0  0
 15 16  1  1  0  0  0
 15 17  1  0  0  0  0
 16 23  1  0  0  0  0
 17 18  1  1  0  0  0
 17 19  1  0  0  0  0
 19  2  1  1  0  0  0
 19 20  1  0  0  0  0
 20 21  1  6  0  0  0
 20 22  1  0  0  0  0
 23 24  1  0  0  0  0
 24 25  1  0  0  0  0
 25 26  1  0  0  0  0
 26 27  1  0  0  0  0
 27 28  1  0  0  0  0
 28 29  1  0  0  0  0
 29 30  1  0  0  0  0
 31 37  1  0  0  0  0
 32 33  2  0  0  0  0
 34 32  1  1  0  0  0
 34 35  1  0  0  0  0
 34 36  1  0  0  0  0
 36 37  1  0  0  0  0
M  END
>  <CHROM.1>
164.96390298,66.44833042,99.17221501,-175.04228215,177.47777331,71.71706612
-161.65643956,-51.96167235,78.75094655,172.97253307,-174.98515751,-62.57230635
-98.76319535,-170.93581216,-60.04859985,-8.02169980,17.37194549,6.38418843
-3.05674956,0.72887601,-1.85518544

>  <Name>
1o9m_lig

>  <RI>
0

>  <Rbt.Current_Directory>
/home/itssahil/PROJECTS/Mol_Feturizer/New_Systems/rnas/1o9m

>  <Rbt.Executable>
rbdock ($Id: //depot/dev/client3/rdock/2013.1/src/exe/rbdock.cxx#4 $)

>  <Rbt.Library>
libRbt.so (2013.1, Build901 2013/11/27)

>  <Rbt.Parameter_File>
/export/apps/rDock/src/rDock_2013.1_src/data/scripts/dock_solv.prm

>  <Rbt.Receptor>
prm/pocket_docking_5.prm

>  <SCORE>
-15.1925

>  <SCORE.INTER>
-8.27787

>  <SCORE.INTER.CONST>
1

>  <SCORE.INTER.POLAR>
-1.98511

>  <SCORE.INTER.ROT>
15

>  <SCORE.INTER.SOLV>
20.6873

>  <SCORE.INTER.VDW>
-19.3973

>  <SCORE.INTER.norm>
-0.223726

>  <SCORE.INTRA>
-6.91462

>  <SCORE.INTRA.DIHEDRAL>
-14.7701

>  <SCORE.INTRA.DIHEDRAL.0>
21.5987

>  <SCORE.INTRA.POLAR>
0

>  <SCORE.INTRA.POLAR.0>
0

>  <SCORE.INTRA.REPUL>
0

>  <SCORE.INTRA.REPUL.0>
0

>  <SCORE.INTRA.SOLV>
2.9427

>  <SCORE.INTRA.SOLV.lig_0>
-108.715

>  <SCORE.INTRA.VDW>
-1.00091

>  <SCORE.INTRA.VDW.0>
-3.9485

>  <SCORE.INTRA.norm>
-0.186882

>  <SCORE.RESTR>
0

>  <SCORE.RESTR.CAVITY>
0

>  <SCORE.RESTR.norm>
0

>  <SCORE.SYSTEM>
0

>  <SCORE.SYSTEM.CONST>
0

>  <SCORE.SYSTEM.DIHEDRAL>
0

>  <SCORE.SYSTEM.SOLV>
0

>  <SCORE.SYSTEM.norm>
0

>  <SCORE.heavy>
37

>  <SCORE.norm>
-0.410608

>  <RMSD>
8.721

$$$$
1o9m_lig
 OpenBabel11021811403D
libRbt.so/2013.1/901 2013/11/27
 37 38  0  0  0  0  0  0  0  0999 V2000
   -8.6211   19.8517    6.5407 C   0  0  2  0  0  0  0  0  0  0  0  0
   -7.7970   18.6598    6.7210 O   0  0  0  0  0  0  0  0  0  0  0  0
   -9.9064   19.6406    7.4227 C   0  0  2  0  0  0  0  0  0  0  0  0
   -9.5789   19.4448    8.8459 N   0  0  0  0  0  0  0  0  0  0  0  0
  -10.7186   18.4115    6.8628 C   0  0  1  0  0  0  0  0  0  0  0  0
  -11.8950   18.1998    7.6482 O   0  0  0  0  0  0  0  0  0  0  0  0
  -11.0529   18.6936    5.3607 C   0  0  2  0  0  0  0  0  0  0  0  0
  -11.7828   17.6220    4.7412 O   0  0  0  0  0  0  0  0  0  0  0  0
   -9.7573   18.9493    4.5517 C   0  0  2  0  0  0  0  0  0  0  0  0
   -8.9945   20.0176    5.1316 O   0  0  0  0  0  0  0  0  0  0  0  0
  -10.0554   19.2792    3.1119 C   0  0  0  0  0  0  0  0  0  0  0  0
  -10.5265   18.1667    2.4565 N   0  0  0  0  0  0  0  0  0  0  0  0
   -4.5831   17.8433    9.5182 C   0  0  1  0  0  0  0  0  0  0  0  0
   -3.8787   17.5835   10.8051 N   0  0  0  0  0  0  0  0  0  0  0  0
   -5.6305   16.7593    9.3033 C   0  0  2  0  0  0  0  0  0  0  0  0
   -4.9796   15.5239    9.3207 O   0  0  0  0  0  0  0  0  0  0  0  0
   -6.3834   16.9810    7.9537 C   0  0  1  0  0  0  0  0  0  0  0  0
   -7.3994   15.9483    7.7694 O   0  0  0  0  0  0  0  0  0  0  0  0
   -7.0937   18.3956    7.9686 C   0  0  1  0  0  0  0  0  0  0  0  0
   -6.0544   19.4890    8.1639 C   0  0  1  0  0  0  0  0  0  0  0  0
   -6.7258   20.7801    8.1595 N   0  0  0  0  0  0  0  0  0  0  0  0
   -5.2923   19.2576    9.4962 C   0  0  0  0  0  0  0  0  0  0  0  0
   -4.0025   14.5214    9.6770 C   0  0  0  0  0  0  0  0  0  0  0  0
   -2.6906   14.8424    8.9986 C   0  0  0  0  0  0  0  0  0  0  0  0
   -2.6835   14.5867    7.5435 N   0  0  0  0  0  0  0  0  0  0  0  0
   -2.2389   14.4636    6.1365 C   0  0  0  0  0  0  0  0  0  0  0  0
   -3.5340   13.8682    5.5696 C   0  0  0  0  0  0  0  0  0  0  0  0
   -3.3857   13.4390    4.0979 C   0  0  0  0  0  0  0  0  0  0  0  0
   -4.7310   13.0276    3.5077 C   0  0  0  0  0  0  0  0  0  0  0  0
   -5.2676   11.8854    4.2342 N   0  0  0  0  0  0  0  0  0  0  0  0
    0.6912   20.1345   13.3901 N   0  0  0  0  0  0  0  0  0  0  0  0
   -2.7734   18.9075   11.2196 C   0  0  0  0  0  0  0  0  0  0  0  0
   -2.5069   19.8489   10.7647 O   0  0  0  0  0  0  0  0  0  0  0  0
   -2.4149   18.0864   12.4340 C   0  0  2  0  0  0  0  0  0  0  0  0
   -3.2142   18.4043   13.5027 O   0  0  0  0  0  0  0  0  0  0  0  0
   -0.9903   18.4681   12.8209 C   0  0  0  0  0  0  0  0  0  0  0  0
   -0.7589   19.9186   13.2816 C   0  0  0  0  0  0  0  0  0  0  0  0
  1  2  1  6  0  0  0
  1  3  1  0  0  0  0
  3  4  1  1  0  0  0
  3  5  1  0  0  0  0
  5  6  1  1  0  0  0
  5  7  1  0  0  0  0
  7  8  1  6  0  0  0
  9  7  1  0  0  0  0
  9 10  1  0  0  0  0
  9 11  1  6  0  0  0
 10  1  1  0  0  0  0
 11 12  1  0  0  0  0
 13 14  1  1  0  0  0
 13 15  1  0  0  0  0
 13 22  1  0  0  0  0
 14 32  1  0  0  0  0
 15 16  1  6  0  0  0
 15 17  1  0  0  0  0
 16 23  1  0  0  0  0
 17 18  1  1  0  0  0
 17 19  1  0  0  0  0
 19  2  1  6  0  0  0
 19 20  1  0  0  0  0
 20 21  1  1  0  0  0
 20 22  1  0  0  0  0
 23 24  1  0  0  0  0
 24 25  1  0  0  0  0
 25 26  1  0  0  0  0
 26 27  1  0  0  0  0
 27 28  1  0  0  0  0
 28 29  1  0  0  0  0
 29 30  1  0  0  0  0
 31 37  1  0  0  0  0
 32 33  2  0  0  0  0
 34 32  1  6  0  0  0
 34 35  1  0  0  0  0
 34 36  1  0  0  0  0
 36 37  1  0  0  0  0
M  END
>  <CHROM.1>
-71.51246290,-69.91361650,-173.35970905,31.78074109,-73.75027894,174.74791047
-72.83093370,-177.27223007,175.42687220,-173.19953532,-172.37088766,-61.56420264
-91.06492434,64.51962973,-170.82808290,-5.94619228,17.55461627,7.97129870
2.69258350,0.52961226,-2.35560765

>  <Name>
1o9m_lig

>  <RI>
0

>  <Rbt.Current_Directory>
/home/itssahil/PROJECTS/Mol_Feturizer/New_Systems/rnas/1o9m

>  <Rbt.Executable>
rbdock ($Id: //depot/dev/client3/rdock/2013.1/src/exe/rbdock.cxx#4 $)

>  <Rbt.Library>
libRbt.so (2013.1, Build901 2013/11/27)

>  <Rbt.Parameter_File>
/export/apps/rDock/src/rDock_2013.1_src/data/scripts/dock_solv.prm

>  <Rbt.Receptor>
prm/pocket_docking_5.prm

>  <SCORE>
-8.5431

>  <SCORE.INTER>
-6.13356

>  <SCORE.INTER.CONST>
1

>  <SCORE.INTER.POLAR>
-2.5053

>  <SCORE.INTER.ROT>
15

>  <SCORE.INTER.SOLV>
17.5375

>  <SCORE.INTER.VDW>
-15.1839

>  <SCORE.INTER.norm>
-0.165772

>  <SCORE.INTRA>
-2.40954

>  <SCORE.INTRA.DIHEDRAL>
-13.3685

>  <SCORE.INTRA.DIHEDRAL.0>
21.5987

>  <SCORE.INTRA.POLAR>
0

>  <SCORE.INTRA.POLAR.0>
0

>  <SCORE.INTRA.REPUL>
0

>  <SCORE.INTRA.REPUL.0>
0

>  <SCORE.INTRA.SOLV>
5.42433

>  <SCORE.INTRA.SOLV.lig_0>
-108.715

>  <SCORE.INTRA.VDW>
1.56255

>  <SCORE.INTRA.VDW.0>
-3.9485

>  <SCORE.INTRA.norm>
-0.0651228

>  <SCORE.RESTR>
0

>  <SCORE.RESTR.CAVITY>
0

>  <SCORE.RESTR.norm>
0

>  <SCORE.SYSTEM>
0

>  <SCORE.SYSTEM.CONST>
0

>  <SCORE.SYSTEM.DIHEDRAL>
0

>  <SCORE.SYSTEM.SOLV>
0

>  <SCORE.SYSTEM.norm>
0

>  <SCORE.heavy>
37

>  <SCORE.norm>
-0.230895

>  <RMSD>
8.729

$$$$
1o9m_lig
 OpenBabel11021811403D
libRbt.so/2013.1/901 2013/11/27
 37 38  0  0  0  0  0  0  0  0999 V2000
   -4.5768   16.3143   10.1632 C   0  0  2  0  0  0  0  0  0  0  0  0
   -5.9292   16.1350    9.6426 O   0  0  0  0  0  0  0  0  0  0  0  0
   -4.4532   15.3682   11.4138 C   0  0  2  0  0  0  0  0  0  0  0  0
   -4.6953   13.9561   11.0696 N   0  0  0  0  0  0  0  0  0  0  0  0
   -5.4592   15.8517   12.5264 C   0  0  1  0  0  0  0  0  0  0  0  0
   -5.3643   15.0070   13.6766 O   0  0  0  0  0  0  0  0  0  0  0  0
   -5.1333   17.3449   12.8605 C   0  0  2  0  0  0  0  0  0  0  0  0
   -6.0076   17.8966   13.8586 O   0  0  0  0  0  0  0  0  0  0  0  0
   -5.2147   18.2201   11.5854 C   0  0  2  0  0  0  0  0  0  0  0  0
   -4.3523   17.7094   10.5584 O   0  0  0  0  0  0  0  0  0  0  0  0
   -4.8500   19.6542   11.8697 C   0  0  0  0  0  0  0  0  0  0  0  0
   -4.8790   20.3915   10.7100 N   0  0  0  0  0  0  0  0  0  0  0  0
   -7.4981   15.8653    5.6070 C   0  0  1  0  0  0  0  0  0  0  0  0
   -7.8565   16.2562    4.2148 N   0  0  0  0  0  0  0  0  0  0  0  0
   -5.9892   15.9787    5.7766 C   0  0  2  0  0  0  0  0  0  0  0  0
   -5.3867   15.1629    4.8166 O   0  0  0  0  0  0  0  0  0  0  0  0
   -5.5643   15.5598    7.2194 C   0  0  1  0  0  0  0  0  0  0  0  0
   -4.1186   15.6935    7.3764 O   0  0  0  0  0  0  0  0  0  0  0  0
   -6.2789   16.4972    8.2761 C   0  0  1  0  0  0  0  0  0  0  0  0
   -7.7882   16.3781    8.1290 C   0  0  1  0  0  0  0  0  0  0  0  0
   -8.4247   17.2350    9.1181 N   0  0  0  0  0  0  0  0  0  0  0  0
   -8.2087   16.7757    6.6887 C   0  0  0  0  0  0  0  0  0  0  0  0
   -4.9920   13.9527    4.1339 C   0  0  0  0  0  0  0  0  0  0  0  0
   -6.2277   13.1651    3.7635 C   0  0  0  0  0  0  0  0  0  0  0  0
   -5.9462   11.8647    3.1210 N   0  0  0  0  0  0  0  0  0  0  0  0
   -6.1022   10.6127    2.3460 C   0  0  0  0  0  0  0  0  0  0  0  0
   -7.4312   10.1601    2.9639 C   0  0  0  0  0  0  0  0  0  0  0  0
   -7.8762    8.7788    2.4481 C   0  0  0  0  0  0  0  0  0  0  0  0
   -9.2424    8.3971    3.0096 C   0  0  0  0  0  0  0  0  0  0  0  0
  -10.2611    9.3099    2.5105 N   0  0  0  0  0  0  0  0  0  0  0  0
  -10.2461   18.3242    4.7208 N   0  0  0  0  0  0  0  0  0  0  0  0
   -7.5468   17.9784    3.9234 C   0  0  0  0  0  0  0  0  0  0  0  0
   -7.1538   18.7926    4.5122 O   0  0  0  0  0  0  0  0  0  0  0  0
   -8.0941   17.7336    2.5384 C   0  0  2  0  0  0  0  0  0  0  0  0
   -7.2629   18.2500    1.5770 O   0  0  0  0  0  0  0  0  0  0  0  0
   -9.4090   18.4993    2.4411 C   0  0  0  0  0  0  0  0  0  0  0  0
  -10.5698   18.0045    3.3228 C   0  0  0  0  0  0  0  0  0  0  0  0
  1  2  1  1  0  0  0
  1  3  1  0  0  0  0
  3  4  1  6  0  0  0
  3  5  1  0  0  0  0
  5  6  1  1  0  0  0
  5  7  1  0  0  0  0
  7  8  1  1  0  0  0
  9  7  1  0  0  0  0
  9 10  1  0  0  0  0
  9 11  1  1  0  0  0
 10  1  1  0  0  0  0
 11 12  1  0  0  0  0
 13 14  1  6  0  0  0
 13 15  1  0  0  0  0
 13 22  1  0  0  0  0
 14 32  1  0  0  0  0
 15 16  1  6  0  0  0
 15 17  1  0  0  0  0
 16 23  1  0  0  0  0
 17 18  1  6  0  0  0
 17 19  1  0  0  0  0
 19  2  1  1  0  0  0
 19 20  1  0  0  0  0
 20 21  1  1  0  0  0
 20 22  1  0  0  0  0
 23 24  1  0  0  0  0
 24 25  1  0  0  0  0
 25 26  1  0  0  0  0
 26 27  1  0  0  0  0
 27 28  1  0  0  0  0
 28 29  1  0  0  0  0
 29 30  1  0  0  0  0
 31 37  1  0  0  0  0
 32 33  2  0  0  0  0
 34 32  1  1  0  0  0
 34 35  1  0  0  0  0
 34 36  1  0  0  0  0
 36 37  1  0  0  0  0
M  END
>  <CHROM.1>
-159.86861045,177.54985878,-66.91625953,-67.65346911,56.90508310,67.46799620
-176.86861561,-161.34234613,-47.85978192,-175.82229639,-176.30017735,65.09702188
-131.14558816,-67.16905995,70.65087231,-6.64034581,15.66017505,6.89170809
-0.77535254,1.20017727,-2.81132140

>  <Name>
1o9m_lig

>  <RI>
0

>  <Rbt.Current_Directory>
/home/itssahil/PROJECTS/Mol_Feturizer/New_Systems/rnas/1o9m

>  <Rbt.Executable>
rbdock ($Id: //depot/dev/client3/rdock/2013.1/src/exe/rbdock.cxx#4 $)

>  <Rbt.Library>
libRbt.so (2013.1, Build901 2013/11/27)

>  <Rbt.Parameter_File>
/export/apps/rDock/src/rDock_2013.1_src/data/scripts/dock_solv.prm

>  <Rbt.Receptor>
prm/pocket_docking_6.prm

>  <SCORE>
-15.4752

>  <SCORE.INTER>
-9.36188

>  <SCORE.INTER.CONST>
1

>  <SCORE.INTER.POLAR>
-0.821908

>  <SCORE.INTER.ROT>
15

>  <SCORE.INTER.SOLV>
18.868

>  <SCORE.INTER.VDW>
-23.3909

>  <SCORE.INTER.norm>
-0.253024

>  <SCORE.INTRA>
-6.11328

>  <SCORE.INTRA.DIHEDRAL>
-15.4597

>  <SCORE.INTRA.DIHEDRAL.0>
21.5987

>  <SCORE.INTRA.POLAR>
0

>  <SCORE.INTRA.POLAR.0>
0

>  <SCORE.INTRA.REPUL>
0

>  <SCORE.INTRA.REPUL.0>
0

>  <SCORE.INTRA.SOLV>
4.62618

>  <SCORE.INTRA.SOLV.lig_0>
-108.715

>  <SCORE.INTRA.VDW>
-0.696499

>  <SCORE.INTRA.VDW.0>
-3.9485

>  <SCORE.INTRA.norm>
-0.165224

>  <SCORE.RESTR>
0

>  <SCORE.RESTR.CAVITY>
0

>  <SCORE.RESTR.norm>
0

>  <SCORE.SYSTEM>
0

>  <SCORE.SYSTEM.CONST>
0

>  <SCORE.SYSTEM.DIHEDRAL>
0

>  <SCORE.SYSTEM.SOLV>
0

>  <SCORE.SYSTEM.norm>
0

>  <SCORE.heavy>
37

>  <SCORE.norm>
-0.418247

>  <RMSD>
8.731

$$$$
1o9m_lig
 OpenBabel11021811403D
libRbt.so/2013.1/901 2013/11/27
 37 38  0  0  0  0  0  0  0  0999 V2000
   -2.0644   15.5102   10.0005 C   0  0  2  0  0  0  0  0  0  0  0  0
   -2.4130   16.3279    8.8419 O   0  0  0  0  0  0  0  0  0  0  0  0
   -3.3936   15.3070   10.8168 C   0  0  2  0  0  0  0  0  0  0  0  0
   -4.4442   14.6540   10.0162 N   0  0  0  0  0  0  0  0  0  0  0  0
   -3.8877   16.7046   11.3521 C   0  0  1  0  0  0  0  0  0  0  0  0
   -5.0961   16.5459   12.1005 O   0  0  0  0  0  0  0  0  0  0  0  0
   -2.7385   17.3304   12.2096 C   0  0  2  0  0  0  0  0  0  0  0  0
   -3.0772   18.6234   12.7372 O   0  0  0  0  0  0  0  0  0  0  0  0
   -1.4402   17.4554   11.3747 C   0  0  2  0  0  0  0  0  0  0  0  0
   -1.0584   16.1842   10.8290 O   0  0  0  0  0  0  0  0  0  0  0  0
   -0.3011   18.0040   12.1945 C   0  0  0  0  0  0  0  0  0  0  0  0
   -0.5157   19.3315   12.4791 N   0  0  0  0  0  0  0  0  0  0  0  0
   -4.0982   15.6042    4.9104 C   0  0  1  0  0  0  0  0  0  0  0  0
   -5.0060   15.0835    3.8501 N   0  0  0  0  0  0  0  0  0  0  0  0
   -4.9137   16.4361    5.8909 C   0  0  2  0  0  0  0  0  0  0  0  0
   -5.5409   17.4553    5.1712 O   0  0  0  0  0  0  0  0  0  0  0  0
   -3.9979   17.0195    7.0128 C   0  0  1  0  0  0  0  0  0  0  0  0
   -4.7944   17.7967    7.9583 O   0  0  0  0  0  0  0  0  0  0  0  0
   -3.2954   15.8350    7.7934 C   0  0  1  0  0  0  0  0  0  0  0  0
   -2.4619   15.0072    6.8271 C   0  0  1  0  0  0  0  0  0  0  0  0
   -1.8140   13.9346    7.5668 N   0  0  0  0  0  0  0  0  0  0  0  0
   -3.3690   14.4435    5.7007 C   0  0  0  0  0  0  0  0  0  0  0  0
   -5.6796   18.6130    4.3184 C   0  0  0  0  0  0  0  0  0  0  0  0
   -7.0628   19.1966    4.4932 C   0  0  0  0  0  0  0  0  0  0  0  0
   -7.9928   18.8904    3.3867 N   0  0  0  0  0  0  0  0  0  0  0  0
   -8.6552   18.2115    2.2497 C   0  0  0  0  0  0  0  0  0  0  0  0
  -10.0379   18.0477    2.8935 C   0  0  0  0  0  0  0  0  0  0  0  0
  -10.0545   16.9489    3.9727 C   0  0  0  0  0  0  0  0  0  0  0  0
  -11.4811   16.6290    4.4086 C   0  0  0  0  0  0  0  0  0  0  0  0
  -12.1046   17.8113    4.9862 N   0  0  0  0  0  0  0  0  0  0  0  0
   -8.1817   10.5464    1.4200 N   0  0  0  0  0  0  0  0  0  0  0  0
   -5.8439   13.6116    4.3775 C   0  0  0  0  0  0  0  0  0  0  0  0
   -5.8541   13.0225    5.2813 O   0  0  0  0  0  0  0  0  0  0  0  0
   -6.4704   13.6036    3.0045 C   0  0  2  0  0  0  0  0  0  0  0  0
   -7.5527   14.4447    2.9470 O   0  0  0  0  0  0  0  0  0  0  0  0
   -6.9963   12.1924    2.7668 C   0  0  0  0  0  0  0  0  0  0  0  0
   -7.6206   11.9048    1.3893 C   0  0  0  0  0  0  0  0  0  0  0  0
  1  2  1  6  0  0  0
  1  3  1  0  0  0  0
  3  4  1  6  0  0  0
  3  5  1  0  0  0  0
  5  6  1  1  0  0  0
  5  7  1  0  0  0  0
  7  8  1  6  0  0  0
  9  7  1  0  0  0  0
  9 10  1  0  0  0  0
  9 11  1  1  0  0  0
 10  1  1  0  0  0  0
 11 12  1  0  0  0  0
 13 14  1  6  0  0  0
 13 15  1  0  0  0  0
 13 22  1  0  0  0  0
 14 32  1  0  0  0  0
 15 16  1  6  0  0  0
 15 17  1  0  0  0  0
 16 23  1  0  0  0  0
 17 18  1  1  0  0  0
 17 19  1  0  0  0  0
 19  2  1  1  0  0  0
 19 20  1  0  0  0  0
 20 21  1  1  0  0  0
 20 22  1  0  0  0  0
 23 24  1  0  0  0  0
 24 25  1  0  0  0  0
 25 26  1  0  0  0  0
 26 27  1  0  0  0  0
 27 28  1  0  0  0  0
 28 29  1  0  0  0  0
 29 30  1  0  0  0  0
 31 37  1  0  0  0  0
 32 33  2  0  0  0  0
 34 32  1  1  0  0  0
 34 35  1  0  0  0  0
 34 36  1  0  0  0  0
 36 37  1  0  0  0  0
M  END
>  <CHROM.1>
-66.07928962,-70.38695713,-82.86489393,-58.95835902,-162.89638055,155.93676661
-103.54534908,28.58252907,119.83231522,-73.82452415,-169.44439813,-61.33718870
-82.39226395,-176.80318147,-174.27273334,-5.18018338,16.07975391,6.76550787
-0.69031094,0.68393344,-2.43923032

>  <Name>
1o9m_lig

>  <RI>
0

>  <Rbt.Current_Directory>
/home/itssahil/PROJECTS/Mol_Feturizer/New_Systems/rnas/1o9m

>  <Rbt.Executable>
rbdock ($Id: //depot/dev/client3/rdock/2013.1/src/exe/rbdock.cxx#4 $)

>  <Rbt.Library>
libRbt.so (2013.1, Build901 2013/11/27)

>  <Rbt.Parameter_File>
/export/apps/rDock/src/rDock_2013.1_src/data/scripts/dock_solv.prm

>  <Rbt.Receptor>
prm/pocket_docking_4.prm

>  <SCORE>
-6.07675

>  <SCORE.INTER>
-5.46688

>  <SCORE.INTER.CONST>
1

>  <SCORE.INTER.POLAR>
-1.63155

>  <SCORE.INTER.ROT>
15

>  <SCORE.INTER.SOLV>
12.7845

>  <SCORE.INTER.VDW>
-16.0676

>  <SCORE.INTER.norm>
-0.147754

>  <SCORE.INTRA>
-0.621166

>  <SCORE.INTRA.DIHEDRAL>
-7.93483

>  <SCORE.INTRA.DIHEDRAL.0>
21.5987

>  <SCORE.INTRA.POLAR>
0

>  <SCORE.INTRA.POLAR.0>
0

>  <SCORE.INTRA.REPUL>
0

>  <SCORE.INTRA.REPUL.0>
0

>  <SCORE.INTRA.SOLV>
4.80717

>  <SCORE.INTRA.SOLV.lig_0>
-108.715

>  <SCORE.INTRA.VDW>
0.942666

>  <SCORE.INTRA.VDW.0>
-3.9485

>  <SCORE.INTRA.norm>
-0.0167883

>  <SCORE.RESTR>
0.0113012

>  <SCORE.RESTR.CAVITY>
0.0113012

>  <SCORE.RESTR.norm>
0.000305438

>  <SCORE.SYSTEM>
0

>  <SCORE.SYSTEM.CONST>
0

>  <SCORE.SYSTEM.DIHEDRAL>
0

>  <SCORE.SYSTEM.SOLV>
0

>  <SCORE.SYSTEM.norm>
0

>  <SCORE.heavy>
37

>  <SCORE.norm>
-0.164236

>  <RMSD>
8.732

$$$$
1o9m_lig
 OpenBabel11021811403D
libRbt.so/2013.1/901 2013/11/27
 37 38  0  0  0  0  0  0  0  0999 V2000
   -3.5515   18.1405    9.7943 C   0  0  2  0  0  0  0  0  0  0  0  0
   -4.6482   17.1941    9.9777 O   0  0  0  0  0  0  0  0  0  0  0  0
   -3.1149   18.5988   11.2344 C   0  0  2  0  0  0  0  0  0  0  0  0
   -2.6891   17.4654   12.0741 N   0  0  0  0  0  0  0  0  0  0  0  0
   -4.3070   19.3772   11.9104 C   0  0  1  0  0  0  0  0  0  0  0  0
   -3.9334   19.8066   13.2224 O   0  0  0  0  0  0  0  0  0  0  0  0
   -4.6925   20.5764   10.9827 C   0  0  2  0  0  0  0  0  0  0  0  0
   -5.7883   21.3501   11.4979 O   0  0  0  0  0  0  0  0  0  0  0  0
   -5.0585   20.0739    9.5643 C   0  0  2  0  0  0  0  0  0  0  0  0
   -3.9892   19.2972    9.0049 O   0  0  0  0  0  0  0  0  0  0  0  0
   -5.3798   21.2152    8.6344 C   0  0  0  0  0  0  0  0  0  0  0  0
   -5.7363   20.7349    7.3968 N   0  0  0  0  0  0  0  0  0  0  0  0
   -4.5682   14.7734    6.3785 C   0  0  1  0  0  0  0  0  0  0  0  0
   -4.7831   13.6180    5.4628 N   0  0  0  0  0  0  0  0  0  0  0  0
   -5.9211   15.2675    6.8726 C   0  0  2  0  0  0  0  0  0  0  0  0
   -6.6901   15.6016    5.7558 O   0  0  0  0  0  0  0  0  0  0  0  0
   -5.7458   16.4932    7.8237 C   0  0  1  0  0  0  0  0  0  0  0  0
   -7.0478   16.9439    8.3077 O   0  0  0  0  0  0  0  0  0  0  0  0
   -4.8578   16.0776    9.0664 C   0  0  1  0  0  0  0  0  0  0  0  0
   -3.4958   15.5997    8.5863 C   0  0  1  0  0  0  0  0  0  0  0  0
   -2.6914   15.2374    9.7436 N   0  0  0  0  0  0  0  0  0  0  0  0
   -3.6710   14.3935    7.6253 C   0  0  0  0  0  0  0  0  0  0  0  0
   -7.2727   15.4878    4.4389 C   0  0  0  0  0  0  0  0  0  0  0  0
   -8.5664   16.2682    4.3983 C   0  0  0  0  0  0  0  0  0  0  0  0
   -8.4553   17.6504    4.9082 N   0  0  0  0  0  0  0  0  0  0  0  0
   -8.3556   18.8118    5.8213 C   0  0  0  0  0  0  0  0  0  0  0  0
   -9.3282   19.7350    5.0764 C   0  0  0  0  0  0  0  0  0  0  0  0
   -9.5306   21.0790    5.8008 C   0  0  0  0  0  0  0  0  0  0  0  0
  -10.6594   20.9874    6.8229 C   0  0  0  0  0  0  0  0  0  0  0  0
  -10.8883   22.2893    7.4335 N   0  0  0  0  0  0  0  0  0  0  0  0
   -7.2690   11.0286    3.1944 N   0  0  0  0  0  0  0  0  0  0  0  0
   -3.7979   13.7607    3.9946 C   0  0  0  0  0  0  0  0  0  0  0  0
   -3.0813   14.4771    3.6240 O   0  0  0  0  0  0  0  0  0  0  0  0
   -4.4480   12.4697    3.5606 C   0  0  2  0  0  0  0  0  0  0  0  0
   -3.6410   11.7722    2.6979 O   0  0  0  0  0  0  0  0  0  0  0  0
   -5.7031   12.8469    2.7815 C   0  0  0  0  0  0  0  0  0  0  0  0
   -6.4950   11.6949    2.1369 C   0  0  0  0  0  0  0  0  0  0  0  0
  1  2  1  1  0  0  0
  1  3  1  0  0  0  0
  3  4  1  1  0  0  0
  3  5  1  0  0  0  0
  5  6  1  1  0  0  0
  5  7  1  0  0  0  0
  7  8  1  1  0  0  0
  9  7  1  0  0  0  0
  9 10  1  0  0  0  0
  9 11  1  6  0  0  0
 10  1  1  0  0  0  0
 11 12  1  0  0  0  0
 13 14  1  6  0  0  0
 13 15  1  0  0  0  0
 13 22  1  0  0  0  0
 14 32  1  0  0  0  0
 15 16  1  6  0  0  0
 15 17  1  0  0  0  0
 16 23  1  0  0  0  0
 17 18  1  1  0  0  0
 17 19  1  0  0  0  0
 19  2  1  1  0  0  0
 19 20  1  0  0  0  0
 20 21  1  1  0  0  0
 20 22  1  0  0  0  0
 23 24  1  0  0  0  0
 24 25  1  0  0  0  0
 25 26  1  0  0  0  0
 26 27  1  0  0  0  0
 27 28  1  0  0  0  0
 28 29  1  0  0  0  0
 29 30  1  0  0  0  0
 31 37  1  0  0  0  0
 32 33  2  0  0  0  0
 34 32  1  6  0  0  0
 34 35  1  0  0  0  0
 34 36  1  0  0  0  0
 36 37  1  0  0  0  0
M  END
>  <CHROM.1>
-147.44993154,-178.31220557,134.53478743,43.50745953,155.02449669,-86.91223072
50.03361023,-77.88423349,-137.38960814,177.55484298,-88.06778475,-176.41542302
-153.44637650,175.59104307,77.33962781,-5.67844228,16.99171928,7.23738276
-1.57444375,0.67495224,-2.38230599

>  <Name>
1o9m_lig

>  <RI>
0

>  <Rbt.Current_Directory>
/home/itssahil/PROJECTS/Mol_Feturizer/New_Systems/rnas/1o9m

>  <Rbt.Executable>
rbdock ($Id: //depot/dev/client3/rdock/2013.1/src/exe/rbdock.cxx#4 $)

>  <Rbt.Library>
libRbt.so (2013.1, Build901 2013/11/27)

>  <Rbt.Parameter_File>
/export/apps/rDock/src/rDock_2013.1_src/data/scripts/dock_solv.prm

>  <Rbt.Receptor>
prm/pocket_docking_3.prm

>  <SCORE>
-3.87949

>  <SCORE.INTER>
-5.44067

>  <SCORE.INTER.CONST>
1

>  <SCORE.INTER.POLAR>
-1.49335

>  <SCORE.INTER.ROT>
15

>  <SCORE.INTER.SOLV>
13.8495

>  <SCORE.INTER.VDW>
-16.8658

>  <SCORE.INTER.norm>
-0.147045

>  <SCORE.INTRA>
0.490344

>  <SCORE.INTRA.DIHEDRAL>
-2.3157

>  <SCORE.INTRA.DIHEDRAL.0>
21.5987

>  <SCORE.INTRA.POLAR>
0

>  <SCORE.INTRA.POLAR.0>
0

>  <SCORE.INTRA.REPUL>
0

>  <SCORE.INTRA.REPUL.0>
0

>  <SCORE.INTRA.SOLV>
4.63945

>  <SCORE.INTRA.SOLV.lig_0>
-108.715

>  <SCORE.INTRA.VDW>
-0.671531

>  <SCORE.INTRA.VDW.0>
-3.9485

>  <SCORE.INTRA.norm>
0.0132525

>  <SCORE.RESTR>
1.07083

>  <SCORE.RESTR.CAVITY>
1.07083

>  <SCORE.RESTR.norm>
0.0289414

>  <SCORE.SYSTEM>
0

>  <SCORE.SYSTEM.CONST>
0

>  <SCORE.SYSTEM.DIHEDRAL>
0

>  <SCORE.SYSTEM.SOLV>
0

>  <SCORE.SYSTEM.norm>
0

>  <SCORE.heavy>
37

>  <SCORE.norm>
-0.104851

>  <RMSD>
8.733

$$$$
1o9m_lig
 OpenBabel11021811403D
libRbt.so/2013.1/901 2013/11/27
 37 38  0  0  0  0  0  0  0  0999 V2000
  -11.0370   18.5120    6.6468 C   0  0  2  0  0  0  0  0  0  0  0  0
   -9.9895   19.5291    6.6221 O   0  0  0  0  0  0  0  0  0  0  0  0
  -11.6095   18.4285    5.1840 C   0  0  2  0  0  0  0  0  0  0  0  0
  -10.5705   18.0817    4.1986 N   0  0  0  0  0  0  0  0  0  0  0  0
  -12.2891   19.8026    4.8181 C   0  0  1  0  0  0  0  0  0  0  0  0
  -12.8199   19.7513    3.4910 O   0  0  0  0  0  0  0  0  0  0  0  0
  -13.3934   20.0982    5.8861 C   0  0  2  0  0  0  0  0  0  0  0  0
  -14.0707   21.3448    5.6574 O   0  0  0  0  0  0  0  0  0  0  0  0
  -12.7855   20.1133    7.3104 C   0  0  2  0  0  0  0  0  0  0  0  0
  -12.1002   18.8832    7.5872 O   0  0  0  0  0  0  0  0  0  0  0  0
  -13.8390   20.3405    8.3635 C   0  0  0  0  0  0  0  0  0  0  0  0
  -14.4068   21.5826    8.2084 N   0  0  0  0  0  0  0  0  0  0  0  0
   -6.3222   20.1537    8.8540 C   0  0  1  0  0  0  0  0  0  0  0  0
   -5.4021   20.3514   10.0089 N   0  0  0  0  0  0  0  0  0  0  0  0
   -7.0329   18.8167    9.0148 C   0  0  2  0  0  0  0  0  0  0  0  0
   -6.0584   17.8204    9.1033 O   0  0  0  0  0  0  0  0  0  0  0  0
   -7.9967   18.5576    7.8142 C   0  0  1  0  0  0  0  0  0  0  0  0
   -8.6882   17.2835    7.9907 O   0  0  0  0  0  0  0  0  0  0  0  0
   -9.0746   19.7145    7.7399 C   0  0  1  0  0  0  0  0  0  0  0  0
   -8.3770   21.0543    7.5601 C   0  0  1  0  0  0  0  0  0  0  0  0
   -9.3851   22.1006    7.4793 N   0  0  0  0  0  0  0  0  0  0  0  0
   -7.4041   21.3030    8.7437 C   0  0  0  0  0  0  0  0  0  0  0  0
   -4.9314   17.0013    8.7218 C   0  0  0  0  0  0  0  0  0  0  0  0
   -5.2625   16.2634    7.4450 C   0  0  0  0  0  0  0  0  0  0  0  0
   -4.0872   15.6972    6.7514 N   0  0  0  0  0  0  0  0  0  0  0  0
   -2.9441   14.8246    6.3990 C   0  0  0  0  0  0  0  0  0  0  0  0
   -2.2118   15.8149    5.4846 C   0  0  0  0  0  0  0  0  0  0  0  0
   -0.7969   15.3327    5.1135 C   0  0  0  0  0  0  0  0  0  0  0  0
   -0.0898   16.3440    4.2165 C   0  0  0  0  0  0  0  0  0  0  0  0
    0.0572   17.6140    4.9135 N   0  0  0  0  0  0  0  0  0  0  0  0
   -4.3529   17.9947   13.8565 N   0  0  0  0  0  0  0  0  0  0  0  0
   -3.7110   20.0829    9.5458 C   0  0  0  0  0  0  0  0  0  0  0  0
   -3.2034   19.8235    8.6297 O   0  0  0  0  0  0  0  0  0  0  0  0
   -3.3811   20.3653   10.9911 C   0  0  2  0  0  0  0  0  0  0  0  0
   -2.0349   20.5644   11.1640 O   0  0  0  0  0  0  0  0  0  0  0  0
   -3.7459   19.1130   11.7806 C   0  0  0  0  0  0  0  0  0  0  0  0
   -3.8228   19.2530   13.3117 C   0  0  0  0  0  0  0  0  0  0  0  0
  1  2  1  6  0  0  0
  1  3  1  0  0  0  0
  3  4  1  6  0  0  0
  3  5  1  0  0  0  0
  5  6  1  6  0  0  0
  5  7  1  0  0  0  0
  7  8  1  6  0  0  0
  9  7  1  0  0  0  0
  9 10  1  0  0  0  0
  9 11  1  1  0  0  0
 10  1  1  0  0  0  0
 11 12  1  0  0  0  0
 13 14  1  1  0  0  0
 13 15  1  0  0  0  0
 13 22  1  0  0  0  0
 14 32  1  0  0  0  0
 15 16  1  6  0  0  0
 15 17  1  0  0  0  0
 16 23  1  0  0  0  0
 17 18  1  1  0  0  0
 17 19  1  0  0  0  0
 19  2  1  6  0  0  0
 19 20  1  0  0  0  0
 20 21  1  1  0  0  0
 20 22  1  0  0  0  0
 23 24  1  0  0  0  0
 24 25  1  0  0  0  0
 25 26  1  0  0  0  0
 26 27  1  0  0  0  0
 27 28  1  0  0  0  0
 28 29  1  0  0  0  0
 29 30  1  0  0  0  0
 31 37  1  0  0  0  0
 32 33  2  0  0  0  0
 34 32  1  6  0  0  0
 34 35  1  0  0  0  0
 34 36  1  0  0  0  0
 36 37  1  0  0  0  0
M  END
>  <CHROM.1>
-168.94417747,-63.77559482,104.55697524,-58.31873889,-61.15448753,74.07987721
163.76498511,75.53154991,-161.38310496,169.47479428,-179.41634922,61.41645486
-167.04282016,-165.80918879,172.77228661,-7.28451161,18.90593326,7.73916285
-3.07389515,-0.28950240,1.11811122

>  <Name>
1o9m_lig

>  <RI>
0

>  <Rbt.Current_Directory>
/home/itssahil/PROJECTS/Mol_Feturizer/New_Systems/rnas/1o9m

>  <Rbt.Executable>
rbdock ($Id: //depot/dev/client3/rdock/2013.1/src/exe/rbdock.cxx#4 $)

>  <Rbt.Library>
libRbt.so (2013.1, Build901 2013/11/27)

>  <Rbt.Parameter_File>
/export/apps/rDock/src/rDock_2013.1_src/data/scripts/dock_solv.prm

>  <Rbt.Receptor>
prm/pocket_docking_5.prm

>  <SCORE>
-10.9196

>  <SCORE.INTER>
-3.57601

>  <SCORE.INTER.CONST>
1

>  <SCORE.INTER.POLAR>
-1.58045

>  <SCORE.INTER.ROT>
15

>  <SCORE.INTER.SOLV>
15.79

>  <SCORE.INTER.VDW>
-15.9792

>  <SCORE.INTER.norm>
-0.0966489

>  <SCORE.INTRA>
-7.34362

>  <SCORE.INTRA.DIHEDRAL>
-15.1831

>  <SCORE.INTRA.DIHEDRAL.0>
21.5987

>  <SCORE.INTRA.POLAR>
0

>  <SCORE.INTRA.POLAR.0>
0

>  <SCORE.INTRA.REPUL>
0

>  <SCORE.INTRA.REPUL.0>
0

>  <SCORE.INTRA.SOLV>
0.581378

>  <SCORE.INTRA.SOLV.lig_0>
-108.715

>  <SCORE.INTRA.VDW>
-0.0427802

>  <SCORE.INTRA.VDW.0>
-3.9485

>  <SCORE.INTRA.norm>
-0.198476

>  <SCORE.RESTR>
0

>  <SCORE.RESTR.CAVITY>
0

>  <SCORE.RESTR.norm>
0

>  <SCORE.SYSTEM>
0

>  <SCORE.SYSTEM.CONST>
0

>  <SCORE.SYSTEM.DIHEDRAL>
0

>  <SCORE.SYSTEM.SOLV>
0

>  <SCORE.SYSTEM.norm>
0

>  <SCORE.heavy>
37

>  <SCORE.norm>
-0.295125

>  <RMSD>
8.735

$$$$
1o9m_lig
 OpenBabel11021811403D
libRbt.so/2013.1/901 2013/11/27
 37 38  0  0  0  0  0  0  0  0999 V2000
  -11.2700   20.6123    6.8816 C   0  0  2  0  0  0  0  0  0  0  0  0
  -11.4558   19.2951    6.2794 O   0  0  0  0  0  0  0  0  0  0  0  0
  -12.6656   21.0303    7.4749 C   0  0  2  0  0  0  0  0  0  0  0  0
  -13.1569   20.0658    8.4746 N   0  0  0  0  0  0  0  0  0  0  0  0
  -13.6997   21.1877    6.2961 C   0  0  1  0  0  0  0  0  0  0  0  0
  -14.9783   21.5697    6.8106 O   0  0  0  0  0  0  0  0  0  0  0  0
  -13.1300   22.2386    5.2869 C   0  0  2  0  0  0  0  0  0  0  0  0
  -13.9908   22.4489    4.1557 O   0  0  0  0  0  0  0  0  0  0  0  0
  -11.7328   21.8056    4.7784 C   0  0  2  0  0  0  0  0  0  0  0  0
  -10.8340   21.5873    5.8756 O   0  0  0  0  0  0  0  0  0  0  0  0
  -11.1369   22.8294    3.8470 C   0  0  0  0  0  0  0  0  0  0  0  0
   -9.9645   22.3565    3.3073 N   0  0  0  0  0  0  0  0  0  0  0  0
   -8.5079   16.1263    5.9808 C   0  0  1  0  0  0  0  0  0  0  0  0
   -7.3590   15.3258    5.4721 N   0  0  0  0  0  0  0  0  0  0  0  0
   -8.0159   17.5235    6.3333 C   0  0  2  0  0  0  0  0  0  0  0  0
   -6.9921   17.3936    7.2741 O   0  0  0  0  0  0  0  0  0  0  0  0
   -9.1857   18.3951    6.8898 C   0  0  1  0  0  0  0  0  0  0  0  0
   -8.7065   19.7384    7.2036 O   0  0  0  0  0  0  0  0  0  0  0  0
  -10.3297   18.5051    5.8013 C   0  0  1  0  0  0  0  0  0  0  0  0
  -10.8427   17.1157    5.4545 C   0  0  1  0  0  0  0  0  0  0  0  0
  -11.9023   17.2407    4.4649 N   0  0  0  0  0  0  0  0  0  0  0  0
   -9.6758   16.2431    4.9197 C   0  0  0  0  0  0  0  0  0  0  0  0
   -6.2246   16.8291    8.3598 C   0  0  0  0  0  0  0  0  0  0  0  0
   -5.5585   15.5567    7.8890 C   0  0  0  0  0  0  0  0  0  0  0  0
   -4.7250   14.8952    8.9140 N   0  0  0  0  0  0  0  0  0  0  0  0
   -3.6041   14.5747    9.8269 C   0  0  0  0  0  0  0  0  0  0  0  0
   -2.5527   14.2699    8.7523 C   0  0  0  0  0  0  0  0  0  0  0  0
   -2.0193   15.5469    8.0764 C   0  0  0  0  0  0  0  0  0  0  0  0
   -0.9507   15.2141    7.0398 C   0  0  0  0  0  0  0  0  0  0  0  0
   -0.3542   16.4388    6.5254 N   0  0  0  0  0  0  0  0  0  0  0  0
   -5.4280   11.8943    4.4009 N   0  0  0  0  0  0  0  0  0  0  0  0
   -6.6185   16.0836    4.0494 C   0  0  0  0  0  0  0  0  0  0  0  0
   -6.8007   16.9840    3.4836 O   0  0  0  0  0  0  0  0  0  0  0  0
   -5.6869   14.8963    4.0337 C   0  0  2  0  0  0  0  0  0  0  0  0
   -4.5164   15.1915    3.3820 O   0  0  0  0  0  0  0  0  0  0  0  0
   -6.3774   13.8035    3.2253 C   0  0  0  0  0  0  0  0  0  0  0  0
   -5.6198   12.4732    3.0633 C   0  0  0  0  0  0  0  0  0  0  0  0
  1  2  1  6  0  0  0
  1  3  1  0  0  0  0
  3  4  1  1  0  0  0
  3  5  1  0  0  0  0
  5  6  1  1  0  0  0
  5  7  1  0  0  0  0
  7  8  1  6  0  0  0
  9  7  1  0  0  0  0
  9 10  1  0  0  0  0
  9 11  1  6  0  0  0
 10  1  1  0  0  0  0
 11 12  1  0  0  0  0
 13 14  1  6  0  0  0
 13 15  1  0  0  0  0
 13 22  1  0  0  0  0
 14 32  1  0  0  0  0
 15 16  1  1  0  0  0
 15 17  1  0  0  0  0
 16 23  1  0  0  0  0
 17 18  1  6  0  0  0
 17 19  1  0  0  0  0
 19  2  1  1  0  0  0
 19 20  1  0  0  0  0
 20 21  1  6  0  0  0
 20 22  1  0  0  0  0
 23 24  1  0  0  0  0
 24 25  1  0  0  0  0
 25 26  1  0  0  0  0
 26 27  1  0  0  0  0
 27 28  1  0  0  0  0
 28 29  1  0  0  0  0
 29 30  1  0  0  0  0
 31 37  1  0  0  0  0
 32 33  2  0  0  0  0
 34 32  1  6  0  0  0
 34 35  1  0  0  0  0
 34 36  1  0  0  0  0
 36 37  1  0  0  0  0
M  END
>  <CHROM.1>
-170.89957277,-173.83671368,-58.55024003,-29.52206768,70.30338950,49.96082845
179.17508367,-76.41305355,-63.87243539,75.00809553,178.51541386,-173.53109680
-156.78745404,-179.91638450,61.94907029,-8.29142174,17.73606663,5.94955508
-2.87090773,0.58947053,-2.14142207

>  <Name>
1o9m_lig

>  <RI>
0

>  <Rbt.Current_Directory>
/home/itssahil/PROJECTS/Mol_Feturizer/New_Systems/rnas/1o9m

>  <Rbt.Executable>
rbdock ($Id: //depot/dev/client3/rdock/2013.1/src/exe/rbdock.cxx#4 $)

>  <Rbt.Library>
libRbt.so (2013.1, Build901 2013/11/27)

>  <Rbt.Parameter_File>
/export/apps/rDock/src/rDock_2013.1_src/data/scripts/dock_solv.prm

>  <Rbt.Receptor>
prm/pocket_docking_6.prm

>  <SCORE>
-11.2472

>  <SCORE.INTER>
-4.7494

>  <SCORE.INTER.CONST>
1

>  <SCORE.INTER.POLAR>
-2.14075

>  <SCORE.INTER.ROT>
15

>  <SCORE.INTER.SOLV>
17.0502

>  <SCORE.INTER.VDW>
-15.3138

>  <SCORE.INTER.norm>
-0.128362

>  <SCORE.INTRA>
-6.49779

>  <SCORE.INTRA.DIHEDRAL>
-13.6215

>  <SCORE.INTRA.DIHEDRAL.0>
21.5987

>  <SCORE.INTRA.POLAR>
0

>  <SCORE.INTRA.POLAR.0>
0

>  <SCORE.INTRA.REPUL>
0

>  <SCORE.INTRA.REPUL.0>
0

>  <SCORE.INTRA.SOLV>
0.195251

>  <SCORE.INTRA.SOLV.lig_0>
-108.715

>  <SCORE.INTRA.VDW>
0.215342

>  <SCORE.INTRA.VDW.0>
-3.9485

>  <SCORE.INTRA.norm>
-0.175616

>  <SCORE.RESTR>
0

>  <SCORE.RESTR.CAVITY>
0

>  <SCORE.RESTR.norm>
0

>  <SCORE.SYSTEM>
0

>  <SCORE.SYSTEM.CONST>
0

>  <SCORE.SYSTEM.DIHEDRAL>
0

>  <SCORE.SYSTEM.SOLV>
0

>  <SCORE.SYSTEM.norm>
0

>  <SCORE.heavy>
37

>  <SCORE.norm>
-0.303978

>  <RMSD>
8.740

$$$$
1o9m_lig
 OpenBabel11021811403D
libRbt.so/2013.1/901 2013/11/27
 37 38  0  0  0  0  0  0  0  0999 V2000
  -10.8399   21.5648    7.1837 C   0  0  2  0  0  0  0  0  0  0  0  0
  -10.2714   20.5876    6.2595 O   0  0  0  0  0  0  0  0  0  0  0  0
  -12.1521   22.1061    6.5059 C   0  0  2  0  0  0  0  0  0  0  0  0
  -13.1191   21.0300    6.2268 N   0  0  0  0  0  0  0  0  0  0  0  0
  -11.7699   22.8701    5.1815 C   0  0  1  0  0  0  0  0  0  0  0  0
  -12.9480   23.3743    4.5464 O   0  0  0  0  0  0  0  0  0  0  0  0
  -10.7632   24.0093    5.5509 C   0  0  2  0  0  0  0  0  0  0  0  0
  -10.3319   24.7647    4.4071 O   0  0  0  0  0  0  0  0  0  0  0  0
   -9.5180   23.4275    6.2645 C   0  0  2  0  0  0  0  0  0  0  0  0
   -9.8994   22.6660    7.4195 O   0  0  0  0  0  0  0  0  0  0  0  0
   -8.5576   24.5111    6.6815 C   0  0  0  0  0  0  0  0  0  0  0  0
   -7.3892   23.9578    7.1483 N   0  0  0  0  0  0  0  0  0  0  0  0
   -7.2916   17.4756    6.7657 C   0  0  1  0  0  0  0  0  0  0  0  0
   -5.9780   16.8240    7.0297 N   0  0  0  0  0  0  0  0  0  0  0  0
   -7.6998   18.2752    7.9955 C   0  0  2  0  0  0  0  0  0  0  0  0
   -7.7423   17.3994    9.0824 O   0  0  0  0  0  0  0  0  0  0  0  0
   -9.0835   18.9626    7.7709 C   0  0  1  0  0  0  0  0  0  0  0  0
   -9.4538   19.7435    8.9480 O   0  0  0  0  0  0  0  0  0  0  0  0
   -8.9973   19.9335    6.5236 C   0  0  1  0  0  0  0  0  0  0  0  0
   -8.6083   19.1423    5.2840 C   0  0  1  0  0  0  0  0  0  0  0  0
   -8.5495   20.0499    4.1480 N   0  0  0  0  0  0  0  0  0  0  0  0
   -7.2420   18.4429    5.5144 C   0  0  0  0  0  0  0  0  0  0  0  0
   -7.9086   16.9523   10.4458 C   0  0  0  0  0  0  0  0  0  0  0  0
   -6.8635   17.6115   11.3163 C   0  0  0  0  0  0  0  0  0  0  0  0
   -7.0191   17.3386   12.7600 N   0  0  0  0  0  0  0  0  0  0  0  0
   -7.1573   16.6314   14.0535 C   0  0  0  0  0  0  0  0  0  0  0  0
   -6.1750   15.4897   13.7625 C   0  0  0  0  0  0  0  0  0  0  0  0
   -4.7271   15.9898   13.6024 C   0  0  0  0  0  0  0  0  0  0  0  0
   -3.7697   14.8287   13.3521 C   0  0  0  0  0  0  0  0  0  0  0  0
   -2.4247   15.3324   13.1119 N   0  0  0  0  0  0  0  0  0  0  0  0
   -3.9912   12.5638    9.1768 N   0  0  0  0  0  0  0  0  0  0  0  0
   -5.5726   15.6446    5.7682 C   0  0  0  0  0  0  0  0  0  0  0  0
   -6.0480   15.3046    4.8613 O   0  0  0  0  0  0  0  0  0  0  0  0
   -4.3243   15.3733    6.5717 C   0  0  2  0  0  0  0  0  0  0  0  0
   -3.2798   15.0097    5.7599 O   0  0  0  0  0  0  0  0  0  0  0  0
   -4.6254   14.1749    7.4650 C   0  0  0  0  0  0  0  0  0  0  0  0
   -3.5612   13.8031    8.5133 C   0  0  0  0  0  0  0  0  0  0  0  0
  1  2  1  6  0  0  0
  1  3  1  0  0  0  0
  3  4  1  6  0  0  0
  3  5  1  0  0  0  0
  5  6  1  1  0  0  0
  5  7  1  0  0  0  0
  7  8  1  6  0  0  0
  9  7  1  0  0  0  0
  9 10  1  0  0  0  0
  9 11  1  1  0  0  0
 10  1  1  0  0  0  0
 11 12  1  0  0  0  0
 13 14  1  1  0  0  0
 13 15  1  0  0  0  0
 13 22  1  0  0  0  0
 14 32  1  0  0  0  0
 15 16  1  1  0  0  0
 15 17  1  0  0  0  0
 16 23  1  0  0  0  0
 17 18  1  1  0  0  0
 17 19  1  0  0  0  0
 19  2  1  6  0  0  0
 19 20  1  0  0  0  0
 20 21  1  6  0  0  0
 20 22  1  0  0  0  0
 23 24  1  0  0  0  0
 24 25  1  0  0  0  0
 25 26  1  0  0  0  0
 26 27  1  0  0  0  0
 27 28  1  0  0  0  0
 28 29  1  0  0  0  0
 29 30  1  0  0  0  0
 31 37  1  0  0  0  0
 32 33  2  0  0  0  0
 34 32  1  6  0  0  0
 34 35  1  0  0  0  0
 34 36  1  0  0  0  0
 36 37  1  0  0  0  0
M  END
>  <CHROM.1>
176.24793235,-172.01958717,169.72089520,178.08974779,-63.38074556,67.31073647
174.04548251,55.34466297,38.28572831,65.31443581,178.44711790,176.06669145
-148.93243556,-172.72952097,-175.07066368,-7.72877918,18.74730899,7.91027101
2.67695792,0.90646210,-1.56468389

>  <Name>
1o9m_lig

>  <RI>
0

>  <Rbt.Current_Directory>
/home/itssahil/PROJECTS/Mol_Feturizer/New_Systems/rnas/1o9m

>  <Rbt.Executable>
rbdock ($Id: //depot/dev/client3/rdock/2013.1/src/exe/rbdock.cxx#4 $)

>  <Rbt.Library>
libRbt.so (2013.1, Build901 2013/11/27)

>  <Rbt.Parameter_File>
/export/apps/rDock/src/rDock_2013.1_src/data/scripts/dock_solv.prm

>  <Rbt.Receptor>
prm/pocket_docking_7.prm

>  <SCORE>
-16.9306

>  <SCORE.INTER>
-7.16596

>  <SCORE.INTER.CONST>
1

>  <SCORE.INTER.POLAR>
-1.64696

>  <SCORE.INTER.ROT>
15

>  <SCORE.INTER.SOLV>
15.2433

>  <SCORE.INTER.VDW>
-17.9685

>  <SCORE.INTER.norm>
-0.193675

>  <SCORE.INTRA>
-9.76465

>  <SCORE.INTRA.DIHEDRAL>
-18.0549

>  <SCORE.INTRA.DIHEDRAL.0>
21.5987

>  <SCORE.INTRA.POLAR>
0

>  <SCORE.INTRA.POLAR.0>
0

>  <SCORE.INTRA.REPUL>
0

>  <SCORE.INTRA.REPUL.0>
0

>  <SCORE.INTRA.SOLV>
-1.63815

>  <SCORE.INTRA.SOLV.lig_0>
-108.715

>  <SCORE.INTRA.VDW>
0.0818901

>  <SCORE.INTRA.VDW.0>
-3.9485

>  <SCORE.INTRA.norm>
-0.26391

>  <SCORE.RESTR>
0

>  <SCORE.RESTR.CAVITY>
0

>  <SCORE.RESTR.norm>
0

>  <SCORE.SYSTEM>
0

>  <SCORE.SYSTEM.CONST>
0

>  <SCORE.SYSTEM.DIHEDRAL>
0

>  <SCORE.SYSTEM.SOLV>
0

>  <SCORE.SYSTEM.norm>
0

>  <SCORE.heavy>
37

>  <SCORE.norm>
-0.457584

>  <RMSD>
8.742

$$$$
1o9m_lig
 OpenBabel11021811403D
libRbt.so/2013.1/901 2013/11/27
 37 38  0  0  0  0  0  0  0  0999 V2000
  -11.1889   18.2562    6.8516 C   0  0  2  0  0  0  0  0  0  0  0  0
   -9.7800   18.6279    6.9470 O   0  0  0  0  0  0  0  0  0  0  0  0
  -11.5598   18.3093    5.3238 C   0  0  2  0  0  0  0  0  0  0  0  0
  -10.7262   17.4011    4.5168 N   0  0  0  0  0  0  0  0  0  0  0  0
  -11.4238   19.7938    4.8125 C   0  0  1  0  0  0  0  0  0  0  0  0
  -11.7580   19.8687    3.4239 O   0  0  0  0  0  0  0  0  0  0  0  0
  -12.3482   20.6978    5.6932 C   0  0  2  0  0  0  0  0  0  0  0  0
  -12.2887   22.0848    5.3224 O   0  0  0  0  0  0  0  0  0  0  0  0
  -11.9764   20.5641    7.1906 C   0  0  2  0  0  0  0  0  0  0  0  0
  -12.0263   19.1925    7.6097 O   0  0  0  0  0  0  0  0  0  0  0  0
  -12.8893   21.3825    8.0666 C   0  0  0  0  0  0  0  0  0  0  0  0
  -14.1587   20.8555    8.0547 N   0  0  0  0  0  0  0  0  0  0  0  0
   -6.4785   18.6219    9.7613 C   0  0  1  0  0  0  0  0  0  0  0  0
   -5.7043   18.3819   11.0113 N   0  0  0  0  0  0  0  0  0  0  0  0
   -6.9386   17.2822    9.2030 C   0  0  2  0  0  0  0  0  0  0  0  0
   -5.8058   16.4934    8.9913 O   0  0  0  0  0  0  0  0  0  0  0  0
   -7.7407   17.4837    7.8787 C   0  0  1  0  0  0  0  0  0  0  0  0
   -8.1949   16.1944    7.3650 O   0  0  0  0  0  0  0  0  0  0  0  0
   -9.0057   18.3935    8.1579 C   0  0  1  0  0  0  0  0  0  0  0  0
   -8.5574   19.7428    8.6987 C   0  0  1  0  0  0  0  0  0  0  0  0
   -9.7330   20.5675    8.9340 N   0  0  0  0  0  0  0  0  0  0  0  0
   -7.7432   19.5412   10.0047 C   0  0  0  0  0  0  0  0  0  0  0  0
   -4.4907   15.9385    9.2128 C   0  0  0  0  0  0  0  0  0  0  0  0
   -4.2545   14.8124    8.2326 C   0  0  0  0  0  0  0  0  0  0  0  0
   -4.7670   15.0771    6.8724 N   0  0  0  0  0  0  0  0  0  0  0  0
   -5.6567   15.1492    5.6910 C   0  0  0  0  0  0  0  0  0  0  0  0
   -4.5690   15.0372    4.6152 C   0  0  0  0  0  0  0  0  0  0  0  0
   -4.4256   16.3303    3.7909 C   0  0  0  0  0  0  0  0  0  0  0  0
   -3.7103   17.4148    4.5906 C   0  0  0  0  0  0  0  0  0  0  0  0
   -2.2698   17.2097    4.5344 N   0  0  0  0  0  0  0  0  0  0  0  0
   -0.5491   19.0734   13.0417 N   0  0  0  0  0  0  0  0  0  0  0  0
   -4.6812   19.7725   11.4190 C   0  0  0  0  0  0  0  0  0  0  0  0
   -4.5026   20.7421   10.9807 O   0  0  0  0  0  0  0  0  0  0  0  0
   -4.2141   18.9494   12.5945 C   0  0  2  0  0  0  0  0  0  0  0  0
   -4.1495   19.7062   13.7369 O   0  0  0  0  0  0  0  0  0  0  0  0
   -2.7906   18.5011   12.2824 C   0  0  0  0  0  0  0  0  0  0  0  0
   -1.7011   19.5886   12.2877 C   0  0  0  0  0  0  0  0  0  0  0  0
  1  2  1  6  0  0  0
  1  3  1  0  0  0  0
  3  4  1  6  0  0  0
  3  5  1  0  0  0  0
  5  6  1  6  0  0  0
  5  7  1  0  0  0  0
  7  8  1  6  0  0  0
  9  7  1  0  0  0  0
  9 10  1  0  0  0  0
  9 11  1  1  0  0  0
 10  1  1  0  0  0  0
 11 12  1  0  0  0  0
 13 14  1  1  0  0  0
 13 15  1  0  0  0  0
 13 22  1  0  0  0  0
 14 32  1  0  0  0  0
 15 16  1  6  0  0  0
 15 17  1  0  0  0  0
 16 23  1  0  0  0  0
 17 18  1  1  0  0  0
 17 19  1  0  0  0  0
 19  2  1  6  0  0  0
 19 20  1  0  0  0  0
 20 21  1  1  0  0  0
 20 22  1  0  0  0  0
 23 24  1  0  0  0  0
 24 25  1  0  0  0  0
 25 26  1  0  0  0  0
 26 27  1  0  0  0  0
 27 28  1  0  0  0  0
 28 29  1  0  0  0  0
 29 30  1  0  0  0  0
 31 37  1  0  0  0  0
 32 33  2  0  0  0  0
 34 32  1  6  0  0  0
 34 35  1  0  0  0  0
 34 36  1  0  0  0  0
 36 37  1  0  0  0  0
M  END
>  <CHROM.1>
-165.51855553,68.10593362,160.48473053,35.58302699,173.03859778,121.96318924
39.95147801,-89.51872492,-149.74427900,-113.28783364,74.96509350,81.52321400
-136.67332193,69.80255750,134.06874821,-7.43292632,18.46552626,8.03747742
2.82992958,0.41050244,-2.07361175

>  <Name>
1o9m_lig

>  <RI>
0

>  <Rbt.Current_Directory>
/home/itssahil/PROJECTS/Mol_Feturizer/New_Systems/rnas/1o9m

>  <Rbt.Executable>
rbdock ($Id: //depot/dev/client3/rdock/2013.1/src/exe/rbdock.cxx#4 $)

>  <Rbt.Library>
libRbt.so (2013.1, Build901 2013/11/27)

>  <Rbt.Parameter_File>
/export/apps/rDock/src/rDock_2013.1_src/data/scripts/dock_solv.prm

>  <Rbt.Receptor>
prm/pocket_docking_3.prm

>  <SCORE>
5.48745

>  <SCORE.INTER>
-0.424329

>  <SCORE.INTER.CONST>
1

>  <SCORE.INTER.POLAR>
-0.87178

>  <SCORE.INTER.ROT>
15

>  <SCORE.INTER.SOLV>
14.4209

>  <SCORE.INTER.VDW>
-15.7839

>  <SCORE.INTER.norm>
-0.0114683

>  <SCORE.INTRA>
5.84449

>  <SCORE.INTRA.DIHEDRAL>
7.71857

>  <SCORE.INTRA.DIHEDRAL.0>
21.5987

>  <SCORE.INTRA.POLAR>
0

>  <SCORE.INTRA.POLAR.0>
0

>  <SCORE.INTRA.REPUL>
0

>  <SCORE.INTRA.REPUL.0>
0

>  <SCORE.INTRA.SOLV>
5.98432

>  <SCORE.INTRA.SOLV.lig_0>
-108.715

>  <SCORE.INTRA.VDW>
-1.00696

>  <SCORE.INTRA.VDW.0>
-3.9485

>  <SCORE.INTRA.norm>
0.157959

>  <SCORE.RESTR>
0.0672895

>  <SCORE.RESTR.CAVITY>
0.0672895

>  <SCORE.RESTR.norm>
0.00181864

>  <SCORE.SYSTEM>
0

>  <SCORE.SYSTEM.CONST>
0

>  <SCORE.SYSTEM.DIHEDRAL>
0

>  <SCORE.SYSTEM.SOLV>
0

>  <SCORE.SYSTEM.norm>
0

>  <SCORE.heavy>
37

>  <SCORE.norm>
0.148309

>  <RMSD>
8.774

$$$$
1o9m_lig
 OpenBabel11021811403D
libRbt.so/2013.1/901 2013/11/27
 37 38  0  0  0  0  0  0  0  0999 V2000
   -7.6321   20.1700    9.7630 C   0  0  2  0  0  0  0  0  0  0  0  0
   -7.7118   19.8610    8.3381 O   0  0  0  0  0  0  0  0  0  0  0  0
   -6.2959   20.9742    9.9690 C   0  0  2  0  0  0  0  0  0  0  0  0
   -6.2600   22.2090    9.1659 N   0  0  0  0  0  0  0  0  0  0  0  0
   -5.0749   20.0427    9.6152 C   0  0  1  0  0  0  0  0  0  0  0  0
   -3.8461   20.7516    9.7966 O   0  0  0  0  0  0  0  0  0  0  0  0
   -5.1602   18.7665   10.5160 C   0  0  2  0  0  0  0  0  0  0  0  0
   -4.0970   17.8334   10.2630 O   0  0  0  0  0  0  0  0  0  0  0  0
   -6.5162   18.0459   10.3151 C   0  0  2  0  0  0  0  0  0  0  0  0
   -7.6118   18.9394   10.5617 O   0  0  0  0  0  0  0  0  0  0  0  0
   -6.6468   16.8434   11.2137 C   0  0  0  0  0  0  0  0  0  0  0  0
   -5.7583   15.8661   10.8330 N   0  0  0  0  0  0  0  0  0  0  0  0
  -11.1099   22.2056    7.0052 C   0  0  1  0  0  0  0  0  0  0  0  0
  -12.2129   22.7045    6.1369 N   0  0  0  0  0  0  0  0  0  0  0  0
  -11.3327   20.7248    7.2811 C   0  0  2  0  0  0  0  0  0  0  0  0
  -12.5895   20.5827    7.8729 O   0  0  0  0  0  0  0  0  0  0  0  0
  -10.2074   20.1615    8.2053 C   0  0  1  0  0  0  0  0  0  0  0  0
  -10.4199   18.7367    8.4447 O   0  0  0  0  0  0  0  0  0  0  0  0
   -8.8004   20.3549    7.5063 C   0  0  1  0  0  0  0  0  0  0  0  0
   -8.5579   21.8332    7.2424 C   0  0  1  0  0  0  0  0  0  0  0  0
   -7.2547   21.9897    6.6141 N   0  0  0  0  0  0  0  0  0  0  0  0
   -9.6872   22.3980    6.3397 C   0  0  0  0  0  0  0  0  0  0  0  0
  -14.0292   20.5708    7.9901 C   0  0  0  0  0  0  0  0  0  0  0  0
  -14.4097   20.2108    9.4079 C   0  0  0  0  0  0  0  0  0  0  0  0
  -15.8648   20.0813    9.6293 N   0  0  0  0  0  0  0  0  0  0  0  0
  -17.2509   19.5608    9.6187 C   0  0  0  0  0  0  0  0  0  0  0  0
  -17.5016   19.6921    8.1111 C   0  0  0  0  0  0  0  0  0  0  0  0
  -18.9596   19.3739    7.7303 C   0  0  0  0  0  0  0  0  0  0  0  0
  -19.1812   19.5283    6.2288 C   0  0  0  0  0  0  0  0  0  0  0  0
  -19.0487   20.9266    5.8449 N   0  0  0  0  0  0  0  0  0  0  0  0
  -16.5890   24.2529    7.6709 N   0  0  0  0  0  0  0  0  0  0  0  0
  -12.4097   24.4615    6.2818 C   0  0  0  0  0  0  0  0  0  0  0  0
  -11.9132   25.2409    6.8386 O   0  0  0  0  0  0  0  0  0  0  0  0
  -13.5553   24.3064    5.3116 C   0  0  2  0  0  0  0  0  0  0  0  0
  -13.4293   25.1686    4.2519 O   0  0  0  0  0  0  0  0  0  0  0  0
  -14.8233   24.7075    6.0571 C   0  0  0  0  0  0  0  0  0  0  0  0
  -15.2685   23.7954    7.2146 C   0  0  0  0  0  0  0  0  0  0  0  0
  1  2  1  6  0  0  0
  1  3  1  0  0  0  0
  3  4  1  6  0  0  0
  3  5  1  0  0  0  0
  5  6  1  1  0  0  0
  5  7  1  0  0  0  0
  7  8  1  6  0  0  0
  9  7  1  0  0  0  0
  9 10  1  0  0  0  0
  9 11  1  1  0  0  0
 10  1  1  0  0  0  0
 11 12  1  0  0  0  0
 13 14  1  6  0  0  0
 13 15  1  0  0  0  0
 13 22  1  0  0  0  0
 14 32  1  0  0  0  0
 15 16  1  1  0  0  0
 15 17  1  0  0  0  0
 16 23  1  0  0  0  0
 17 18  1  6  0  0  0
 17 19  1  0  0  0  0
 19  2  1  1  0  0  0
 19 20  1  0  0  0  0
 20 21  1  6  0  0  0
 20 22  1  0  0  0  0
 23 24  1  0  0  0  0
 24 25  1  0  0  0  0
 25 26  1  0  0  0  0
 26 27  1  0  0  0  0
 27 28  1  0  0  0  0
 28 29  1  0  0  0  0
 29 30  1  0  0  0  0
 31 37  1  0  0  0  0
 32 33  2  0  0  0  0
 34 32  1  1  0  0  0
 34 35  1  0  0  0  0
 34 36  1  0  0  0  0
 36 37  1  0  0  0  0
M  END
>  <CHROM.1>
-118.38200918,-67.94575107,157.55010167,69.93863278,-179.36423062,-45.68190704
-176.24905381,74.06140084,-67.28981062,-173.50514463,179.35736886,-66.95929626
-128.16698913,-66.95615928,-172.50264843,-11.03833155,20.90571461,8.14595995
0.33635486,0.10034227,2.60946338

>  <Name>
1o9m_lig

>  <RI>
0

>  <Rbt.Current_Directory>
/home/itssahil/PROJECTS/Mol_Feturizer/New_Systems/rnas/1o9m

>  <Rbt.Executable>
rbdock ($Id: //depot/dev/client3/rdock/2013.1/src/exe/rbdock.cxx#4 $)

>  <Rbt.Library>
libRbt.so (2013.1, Build901 2013/11/27)

>  <Rbt.Parameter_File>
/export/apps/rDock/src/rDock_2013.1_src/data/scripts/dock_solv.prm

>  <Rbt.Receptor>
prm/pocket_docking_7.prm

>  <SCORE>
-2.58253

>  <SCORE.INTER>
0.401152

>  <SCORE.INTER.CONST>
1

>  <SCORE.INTER.POLAR>
-0.582927

>  <SCORE.INTER.ROT>
15

>  <SCORE.INTER.SOLV>
12.0714

>  <SCORE.INTER.VDW>
-15.4133

>  <SCORE.INTER.norm>
0.010842

>  <SCORE.INTRA>
-2.98369

>  <SCORE.INTRA.DIHEDRAL>
-8.95875

>  <SCORE.INTRA.DIHEDRAL.0>
21.5987

>  <SCORE.INTRA.POLAR>
0

>  <SCORE.INTRA.POLAR.0>
0

>  <SCORE.INTRA.REPUL>
0

>  <SCORE.INTRA.REPUL.0>
0

>  <SCORE.INTRA.SOLV>
4.13363

>  <SCORE.INTRA.SOLV.lig_0>
-108.715

>  <SCORE.INTRA.VDW>
-0.571128

>  <SCORE.INTRA.VDW.0>
-3.9485

>  <SCORE.INTRA.norm>
-0.0806402

>  <SCORE.RESTR>
0

>  <SCORE.RESTR.CAVITY>
0

>  <SCORE.RESTR.norm>
0

>  <SCORE.SYSTEM>
0

>  <SCORE.SYSTEM.CONST>
0

>  <SCORE.SYSTEM.DIHEDRAL>
0

>  <SCORE.SYSTEM.SOLV>
0

>  <SCORE.SYSTEM.norm>
0

>  <SCORE.heavy>
37

>  <SCORE.norm>
-0.0697982

>  <RMSD>
8.808

$$$$
1o9m_lig
 OpenBabel11021811403D
libRbt.so/2013.1/901 2013/11/27
 37 38  0  0  0  0  0  0  0  0999 V2000
  -10.6431   19.2058    4.3314 C   0  0  2  0  0  0  0  0  0  0  0  0
   -9.8189   19.9559    5.2750 O   0  0  0  0  0  0  0  0  0  0  0  0
  -11.3410   20.2706    3.4073 C   0  0  2  0  0  0  0  0  0  0  0  0
  -10.3653   21.1115    2.6919 N   0  0  0  0  0  0  0  0  0  0  0  0
  -12.3065   21.1573    4.2821 C   0  0  1  0  0  0  0  0  0  0  0  0
  -12.9555   22.1337    3.4629 O   0  0  0  0  0  0  0  0  0  0  0  0
  -13.3273   20.2085    4.9928 C   0  0  2  0  0  0  0  0  0  0  0  0
  -14.2515   20.9152    5.8362 O   0  0  0  0  0  0  0  0  0  0  0  0
  -12.5859   19.1472    5.8427 C   0  0  2  0  0  0  0  0  0  0  0  0
  -11.6519   18.4103    5.0401 O   0  0  0  0  0  0  0  0  0  0  0  0
  -13.5456   18.1850    6.4937 C   0  0  0  0  0  0  0  0  0  0  0  0
  -13.8385   18.5967    7.7720 N   0  0  0  0  0  0  0  0  0  0  0  0
   -6.9120   18.6774    8.2306 C   0  0  1  0  0  0  0  0  0  0  0  0
   -6.3432   18.0382    9.4502 N   0  0  0  0  0  0  0  0  0  0  0  0
   -7.5773   17.6053    7.3783 C   0  0  2  0  0  0  0  0  0  0  0  0
   -6.6167   16.6366    7.0799 O   0  0  0  0  0  0  0  0  0  0  0  0
   -8.1733   18.2281    6.0765 C   0  0  1  0  0  0  0  0  0  0  0  0
   -8.8271   17.1944    5.2786 O   0  0  0  0  0  0  0  0  0  0  0  0
   -9.2446   19.3294    6.4576 C   0  0  1  0  0  0  0  0  0  0  0  0
   -8.5870   20.4165    7.2940 C   0  0  1  0  0  0  0  0  0  0  0  0
   -9.5843   21.4248    7.6202 N   0  0  0  0  0  0  0  0  0  0  0  0
   -7.9773   19.7945    8.5787 C   0  0  0  0  0  0  0  0  0  0  0  0
   -6.0450   15.4358    6.5163 C   0  0  0  0  0  0  0  0  0  0  0  0
   -6.2158   15.4611    5.0147 C   0  0  0  0  0  0  0  0  0  0  0  0
   -5.2647   14.5991    4.2831 N   0  0  0  0  0  0  0  0  0  0  0  0
   -4.0232   14.0728    3.6714 C   0  0  0  0  0  0  0  0  0  0  0  0
   -4.1157   12.6465    4.2284 C   0  0  0  0  0  0  0  0  0  0  0  0
   -4.9453   11.7172    3.3227 C   0  0  0  0  0  0  0  0  0  0  0  0
   -6.4324   12.0449    3.4147 C   0  0  0  0  0  0  0  0  0  0  0  0
   -7.2022   11.1056    2.6113 N   0  0  0  0  0  0  0  0  0  0  0  0
   -5.2351   15.5686   13.7782 N   0  0  0  0  0  0  0  0  0  0  0  0
   -7.5856   17.1616   10.3638 C   0  0  0  0  0  0  0  0  0  0  0  0
   -8.6411   16.9794   10.2339 O   0  0  0  0  0  0  0  0  0  0  0  0
   -6.4870   16.8451   11.3489 C   0  0  2  0  0  0  0  0  0  0  0  0
   -5.8351   15.6861   11.0111 O   0  0  0  0  0  0  0  0  0  0  0  0
   -7.1584   16.5962   12.6949 C   0  0  0  0  0  0  0  0  0  0  0  0
   -6.2525   16.6174   13.9394 C   0  0  0  0  0  0  0  0  0  0  0  0
  1  2  1  1  0  0  0
  1  3  1  0  0  0  0
  3  4  1  1  0  0  0
  3  5  1  0  0  0  0
  5  6  1  6  0  0  0
  5  7  1  0  0  0  0
  7  8  1  1  0  0  0
  9  7  1  0  0  0  0
  9 10  1  0  0  0  0
  9 11  1  6  0  0  0
 10  1  1  0  0  0  0
 11 12  1  0  0  0  0
 13 14  1  1  0  0  0
 13 15  1  0  0  0  0
 13 22  1  0  0  0  0
 14 32  1  0  0  0  0
 15 16  1  6  0  0  0
 15 17  1  0  0  0  0
 16 23  1  0  0  0  0
 17 18  1  6  0  0  0
 17 19  1  0  0  0  0
 19  2  1  6  0  0  0
 19 20  1  0  0  0  0
 20 21  1  1  0  0  0
 20 22  1  0  0  0  0
 23 24  1  0  0  0  0
 24 25  1  0  0  0  0
 25 26  1  0  0  0  0
 26 27  1  0  0  0  0
 27 28  1  0  0  0  0
 28 29  1  0  0  0  0
 29 30  1  0  0  0  0
 31 37  1  0  0  0  0
 32 33  2  0  0  0  0
 34 32  1  6  0  0  0
 34 35  1  0  0  0  0
 34 36  1  0  0  0  0
 36 37  1  0  0  0  0
M  END
>  <CHROM.1>
166.92959822,-94.93670592,-56.66584394,-179.38350450,57.44402110,65.61274357
157.91182187,-73.42527149,131.11928351,87.27755973,-72.75697455,-176.73739023
-88.96687579,-164.37818341,-59.94750526,-8.60902577,17.54058170,6.72998836
-3.05021386,-0.76396464,1.26077916

>  <Name>
1o9m_lig

>  <RI>
0

>  <Rbt.Current_Directory>
/home/itssahil/PROJECTS/Mol_Feturizer/New_Systems/rnas/1o9m

>  <Rbt.Executable>
rbdock ($Id: //depot/dev/client3/rdock/2013.1/src/exe/rbdock.cxx#4 $)

>  <Rbt.Library>
libRbt.so (2013.1, Build901 2013/11/27)

>  <Rbt.Parameter_File>
/export/apps/rDock/src/rDock_2013.1_src/data/scripts/dock_solv.prm

>  <Rbt.Receptor>
prm/pocket_docking_6.prm

>  <SCORE>
-14.5199

>  <SCORE.INTER>
-10.6802

>  <SCORE.INTER.CONST>
1

>  <SCORE.INTER.POLAR>
-1.89608

>  <SCORE.INTER.ROT>
15

>  <SCORE.INTER.SOLV>
17.1631

>  <SCORE.INTER.VDW>
-20.1209

>  <SCORE.INTER.norm>
-0.288655

>  <SCORE.INTRA>
-3.8397

>  <SCORE.INTRA.DIHEDRAL>
-9.13561

>  <SCORE.INTRA.DIHEDRAL.0>
21.5987

>  <SCORE.INTRA.POLAR>
0

>  <SCORE.INTRA.POLAR.0>
0

>  <SCORE.INTRA.REPUL>
0

>  <SCORE.INTRA.REPUL.0>
0

>  <SCORE.INTRA.SOLV>
2.00691

>  <SCORE.INTRA.SOLV.lig_0>
-108.715

>  <SCORE.INTRA.VDW>
-0.275347

>  <SCORE.INTRA.VDW.0>
-3.9485

>  <SCORE.INTRA.norm>
-0.103776

>  <SCORE.RESTR>
0

>  <SCORE.RESTR.CAVITY>
0

>  <SCORE.RESTR.norm>
0

>  <SCORE.SYSTEM>
0

>  <SCORE.SYSTEM.CONST>
0

>  <SCORE.SYSTEM.DIHEDRAL>
0

>  <SCORE.SYSTEM.SOLV>
0

>  <SCORE.SYSTEM.norm>
0

>  <SCORE.heavy>
37

>  <SCORE.norm>
-0.392431

>  <RMSD>
8.825

$$$$
1o9m_lig
 OpenBabel11021811403D
libRbt.so/2013.1/901 2013/11/27
 37 38  0  0  0  0  0  0  0  0999 V2000
  -10.2389   19.6888    7.7698 C   0  0  2  0  0  0  0  0  0  0  0  0
  -10.5884   18.7831    6.6791 O   0  0  0  0  0  0  0  0  0  0  0  0
  -11.5142   20.5683    8.0428 C   0  0  2  0  0  0  0  0  0  0  0  0
  -12.6874   19.7516    8.4004 N   0  0  0  0  0  0  0  0  0  0  0  0
  -11.8141   21.4489    6.7707 C   0  0  1  0  0  0  0  0  0  0  0  0
  -12.9703   22.2603    6.9951 O   0  0  0  0  0  0  0  0  0  0  0  0
  -10.5417   22.3048    6.4611 C   0  0  2  0  0  0  0  0  0  0  0  0
  -10.6993   23.1389    5.3018 O   0  0  0  0  0  0  0  0  0  0  0  0
   -9.3067   21.3929    6.2569 C   0  0  2  0  0  0  0  0  0  0  0  0
   -9.1055   20.5417    7.3946 O   0  0  0  0  0  0  0  0  0  0  0  0
   -8.0553   22.1960    6.0126 C   0  0  0  0  0  0  0  0  0  0  0  0
   -8.0871   22.7567    4.7580 N   0  0  0  0  0  0  0  0  0  0  0  0
   -8.2401   15.7821    4.6055 C   0  0  1  0  0  0  0  0  0  0  0  0
   -7.1995   15.1798    3.7257 N   0  0  0  0  0  0  0  0  0  0  0  0
   -7.5529   16.5942    5.6949 C   0  0  2  0  0  0  0  0  0  0  0  0
   -6.6909   15.7411    6.3872 O   0  0  0  0  0  0  0  0  0  0  0  0
   -8.6070   17.2308    6.6548 C   0  0  1  0  0  0  0  0  0  0  0  0
   -7.9373   18.0243    7.6815 O   0  0  0  0  0  0  0  0  0  0  0  0
   -9.5720   18.1770    5.8304 C   0  0  1  0  0  0  0  0  0  0  0  0
  -10.2790   17.3725    4.7502 C   0  0  1  0  0  0  0  0  0  0  0  0
  -11.1708   18.2568    4.0152 N   0  0  0  0  0  0  0  0  0  0  0  0
   -9.2305   16.7234    3.8075 C   0  0  0  0  0  0  0  0  0  0  0  0
   -5.8009   15.2801    7.4273 C   0  0  0  0  0  0  0  0  0  0  0  0
   -4.7772   16.3534    7.7177 C   0  0  0  0  0  0  0  0  0  0  0  0
   -3.8901   16.6673    6.5786 N   0  0  0  0  0  0  0  0  0  0  0  0
   -3.2187   16.6170    5.2599 C   0  0  0  0  0  0  0  0  0  0  0  0
   -2.4172   15.3301    5.4932 C   0  0  0  0  0  0  0  0  0  0  0  0
   -1.4414   15.0310    4.3397 C   0  0  0  0  0  0  0  0  0  0  0  0
   -0.2033   15.9184    4.4238 C   0  0  0  0  0  0  0  0  0  0  0  0
   -0.5799   17.3174    4.2779 N   0  0  0  0  0  0  0  0  0  0  0  0
   -3.7315   12.0980    1.4003 N   0  0  0  0  0  0  0  0  0  0  0  0
   -6.5030   13.7181    4.4500 C   0  0  0  0  0  0  0  0  0  0  0  0
   -6.6662   13.1678    5.3636 O   0  0  0  0  0  0  0  0  0  0  0  0
   -5.6200   13.6613    3.2275 C   0  0  2  0  0  0  0  0  0  0  0  0
   -6.2250   12.9694    2.2090 O   0  0  0  0  0  0  0  0  0  0  0  0
   -4.3754   12.8716    3.6174 C   0  0  0  0  0  0  0  0  0  0  0  0
   -3.2353   12.8140    2.5846 C   0  0  0  0  0  0  0  0  0  0  0  0
  1  2  1  6  0  0  0
  1  3  1  0  0  0  0
  3  4  1  6  0  0  0
  3  5  1  0  0  0  0
  5  6  1  1  0  0  0
  5  7  1  0  0  0  0
  7  8  1  6  0  0  0
  9  7  1  0  0  0  0
  9 10  1  0  0  0  0
  9 11  1  1  0  0  0
 10  1  1  0  0  0  0
 11 12  1  0  0  0  0
 13 14  1  6  0  0  0
 13 15  1  0  0  0  0
 13 22  1  0  0  0  0
 14 32  1  0  0  0  0
 15 16  1  1  0  0  0
 15 17  1  0  0  0  0
 16 23  1  0  0  0  0
 17 18  1  1  0  0  0
 17 19  1  0  0  0  0
 19  2  1  1  0  0  0
 19 20  1  0  0  0  0
 20 21  1  6  0  0  0
 20 22  1  0  0  0  0
 23 24  1  0  0  0  0
 24 25  1  0  0  0  0
 25 26  1  0  0  0  0
 26 27  1  0  0  0  0
 27 28  1  0  0  0  0
 28 29  1  0  0  0  0
 29 30  1  0  0  0  0
 31 37  1  0  0  0  0
 32 33  2  0  0  0  0
 34 32  1  1  0  0  0
 34 35  1  0  0  0  0
 34 36  1  0  0  0  0
 36 37  1  0  0  0  0
M  END
>  <CHROM.1>
157.04814281,-72.21106570,80.31627198,-167.77184061,-48.30126089,62.93521346
-63.25580958,-7.54695990,-69.74216848,-173.65917717,77.12153198,-62.91085989
-87.82024891,-172.95090314,-64.21453086,-7.32414942,17.40806320,5.47820075
-2.35973575,-0.00125027,-2.77213565

>  <Name>
1o9m_lig

>  <RI>
0

>  <Rbt.Current_Directory>
/home/itssahil/PROJECTS/Mol_Feturizer/New_Systems/rnas/1o9m

>  <Rbt.Executable>
rbdock ($Id: //depot/dev/client3/rdock/2013.1/src/exe/rbdock.cxx#4 $)

>  <Rbt.Library>
libRbt.so (2013.1, Build901 2013/11/27)

>  <Rbt.Parameter_File>
/export/apps/rDock/src/rDock_2013.1_src/data/scripts/dock_solv.prm

>  <Rbt.Receptor>
prm/pocket_docking_5.prm

>  <SCORE>
-14.0544

>  <SCORE.INTER>
-9.14799

>  <SCORE.INTER.CONST>
1

>  <SCORE.INTER.POLAR>
-1.08114

>  <SCORE.INTER.ROT>
15

>  <SCORE.INTER.SOLV>
17.0904

>  <SCORE.INTER.VDW>
-21.7916

>  <SCORE.INTER.norm>
-0.247243

>  <SCORE.INTRA>
-4.90642

>  <SCORE.INTRA.DIHEDRAL>
-12.8607

>  <SCORE.INTRA.DIHEDRAL.0>
21.5987

>  <SCORE.INTRA.POLAR>
0

>  <SCORE.INTRA.POLAR.0>
0

>  <SCORE.INTRA.REPUL>
0

>  <SCORE.INTRA.REPUL.0>
0

>  <SCORE.INTRA.SOLV>
4.90186

>  <SCORE.INTRA.SOLV.lig_0>
-108.715

>  <SCORE.INTRA.VDW>
-0.926982

>  <SCORE.INTRA.VDW.0>
-3.9485

>  <SCORE.INTRA.norm>
-0.132606

>  <SCORE.RESTR>
0

>  <SCORE.RESTR.CAVITY>
0

>  <SCORE.RESTR.norm>
0

>  <SCORE.SYSTEM>
0

>  <SCORE.SYSTEM.CONST>
0

>  <SCORE.SYSTEM.DIHEDRAL>
0

>  <SCORE.SYSTEM.SOLV>
0

>  <SCORE.SYSTEM.norm>
0

>  <SCORE.heavy>
37

>  <SCORE.norm>
-0.379849

>  <RMSD>
8.826

$$$$
1o9m_lig
 OpenBabel11021811403D
libRbt.so/2013.1/901 2013/11/27
 37 38  0  0  0  0  0  0  0  0999 V2000
   -5.1022   17.5465   10.1462 C   0  0  2  0  0  0  0  0  0  0  0  0
   -5.5064   17.5372    8.7431 O   0  0  0  0  0  0  0  0  0  0  0  0
   -5.8835   18.7307   10.8257 C   0  0  2  0  0  0  0  0  0  0  0  0
   -7.3438   18.5753   10.7060 N   0  0  0  0  0  0  0  0  0  0  0  0
   -5.4129   20.0920   10.1860 C   0  0  1  0  0  0  0  0  0  0  0  0
   -6.1089   21.1861   10.7894 O   0  0  0  0  0  0  0  0  0  0  0  0
   -3.8631   20.2042   10.3676 C   0  0  2  0  0  0  0  0  0  0  0  0
   -3.3212   21.4086    9.8014 O   0  0  0  0  0  0  0  0  0  0  0  0
   -3.1491   18.9867    9.7302 C   0  0  2  0  0  0  0  0  0  0  0  0
   -3.6553   17.7569   10.2692 O   0  0  0  0  0  0  0  0  0  0  0  0
   -1.6580   19.0423    9.9405 C   0  0  0  0  0  0  0  0  0  0  0  0
   -1.1002   20.0098    9.1393 N   0  0  0  0  0  0  0  0  0  0  0  0
   -5.5162   14.5999    5.5506 C   0  0  1  0  0  0  0  0  0  0  0  0
   -5.7474   13.3177    4.8280 N   0  0  0  0  0  0  0  0  0  0  0  0
   -6.8578   15.1541    6.0103 C   0  0  2  0  0  0  0  0  0  0  0  0
   -7.6669   15.3101    4.8828 O   0  0  0  0  0  0  0  0  0  0  0  0
   -6.6659   16.5109    6.7586 C   0  0  1  0  0  0  0  0  0  0  0  0
   -7.9564   17.0211    7.2132 O   0  0  0  0  0  0  0  0  0  0  0  0
   -5.7326   16.2942    8.0188 C   0  0  1  0  0  0  0  0  0  0  0  0
   -4.3816   15.7582    7.5701 C   0  0  1  0  0  0  0  0  0  0  0  0
   -3.5355   15.5807    8.7407 N   0  0  0  0  0  0  0  0  0  0  0  0
   -4.5741   14.4192    6.8090 C   0  0  0  0  0  0  0  0  0  0  0  0
   -8.1591   15.8699    3.6455 C   0  0  0  0  0  0  0  0  0  0  0  0
   -9.1320   16.9841    3.9560 C   0  0  0  0  0  0  0  0  0  0  0  0
   -8.5174   18.1604    4.6053 N   0  0  0  0  0  0  0  0  0  0  0  0
   -8.3352   19.4909    5.2288 C   0  0  0  0  0  0  0  0  0  0  0  0
   -9.4004   19.3459    6.3230 C   0  0  0  0  0  0  0  0  0  0  0  0
   -9.5754   20.6370    7.1444 C   0  0  0  0  0  0  0  0  0  0  0  0
  -10.2269   21.7350    6.3093 C   0  0  0  0  0  0  0  0  0  0  0  0
  -10.4854   22.9054    7.1361 N   0  0  0  0  0  0  0  0  0  0  0  0
   -3.5887   10.9986   -0.1240 N   0  0  0  0  0  0  0  0  0  0  0  0
   -4.5943   13.1051    3.4968 C   0  0  0  0  0  0  0  0  0  0  0  0
   -3.7693   13.6787    3.1040 O   0  0  0  0  0  0  0  0  0  0  0  0
   -5.3238   11.8151    3.2118 C   0  0  2  0  0  0  0  0  0  0  0  0
   -4.8088   10.7793    3.9493 O   0  0  0  0  0  0  0  0  0  0  0  0
   -5.0721   11.4795    1.7460 C   0  0  0  0  0  0  0  0  0  0  0  0
   -3.6057   11.2925    1.3163 C   0  0  0  0  0  0  0  0  0  0  0  0
  1  2  1  6  0  0  0
  1  3  1  0  0  0  0
  3  4  1  6  0  0  0
  3  5  1  0  0  0  0
  5  6  1  1  0  0  0
  5  7  1  0  0  0  0
  7  8  1  6  0  0  0
  9  7  1  0  0  0  0
  9 10  1  0  0  0  0
  9 11  1  1  0  0  0
 10  1  1  0  0  0  0
 11 12  1  0  0  0  0
 13 14  1  1  0  0  0
 13 15  1  0  0  0  0
 13 22  1  0  0  0  0
 14 32  1  0  0  0  0
 15 16  1  6  0  0  0
 15 17  1  0  0  0  0
 16 23  1  0  0  0  0
 17 18  1  1  0  0  0
 17 19  1  0  0  0  0
 19  2  1  6  0  0  0
 19 20  1  0  0  0  0
 20 21  1  1  0  0  0
 20 22  1  0  0  0  0
 23 24  1  0  0  0  0
 24 25  1  0  0  0  0
 25 26  1  0  0  0  0
 26 27  1  0  0  0  0
 27 28  1  0  0  0  0
 28 29  1  0  0  0  0
 29 30  1  0  0  0  0
 31 37  1  0  0  0  0
 32 33  2  0  0  0  0
 34 32  1  1  0  0  0
 34 35  1  0  0  0  0
 34 36  1  0  0  0  0
 36 37  1  0  0  0  0
M  END
>  <CHROM.1>
-140.74552962,-73.03159146,145.37195629,-72.41634306,-87.10705419,157.99569073
66.44118835,178.81134433,55.07036725,-175.65488972,69.75162974,175.19546917
-87.31838763,59.36218734,-179.15457362,-5.82218544,16.85979053,6.70830438
-1.67919790,0.51938266,-2.38731503

>  <Name>
1o9m_lig

>  <RI>
0

>  <Rbt.Current_Directory>
/home/itssahil/PROJECTS/Mol_Feturizer/New_Systems/rnas/1o9m

>  <Rbt.Executable>
rbdock ($Id: //depot/dev/client3/rdock/2013.1/src/exe/rbdock.cxx#4 $)

>  <Rbt.Library>
libRbt.so (2013.1, Build901 2013/11/27)

>  <Rbt.Parameter_File>
/export/apps/rDock/src/rDock_2013.1_src/data/scripts/dock_solv.prm

>  <Rbt.Receptor>
prm/pocket_docking_4.prm

>  <SCORE>
-6.98291

>  <SCORE.INTER>
-5.84909

>  <SCORE.INTER.CONST>
1

>  <SCORE.INTER.POLAR>
-1.79386

>  <SCORE.INTER.ROT>
15

>  <SCORE.INTER.SOLV>
15.1143

>  <SCORE.INTER.VDW>
-16.558

>  <SCORE.INTER.norm>
-0.158083

>  <SCORE.INTRA>
-1.15281

>  <SCORE.INTRA.DIHEDRAL>
-6.9965

>  <SCORE.INTRA.DIHEDRAL.0>
21.5987

>  <SCORE.INTRA.POLAR>
0

>  <SCORE.INTRA.POLAR.0>
0

>  <SCORE.INTRA.REPUL>
0

>  <SCORE.INTRA.REPUL.0>
0

>  <SCORE.INTRA.SOLV>
4.24752

>  <SCORE.INTRA.SOLV.lig_0>
-108.715

>  <SCORE.INTRA.VDW>
0.221684

>  <SCORE.INTRA.VDW.0>
-3.9485

>  <SCORE.INTRA.norm>
-0.0311569

>  <SCORE.RESTR>
0.0189865

>  <SCORE.RESTR.CAVITY>
0.0189865

>  <SCORE.RESTR.norm>
0.000513148

>  <SCORE.SYSTEM>
0

>  <SCORE.SYSTEM.CONST>
0

>  <SCORE.SYSTEM.DIHEDRAL>
0

>  <SCORE.SYSTEM.SOLV>
0

>  <SCORE.SYSTEM.norm>
0

>  <SCORE.heavy>
37

>  <SCORE.norm>
-0.188727

>  <RMSD>
8.844

$$$$
1o9m_lig
 OpenBabel11021811403D
libRbt.so/2013.1/901 2013/11/27
 37 38  0  0  0  0  0  0  0  0999 V2000
  -11.9570   21.6421    4.5475 C   0  0  2  0  0  0  0  0  0  0  0  0
  -10.6496   22.2464    4.7882 O   0  0  0  0  0  0  0  0  0  0  0  0
  -12.9442   22.8275    4.2396 C   0  0  2  0  0  0  0  0  0  0  0  0
  -12.5151   23.6209    3.0745 N   0  0  0  0  0  0  0  0  0  0  0  0
  -13.0696   23.7385    5.5195 C   0  0  1  0  0  0  0  0  0  0  0  0
  -13.9648   24.8245    5.2650 O   0  0  0  0  0  0  0  0  0  0  0  0
  -13.5494   22.8424    6.7087 C   0  0  2  0  0  0  0  0  0  0  0  0
  -13.6821   23.5729    7.9391 O   0  0  0  0  0  0  0  0  0  0  0  0
  -12.5726   21.6614    6.9312 C   0  0  2  0  0  0  0  0  0  0  0  0
  -12.4110   20.8974    5.7273 O   0  0  0  0  0  0  0  0  0  0  0  0
  -13.0422   20.7505    8.0359 C   0  0  0  0  0  0  0  0  0  0  0  0
  -12.3012   19.5928    8.0454 N   0  0  0  0  0  0  0  0  0  0  0  0
   -8.1183   18.7970    5.5058 C   0  0  1  0  0  0  0  0  0  0  0  0
   -6.8904   17.9827    5.7260 N   0  0  0  0  0  0  0  0  0  0  0  0
   -8.2145   19.8483    6.6030 C   0  0  2  0  0  0  0  0  0  0  0  0
   -8.2213   19.1862    7.8326 O   0  0  0  0  0  0  0  0  0  0  0  0
   -9.4999   20.7161    6.4230 C   0  0  1  0  0  0  0  0  0  0  0  0
   -9.5696   21.7339    7.4678 O   0  0  0  0  0  0  0  0  0  0  0  0
   -9.4606   21.4363    5.0139 C   0  0  1  0  0  0  0  0  0  0  0  0
   -9.3835   20.3949    3.9078 C   0  0  1  0  0  0  0  0  0  0  0  0
   -9.3635   21.0769    2.6224 N   0  0  0  0  0  0  0  0  0  0  0  0
   -8.1160   19.5194    4.0980 C   0  0  0  0  0  0  0  0  0  0  0  0
   -8.6911   18.3360    8.9017 C   0  0  0  0  0  0  0  0  0  0  0  0
   -7.6028   18.1969    9.9412 C   0  0  0  0  0  0  0  0  0  0  0  0
   -6.4728   17.3417    9.5232 N   0  0  0  0  0  0  0  0  0  0  0  0
   -5.1044   16.8115    9.3263 C   0  0  0  0  0  0  0  0  0  0  0  0
   -4.4766   18.0881    8.7528 C   0  0  0  0  0  0  0  0  0  0  0  0
   -2.9508   17.9647    8.5827 C   0  0  0  0  0  0  0  0  0  0  0  0
   -2.6009   17.0400    7.4209 C   0  0  0  0  0  0  0  0  0  0  0  0
   -1.1556   16.9597    7.2633 N   0  0  0  0  0  0  0  0  0  0  0  0
   -5.3716   12.3999    4.5734 N   0  0  0  0  0  0  0  0  0  0  0  0
   -7.0890   16.3293    5.1147 C   0  0  0  0  0  0  0  0  0  0  0  0
   -7.8804   15.7903    4.6175 O   0  0  0  0  0  0  0  0  0  0  0  0
   -5.6915   16.0846    5.6293 C   0  0  2  0  0  0  0  0  0  0  0  0
   -4.7495   16.5889    4.7689 O   0  0  0  0  0  0  0  0  0  0  0  0
   -5.4917   14.5735    5.6642 C   0  0  0  0  0  0  0  0  0  0  0  0
   -5.4656   13.8430    4.3094 C   0  0  0  0  0  0  0  0  0  0  0  0
  1  2  1  1  0  0  0
  1  3  1  0  0  0  0
  3  4  1  6  0  0  0
  3  5  1  0  0  0  0
  5  6  1  6  0  0  0
  5  7  1  0  0  0  0
  7  8  1  1  0  0  0
  9  7  1  0  0  0  0
  9 10  1  0  0  0  0
  9 11  1  1  0  0  0
 10  1  1  0  0  0  0
 11 12  1  0  0  0  0
 13 14  1  1  0  0  0
 13 15  1  0  0  0  0
 13 22  1  0  0  0  0
 14 32  1  0  0  0  0
 15 16  1  1  0  0  0
 15 17  1  0  0  0  0
 16 23  1  0  0  0  0
 17 18  1  1  0  0  0
 17 19  1  0  0  0  0
 19  2  1  6  0  0  0
 19 20  1  0  0  0  0
 20 21  1  6  0  0  0
 20 22  1  0  0  0  0
 23 24  1  0  0  0  0
 24 25  1  0  0  0  0
 25 26  1  0  0  0  0
 26 27  1  0  0  0  0
 27 28  1  0  0  0  0
 28 29  1  0  0  0  0
 29 30  1  0  0  0  0
 31 37  1  0  0  0  0
 32 33  2  0  0  0  0
 34 32  1  6  0  0  0
 34 35  1  0  0  0  0
 34 36  1  0  0  0  0
 36 37  1  0  0  0  0
M  END
>  <CHROM.1>
-175.59098212,168.87175425,150.50171483,-66.17162324,172.87246031,-70.86387650
-72.98195002,140.87985567,-52.19253510,172.62078664,72.28001004,178.89433670
-78.96122801,66.62688419,-175.58700438,-8.67056003,19.34815121,6.24084998
3.04847020,-0.69314667,1.28367756

>  <Name>
1o9m_lig

>  <RI>
0

>  <Rbt.Current_Directory>
/home/itssahil/PROJECTS/Mol_Feturizer/New_Systems/rnas/1o9m

>  <Rbt.Executable>
rbdock ($Id: //depot/dev/client3/rdock/2013.1/src/exe/rbdock.cxx#4 $)

>  <Rbt.Library>
libRbt.so (2013.1, Build901 2013/11/27)

>  <Rbt.Parameter_File>
/export/apps/rDock/src/rDock_2013.1_src/data/scripts/dock_solv.prm

>  <Rbt.Receptor>
prm/pocket_docking_5.prm

>  <SCORE>
-5.763

>  <SCORE.INTER>
1.74861

>  <SCORE.INTER.CONST>
1

>  <SCORE.INTER.POLAR>
-2.39802

>  <SCORE.INTER.ROT>
15

>  <SCORE.INTER.SOLV>
10.99

>  <SCORE.INTER.VDW>
-8.10419

>  <SCORE.INTER.norm>
0.0472597

>  <SCORE.INTRA>
-7.54554

>  <SCORE.INTRA.DIHEDRAL>
-15.8596

>  <SCORE.INTRA.DIHEDRAL.0>
21.5987

>  <SCORE.INTRA.POLAR>
0

>  <SCORE.INTRA.POLAR.0>
0

>  <SCORE.INTRA.REPUL>
0

>  <SCORE.INTRA.REPUL.0>
0

>  <SCORE.INTRA.SOLV>
3.23638

>  <SCORE.INTRA.SOLV.lig_0>
-108.715

>  <SCORE.INTRA.VDW>
-1.23395

>  <SCORE.INTRA.VDW.0>
-3.9485

>  <SCORE.INTRA.norm>
-0.203934

>  <SCORE.RESTR>
0.0339387

>  <SCORE.RESTR.CAVITY>
0.0339387

>  <SCORE.RESTR.norm>
0.000917263

>  <SCORE.SYSTEM>
0

>  <SCORE.SYSTEM.CONST>
0

>  <SCORE.SYSTEM.DIHEDRAL>
0

>  <SCORE.SYSTEM.SOLV>
0

>  <SCORE.SYSTEM.norm>
0

>  <SCORE.heavy>
37

>  <SCORE.norm>
-0.155757

>  <RMSD>
8.847

$$$$
1o9m_lig
 OpenBabel11021811403D
libRbt.so/2013.1/901 2013/11/27
 37 38  0  0  0  0  0  0  0  0999 V2000
  -10.0434   17.4451    5.9676 C   0  0  2  0  0  0  0  0  0  0  0  0
   -8.9169   17.8581    5.1352 O   0  0  0  0  0  0  0  0  0  0  0  0
  -11.2010   17.0438    4.9810 C   0  0  2  0  0  0  0  0  0  0  0  0
  -10.8029   15.9580    4.0681 N   0  0  0  0  0  0  0  0  0  0  0  0
  -11.6508   18.3180    4.1698 C   0  0  1  0  0  0  0  0  0  0  0  0
  -12.7056   17.9789    3.2655 O   0  0  0  0  0  0  0  0  0  0  0  0
  -12.0809   19.4194    5.1943 C   0  0  2  0  0  0  0  0  0  0  0  0
  -12.4967   20.6396    4.5593 O   0  0  0  0  0  0  0  0  0  0  0  0
  -10.9244   19.7348    6.1747 C   0  0  2  0  0  0  0  0  0  0  0  0
  -10.4769   18.5436    6.8382 O   0  0  0  0  0  0  0  0  0  0  0  0
  -11.3318   20.7532    7.2079 C   0  0  0  0  0  0  0  0  0  0  0  0
  -10.2367   21.4704    7.6269 N   0  0  0  0  0  0  0  0  0  0  0  0
   -4.5978   17.7993    5.5383 C   0  0  1  0  0  0  0  0  0  0  0  0
   -3.2423   18.0160    6.1172 N   0  0  0  0  0  0  0  0  0  0  0  0
   -5.4130   16.9465    6.5010 C   0  0  2  0  0  0  0  0  0  0  0  0
   -4.7196   15.7523    6.7094 O   0  0  0  0  0  0  0  0  0  0  0  0
   -6.8393   16.6773    5.9257 C   0  0  1  0  0  0  0  0  0  0  0  0
   -7.6182   15.8774    6.8670 O   0  0  0  0  0  0  0  0  0  0  0  0
   -7.5848   18.0537    5.6902 C   0  0  1  0  0  0  0  0  0  0  0  0
   -6.7890   18.9074    4.7147 C   0  0  1  0  0  0  0  0  0  0  0  0
   -7.4984   20.1599    4.5011 N   0  0  0  0  0  0  0  0  0  0  0  0
   -5.3644   19.1587    5.2775 C   0  0  0  0  0  0  0  0  0  0  0  0
   -4.4610   14.4082    7.1708 C   0  0  0  0  0  0  0  0  0  0  0  0
   -3.0139   14.0613    6.9061 C   0  0  0  0  0  0  0  0  0  0  0  0
   -2.6600   13.9955    5.4732 N   0  0  0  0  0  0  0  0  0  0  0  0
   -2.4542   14.3647    4.0541 C   0  0  0  0  0  0  0  0  0  0  0  0
   -3.9268   14.3373    3.6255 C   0  0  0  0  0  0  0  0  0  0  0  0
   -4.4810   12.9037    3.5263 C   0  0  0  0  0  0  0  0  0  0  0  0
   -5.9194   12.9050    3.0181 C   0  0  0  0  0  0  0  0  0  0  0  0
   -6.4028   11.5383    2.8812 N   0  0  0  0  0  0  0  0  0  0  0  0
    0.3897   20.4752   10.3220 N   0  0  0  0  0  0  0  0  0  0  0  0
   -3.3350   18.7200    7.7427 C   0  0  0  0  0  0  0  0  0  0  0  0
   -4.1372   19.0124    8.4023 O   0  0  0  0  0  0  0  0  0  0  0  0
   -1.8260   18.7142    7.7159 C   0  0  2  0  0  0  0  0  0  0  0  0
   -1.3308   17.4448    7.8758 O   0  0  0  0  0  0  0  0  0  0  0  0
   -1.3594   19.5238    8.9207 C   0  0  0  0  0  0  0  0  0  0  0  0
    0.1590   19.7182    9.0832 C   0  0  0  0  0  0  0  0  0  0  0  0
  1  2  1  6  0  0  0
  1  3  1  0  0  0  0
  3  4  1  6  0  0  0
  3  5  1  0  0  0  0
  5  6  1  6  0  0  0
  5  7  1  0  0  0  0
  7  8  1  6  0  0  0
  9  7  1  0  0  0  0
  9 10  1  0  0  0  0
  9 11  1  1  0  0  0
 10  1  1  0  0  0  0
 11 12  1  0  0  0  0
 13 14  1  1  0  0  0
 13 15  1  0  0  0  0
 13 22  1  0  0  0  0
 14 32  1  0  0  0  0
 15 16  1  6  0  0  0
 15 17  1  0  0  0  0
 16 23  1  0  0  0  0
 17 18  1  1  0  0  0
 17 19  1  0  0  0  0
 19  2  1  6  0  0  0
 19 20  1  0  0  0  0
 20 21  1  1  0  0  0
 20 22  1  0  0  0  0
 23 24  1  0  0  0  0
 24 25  1  0  0  0  0
 25 26  1  0  0  0  0
 26 27  1  0  0  0  0
 27 28  1  0  0  0  0
 28 29  1  0  0  0  0
 29 30  1  0  0  0  0
 31 37  1  0  0  0  0
 32 33  2  0  0  0  0
 34 32  1  1  0  0  0
 34 35  1  0  0  0  0
 34 36  1  0  0  0  0
 36 37  1  0  0  0  0
M  END
>  <CHROM.1>
-167.99689965,-151.53050487,-55.14062739,-171.71566064,-172.56696431,78.12068461
-65.29051540,58.59282176,-74.40641033,-72.89563585,-176.58998634,177.70561659
-74.15529815,-177.44735376,-177.90841099,-6.43181729,17.41731377,5.94561974
3.09845734,-0.28342655,0.51894406

>  <Name>
1o9m_lig

>  <RI>
0

>  <Rbt.Current_Directory>
/home/itssahil/PROJECTS/Mol_Feturizer/New_Systems/rnas/1o9m

>  <Rbt.Executable>
rbdock ($Id: //depot/dev/client3/rdock/2013.1/src/exe/rbdock.cxx#4 $)

>  <Rbt.Library>
libRbt.so (2013.1, Build901 2013/11/27)

>  <Rbt.Parameter_File>
/export/apps/rDock/src/rDock_2013.1_src/data/scripts/dock_solv.prm

>  <Rbt.Receptor>
prm/pocket_docking_5.prm

>  <SCORE>
-6.22289

>  <SCORE.INTER>
2.44303

>  <SCORE.INTER.CONST>
1

>  <SCORE.INTER.POLAR>
-0.481572

>  <SCORE.INTER.ROT>
15

>  <SCORE.INTER.SOLV>
14.913

>  <SCORE.INTER.VDW>
-15.3371

>  <SCORE.INTER.norm>
0.0660278

>  <SCORE.INTRA>
-8.66591

>  <SCORE.INTRA.DIHEDRAL>
-14.4464

>  <SCORE.INTRA.DIHEDRAL.0>
21.5987

>  <SCORE.INTRA.POLAR>
0

>  <SCORE.INTRA.POLAR.0>
0

>  <SCORE.INTRA.REPUL>
0

>  <SCORE.INTRA.REPUL.0>
0

>  <SCORE.INTRA.SOLV>
0.219987

>  <SCORE.INTRA.SOLV.lig_0>
-108.715

>  <SCORE.INTRA.VDW>
-1.5527

>  <SCORE.INTRA.VDW.0>
-3.9485

>  <SCORE.INTRA.norm>
-0.234214

>  <SCORE.RESTR>
0

>  <SCORE.RESTR.CAVITY>
0

>  <SCORE.RESTR.norm>
0

>  <SCORE.SYSTEM>
0

>  <SCORE.SYSTEM.CONST>
0

>  <SCORE.SYSTEM.DIHEDRAL>
0

>  <SCORE.SYSTEM.SOLV>
0

>  <SCORE.SYSTEM.norm>
0

>  <SCORE.heavy>
37

>  <SCORE.norm>
-0.168186

>  <RMSD>
8.850

$$$$
1o9m_lig
 OpenBabel11021811403D
libRbt.so/2013.1/901 2013/11/27
 37 38  0  0  0  0  0  0  0  0999 V2000
  -12.8551   19.3013    7.1449 C   0  0  2  0  0  0  0  0  0  0  0  0
  -12.2805   18.8602    5.8770 O   0  0  0  0  0  0  0  0  0  0  0  0
  -14.3484   18.8069    7.1517 C   0  0  2  0  0  0  0  0  0  0  0  0
  -14.4508   17.3434    7.0151 N   0  0  0  0  0  0  0  0  0  0  0  0
  -15.1358   19.5318    5.9948 C   0  0  1  0  0  0  0  0  0  0  0  0
  -16.4991   19.0996    5.9813 O   0  0  0  0  0  0  0  0  0  0  0  0
  -15.0066   21.0756    6.2123 C   0  0  2  0  0  0  0  0  0  0  0  0
  -15.6781   21.8398    5.1973 O   0  0  0  0  0  0  0  0  0  0  0  0
  -13.5174   21.4986    6.2534 C   0  0  2  0  0  0  0  0  0  0  0  0
  -12.8042   20.7632    7.2584 O   0  0  0  0  0  0  0  0  0  0  0  0
  -13.3643   22.9741    6.5181 C   0  0  0  0  0  0  0  0  0  0  0  0
  -13.8985   23.7015    5.4814 N   0  0  0  0  0  0  0  0  0  0  0  0
   -8.2994   17.2830    5.1816 C   0  0  1  0  0  0  0  0  0  0  0  0
   -6.8270   17.2464    4.9573 N   0  0  0  0  0  0  0  0  0  0  0  0
   -8.5761   17.9473    6.5234 C   0  0  2  0  0  0  0  0  0  0  0  0
   -7.8996   17.2242    7.5081 O   0  0  0  0  0  0  0  0  0  0  0  0
  -10.1102   17.9913    6.8101 C   0  0  1  0  0  0  0  0  0  0  0  0
  -10.3639   18.6497    8.0887 O   0  0  0  0  0  0  0  0  0  0  0  0
  -10.8406   18.8053    5.6657 C   0  0  1  0  0  0  0  0  0  0  0  0
  -10.5870   18.1400    4.3215 C   0  0  1  0  0  0  0  0  0  0  0  0
  -11.2786   18.8945    3.2871 N   0  0  0  0  0  0  0  0  0  0  0  0
   -9.0609   18.0785    4.0453 C   0  0  0  0  0  0  0  0  0  0  0  0
   -7.5286   16.7666    8.8270 C   0  0  0  0  0  0  0  0  0  0  0  0
   -7.3179   17.9622    9.7273 C   0  0  0  0  0  0  0  0  0  0  0  0
   -7.0130   17.6163   11.1309 N   0  0  0  0  0  0  0  0  0  0  0  0
   -7.0372   16.9588   12.4574 C   0  0  0  0  0  0  0  0  0  0  0  0
   -6.0355   17.8857   13.1577 C   0  0  0  0  0  0  0  0  0  0  0  0
   -4.6058   17.7248   12.6076 C   0  0  0  0  0  0  0  0  0  0  0  0
   -3.6743   18.7886   13.1803 C   0  0  0  0  0  0  0  0  0  0  0  0
   -2.3503   18.6660   12.5867 N   0  0  0  0  0  0  0  0  0  0  0  0
   -5.0869   13.2459    4.8212 N   0  0  0  0  0  0  0  0  0  0  0  0
   -6.3370   15.7734    4.0990 C   0  0  0  0  0  0  0  0  0  0  0  0
   -6.8555   14.9161    3.6987 O   0  0  0  0  0  0  0  0  0  0  0  0
   -4.9266   16.2950    4.2276 C   0  0  2  0  0  0  0  0  0  0  0  0
   -4.7037   17.3422    3.3699 O   0  0  0  0  0  0  0  0  0  0  0  0
   -3.9969   15.1664    3.7956 C   0  0  0  0  0  0  0  0  0  0  0  0
   -3.8220   13.9939    4.7775 C   0  0  0  0  0  0  0  0  0  0  0  0
  1  2  1  6  0  0  0
  1  3  1  0  0  0  0
  3  4  1  6  0  0  0
  3  5  1  0  0  0  0
  5  6  1  1  0  0  0
  5  7  1  0  0  0  0
  7  8  1  6  0  0  0
  9  7  1  0  0  0  0
  9 10  1  0  0  0  0
  9 11  1  1  0  0  0
 10  1  1  0  0  0  0
 11 12  1  0  0  0  0
 13 14  1  6  0  0  0
 13 15  1  0  0  0  0
 13 22  1  0  0  0  0
 14 32  1  0  0  0  0
 15 16  1  1  0  0  0
 15 17  1  0  0  0  0
 16 23  1  0  0  0  0
 17 18  1  1  0  0  0
 17 19  1  0  0  0  0
 19  2  1  1  0  0  0
 19 20  1  0  0  0  0
 20 21  1  6  0  0  0
 20 22  1  0  0  0  0
 23 24  1  0  0  0  0
 24 25  1  0  0  0  0
 25 26  1  0  0  0  0
 26 27  1  0  0  0  0
 27 28  1  0  0  0  0
 28 29  1  0  0  0  0
 29 30  1  0  0  0  0
 31 37  1  0  0  0  0
 32 33  2  0  0  0  0
 34 32  1  6  0  0  0
 34 35  1  0  0  0  0
 34 36  1  0  0  0  0
 36 37  1  0  0  0  0
M  END
>  <CHROM.1>
-162.69797808,-64.35274928,144.91573480,-165.40962591,-47.93931693,52.01414037
176.47697285,-41.57426255,-175.05833376,-68.36675010,172.05197415,-176.63694911
-73.69484331,-74.10090257,69.56779409,-9.34075780,18.22899203,6.89010918
3.03297210,0.44336827,-1.87813750

>  <Name>
1o9m_lig

>  <RI>
0

>  <Rbt.Current_Directory>
/home/itssahil/PROJECTS/Mol_Feturizer/New_Systems/rnas/1o9m

>  <Rbt.Executable>
rbdock ($Id: //depot/dev/client3/rdock/2013.1/src/exe/rbdock.cxx#4 $)

>  <Rbt.Library>
libRbt.so (2013.1, Build901 2013/11/27)

>  <Rbt.Parameter_File>
/export/apps/rDock/src/rDock_2013.1_src/data/scripts/dock_solv.prm

>  <Rbt.Receptor>
prm/pocket_docking_4.prm

>  <SCORE>
-8.78969

>  <SCORE.INTER>
-4.05822

>  <SCORE.INTER.CONST>
1

>  <SCORE.INTER.POLAR>
-0.954744

>  <SCORE.INTER.ROT>
15

>  <SCORE.INTER.SOLV>
14.5116

>  <SCORE.INTER.VDW>
-17.9602

>  <SCORE.INTER.norm>
-0.109682

>  <SCORE.INTRA>
-4.74585

>  <SCORE.INTRA.DIHEDRAL>
-14.5738

>  <SCORE.INTRA.DIHEDRAL.0>
21.5987

>  <SCORE.INTRA.POLAR>
0

>  <SCORE.INTRA.POLAR.0>
0

>  <SCORE.INTRA.REPUL>
0

>  <SCORE.INTRA.REPUL.0>
0

>  <SCORE.INTRA.SOLV>
2.35278

>  <SCORE.INTRA.SOLV.lig_0>
-108.715

>  <SCORE.INTRA.VDW>
1.36463

>  <SCORE.INTRA.VDW.0>
-3.9485

>  <SCORE.INTRA.norm>
-0.128266

>  <SCORE.RESTR>
0.0143794

>  <SCORE.RESTR.CAVITY>
0.0143794

>  <SCORE.RESTR.norm>
0.000388633

>  <SCORE.SYSTEM>
0

>  <SCORE.SYSTEM.CONST>
0

>  <SCORE.SYSTEM.DIHEDRAL>
0

>  <SCORE.SYSTEM.SOLV>
0

>  <SCORE.SYSTEM.norm>
0

>  <SCORE.heavy>
37

>  <SCORE.norm>
-0.237559

>  <RMSD>
8.855

$$$$
1o9m_lig
 OpenBabel11021811403D
libRbt.so/2013.1/901 2013/11/27
 37 38  0  0  0  0  0  0  0  0999 V2000
  -13.7262   19.7996    6.7802 C   0  0  2  0  0  0  0  0  0  0  0  0
  -12.6283   19.4321    7.6700 O   0  0  0  0  0  0  0  0  0  0  0  0
  -13.4820   21.2982    6.3691 C   0  0  2  0  0  0  0  0  0  0  0  0
  -12.1836   21.4871    5.6989 N   0  0  0  0  0  0  0  0  0  0  0  0
  -13.5851   22.2073    7.6524 C   0  0  1  0  0  0  0  0  0  0  0  0
  -13.3682   23.5773    7.3039 O   0  0  0  0  0  0  0  0  0  0  0  0
  -14.9905   21.9768    8.2997 C   0  0  2  0  0  0  0  0  0  0  0  0
  -15.1872   22.7492    9.4953 O   0  0  0  0  0  0  0  0  0  0  0  0
  -15.1995   20.4787    8.6322 C   0  0  2  0  0  0  0  0  0  0  0  0
  -15.0172   19.6651    7.4642 O   0  0  0  0  0  0  0  0  0  0  0  0
  -16.5689   20.2210    9.2057 C   0  0  0  0  0  0  0  0  0  0  0  0
  -16.6188   18.9709    9.7752 N   0  0  0  0  0  0  0  0  0  0  0  0
   -8.7538   17.5980    7.0028 C   0  0  1  0  0  0  0  0  0  0  0  0
   -7.3766   17.3867    6.4754 N   0  0  0  0  0  0  0  0  0  0  0  0
   -8.7938   18.9194    7.7582 C   0  0  2  0  0  0  0  0  0  0  0  0
   -7.8326   18.8649    8.7698 O   0  0  0  0  0  0  0  0  0  0  0  0
  -10.2174   19.1747    8.3463 C   0  0  1  0  0  0  0  0  0  0  0  0
  -10.2487   20.4543    9.0493 O   0  0  0  0  0  0  0  0  0  0  0  0
  -11.2774   19.2144    7.1713 C   0  0  1  0  0  0  0  0  0  0  0  0
  -11.2602   17.8916    6.4204 C   0  0  1  0  0  0  0  0  0  0  0  0
  -12.2509   17.9440    5.3558 N   0  0  0  0  0  0  0  0  0  0  0  0
   -9.8399   17.6283    5.8525 C   0  0  0  0  0  0  0  0  0  0  0  0
   -7.1329   19.2184    9.9831 C   0  0  0  0  0  0  0  0  0  0  0  0
   -6.9674   20.7196   10.0423 C   0  0  0  0  0  0  0  0  0  0  0  0
   -5.9279   21.2498    9.1360 N   0  0  0  0  0  0  0  0  0  0  0  0
   -4.6376   21.4568    8.4398 C   0  0  0  0  0  0  0  0  0  0  0  0
   -3.8344   21.9484    9.6507 C   0  0  0  0  0  0  0  0  0  0  0  0
   -3.4773   20.8053   10.6193 C   0  0  0  0  0  0  0  0  0  0  0  0
   -2.2380   20.0519   10.1464 C   0  0  0  0  0  0  0  0  0  0  0  0
   -2.5359   19.3147    8.9266 N   0  0  0  0  0  0  0  0  0  0  0  0
   -3.5225   16.2178    3.6095 N   0  0  0  0  0  0  0  0  0  0  0  0
   -7.0122   18.5020    5.1450 C   0  0  0  0  0  0  0  0  0  0  0  0
   -7.5484   19.2938    4.6455 O   0  0  0  0  0  0  0  0  0  0  0  0
   -5.6743   17.8076    5.0703 C   0  0  2  0  0  0  0  0  0  0  0  0
   -4.7360   18.6008    4.4601 O   0  0  0  0  0  0  0  0  0  0  0  0
   -5.8610   16.5831    4.1812 C   0  0  0  0  0  0  0  0  0  0  0  0
   -4.7142   15.5564    4.1605 C   0  0  0  0  0  0  0  0  0  0  0  0
  1  2  1  1  0  0  0
  1  3  1  0  0  0  0
  3  4  1  1  0  0  0
  3  5  1  0  0  0  0
  5  6  1  6  0  0  0
  5  7  1  0  0  0  0
  7  8  1  1  0  0  0
  9  7  1  0  0  0  0
  9 10  1  0  0  0  0
  9 11  1  6  0  0  0
 10  1  1  0  0  0  0
 11 12  1  0  0  0  0
 13 14  1  6  0  0  0
 13 15  1  0  0  0  0
 13 22  1  0  0  0  0
 14 32  1  0  0  0  0
 15 16  1  1  0  0  0
 15 17  1  0  0  0  0
 16 23  1  0  0  0  0
 17 18  1  6  0  0  0
 17 19  1  0  0  0  0
 19  2  1  1  0  0  0
 19 20  1  0  0  0  0
 20 21  1  6  0  0  0
 20 22  1  0  0  0  0
 23 24  1  0  0  0  0
 24 25  1  0  0  0  0
 25 26  1  0  0  0  0
 26 27  1  0  0  0  0
 27 28  1  0  0  0  0
 28 29  1  0  0  0  0
 29 30  1  0  0  0  0
 31 37  1  0  0  0  0
 32 33  2  0  0  0  0
 34 32  1  6  0  0  0
 34 35  1  0  0  0  0
 34 36  1  0  0  0  0
 36 37  1  0  0  0  0
M  END
>  <CHROM.1>
-72.91676899,-165.93264123,-71.01486498,-163.33064553,-44.94994078,166.23206397
-75.11740602,-51.68130136,-65.86347141,74.38706085,82.38377160,-68.42522316
-158.15763035,-168.63044441,-63.26029113,-9.36459073,19.59991082,7.43714994
2.94995096,-0.08991936,0.88789674

>  <Name>
1o9m_lig

>  <RI>
0

>  <Rbt.Current_Directory>
/home/itssahil/PROJECTS/Mol_Feturizer/New_Systems/rnas/1o9m

>  <Rbt.Executable>
rbdock ($Id: //depot/dev/client3/rdock/2013.1/src/exe/rbdock.cxx#4 $)

>  <Rbt.Library>
libRbt.so (2013.1, Build901 2013/11/27)

>  <Rbt.Parameter_File>
/export/apps/rDock/src/rDock_2013.1_src/data/scripts/dock_solv.prm

>  <Rbt.Receptor>
prm/pocket_docking_4.prm

>  <SCORE>
-3.8093

>  <SCORE.INTER>
-2.57482

>  <SCORE.INTER.CONST>
1

>  <SCORE.INTER.POLAR>
-1.39897

>  <SCORE.INTER.ROT>
15

>  <SCORE.INTER.SOLV>
12.4824

>  <SCORE.INTER.VDW>
-14.8141

>  <SCORE.INTER.norm>
-0.0695898

>  <SCORE.INTRA>
-1.2783

>  <SCORE.INTRA.DIHEDRAL>
-11.0298

>  <SCORE.INTRA.DIHEDRAL.0>
21.5987

>  <SCORE.INTRA.POLAR>
0

>  <SCORE.INTRA.POLAR.0>
0

>  <SCORE.INTRA.REPUL>
0

>  <SCORE.INTRA.REPUL.0>
0

>  <SCORE.INTRA.SOLV>
7.42688

>  <SCORE.INTRA.SOLV.lig_0>
-108.715

>  <SCORE.INTRA.VDW>
0.523166

>  <SCORE.INTRA.VDW.0>
-3.9485

>  <SCORE.INTRA.norm>
-0.0345486

>  <SCORE.RESTR>
0.0438224

>  <SCORE.RESTR.CAVITY>
0.0438224

>  <SCORE.RESTR.norm>
0.00118439

>  <SCORE.SYSTEM>
0

>  <SCORE.SYSTEM.CONST>
0

>  <SCORE.SYSTEM.DIHEDRAL>
0

>  <SCORE.SYSTEM.SOLV>
0

>  <SCORE.SYSTEM.norm>
0

>  <SCORE.heavy>
37

>  <SCORE.norm>
-0.102954

>  <RMSD>
8.870

$$$$
1o9m_lig
 OpenBabel11021811403D
libRbt.so/2013.1/901 2013/11/27
 37 38  0  0  0  0  0  0  0  0999 V2000
   -4.2623   15.4431   10.1618 C   0  0  2  0  0  0  0  0  0  0  0  0
   -3.2850   15.3655    9.0796 O   0  0  0  0  0  0  0  0  0  0  0  0
   -3.5036   16.0412   11.4032 C   0  0  2  0  0  0  0  0  0  0  0  0
   -2.9340   17.3703   11.1202 N   0  0  0  0  0  0  0  0  0  0  0  0
   -2.3764   15.0349   11.8513 C   0  0  1  0  0  0  0  0  0  0  0  0
   -1.6721   15.5562   12.9817 O   0  0  0  0  0  0  0  0  0  0  0  0
   -3.0494   13.6563   12.1578 C   0  0  2  0  0  0  0  0  0  0  0  0
   -2.1044   12.6521   12.5619 O   0  0  0  0  0  0  0  0  0  0  0  0
   -3.8278   13.1419   10.9217 C   0  0  2  0  0  0  0  0  0  0  0  0
   -4.7897   14.1121   10.4827 O   0  0  0  0  0  0  0  0  0  0  0  0
   -4.5326   11.8413   11.2086 C   0  0  0  0  0  0  0  0  0  0  0  0
   -3.6196   10.8199   11.3204 N   0  0  0  0  0  0  0  0  0  0  0  0
   -3.9715   14.7509    4.8403 C   0  0  1  0  0  0  0  0  0  0  0  0
   -4.2763   14.0584    3.5569 N   0  0  0  0  0  0  0  0  0  0  0  0
   -5.1547   14.5816    5.7835 C   0  0  2  0  0  0  0  0  0  0  0  0
   -6.2867   15.0976    5.1492 O   0  0  0  0  0  0  0  0  0  0  0  0
   -4.8870   15.3091    7.1388 C   0  0  1  0  0  0  0  0  0  0  0  0
   -6.0188   15.1212    8.0423 O   0  0  0  0  0  0  0  0  0  0  0  0
   -3.5899   14.7064    7.8172 C   0  0  1  0  0  0  0  0  0  0  0  0
   -2.3963   14.8868    6.8916 C   0  0  1  0  0  0  0  0  0  0  0  0
   -1.2136   14.3403    7.5398 N   0  0  0  0  0  0  0  0  0  0  0  0
   -2.6705   14.1802    5.5370 C   0  0  0  0  0  0  0  0  0  0  0  0
   -7.6829   15.3691    4.8970 C   0  0  0  0  0  0  0  0  0  0  0  0
   -7.7987   16.5512    3.9623 C   0  0  0  0  0  0  0  0  0  0  0  0
   -9.1889   16.9545    3.6665 N   0  0  0  0  0  0  0  0  0  0  0  0
  -10.6233   17.2870    3.8228 C   0  0  0  0  0  0  0  0  0  0  0  0
  -10.4403   18.6073    4.5819 C   0  0  0  0  0  0  0  0  0  0  0  0
  -11.7748   19.1727    5.1030 C   0  0  0  0  0  0  0  0  0  0  0  0
  -12.3335   18.3104    6.2307 C   0  0  0  0  0  0  0  0  0  0  0  0
  -12.3709   19.0719    7.4712 N   0  0  0  0  0  0  0  0  0  0  0  0
   -3.0564   12.3039   -0.0981 N   0  0  0  0  0  0  0  0  0  0  0  0
   -4.8299   12.3956    3.8316 C   0  0  0  0  0  0  0  0  0  0  0  0
   -5.0040   11.7842    4.7033 O   0  0  0  0  0  0  0  0  0  0  0  0
   -4.9059   12.2854    2.3283 C   0  0  2  0  0  0  0  0  0  0  0  0
   -6.1405   11.8445    1.9240 O   0  0  0  0  0  0  0  0  0  0  0  0
   -3.8994   11.2186    1.9119 C   0  0  0  0  0  0  0  0  0  0  0  0
   -3.6444   11.0531    0.4028 C   0  0  0  0  0  0  0  0  0  0  0  0
  1  2  1  6  0  0  0
  1  3  1  0  0  0  0
  3  4  1  6  0  0  0
  3  5  1  0  0  0  0
  5  6  1  1  0  0  0
  5  7  1  0  0  0  0
  7  8  1  6  0  0  0
  9  7  1  0  0  0  0
  9 10  1  0  0  0  0
  9 11  1  1  0  0  0
 10  1  1  0  0  0  0
 11 12  1  0  0  0  0
 13 14  1  6  0  0  0
 13 15  1  0  0  0  0
 13 22  1  0  0  0  0
 14 32  1  0  0  0  0
 15 16  1  6  0  0  0
 15 17  1  0  0  0  0
 16 23  1  0  0  0  0
 17 18  1  1  0  0  0
 17 19  1  0  0  0  0
 19  2  1  1  0  0  0
 19 20  1  0  0  0  0
 20 21  1  1  0  0  0
 20 22  1  0  0  0  0
 23 24  1  0  0  0  0
 24 25  1  0  0  0  0
 25 26  1  0  0  0  0
 26 27  1  0  0  0  0
 27 28  1  0  0  0  0
 28 29  1  0  0  0  0
 29 30  1  0  0  0  0
 31 37  1  0  0  0  0
 32 33  2  0  0  0  0
 34 32  1  1  0  0  0
 34 35  1  0  0  0  0
 34 36  1  0  0  0  0
 36 37  1  0  0  0  0
M  END
>  <CHROM.1>
172.40440655,-71.26870327,-50.43347925,166.97022670,162.20516047,55.60062758
-177.99253068,42.95338266,70.81046764,-171.96722056,69.56934109,115.62283928
-127.17952563,-171.79903151,63.54832806,-5.25326403,14.64582169,6.83799225
0.80855140,-0.61842438,1.25813912

>  <Name>
1o9m_lig

>  <RI>
0

>  <Rbt.Current_Directory>
/home/itssahil/PROJECTS/Mol_Feturizer/New_Systems/rnas/1o9m

>  <Rbt.Executable>
rbdock ($Id: //depot/dev/client3/rdock/2013.1/src/exe/rbdock.cxx#4 $)

>  <Rbt.Library>
libRbt.so (2013.1, Build901 2013/11/27)

>  <Rbt.Parameter_File>
/export/apps/rDock/src/rDock_2013.1_src/data/scripts/dock_solv.prm

>  <Rbt.Receptor>
prm/pocket_docking_8.prm

>  <SCORE>
-18.3051

>  <SCORE.INTER>
-14.4945

>  <SCORE.INTER.CONST>
1

>  <SCORE.INTER.POLAR>
-2.63812

>  <SCORE.INTER.ROT>
15

>  <SCORE.INTER.SOLV>
20.5604

>  <SCORE.INTER.VDW>
-21.3227

>  <SCORE.INTER.norm>
-0.391743

>  <SCORE.INTRA>
-3.81056

>  <SCORE.INTRA.DIHEDRAL>
-9.3238

>  <SCORE.INTRA.DIHEDRAL.0>
21.5987

>  <SCORE.INTRA.POLAR>
0

>  <SCORE.INTRA.POLAR.0>
0

>  <SCORE.INTRA.REPUL>
0

>  <SCORE.INTRA.REPUL.0>
0

>  <SCORE.INTRA.SOLV>
0.999082

>  <SCORE.INTRA.SOLV.lig_0>
-108.715

>  <SCORE.INTRA.VDW>
0.351794

>  <SCORE.INTRA.VDW.0>
-3.9485

>  <SCORE.INTRA.norm>
-0.102988

>  <SCORE.RESTR>
0

>  <SCORE.RESTR.CAVITY>
0

>  <SCORE.RESTR.norm>
0

>  <SCORE.SYSTEM>
0

>  <SCORE.SYSTEM.CONST>
0

>  <SCORE.SYSTEM.DIHEDRAL>
0

>  <SCORE.SYSTEM.SOLV>
0

>  <SCORE.SYSTEM.norm>
0

>  <SCORE.heavy>
37

>  <SCORE.norm>
-0.494731

>  <RMSD>
8.872

$$$$
1o9m_lig
 OpenBabel11021811403D
libRbt.so/2013.1/901 2013/11/27
 37 38  0  0  0  0  0  0  0  0999 V2000
   -2.2299   15.8085   11.3621 C   0  0  2  0  0  0  0  0  0  0  0  0
   -2.1872   14.4561   10.8131 O   0  0  0  0  0  0  0  0  0  0  0  0
   -1.6949   15.7059   12.8378 C   0  0  2  0  0  0  0  0  0  0  0  0
   -0.3264   15.1633   12.8972 N   0  0  0  0  0  0  0  0  0  0  0  0
   -2.6846   14.8176   13.6835 C   0  0  1  0  0  0  0  0  0  0  0  0
   -2.2201   14.7105   15.0319 O   0  0  0  0  0  0  0  0  0  0  0  0
   -4.1085   15.4600   13.5974 C   0  0  2  0  0  0  0  0  0  0  0  0
   -5.1004   14.7165   14.3242 O   0  0  0  0  0  0  0  0  0  0  0  0
   -4.5614   15.5884   12.1220 C   0  0  2  0  0  0  0  0  0  0  0  0
   -3.6015   16.3296   11.3549 O   0  0  0  0  0  0  0  0  0  0  0  0
   -5.9074   16.2562   12.0084 C   0  0  0  0  0  0  0  0  0  0  0  0
   -6.4153   16.0908   10.7419 N   0  0  0  0  0  0  0  0  0  0  0  0
   -2.4248   15.1557    6.5382 C   0  0  1  0  0  0  0  0  0  0  0  0
   -2.5276   14.8803    5.0777 N   0  0  0  0  0  0  0  0  0  0  0  0
   -3.6526   14.5839    7.2340 C   0  0  2  0  0  0  0  0  0  0  0  0
   -4.7833   15.1642    6.6552 O   0  0  0  0  0  0  0  0  0  0  0  0
   -3.5972   14.8659    8.7686 C   0  0  1  0  0  0  0  0  0  0  0  0
   -4.7684   14.2942    9.4273 O   0  0  0  0  0  0  0  0  0  0  0  0
   -2.2960   14.2057    9.3826 C   0  0  1  0  0  0  0  0  0  0  0  0
   -1.0610   14.7832    8.7081 C   0  0  1  0  0  0  0  0  0  0  0  0
    0.1225   14.1746    9.2969 N   0  0  0  0  0  0  0  0  0  0  0  0
   -1.1255   14.5201    7.1797 C   0  0  0  0  0  0  0  0  0  0  0  0
   -6.1796   15.4501    6.4203 C   0  0  0  0  0  0  0  0  0  0  0  0
   -6.7176   16.2764    7.5659 C   0  0  0  0  0  0  0  0  0  0  0  0
   -6.1977   17.6586    7.6111 N   0  0  0  0  0  0  0  0  0  0  0  0
   -5.3954   18.8515    7.9658 C   0  0  0  0  0  0  0  0  0  0  0  0
   -6.2297   19.3015    9.1717 C   0  0  0  0  0  0  0  0  0  0  0  0
   -7.5423   19.9892    8.7515 C   0  0  0  0  0  0  0  0  0  0  0  0
   -7.2706   21.3498    8.1172 C   0  0  0  0  0  0  0  0  0  0  0  0
   -8.5242   21.9772    7.7234 N   0  0  0  0  0  0  0  0  0  0  0  0
   -3.7080   11.0948    0.4987 N   0  0  0  0  0  0  0  0  0  0  0  0
   -3.4910   13.4258    4.7570 C   0  0  0  0  0  0  0  0  0  0  0  0
   -4.0206   12.7120    5.3686 O   0  0  0  0  0  0  0  0  0  0  0  0
   -3.1910   13.6773    3.2995 C   0  0  2  0  0  0  0  0  0  0  0  0
   -4.0077   14.6521    2.7848 O   0  0  0  0  0  0  0  0  0  0  0  0
   -3.5181   12.3892    2.5522 C   0  0  0  0  0  0  0  0  0  0  0  0
   -3.1758   12.3485    1.0519 C   0  0  0  0  0  0  0  0  0  0  0  0
  1  2  1  1  0  0  0
  1  3  1  0  0  0  0
  3  4  1  6  0  0  0
  3  5  1  0  0  0  0
  5  6  1  1  0  0  0
  5  7  1  0  0  0  0
  7  8  1  1  0  0  0
  9  7  1  0  0  0  0
  9 10  1  0  0  0  0
  9 11  1  1  0  0  0
 10  1  1  0  0  0  0
 11 12  1  0  0  0  0
 13 14  1  6  0  0  0
 13 15  1  0  0  0  0
 13 22  1  0  0  0  0
 14 32  1  0  0  0  0
 15 16  1  6  0  0  0
 15 17  1  0  0  0  0
 16 23  1  0  0  0  0
 17 18  1  1  0  0  0
 17 19  1  0  0  0  0
 19  2  1  1  0  0  0
 19 20  1  0  0  0  0
 20 21  1  1  0  0  0
 20 22  1  0  0  0  0
 23 24  1  0  0  0  0
 24 25  1  0  0  0  0
 25 26  1  0  0  0  0
 26 27  1  0  0  0  0
 27 28  1  0  0  0  0
 28 29  1  0  0  0  0
 29 30  1  0  0  0  0
 31 37  1  0  0  0  0
 32 33  2  0  0  0  0
 34 32  1  1  0  0  0
 34 35  1  0  0  0  0
 34 36  1  0  0  0  0
 36 37  1  0  0  0  0
M  END
>  <CHROM.1>
-164.78756352,-166.58082454,-27.44952140,-179.61028483,72.00895151,-54.39826408
69.99904282,-98.10725555,-86.88397590,-76.32739968,-69.73502988,179.75268415
-79.70931504,-174.70577526,-173.57004099,-3.97601304,15.47634279,8.46803548
-1.60328686,0.82296862,-1.82759716

>  <Name>
1o9m_lig

>  <RI>
0

>  <Rbt.Current_Directory>
/home/itssahil/PROJECTS/Mol_Feturizer/New_Systems/rnas/1o9m

>  <Rbt.Executable>
rbdock ($Id: //depot/dev/client3/rdock/2013.1/src/exe/rbdock.cxx#4 $)

>  <Rbt.Library>
libRbt.so (2013.1, Build901 2013/11/27)

>  <Rbt.Parameter_File>
/export/apps/rDock/src/rDock_2013.1_src/data/scripts/dock_solv.prm

>  <Rbt.Receptor>
prm/pocket_docking_6.prm

>  <SCORE>
-18.3097

>  <SCORE.INTER>
-14.7885

>  <SCORE.INTER.CONST>
1

>  <SCORE.INTER.POLAR>
-2.61212

>  <SCORE.INTER.ROT>
15

>  <SCORE.INTER.SOLV>
18.3886

>  <SCORE.INTER.VDW>
-20.8814

>  <SCORE.INTER.norm>
-0.399689

>  <SCORE.INTRA>
-3.52126

>  <SCORE.INTRA.DIHEDRAL>
-13.9742

>  <SCORE.INTRA.DIHEDRAL.0>
21.5987

>  <SCORE.INTRA.POLAR>
0

>  <SCORE.INTRA.POLAR.0>
0

>  <SCORE.INTRA.REPUL>
0

>  <SCORE.INTRA.REPUL.0>
0

>  <SCORE.INTRA.SOLV>
6.77397

>  <SCORE.INTRA.SOLV.lig_0>
-108.715

>  <SCORE.INTRA.VDW>
0.0788699

>  <SCORE.INTRA.VDW.0>
-3.9485

>  <SCORE.INTRA.norm>
-0.0951691

>  <SCORE.RESTR>
0

>  <SCORE.RESTR.CAVITY>
0

>  <SCORE.RESTR.norm>
0

>  <SCORE.SYSTEM>
0

>  <SCORE.SYSTEM.CONST>
0

>  <SCORE.SYSTEM.DIHEDRAL>
0

>  <SCORE.SYSTEM.SOLV>
0

>  <SCORE.SYSTEM.norm>
0

>  <SCORE.heavy>
37

>  <SCORE.norm>
-0.494858

>  <RMSD>
8.873

$$$$
1o9m_lig
 OpenBabel11021811403D
libRbt.so/2013.1/901 2013/11/27
 37 38  0  0  0  0  0  0  0  0999 V2000
  -11.2678   17.4251    4.5326 C   0  0  2  0  0  0  0  0  0  0  0  0
  -10.2464   18.2038    5.2273 O   0  0  0  0  0  0  0  0  0  0  0  0
  -11.7022   18.2765    3.2833 C   0  0  2  0  0  0  0  0  0  0  0  0
  -10.5697   18.5668    2.3865 N   0  0  0  0  0  0  0  0  0  0  0  0
  -12.3773   19.6113    3.7796 C   0  0  1  0  0  0  0  0  0  0  0  0
  -12.7833   20.4035    2.6602 O   0  0  0  0  0  0  0  0  0  0  0  0
  -13.5812   19.2324    4.7041 C   0  0  2  0  0  0  0  0  0  0  0  0
  -14.2636   20.3823    5.2303 O   0  0  0  0  0  0  0  0  0  0  0  0
  -13.1065   18.3492    5.8843 C   0  0  2  0  0  0  0  0  0  0  0  0
  -12.4209   17.1824    5.4068 O   0  0  0  0  0  0  0  0  0  0  0  0
  -14.2568   17.9234    6.7596 C   0  0  0  0  0  0  0  0  0  0  0  0
  -15.1854   17.2296    6.0209 N   0  0  0  0  0  0  0  0  0  0  0  0
   -7.3287   17.5990    8.3803 C   0  0  1  0  0  0  0  0  0  0  0  0
   -6.7215   17.1185    9.6531 N   0  0  0  0  0  0  0  0  0  0  0  0
   -7.7261   16.3936    7.5392 C   0  0  2  0  0  0  0  0  0  0  0  0
   -6.5826   15.6194    7.3313 O   0  0  0  0  0  0  0  0  0  0  0  0
   -8.3519   16.8502    6.1837 C   0  0  1  0  0  0  0  0  0  0  0  0
   -8.7486   15.6864    5.3959 O   0  0  0  0  0  0  0  0  0  0  0  0
   -9.6340   17.7357    6.4629 C   0  0  1  0  0  0  0  0  0  0  0  0
   -9.2461   18.9540    7.2871 C   0  0  1  0  0  0  0  0  0  0  0  0
  -10.4348   19.7607    7.5193 N   0  0  0  0  0  0  0  0  0  0  0  0
   -8.6059   18.5001    8.6263 C   0  0  0  0  0  0  0  0  0  0  0  0
   -5.7722   14.5006    6.9093 C   0  0  0  0  0  0  0  0  0  0  0  0
   -5.9113   14.3213    5.4150 C   0  0  0  0  0  0  0  0  0  0  0  0
   -5.0742   13.2404    4.8549 N   0  0  0  0  0  0  0  0  0  0  0  0
   -4.5181   12.2210    3.9362 C   0  0  0  0  0  0  0  0  0  0  0  0
   -5.3457   12.5943    2.6998 C   0  0  0  0  0  0  0  0  0  0  0  0
   -6.7884   12.0606    2.7781 C   0  0  0  0  0  0  0  0  0  0  0  0
   -6.8105   10.5352    2.7761 C   0  0  0  0  0  0  0  0  0  0  0  0
   -8.1847   10.0550    2.7454 N   0  0  0  0  0  0  0  0  0  0  0  0
   -2.9762   18.3754   12.4247 N   0  0  0  0  0  0  0  0  0  0  0  0
   -6.4501   18.4542   10.7884 C   0  0  0  0  0  0  0  0  0  0  0  0
   -6.6317   19.5176   10.7719 O   0  0  0  0  0  0  0  0  0  0  0  0
   -5.8619   17.4124   11.7083 C   0  0  2  0  0  0  0  0  0  0  0  0
   -6.8225   16.5363   12.1459 O   0  0  0  0  0  0  0  0  0  0  0  0
   -5.3455   18.1501   12.9387 C   0  0  0  0  0  0  0  0  0  0  0  0
   -4.1925   19.1464   12.7203 C   0  0  0  0  0  0  0  0  0  0  0  0
  1  2  1  1  0  0  0
  1  3  1  0  0  0  0
  3  4  1  6  0  0  0
  3  5  1  0  0  0  0
  5  6  1  6  0  0  0
  5  7  1  0  0  0  0
  7  8  1  1  0  0  0
  9  7  1  0  0  0  0
  9 10  1  0  0  0  0
  9 11  1  6  0  0  0
 10  1  1  0  0  0  0
 11 12  1  0  0  0  0
 13 14  1  1  0  0  0
 13 15  1  0  0  0  0
 13 22  1  0  0  0  0
 14 32  1  0  0  0  0
 15 16  1  6  0  0  0
 15 17  1  0  0  0  0
 16 23  1  0  0  0  0
 17 18  1  6  0  0  0
 17 19  1  0  0  0  0
 19  2  1  6  0  0  0
 19 20  1  0  0  0  0
 20 21  1  1  0  0  0
 20 22  1  0  0  0  0
 23 24  1  0  0  0  0
 24 25  1  0  0  0  0
 25 26  1  0  0  0  0
 26 27  1  0  0  0  0
 27 28  1  0  0  0  0
 28 29  1  0  0  0  0
 29 30  1  0  0  0  0
 31 37  1  0  0  0  0
 32 33  2  0  0  0  0
 34 32  1  6  0  0  0
 34 35  1  0  0  0  0
 34 36  1  0  0  0  0
 36 37  1  0  0  0  0
M  END
>  <CHROM.1>
178.35482887,58.40042216,-171.64232268,172.80007764,60.32111740,89.21059950
177.26777714,165.21182192,7.51769431,-77.77774787,-64.52144317,-175.58525641
-67.31953082,-64.13199860,-71.04548025,-8.71247207,16.87098146,6.63937872
2.74122148,0.57741549,-2.25047825

>  <Name>
1o9m_lig

>  <RI>
0

>  <Rbt.Current_Directory>
/home/itssahil/PROJECTS/Mol_Feturizer/New_Systems/rnas/1o9m

>  <Rbt.Executable>
rbdock ($Id: //depot/dev/client3/rdock/2013.1/src/exe/rbdock.cxx#4 $)

>  <Rbt.Library>
libRbt.so (2013.1, Build901 2013/11/27)

>  <Rbt.Parameter_File>
/export/apps/rDock/src/rDock_2013.1_src/data/scripts/dock_solv.prm

>  <Rbt.Receptor>
prm/pocket_docking_7.prm

>  <SCORE>
-16.418

>  <SCORE.INTER>
-12.2425

>  <SCORE.INTER.CONST>
1

>  <SCORE.INTER.POLAR>
-0.959166

>  <SCORE.INTER.ROT>
15

>  <SCORE.INTER.SOLV>
20.469

>  <SCORE.INTER.VDW>
-25.3874

>  <SCORE.INTER.norm>
-0.330878

>  <SCORE.INTRA>
-4.17549

>  <SCORE.INTRA.DIHEDRAL>
-13.85

>  <SCORE.INTRA.DIHEDRAL.0>
21.5987

>  <SCORE.INTRA.POLAR>
0

>  <SCORE.INTRA.POLAR.0>
0

>  <SCORE.INTRA.REPUL>
0

>  <SCORE.INTRA.REPUL.0>
0

>  <SCORE.INTRA.SOLV>
2.81696

>  <SCORE.INTRA.SOLV.lig_0>
-108.715

>  <SCORE.INTRA.VDW>
1.34103

>  <SCORE.INTRA.VDW.0>
-3.9485

>  <SCORE.INTRA.norm>
-0.112851

>  <SCORE.RESTR>
0

>  <SCORE.RESTR.CAVITY>
0

>  <SCORE.RESTR.norm>
0

>  <SCORE.SYSTEM>
0

>  <SCORE.SYSTEM.CONST>
0

>  <SCORE.SYSTEM.DIHEDRAL>
0

>  <SCORE.SYSTEM.SOLV>
0

>  <SCORE.SYSTEM.norm>
0

>  <SCORE.heavy>
37

>  <SCORE.norm>
-0.44373

>  <RMSD>
8.875

$$$$
1o9m_lig
 OpenBabel11021811403D
libRbt.so/2013.1/901 2013/11/27
 37 38  0  0  0  0  0  0  0  0999 V2000
  -12.6513   20.6052    7.2182 C   0  0  2  0  0  0  0  0  0  0  0  0
  -11.9770   19.8234    6.1855 O   0  0  0  0  0  0  0  0  0  0  0  0
  -14.0982   20.9018    6.6768 C   0  0  2  0  0  0  0  0  0  0  0  0
  -14.8478   19.6670    6.3865 N   0  0  0  0  0  0  0  0  0  0  0  0
  -13.9911   21.8052    5.3900 C   0  0  1  0  0  0  0  0  0  0  0  0
  -15.2961   22.0908    4.8790 O   0  0  0  0  0  0  0  0  0  0  0  0
  -13.2080   23.1045    5.7721 C   0  0  2  0  0  0  0  0  0  0  0  0
  -13.0361   23.9991    4.6608 O   0  0  0  0  0  0  0  0  0  0  0  0
  -11.8153   22.7523    6.3507 C   0  0  2  0  0  0  0  0  0  0  0  0
  -11.9363   21.8615    7.4693 O   0  0  0  0  0  0  0  0  0  0  0  0
  -11.0620   23.9850    6.7793 C   0  0  0  0  0  0  0  0  0  0  0  0
   -9.8592   23.6350    7.3452 N   0  0  0  0  0  0  0  0  0  0  0  0
   -8.4886   17.2908    6.6732 C   0  0  1  0  0  0  0  0  0  0  0  0
   -7.0619   16.8822    6.8035 N   0  0  0  0  0  0  0  0  0  0  0  0
   -8.8282   18.2572    7.7999 C   0  0  2  0  0  0  0  0  0  0  0  0
   -8.5606   17.6156    9.0111 O   0  0  0  0  0  0  0  0  0  0  0  0
  -10.3232   18.6992    7.7143 C   0  0  1  0  0  0  0  0  0  0  0  0
  -10.6307   19.6420    8.7863 O   0  0  0  0  0  0  0  0  0  0  0  0
  -10.5883   19.4071    6.3235 C   0  0  1  0  0  0  0  0  0  0  0  0
  -10.2704   18.4445    5.1894 C   0  0  1  0  0  0  0  0  0  0  0  0
  -10.5348   19.1093    3.9222 N   0  0  0  0  0  0  0  0  0  0  0  0
   -8.7894   17.9897    5.2859 C   0  0  0  0  0  0  0  0  0  0  0  0
   -7.7998   16.9515   10.0439 C   0  0  0  0  0  0  0  0  0  0  0  0
   -8.7170   16.6109   11.1960 C   0  0  0  0  0  0  0  0  0  0  0  0
   -8.0234   16.4283   12.4877 N   0  0  0  0  0  0  0  0  0  0  0  0
   -6.9793   16.4191   13.5376 C   0  0  0  0  0  0  0  0  0  0  0  0
   -6.2601   17.7063   13.1147 C   0  0  0  0  0  0  0  0  0  0  0  0
   -4.9597   17.9376   13.9070 C   0  0  0  0  0  0  0  0  0  0  0  0
   -4.2621   19.2171   13.4559 C   0  0  0  0  0  0  0  0  0  0  0  0
   -3.6346   19.0138   12.1578 N   0  0  0  0  0  0  0  0  0  0  0  0
   -4.0744   13.0367    8.9077 N   0  0  0  0  0  0  0  0  0  0  0  0
   -6.6663   15.5452    5.7069 C   0  0  0  0  0  0  0  0  0  0  0  0
   -7.2121   14.9762    4.9705 O   0  0  0  0  0  0  0  0  0  0  0  0
   -5.2830   15.6020    6.3077 C   0  0  2  0  0  0  0  0  0  0  0  0
   -4.3177   15.6105    5.3330 O   0  0  0  0  0  0  0  0  0  0  0  0
   -5.0936   14.3154    7.1037 C   0  0  0  0  0  0  0  0  0  0  0  0
   -4.0531   14.3451    8.2378 C   0  0  0  0  0  0  0  0  0  0  0  0
  1  2  1  6  0  0  0
  1  3  1  0  0  0  0
  3  4  1  6  0  0  0
  3  5  1  0  0  0  0
  5  6  1  1  0  0  0
  5  7  1  0  0  0  0
  7  8  1  6  0  0  0
  9  7  1  0  0  0  0
  9 10  1  0  0  0  0
  9 11  1  1  0  0  0
 10  1  1  0  0  0  0
 11 12  1  0  0  0  0
 13 14  1  6  0  0  0
 13 15  1  0  0  0  0
 13 22  1  0  0  0  0
 14 32  1  0  0  0  0
 15 16  1  1  0  0  0
 15 17  1  0  0  0  0
 16 23  1  0  0  0  0
 17 18  1  1  0  0  0
 17 19  1  0  0  0  0
 19  2  1  1  0  0  0
 19 20  1  0  0  0  0
 20 21  1  6  0  0  0
 20 22  1  0  0  0  0
 23 24  1  0  0  0  0
 24 25  1  0  0  0  0
 25 26  1  0  0  0  0
 26 27  1  0  0  0  0
 27 28  1  0  0  0  0
 28 29  1  0  0  0  0
 29 30  1  0  0  0  0
 31 37  1  0  0  0  0
 32 33  2  0  0  0  0
 34 32  1  6  0  0  0
 34 35  1  0  0  0  0
 34 36  1  0  0  0  0
 36 37  1  0  0  0  0
M  END
>  <CHROM.1>
177.67331302,177.15922438,169.97975008,61.00774007,179.57420290,50.74322877
-157.23829733,10.31715317,35.36991773,-172.73578184,179.50280038,-74.14633846
-131.56624778,-156.43752837,177.46251688,-9.06990122,18.69692543,7.80693816
3.00427752,0.74405161,-1.99466585

>  <Name>
1o9m_lig

>  <RI>
0

>  <Rbt.Current_Directory>
/home/itssahil/PROJECTS/Mol_Feturizer/New_Systems/rnas/1o9m

>  <Rbt.Executable>
rbdock ($Id: //depot/dev/client3/rdock/2013.1/src/exe/rbdock.cxx#4 $)

>  <Rbt.Library>
libRbt.so (2013.1, Build901 2013/11/27)

>  <Rbt.Parameter_File>
/export/apps/rDock/src/rDock_2013.1_src/data/scripts/dock_solv.prm

>  <Rbt.Receptor>
prm/pocket_docking_6.prm

>  <SCORE>
-16.3061

>  <SCORE.INTER>
-9.14581

>  <SCORE.INTER.CONST>
1

>  <SCORE.INTER.POLAR>
-1.49675

>  <SCORE.INTER.ROT>
15

>  <SCORE.INTER.SOLV>
19.9783

>  <SCORE.INTER.VDW>
-21.3675

>  <SCORE.INTER.norm>
-0.247184

>  <SCORE.INTRA>
-7.16026

>  <SCORE.INTRA.DIHEDRAL>
-12.6896

>  <SCORE.INTRA.DIHEDRAL.0>
21.5987

>  <SCORE.INTRA.POLAR>
0

>  <SCORE.INTRA.POLAR.0>
0

>  <SCORE.INTRA.REPUL>
0

>  <SCORE.INTRA.REPUL.0>
0

>  <SCORE.INTRA.SOLV>
-1.75169

>  <SCORE.INTRA.SOLV.lig_0>
-108.715

>  <SCORE.INTRA.VDW>
0.0603694

>  <SCORE.INTRA.VDW.0>
-3.9485

>  <SCORE.INTRA.norm>
-0.193521

>  <SCORE.RESTR>
0

>  <SCORE.RESTR.CAVITY>
0

>  <SCORE.RESTR.norm>
0

>  <SCORE.SYSTEM>
0

>  <SCORE.SYSTEM.CONST>
0

>  <SCORE.SYSTEM.DIHEDRAL>
0

>  <SCORE.SYSTEM.SOLV>
0

>  <SCORE.SYSTEM.norm>
0

>  <SCORE.heavy>
37

>  <SCORE.norm>
-0.440704

>  <RMSD>
8.876

$$$$
1o9m_lig
 OpenBabel11021811403D
libRbt.so/2013.1/901 2013/11/27
 37 38  0  0  0  0  0  0  0  0999 V2000
  -12.2914   19.1045    5.7079 C   0  0  2  0  0  0  0  0  0  0  0  0
  -11.1571   20.0071    5.5320 O   0  0  0  0  0  0  0  0  0  0  0  0
  -12.8927   18.8622    4.2746 C   0  0  2  0  0  0  0  0  0  0  0  0
  -11.9052   18.2823    3.3475 N   0  0  0  0  0  0  0  0  0  0  0  0
  -13.4515   20.2250    3.7139 C   0  0  1  0  0  0  0  0  0  0  0  0
  -14.0062   20.0303    2.4100 O   0  0  0  0  0  0  0  0  0  0  0  0
  -14.5073   20.7724    4.7303 C   0  0  2  0  0  0  0  0  0  0  0  0
  -15.0731   22.0292    4.3240 O   0  0  0  0  0  0  0  0  0  0  0  0
  -13.8776   20.9384    6.1354 C   0  0  2  0  0  0  0  0  0  0  0  0
  -13.3016   19.7040    6.5870 O   0  0  0  0  0  0  0  0  0  0  0  0
  -14.8891   21.4116    7.1470 C   0  0  0  0  0  0  0  0  0  0  0  0
  -14.2867   21.6070    8.3669 N   0  0  0  0  0  0  0  0  0  0  0  0
   -7.8126   20.6767    8.2127 C   0  0  1  0  0  0  0  0  0  0  0  0
   -7.0273   21.1848    9.3723 N   0  0  0  0  0  0  0  0  0  0  0  0
   -8.9896   19.8636    8.7344 C   0  0  2  0  0  0  0  0  0  0  0  0
   -8.4816   18.8360    9.5320 O   0  0  0  0  0  0  0  0  0  0  0  0
   -9.8330   19.2939    7.5504 C   0  0  1  0  0  0  0  0  0  0  0  0
  -10.9703   18.5348    8.0631 O   0  0  0  0  0  0  0  0  0  0  0  0
  -10.3768   20.4873    6.6640 C   0  0  1  0  0  0  0  0  0  0  0  0
   -9.2086   21.2965    6.1212 C   0  0  1  0  0  0  0  0  0  0  0  0
   -9.7295   22.3777    5.2983 N   0  0  0  0  0  0  0  0  0  0  0  0
   -8.3588   21.8465    7.2979 C   0  0  0  0  0  0  0  0  0  0  0  0
   -7.6669   17.7066    9.9159 C   0  0  0  0  0  0  0  0  0  0  0  0
   -7.9103   16.5676    8.9527 C   0  0  0  0  0  0  0  0  0  0  0  0
   -6.6801   16.0030    8.3603 N   0  0  0  0  0  0  0  0  0  0  0  0
   -5.5335   15.7643    7.4543 C   0  0  0  0  0  0  0  0  0  0  0  0
   -6.3406   15.3682    6.2115 C   0  0  0  0  0  0  0  0  0  0  0  0
   -5.4545   15.2219    4.9602 C   0  0  0  0  0  0  0  0  0  0  0  0
   -4.5638   13.9873    5.0595 C   0  0  0  0  0  0  0  0  0  0  0  0
   -3.7339   13.8723    3.8686 N   0  0  0  0  0  0  0  0  0  0  0  0
   -3.8286   18.3885   12.6685 N   0  0  0  0  0  0  0  0  0  0  0  0
   -5.3502   20.6087    9.3236 C   0  0  0  0  0  0  0  0  0  0  0  0
   -4.7751   19.9925    8.6502 O   0  0  0  0  0  0  0  0  0  0  0  0
   -5.1678   21.3553   10.6224 C   0  0  2  0  0  0  0  0  0  0  0  0
   -4.4871   22.5306   10.4289 O   0  0  0  0  0  0  0  0  0  0  0  0
   -4.2933   20.4820   11.5153 C   0  0  0  0  0  0  0  0  0  0  0  0
   -4.8790   19.1272   11.9528 C   0  0  0  0  0  0  0  0  0  0  0  0
  1  2  1  6  0  0  0
  1  3  1  0  0  0  0
  3  4  1  6  0  0  0
  3  5  1  0  0  0  0
  5  6  1  6  0  0  0
  5  7  1  0  0  0  0
  7  8  1  6  0  0  0
  9  7  1  0  0  0  0
  9 10  1  0  0  0  0
  9 11  1  1  0  0  0
 10  1  1  0  0  0  0
 11 12  1  0  0  0  0
 13 14  1  1  0  0  0
 13 15  1  0  0  0  0
 13 22  1  0  0  0  0
 14 32  1  0  0  0  0
 15 16  1  6  0  0  0
 15 17  1  0  0  0  0
 16 23  1  0  0  0  0
 17 18  1  1  0  0  0
 17 19  1  0  0  0  0
 19  2  1  6  0  0  0
 19 20  1  0  0  0  0
 20 21  1  1  0  0  0
 20 22  1  0  0  0  0
 23 24  1  0  0  0  0
 24 25  1  0  0  0  0
 25 26  1  0  0  0  0
 26 27  1  0  0  0  0
 27 28  1  0  0  0  0
 28 29  1  0  0  0  0
 29 30  1  0  0  0  0
 31 37  1  0  0  0  0
 32 33  2  0  0  0  0
 34 32  1  6  0  0  0
 34 35  1  0  0  0  0
 34 36  1  0  0  0  0
 36 37  1  0  0  0  0
M  END
>  <CHROM.1>
178.06474141,-177.27000163,120.61323623,-51.55780945,-59.24122642,54.21406624
127.71479358,-89.41234436,-62.99929396,172.13783843,70.52421208,-179.84278765
-103.69582846,-64.46662457,173.64245142,-9.01808239,19.30877208,7.26867166
-3.02223850,-0.49163239,0.76183344

>  <Name>
1o9m_lig

>  <RI>
0

>  <Rbt.Current_Directory>
/home/itssahil/PROJECTS/Mol_Feturizer/New_Systems/rnas/1o9m

>  <Rbt.Executable>
rbdock ($Id: //depot/dev/client3/rdock/2013.1/src/exe/rbdock.cxx#4 $)

>  <Rbt.Library>
libRbt.so (2013.1, Build901 2013/11/27)

>  <Rbt.Parameter_File>
/export/apps/rDock/src/rDock_2013.1_src/data/scripts/dock_solv.prm

>  <Rbt.Receptor>
prm/pocket_docking_5.prm

>  <SCORE>
-6.20314

>  <SCORE.INTER>
0.307081

>  <SCORE.INTER.CONST>
1

>  <SCORE.INTER.POLAR>
-0.514184

>  <SCORE.INTER.ROT>
15

>  <SCORE.INTER.SOLV>
12.5517

>  <SCORE.INTER.VDW>
-15.8652

>  <SCORE.INTER.norm>
0.00829948

>  <SCORE.INTRA>
-6.51022

>  <SCORE.INTRA.DIHEDRAL>
-11.0107

>  <SCORE.INTRA.DIHEDRAL.0>
21.5987

>  <SCORE.INTRA.POLAR>
0

>  <SCORE.INTRA.POLAR.0>
0

>  <SCORE.INTRA.REPUL>
0

>  <SCORE.INTRA.REPUL.0>
0

>  <SCORE.INTRA.SOLV>
-1.34746

>  <SCORE.INTRA.SOLV.lig_0>
-108.715

>  <SCORE.INTRA.VDW>
-0.331141

>  <SCORE.INTRA.VDW.0>
-3.9485

>  <SCORE.INTRA.norm>
-0.175952

>  <SCORE.RESTR>
0

>  <SCORE.RESTR.CAVITY>
0

>  <SCORE.RESTR.norm>
0

>  <SCORE.SYSTEM>
0

>  <SCORE.SYSTEM.CONST>
0

>  <SCORE.SYSTEM.DIHEDRAL>
0

>  <SCORE.SYSTEM.SOLV>
0

>  <SCORE.SYSTEM.norm>
0

>  <SCORE.heavy>
37

>  <SCORE.norm>
-0.167652

>  <RMSD>
8.888

$$$$
1o9m_lig
 OpenBabel11021811403D
libRbt.so/2013.1/901 2013/11/27
 37 38  0  0  0  0  0  0  0  0999 V2000
   -1.6437   14.3243    6.8690 C   0  0  2  0  0  0  0  0  0  0  0  0
   -2.1426   15.1039    7.9984 O   0  0  0  0  0  0  0  0  0  0  0  0
   -0.6159   15.2448    6.1135 C   0  0  2  0  0  0  0  0  0  0  0  0
    0.4948   15.6699    6.9834 N   0  0  0  0  0  0  0  0  0  0  0  0
   -1.3772   16.4950    5.5294 C   0  0  1  0  0  0  0  0  0  0  0  0
   -0.4629   17.3479    4.8350 O   0  0  0  0  0  0  0  0  0  0  0  0
   -2.5237   15.9755    4.6003 C   0  0  2  0  0  0  0  0  0  0  0  0
   -3.2988   17.0390    4.0233 O   0  0  0  0  0  0  0  0  0  0  0  0
   -3.4722   15.0312    5.3794 C   0  0  2  0  0  0  0  0  0  0  0  0
   -2.7418   13.9473    5.9719 O   0  0  0  0  0  0  0  0  0  0  0  0
   -4.5541   14.4720    4.4921 C   0  0  0  0  0  0  0  0  0  0  0  0
   -5.3529   13.6080    5.2024 N   0  0  0  0  0  0  0  0  0  0  0  0
   -1.2107   15.0538   12.2351 C   0  0  1  0  0  0  0  0  0  0  0  0
   -0.4283   15.1621   13.4983 N   0  0  0  0  0  0  0  0  0  0  0  0
   -1.1686   16.3943   11.5142 C   0  0  2  0  0  0  0  0  0  0  0  0
   -1.6772   17.3641   12.3808 O   0  0  0  0  0  0  0  0  0  0  0  0
   -1.9933   16.3334   10.1898 C   0  0  1  0  0  0  0  0  0  0  0  0
   -1.9273   17.6173    9.4972 O   0  0  0  0  0  0  0  0  0  0  0  0
   -1.3952   15.2142    9.2435 C   0  0  1  0  0  0  0  0  0  0  0  0
   -1.4492   13.8661    9.9461 C   0  0  1  0  0  0  0  0  0  0  0  0
   -0.9094   12.8507    9.0543 N   0  0  0  0  0  0  0  0  0  0  0  0
   -0.6457   13.9323   11.2725 C   0  0  0  0  0  0  0  0  0  0  0  0
   -2.6247   18.0462   13.2314 C   0  0  0  0  0  0  0  0  0  0  0  0
   -3.8085   18.4888   12.4024 C   0  0  0  0  0  0  0  0  0  0  0  0
   -4.7737   17.4111   12.1026 N   0  0  0  0  0  0  0  0  0  0  0  0
   -5.4014   16.2039   11.5187 C   0  0  0  0  0  0  0  0  0  0  0  0
   -6.7837   16.3661   12.1638 C   0  0  0  0  0  0  0  0  0  0  0  0
   -6.7552   16.1071   13.6817 C   0  0  0  0  0  0  0  0  0  0  0  0
   -8.1450   16.2621   14.2914 C   0  0  0  0  0  0  0  0  0  0  0  0
   -8.1011   15.9709   15.7174 N   0  0  0  0  0  0  0  0  0  0  0  0
    1.5927   18.6035   16.0059 N   0  0  0  0  0  0  0  0  0  0  0  0
   -1.4727   15.0129   14.9243 C   0  0  0  0  0  0  0  0  0  0  0  0
   -2.5278   14.8531   15.0831 O   0  0  0  0  0  0  0  0  0  0  0  0
   -0.2178   15.2280   15.7345 C   0  0  2  0  0  0  0  0  0  0  0  0
   -0.4088   14.8823   17.0483 O   0  0  0  0  0  0  0  0  0  0  0  0
    0.0724   16.7247   15.7109 C   0  0  0  0  0  0  0  0  0  0  0  0
    1.3951   17.1876   16.3481 C   0  0  0  0  0  0  0  0  0  0  0  0
  1  2  1  1  0  0  0
  1  3  1  0  0  0  0
  3  4  1  1  0  0  0
  3  5  1  0  0  0  0
  5  6  1  6  0  0  0
  5  7  1  0  0  0  0
  7  8  1  1  0  0  0
  9  7  1  0  0  0  0
  9 10  1  0  0  0  0
  9 11  1  6  0  0  0
 10  1  1  0  0  0  0
 11 12  1  0  0  0  0
 13 14  1  1  0  0  0
 13 15  1  0  0  0  0
 13 22  1  0  0  0  0
 14 32  1  0  0  0  0
 15 16  1  1  0  0  0
 15 17  1  0  0  0  0
 16 23  1  0  0  0  0
 17 18  1  6  0  0  0
 17 19  1  0  0  0  0
 19  2  1  6  0  0  0
 19 20  1  0  0  0  0
 20 21  1  6  0  0  0
 20 22  1  0  0  0  0
 23 24  1  0  0  0  0
 24 25  1  0  0  0  0
 25 26  1  0  0  0  0
 26 27  1  0  0  0  0
 27 28  1  0  0  0  0
 28 29  1  0  0  0  0
 29 30  1  0  0  0  0
 31 37  1  0  0  0  0
 32 33  2  0  0  0  0
 34 32  1  6  0  0  0
 34 35  1  0  0  0  0
 34 36  1  0  0  0  0
 36 37  1  0  0  0  0
M  END
>  <CHROM.1>
-81.70967665,178.17020371,113.61076421,-60.81478217,-62.36050128,168.49078217
78.60969850,-73.40285866,-173.53389482,-70.32545779,-179.43154525,178.18406586
-165.08651219,-173.71319656,169.84429800,-2.39716750,15.84009190,10.60617884
-1.60849111,-0.00672894,1.47384867

>  <Name>
1o9m_lig

>  <RI>
0

>  <Rbt.Current_Directory>
/home/itssahil/PROJECTS/Mol_Feturizer/New_Systems/rnas/1o9m

>  <Rbt.Executable>
rbdock ($Id: //depot/dev/client3/rdock/2013.1/src/exe/rbdock.cxx#4 $)

>  <Rbt.Library>
libRbt.so (2013.1, Build901 2013/11/27)

>  <Rbt.Parameter_File>
/export/apps/rDock/src/rDock_2013.1_src/data/scripts/dock_solv.prm

>  <Rbt.Receptor>
prm/pocket_docking_8.prm

>  <SCORE>
-11.4652

>  <SCORE.INTER>
-5.53488

>  <SCORE.INTER.CONST>
1

>  <SCORE.INTER.POLAR>
-0.958413

>  <SCORE.INTER.ROT>
15

>  <SCORE.INTER.SOLV>
16.8053

>  <SCORE.INTER.VDW>
-19.697

>  <SCORE.INTER.norm>
-0.149591

>  <SCORE.INTRA>
-5.93036

>  <SCORE.INTRA.DIHEDRAL>
-14.1544

>  <SCORE.INTRA.DIHEDRAL.0>
21.5987

>  <SCORE.INTRA.POLAR>
0

>  <SCORE.INTRA.POLAR.0>
0

>  <SCORE.INTRA.REPUL>
0

>  <SCORE.INTRA.REPUL.0>
0

>  <SCORE.INTRA.SOLV>
3.29674

>  <SCORE.INTRA.SOLV.lig_0>
-108.715

>  <SCORE.INTRA.VDW>
-0.501525

>  <SCORE.INTRA.VDW.0>
-3.9485

>  <SCORE.INTRA.norm>
-0.16028

>  <SCORE.RESTR>
0

>  <SCORE.RESTR.CAVITY>
0

>  <SCORE.RESTR.norm>
0

>  <SCORE.SYSTEM>
0

>  <SCORE.SYSTEM.CONST>
0

>  <SCORE.SYSTEM.DIHEDRAL>
0

>  <SCORE.SYSTEM.SOLV>
0

>  <SCORE.SYSTEM.norm>
0

>  <SCORE.heavy>
37

>  <SCORE.norm>
-0.309871

>  <RMSD>
8.889

$$$$
1o9m_lig
 OpenBabel11021811403D
libRbt.so/2013.1/901 2013/11/27
 37 38  0  0  0  0  0  0  0  0999 V2000
  -12.7523   20.0005    5.4654 C   0  0  2  0  0  0  0  0  0  0  0  0
  -12.0919   18.8018    4.9564 O   0  0  0  0  0  0  0  0  0  0  0  0
  -14.2764   19.8554    5.1041 C   0  0  2  0  0  0  0  0  0  0  0  0
  -14.8744   18.6432    5.6904 N   0  0  0  0  0  0  0  0  0  0  0  0
  -14.4357   19.8538    3.5361 C   0  0  1  0  0  0  0  0  0  0  0  0
  -15.8153   19.7245    3.1816 O   0  0  0  0  0  0  0  0  0  0  0  0
  -13.8037   21.1733    2.9821 C   0  0  2  0  0  0  0  0  0  0  0  0
  -13.8789   21.2693    1.5503 O   0  0  0  0  0  0  0  0  0  0  0  0
  -12.3212   21.2920    3.4140 C   0  0  2  0  0  0  0  0  0  0  0  0
  -12.1955   21.2059    4.8410 O   0  0  0  0  0  0  0  0  0  0  0  0
  -11.7043   22.5825    2.9401 C   0  0  0  0  0  0  0  0  0  0  0  0
  -11.5434   22.5600    1.5752 N   0  0  0  0  0  0  0  0  0  0  0  0
   -8.4469   16.7249    6.0615 C   0  0  1  0  0  0  0  0  0  0  0  0
   -6.9995   16.4695    6.3049 N   0  0  0  0  0  0  0  0  0  0  0  0
   -8.8948   17.8883    6.9358 C   0  0  2  0  0  0  0  0  0  0  0  0
   -8.6230   17.5561    8.2647 O   0  0  0  0  0  0  0  0  0  0  0  0
  -10.4142   18.1808    6.7272 C   0  0  1  0  0  0  0  0  0  0  0  0
  -10.8265   19.3116    7.5541 O   0  0  0  0  0  0  0  0  0  0  0  0
  -10.6821   18.5376    5.2084 C   0  0  1  0  0  0  0  0  0  0  0  0
  -10.2558   17.3745    4.3256 C   0  0  1  0  0  0  0  0  0  0  0  0
  -10.5242   17.7171    2.9369 N   0  0  0  0  0  0  0  0  0  0  0  0
   -8.7499   17.0709    4.5474 C   0  0  0  0  0  0  0  0  0  0  0  0
   -8.5687   17.6893    9.7020 C   0  0  0  0  0  0  0  0  0  0  0  0
   -7.9241   16.4559   10.2917 C   0  0  0  0  0  0  0  0  0  0  0  0
   -7.7804   16.4925   11.7617 N   0  0  0  0  0  0  0  0  0  0  0  0
   -8.0171   16.7846   13.1938 C   0  0  0  0  0  0  0  0  0  0  0  0
   -8.9675   15.6154   13.4813 C   0  0  0  0  0  0  0  0  0  0  0  0
  -10.2559   15.6880   12.6405 C   0  0  0  0  0  0  0  0  0  0  0  0
  -11.2046   14.5456   12.9899 C   0  0  0  0  0  0  0  0  0  0  0  0
  -11.5666   14.6092   14.3989 N   0  0  0  0  0  0  0  0  0  0  0  0
   -3.6883   13.6584    9.4054 N   0  0  0  0  0  0  0  0  0  0  0  0
   -6.4960   14.9026    5.6430 C   0  0  0  0  0  0  0  0  0  0  0  0
   -6.9889   14.1093    5.1029 O   0  0  0  0  0  0  0  0  0  0  0  0
   -5.1316   15.2247    6.2019 C   0  0  2  0  0  0  0  0  0  0  0  0
   -4.1395   14.8873    5.3165 O   0  0  0  0  0  0  0  0  0  0  0  0
   -4.9399   14.3465    7.4334 C   0  0  0  0  0  0  0  0  0  0  0  0
   -3.7316   14.6633    8.3332 C   0  0  0  0  0  0  0  0  0  0  0  0
  1  2  1  6  0  0  0
  1  3  1  0  0  0  0
  3  4  1  6  0  0  0
  3  5  1  0  0  0  0
  5  6  1  1  0  0  0
  5  7  1  0  0  0  0
  7  8  1  6  0  0  0
  9  7  1  0  0  0  0
  9 10  1  0  0  0  0
  9 11  1  1  0  0  0
 10  1  1  0  0  0  0
 11 12  1  0  0  0  0
 13 14  1  6  0  0  0
 13 15  1  0  0  0  0
 13 22  1  0  0  0  0
 14 32  1  0  0  0  0
 15 16  1  1  0  0  0
 15 17  1  0  0  0  0
 16 23  1  0  0  0  0
 17 18  1  1  0  0  0
 17 19  1  0  0  0  0
 19  2  1  1  0  0  0
 19 20  1  0  0  0  0
 20 21  1  6  0  0  0
 20 22  1  0  0  0  0
 23 24  1  0  0  0  0
 24 25  1  0  0  0  0
 25 26  1  0  0  0  0
 26 27  1  0  0  0  0
 27 28  1  0  0  0  0
 28 29  1  0  0  0  0
 29 30  1  0  0  0  0
 31 37  1  0  0  0  0
 32 33  2  0  0  0  0
 34 32  1  6  0  0  0
 34 35  1  0  0  0  0
 34 36  1  0  0  0  0
 36 37  1  0  0  0  0
M  END
>  <CHROM.1>
-174.82689927,-70.27600825,165.95997956,-178.38425122,179.84460169,70.16047415
178.47296007,30.48720473,86.91631821,-61.72919894,-177.65305688,59.71888255
-137.79322508,-169.33069739,-176.66469024,-9.83431346,17.67026992,6.74607781
2.27524397,0.47168975,-1.26794974

>  <Name>
1o9m_lig

>  <RI>
0

>  <Rbt.Current_Directory>
/home/itssahil/PROJECTS/Mol_Feturizer/New_Systems/rnas/1o9m

>  <Rbt.Executable>
rbdock ($Id: //depot/dev/client3/rdock/2013.1/src/exe/rbdock.cxx#4 $)

>  <Rbt.Library>
libRbt.so (2013.1, Build901 2013/11/27)

>  <Rbt.Parameter_File>
/export/apps/rDock/src/rDock_2013.1_src/data/scripts/dock_solv.prm

>  <Rbt.Receptor>
prm/pocket_docking_8.prm

>  <SCORE>
-9.75452

>  <SCORE.INTER>
-1.98543

>  <SCORE.INTER.CONST>
1

>  <SCORE.INTER.POLAR>
0

>  <SCORE.INTER.ROT>
15

>  <SCORE.INTER.SOLV>
20.0191

>  <SCORE.INTER.VDW>
-21.5967

>  <SCORE.INTER.norm>
-0.0536604

>  <SCORE.INTRA>
-7.76909

>  <SCORE.INTRA.DIHEDRAL>
-16.6077

>  <SCORE.INTRA.DIHEDRAL.0>
21.5987

>  <SCORE.INTRA.POLAR>
0

>  <SCORE.INTRA.POLAR.0>
0

>  <SCORE.INTRA.REPUL>
0

>  <SCORE.INTRA.REPUL.0>
0

>  <SCORE.INTRA.SOLV>
0.0862634

>  <SCORE.INTRA.SOLV.lig_0>
-108.715

>  <SCORE.INTRA.VDW>
0.491649

>  <SCORE.INTRA.VDW.0>
-3.9485

>  <SCORE.INTRA.norm>
-0.209975

>  <SCORE.RESTR>
0

>  <SCORE.RESTR.CAVITY>
0

>  <SCORE.RESTR.norm>
0

>  <SCORE.SYSTEM>
0

>  <SCORE.SYSTEM.CONST>
0

>  <SCORE.SYSTEM.DIHEDRAL>
0

>  <SCORE.SYSTEM.SOLV>
0

>  <SCORE.SYSTEM.norm>
0

>  <SCORE.heavy>
37

>  <SCORE.norm>
-0.263636

>  <RMSD>
8.908

$$$$
1o9m_lig
 OpenBabel11021811403D
libRbt.so/2013.1/901 2013/11/27
 37 38  0  0  0  0  0  0  0  0999 V2000
   -6.4930   23.0629    6.6719 C   0  0  2  0  0  0  0  0  0  0  0  0
   -7.1028   21.7942    6.2836 O   0  0  0  0  0  0  0  0  0  0  0  0
   -7.6599   24.1159    6.7340 C   0  0  2  0  0  0  0  0  0  0  0  0
   -8.7093   23.7280    7.6927 N   0  0  0  0  0  0  0  0  0  0  0  0
   -8.2639   24.3006    5.2900 C   0  0  1  0  0  0  0  0  0  0  0  0
   -9.3275   25.2563    5.3198 O   0  0  0  0  0  0  0  0  0  0  0  0
   -7.1063   24.7333    4.3308 C   0  0  2  0  0  0  0  0  0  0  0  0
   -7.5446   24.9145    2.9743 O   0  0  0  0  0  0  0  0  0  0  0  0
   -5.9615   23.6905    4.3513 C   0  0  2  0  0  0  0  0  0  0  0  0
   -5.4864   23.4786    5.6887 O   0  0  0  0  0  0  0  0  0  0  0  0
   -4.8083   24.1118    3.4776 C   0  0  0  0  0  0  0  0  0  0  0  0
   -3.8792   23.1021    3.3965 N   0  0  0  0  0  0  0  0  0  0  0  0
   -5.4296   17.8185    6.7469 C   0  0  1  0  0  0  0  0  0  0  0  0
   -4.6105   16.6036    6.4770 N   0  0  0  0  0  0  0  0  0  0  0  0
   -4.4977   19.0079    6.9350 C   0  0  2  0  0  0  0  0  0  0  0  0
   -3.6220   18.7062    7.9801 O   0  0  0  0  0  0  0  0  0  0  0  0
   -5.3136   20.3038    7.2394 C   0  0  1  0  0  0  0  0  0  0  0  0
   -4.4108   21.4409    7.3961 O   0  0  0  0  0  0  0  0  0  0  0  0
   -6.3027   20.6019    6.0400 C   0  0  1  0  0  0  0  0  0  0  0  0
   -7.2518   19.4278    5.8543 C   0  0  1  0  0  0  0  0  0  0  0  0
   -8.1607   19.7286    4.7584 N   0  0  0  0  0  0  0  0  0  0  0  0
   -6.4399   18.1356    5.5711 C   0  0  0  0  0  0  0  0  0  0  0  0
   -2.5607   18.0387    8.6976 C   0  0  0  0  0  0  0  0  0  0  0  0
   -1.2630   18.2150    7.9431 C   0  0  0  0  0  0  0  0  0  0  0  0
   -0.0987   17.5685    8.5829 N   0  0  0  0  0  0  0  0  0  0  0  0
    0.9914   17.2523    9.5338 C   0  0  0  0  0  0  0  0  0  0  0  0
    1.8508   18.4957    9.2724 C   0  0  0  0  0  0  0  0  0  0  0  0
    3.0978   18.5457   10.1750 C   0  0  0  0  0  0  0  0  0  0  0  0
    3.9604   19.7620    9.8528 C   0  0  0  0  0  0  0  0  0  0  0  0
    3.2643   20.9835   10.2319 N   0  0  0  0  0  0  0  0  0  0  0  0
   -1.3332   13.7625    9.8157 N   0  0  0  0  0  0  0  0  0  0  0  0
   -4.8025   15.3927    7.7590 C   0  0  0  0  0  0  0  0  0  0  0  0
   -5.3768   15.3318    8.6703 O   0  0  0  0  0  0  0  0  0  0  0  0
   -3.8078   14.5663    6.9811 C   0  0  2  0  0  0  0  0  0  0  0  0
   -4.4390   13.6152    6.2201 O   0  0  0  0  0  0  0  0  0  0  0  0
   -2.9582   13.8194    8.0034 C   0  0  0  0  0  0  0  0  0  0  0  0
   -2.0729   14.6728    8.9295 C   0  0  0  0  0  0  0  0  0  0  0  0
  1  2  1  6  0  0  0
  1  3  1  0  0  0  0
  3  4  1  1  0  0  0
  3  5  1  0  0  0  0
  5  6  1  1  0  0  0
  5  7  1  0  0  0  0
  7  8  1  6  0  0  0
  9  7  1  0  0  0  0
  9 10  1  0  0  0  0
  9 11  1  6  0  0  0
 10  1  1  0  0  0  0
 11 12  1  0  0  0  0
 13 14  1  6  0  0  0
 13 15  1  0  0  0  0
 13 22  1  0  0  0  0
 14 32  1  0  0  0  0
 15 16  1  1  0  0  0
 15 17  1  0  0  0  0
 16 23  1  0  0  0  0
 17 18  1  6  0  0  0
 17 19  1  0  0  0  0
 19  2  1  1  0  0  0
 19 20  1  0  0  0  0
 20 21  1  6  0  0  0
 20 22  1  0  0  0  0
 23 24  1  0  0  0  0
 24 25  1  0  0  0  0
 25 26  1  0  0  0  0
 26 27  1  0  0  0  0
 27 28  1  0  0  0  0
 28 29  1  0  0  0  0
 29 30  1  0  0  0  0
 31 37  1  0  0  0  0
 32 33  2  0  0  0  0
 34 32  1  1  0  0  0
 34 35  1  0  0  0  0
 34 36  1  0  0  0  0
 36 37  1  0  0  0  0
M  END
>  <CHROM.1>
175.88338495,-173.17873303,116.42298662,66.63218329,60.71210982,51.28135981
-179.86215064,-68.43417486,-68.68189817,177.27874472,177.69367499,67.81010131
-99.12700126,-64.62632225,-179.29536437,-4.16791639,19.69222626,6.96512887
-2.34676972,0.36125496,2.97104290

>  <Name>
1o9m_lig

>  <RI>
0

>  <Rbt.Current_Directory>
/home/itssahil/PROJECTS/Mol_Feturizer/New_Systems/rnas/1o9m

>  <Rbt.Executable>
rbdock ($Id: //depot/dev/client3/rdock/2013.1/src/exe/rbdock.cxx#4 $)

>  <Rbt.Library>
libRbt.so (2013.1, Build901 2013/11/27)

>  <Rbt.Parameter_File>
/export/apps/rDock/src/rDock_2013.1_src/data/scripts/dock_solv.prm

>  <Rbt.Receptor>
prm/pocket_docking_8.prm

>  <SCORE>
-4.90763

>  <SCORE.INTER>
4.3105

>  <SCORE.INTER.CONST>
1

>  <SCORE.INTER.POLAR>
-1.62552

>  <SCORE.INTER.ROT>
15

>  <SCORE.INTER.SOLV>
8.90553

>  <SCORE.INTER.VDW>
-8.27643

>  <SCORE.INTER.norm>
0.1165

>  <SCORE.INTRA>
-9.21813

>  <SCORE.INTRA.DIHEDRAL>
-17.2417

>  <SCORE.INTRA.DIHEDRAL.0>
21.5987

>  <SCORE.INTRA.POLAR>
0

>  <SCORE.INTRA.POLAR.0>
0

>  <SCORE.INTRA.REPUL>
0

>  <SCORE.INTRA.REPUL.0>
0

>  <SCORE.INTRA.SOLV>
0.226939

>  <SCORE.INTRA.SOLV.lig_0>
-108.715

>  <SCORE.INTRA.VDW>
-0.710748

>  <SCORE.INTRA.VDW.0>
-3.9485

>  <SCORE.INTRA.norm>
-0.249139

>  <SCORE.RESTR>
0

>  <SCORE.RESTR.CAVITY>
0

>  <SCORE.RESTR.norm>
0

>  <SCORE.SYSTEM>
0

>  <SCORE.SYSTEM.CONST>
0

>  <SCORE.SYSTEM.DIHEDRAL>
0

>  <SCORE.SYSTEM.SOLV>
0

>  <SCORE.SYSTEM.norm>
0

>  <SCORE.heavy>
37

>  <SCORE.norm>
-0.132639

>  <RMSD>
8.910

$$$$
1o9m_lig
 OpenBabel11021811403D
libRbt.so/2013.1/901 2013/11/27
 37 38  0  0  0  0  0  0  0  0999 V2000
   -5.0737   16.9625   11.1623 C   0  0  2  0  0  0  0  0  0  0  0  0
   -4.2194   16.6310   10.0254 O   0  0  0  0  0  0  0  0  0  0  0  0
   -4.6025   18.3728   11.6757 C   0  0  2  0  0  0  0  0  0  0  0  0
   -4.7020   19.4071   10.6311 N   0  0  0  0  0  0  0  0  0  0  0  0
   -3.1239   18.2587   12.2090 C   0  0  1  0  0  0  0  0  0  0  0  0
   -2.6723   19.5300   12.6838 O   0  0  0  0  0  0  0  0  0  0  0  0
   -3.0935   17.1647   13.3269 C   0  0  2  0  0  0  0  0  0  0  0  0
   -1.7806   16.9645   13.8756 O   0  0  0  0  0  0  0  0  0  0  0  0
   -3.6195   15.8134   12.7829 C   0  0  2  0  0  0  0  0  0  0  0  0
   -4.9340   15.9625   12.2269 O   0  0  0  0  0  0  0  0  0  0  0  0
   -3.6533   14.7560   13.8560 C   0  0  0  0  0  0  0  0  0  0  0  0
   -2.3839   14.2929   14.1080 N   0  0  0  0  0  0  0  0  0  0  0  0
   -4.8404   14.6659    6.2080 C   0  0  1  0  0  0  0  0  0  0  0  0
   -5.2352   13.6275    5.2152 N   0  0  0  0  0  0  0  0  0  0  0  0
   -6.0716   15.0795    7.0028 C   0  0  2  0  0  0  0  0  0  0  0  0
   -7.0326   15.5370    6.0987 O   0  0  0  0  0  0  0  0  0  0  0  0
   -5.7084   16.1829    8.0460 C   0  0  1  0  0  0  0  0  0  0  0  0
   -6.8918   16.5553    8.8163 O   0  0  0  0  0  0  0  0  0  0  0  0
   -4.6077   15.6308    9.0407 C   0  0  1  0  0  0  0  0  0  0  0  0
   -3.3648   15.2316    8.2598 C   0  0  1  0  0  0  0  0  0  0  0  0
   -2.3618   14.7417    9.1933 N   0  0  0  0  0  0  0  0  0  0  0  0
   -3.7297   14.1488    7.2092 C   0  0  0  0  0  0  0  0  0  0  0  0
   -8.3087   16.0094    5.6142 C   0  0  0  0  0  0  0  0  0  0  0  0
   -8.1727   16.4085    4.1627 C   0  0  0  0  0  0  0  0  0  0  0  0
   -7.1463   17.4414    3.9130 N   0  0  0  0  0  0  0  0  0  0  0  0
   -5.8437   18.1072    3.6840 C   0  0  0  0  0  0  0  0  0  0  0  0
   -5.9200   19.1009    4.8500 C   0  0  0  0  0  0  0  0  0  0  0  0
   -4.6175   19.9051    5.0200 C   0  0  0  0  0  0  0  0  0  0  0  0
   -4.3977   20.8496    3.8423 C   0  0  0  0  0  0  0  0  0  0  0  0
   -3.2243   21.6788    4.0785 N   0  0  0  0  0  0  0  0  0  0  0  0
   -3.9757   10.0838    0.4320 N   0  0  0  0  0  0  0  0  0  0  0  0
   -3.9342   13.3141    4.0508 C   0  0  0  0  0  0  0  0  0  0  0  0
   -2.9334   13.6904    3.9062 O   0  0  0  0  0  0  0  0  0  0  0  0
   -4.8890   12.3380    3.4078 C   0  0  2  0  0  0  0  0  0  0  0  0
   -5.3413   11.4140    4.3154 O   0  0  0  0  0  0  0  0  0  0  0  0
   -4.0950   11.5705    2.3566 C   0  0  0  0  0  0  0  0  0  0  0  0
   -4.8771   10.5696    1.4868 C   0  0  0  0  0  0  0  0  0  0  0  0
  1  2  1  6  0  0  0
  1  3  1  0  0  0  0
  3  4  1  6  0  0  0
  3  5  1  0  0  0  0
  5  6  1  1  0  0  0
  5  7  1  0  0  0  0
  7  8  1  6  0  0  0
  9  7  1  0  0  0  0
  9 10  1  0  0  0  0
  9 11  1  1  0  0  0
 10  1  1  0  0  0  0
 11 12  1  0  0  0  0
 13 14  1  6  0  0  0
 13 15  1  0  0  0  0
 13 22  1  0  0  0  0
 14 32  1  0  0  0  0
 15 16  1  6  0  0  0
 15 17  1  0  0  0  0
 16 23  1  0  0  0  0
 17 18  1  1  0  0  0
 17 19  1  0  0  0  0
 19  2  1  1  0  0  0
 19 20  1  0  0  0  0
 20 21  1  1  0  0  0
 20 22  1  0  0  0  0
 23 24  1  0  0  0  0
 24 25  1  0  0  0  0
 25 26  1  0  0  0  0
 26 27  1  0  0  0  0
 27 28  1  0  0  0  0
 28 29  1  0  0  0  0
 29 30  1  0  0  0  0
 31 37  1  0  0  0  0
 32 33  2  0  0  0  0
 34 32  1  1  0  0  0
 34 35  1  0  0  0  0
 34 36  1  0  0  0  0
 36 37  1  0  0  0  0
M  END
>  <CHROM.1>
-160.24780860,-75.91731526,169.30230426,172.67617490,173.70929226,75.93914387
-57.48377100,81.12296284,-123.07190623,174.11407842,67.53671020,175.17412494
-55.11861131,-175.96951208,172.34653610,-4.63374922,15.89687834,7.55312200
-0.91099556,1.30109798,-2.56194686

>  <Name>
1o9m_lig

>  <RI>
0

>  <Rbt.Current_Directory>
/home/itssahil/PROJECTS/Mol_Feturizer/New_Systems/rnas/1o9m

>  <Rbt.Executable>
rbdock ($Id: //depot/dev/client3/rdock/2013.1/src/exe/rbdock.cxx#4 $)

>  <Rbt.Library>
libRbt.so (2013.1, Build901 2013/11/27)

>  <Rbt.Parameter_File>
/export/apps/rDock/src/rDock_2013.1_src/data/scripts/dock_solv.prm

>  <Rbt.Receptor>
prm/pocket_docking_7.prm

>  <SCORE>
-15.8785

>  <SCORE.INTER>
-9.74556

>  <SCORE.INTER.CONST>
1

>  <SCORE.INTER.POLAR>
-1.61758

>  <SCORE.INTER.ROT>
15

>  <SCORE.INTER.SOLV>
12.9433

>  <SCORE.INTER.VDW>
-19.0195

>  <SCORE.INTER.norm>
-0.263394

>  <SCORE.INTRA>
-6.13293

>  <SCORE.INTRA.DIHEDRAL>
-14.0742

>  <SCORE.INTRA.DIHEDRAL.0>
21.5987

>  <SCORE.INTRA.POLAR>
0

>  <SCORE.INTRA.POLAR.0>
0

>  <SCORE.INTRA.REPUL>
0

>  <SCORE.INTRA.REPUL.0>
0

>  <SCORE.INTRA.SOLV>
0.196924

>  <SCORE.INTRA.SOLV.lig_0>
-108.715

>  <SCORE.INTRA.VDW>
0.805692

>  <SCORE.INTRA.VDW.0>
-3.9485

>  <SCORE.INTRA.norm>
-0.165755

>  <SCORE.RESTR>
0

>  <SCORE.RESTR.CAVITY>
0

>  <SCORE.RESTR.norm>
0

>  <SCORE.SYSTEM>
0

>  <SCORE.SYSTEM.CONST>
0

>  <SCORE.SYSTEM.DIHEDRAL>
0

>  <SCORE.SYSTEM.SOLV>
0

>  <SCORE.SYSTEM.norm>
0

>  <SCORE.heavy>
37

>  <SCORE.norm>
-0.429148

>  <RMSD>
8.921

$$$$
1o9m_lig
 OpenBabel11021811403D
libRbt.so/2013.1/901 2013/11/27
 37 38  0  0  0  0  0  0  0  0999 V2000
   -1.0313   17.7249    5.4003 C   0  0  2  0  0  0  0  0  0  0  0  0
   -0.6255   16.3437    5.1557 O   0  0  0  0  0  0  0  0  0  0  0  0
   -1.0751   18.4304    3.9950 C   0  0  2  0  0  0  0  0  0  0  0  0
   -2.0113   17.7692    3.0691 N   0  0  0  0  0  0  0  0  0  0  0  0
    0.3796   18.4621    3.3895 C   0  0  1  0  0  0  0  0  0  0  0  0
    0.3665   19.1014    2.1102 O   0  0  0  0  0  0  0  0  0  0  0  0
    1.3140   19.1952    4.4077 C   0  0  2  0  0  0  0  0  0  0  0  0
    2.6780   19.2666    3.9613 O   0  0  0  0  0  0  0  0  0  0  0  0
    1.2756   18.4929    5.7875 C   0  0  2  0  0  0  0  0  0  0  0  0
   -0.0700   18.4018    6.2779 O   0  0  0  0  0  0  0  0  0  0  0  0
    2.1245   19.2130    6.8031 C   0  0  0  0  0  0  0  0  0  0  0  0
    3.4566   19.0746    6.4937 N   0  0  0  0  0  0  0  0  0  0  0  0
   -1.7455   14.3252    8.8289 C   0  0  1  0  0  0  0  0  0  0  0  0
   -1.8410   13.2650    9.8711 N   0  0  0  0  0  0  0  0  0  0  0  0
   -0.2819   14.7012    8.6426 C   0  0  2  0  0  0  0  0  0  0  0  0
    0.2156   15.1163    9.8797 O   0  0  0  0  0  0  0  0  0  0  0  0
   -0.1345   15.8258    7.5696 C   0  0  1  0  0  0  0  0  0  0  0  0
    1.2744   16.1621    7.3843 O   0  0  0  0  0  0  0  0  0  0  0  0
   -0.7224   15.3219    6.1889 C   0  0  1  0  0  0  0  0  0  0  0  0
   -2.1903   14.9608    6.3579 C   0  0  1  0  0  0  0  0  0  0  0  0
   -2.7141   14.5151    5.0755 N   0  0  0  0  0  0  0  0  0  0  0  0
   -2.3387   13.8567    7.4388 C   0  0  0  0  0  0  0  0  0  0  0  0
    1.1516   15.6375   10.8486 C   0  0  0  0  0  0  0  0  0  0  0  0
    1.5482   17.0410   10.4519 C   0  0  0  0  0  0  0  0  0  0  0  0
    2.5833   17.6443   11.3165 N   0  0  0  0  0  0  0  0  0  0  0  0
    3.8805   18.1556   11.8148 C   0  0  0  0  0  0  0  0  0  0  0  0
    3.4185   18.5258   13.2299 C   0  0  0  0  0  0  0  0  0  0  0  0
    2.6534   19.8621   13.2650 C   0  0  0  0  0  0  0  0  0  0  0  0
    1.2025   19.6756   12.8320 C   0  0  0  0  0  0  0  0  0  0  0  0
    0.4673   18.9392   13.8506 N   0  0  0  0  0  0  0  0  0  0  0  0
   -3.9701   14.1365   13.5842 N   0  0  0  0  0  0  0  0  0  0  0  0
   -3.3461   12.3384    9.7193 C   0  0  0  0  0  0  0  0  0  0  0  0
   -4.1902   12.3601    9.0477 O   0  0  0  0  0  0  0  0  0  0  0  0
   -2.8755   11.5772   10.9345 C   0  0  2  0  0  0  0  0  0  0  0  0
   -3.2947   10.2716   10.8964 O   0  0  0  0  0  0  0  0  0  0  0  0
   -3.5446   12.2193   12.1447 C   0  0  0  0  0  0  0  0  0  0  0  0
   -3.0782   13.6354   12.5284 C   0  0  0  0  0  0  0  0  0  0  0  0
  1  2  1  6  0  0  0
  1  3  1  0  0  0  0
  3  4  1  6  0  0  0
  3  5  1  0  0  0  0
  5  6  1  6  0  0  0
  5  7  1  0  0  0  0
  7  8  1  6  0  0  0
  9  7  1  0  0  0  0
  9 10  1  0  0  0  0
  9 11  1  1  0  0  0
 10  1  1  0  0  0  0
 11 12  1  0  0  0  0
 13 14  1  1  0  0  0
 13 15  1  0  0  0  0
 13 22  1  0  0  0  0
 14 32  1  0  0  0  0
 15 16  1  1  0  0  0
 15 17  1  0  0  0  0
 16 23  1  0  0  0  0
 17 18  1  6  0  0  0
 17 19  1  0  0  0  0
 19  2  1  6  0  0  0
 19 20  1  0  0  0  0
 20 21  1  6  0  0  0
 20 22  1  0  0  0  0
 23 24  1  0  0  0  0
 24 25  1  0  0  0  0
 25 26  1  0  0  0  0
 26 27  1  0  0  0  0
 27 28  1  0  0  0  0
 28 29  1  0  0  0  0
 29 30  1  0  0  0  0
 31 37  1  0  0  0  0
 32 33  2  0  0  0  0
 34 32  1  6  0  0  0
 34 35  1  0  0  0  0
 34 36  1  0  0  0  0
 36 37  1  0  0  0  0
M  END
>  <CHROM.1>
-168.04787672,-69.38599547,-157.87574248,-175.83666110,60.20299167,-46.94532409
-175.69466786,105.01632824,-176.13220105,-78.85083684,80.54679948,70.28885184
-147.50747071,-69.43243806,172.07301710,-0.28530756,16.26122851,8.38123290
1.01455721,-0.83291389,-1.34728694

>  <Name>
1o9m_lig

>  <RI>
0

>  <Rbt.Current_Directory>
/home/itssahil/PROJECTS/Mol_Feturizer/New_Systems/rnas/1o9m

>  <Rbt.Executable>
rbdock ($Id: //depot/dev/client3/rdock/2013.1/src/exe/rbdock.cxx#4 $)

>  <Rbt.Library>
libRbt.so (2013.1, Build901 2013/11/27)

>  <Rbt.Parameter_File>
/export/apps/rDock/src/rDock_2013.1_src/data/scripts/dock_solv.prm

>  <Rbt.Receptor>
prm/pocket_docking_8.prm

>  <SCORE>
-5.31453

>  <SCORE.INTER>
-2.6024

>  <SCORE.INTER.CONST>
1

>  <SCORE.INTER.POLAR>
-1.38905

>  <SCORE.INTER.ROT>
15

>  <SCORE.INTER.SOLV>
14.9592

>  <SCORE.INTER.VDW>
-15.6912

>  <SCORE.INTER.norm>
-0.0703352

>  <SCORE.INTRA>
-2.71213

>  <SCORE.INTRA.DIHEDRAL>
-12.542

>  <SCORE.INTRA.DIHEDRAL.0>
21.5987

>  <SCORE.INTRA.POLAR>
0

>  <SCORE.INTRA.POLAR.0>
0

>  <SCORE.INTRA.REPUL>
0.0271347

>  <SCORE.INTRA.REPUL.0>
0

>  <SCORE.INTRA.SOLV>
4.54812

>  <SCORE.INTRA.SOLV.lig_0>
-108.715

>  <SCORE.INTRA.VDW>
1.14912

>  <SCORE.INTRA.VDW.0>
-3.9485

>  <SCORE.INTRA.norm>
-0.0733008

>  <SCORE.RESTR>
0

>  <SCORE.RESTR.CAVITY>
0

>  <SCORE.RESTR.norm>
0

>  <SCORE.SYSTEM>
0

>  <SCORE.SYSTEM.CONST>
0

>  <SCORE.SYSTEM.DIHEDRAL>
0

>  <SCORE.SYSTEM.SOLV>
0

>  <SCORE.SYSTEM.norm>
0

>  <SCORE.heavy>
37

>  <SCORE.norm>
-0.143636

>  <RMSD>
8.929

$$$$
1o9m_lig
 OpenBabel11021811403D
libRbt.so/2013.1/901 2013/11/27
 37 38  0  0  0  0  0  0  0  0999 V2000
   -6.4802   18.1666    9.9202 C   0  0  2  0  0  0  0  0  0  0  0  0
   -5.3914   17.4646    9.2464 O   0  0  0  0  0  0  0  0  0  0  0  0
   -6.0451   19.6754   10.0137 C   0  0  2  0  0  0  0  0  0  0  0  0
   -5.7884   20.2639    8.6875 N   0  0  0  0  0  0  0  0  0  0  0  0
   -4.7679   19.7868   10.9304 C   0  0  1  0  0  0  0  0  0  0  0  0
   -4.3531   21.1517   11.0327 O   0  0  0  0  0  0  0  0  0  0  0  0
   -5.1148   19.1677   12.3246 C   0  0  2  0  0  0  0  0  0  0  0  0
   -4.0082   19.2015   13.2406 O   0  0  0  0  0  0  0  0  0  0  0  0
   -5.5900   17.7021   12.1682 C   0  0  2  0  0  0  0  0  0  0  0  0
   -6.7004   17.6180   11.2630 O   0  0  0  0  0  0  0  0  0  0  0  0
   -5.9843   17.0999   13.4920 C   0  0  0  0  0  0  0  0  0  0  0  0
   -6.3218   15.7771   13.3315 N   0  0  0  0  0  0  0  0  0  0  0  0
   -5.3596   14.7483    5.8639 C   0  0  1  0  0  0  0  0  0  0  0  0
   -5.6056   13.5281    5.0454 N   0  0  0  0  0  0  0  0  0  0  0  0
   -6.6992   15.3284    6.2968 C   0  0  2  0  0  0  0  0  0  0  0  0
   -7.4443   15.5936    5.1458 O   0  0  0  0  0  0  0  0  0  0  0  0
   -6.4906   16.6230    7.1442 C   0  0  1  0  0  0  0  0  0  0  0  0
   -7.7808   17.1574    7.5714 O   0  0  0  0  0  0  0  0  0  0  0  0
   -5.6308   16.2832    8.4291 C   0  0  1  0  0  0  0  0  0  0  0  0
   -4.2816   15.7201    8.0089 C   0  0  1  0  0  0  0  0  0  0  0  0
   -3.5027   15.4290    9.2031 N   0  0  0  0  0  0  0  0  0  0  0  0
   -4.4894   14.4440    7.1499 C   0  0  0  0  0  0  0  0  0  0  0  0
   -8.5481   16.0442    4.3303 C   0  0  0  0  0  0  0  0  0  0  0  0
   -8.6725   17.5460    4.4475 C   0  0  0  0  0  0  0  0  0  0  0  0
   -7.4369   18.2832    4.1116 N   0  0  0  0  0  0  0  0  0  0  0  0
   -6.3931   19.3318    4.0546 C   0  0  0  0  0  0  0  0  0  0  0  0
   -5.4623   18.6324    3.0559 C   0  0  0  0  0  0  0  0  0  0  0  0
   -4.1018   19.3428    2.9273 C   0  0  0  0  0  0  0  0  0  0  0  0
   -3.2613   18.7223    1.8156 C   0  0  0  0  0  0  0  0  0  0  0  0
   -3.8179   19.0683    0.5153 N   0  0  0  0  0  0  0  0  0  0  0  0
   -6.2071   10.5718    1.0154 N   0  0  0  0  0  0  0  0  0  0  0  0
   -4.3005   13.2568    3.8750 C   0  0  0  0  0  0  0  0  0  0  0  0
   -3.3777   13.7602    3.6319 O   0  0  0  0  0  0  0  0  0  0  0  0
   -5.1004   12.0605    3.4205 C   0  0  2  0  0  0  0  0  0  0  0  0
   -5.2156   11.1299    4.4219 O   0  0  0  0  0  0  0  0  0  0  0  0
   -4.3095   11.4013    2.2959 C   0  0  0  0  0  0  0  0  0  0  0  0
   -4.9392   10.1613    1.6359 C   0  0  0  0  0  0  0  0  0  0  0  0
  1  2  1  1  0  0  0
  1  3  1  0  0  0  0
  3  4  1  6  0  0  0
  3  5  1  0  0  0  0
  5  6  1  1  0  0  0
  5  7  1  0  0  0  0
  7  8  1  1  0  0  0
  9  7  1  0  0  0  0
  9 10  1  0  0  0  0
  9 11  1  1  0  0  0
 10  1  1  0  0  0  0
 11 12  1  0  0  0  0
 13 14  1  1  0  0  0
 13 15  1  0  0  0  0
 13 22  1  0  0  0  0
 14 32  1  0  0  0  0
 15 16  1  6  0  0  0
 15 17  1  0  0  0  0
 16 23  1  0  0  0  0
 17 18  1  1  0  0  0
 17 19  1  0  0  0  0
 19  2  1  6  0  0  0
 19 20  1  0  0  0  0
 20 21  1  1  0  0  0
 20 22  1  0  0  0  0
 23 24  1  0  0  0  0
 24 25  1  0  0  0  0
 25 26  1  0  0  0  0
 26 27  1  0  0  0  0
 27 28  1  0  0  0  0
 28 29  1  0  0  0  0
 29 30  1  0  0  0  0
 31 37  1  0  0  0  0
 32 33  2  0  0  0  0
 34 32  1  1  0  0  0
 34 35  1  0  0  0  0
 34 36  1  0  0  0  0
 36 37  1  0  0  0  0
M  END
>  <CHROM.1>
-150.26274920,-176.30631983,151.62660199,-177.88772190,66.17434964,65.38890221
55.35638845,-154.58244587,-177.71183882,-170.00280914,-173.50092907,71.55731926
-63.53892513,-178.67726877,62.13593066,-5.54325071,16.42184874,6.80119064
-2.69636620,1.54249958,-0.95870555

>  <Name>
1o9m_lig

>  <RI>
0

>  <Rbt.Current_Directory>
/home/itssahil/PROJECTS/Mol_Feturizer/New_Systems/rnas/1o9m

>  <Rbt.Executable>
rbdock ($Id: //depot/dev/client3/rdock/2013.1/src/exe/rbdock.cxx#4 $)

>  <Rbt.Library>
libRbt.so (2013.1, Build901 2013/11/27)

>  <Rbt.Parameter_File>
/export/apps/rDock/src/rDock_2013.1_src/data/scripts/dock_solv.prm

>  <Rbt.Receptor>
prm/pocket_docking_6.prm

>  <SCORE>
-18.2383

>  <SCORE.INTER>
-11.7725

>  <SCORE.INTER.CONST>
1

>  <SCORE.INTER.POLAR>
-1.35191

>  <SCORE.INTER.ROT>
15

>  <SCORE.INTER.SOLV>
12.0908

>  <SCORE.INTER.VDW>
-20.9723

>  <SCORE.INTER.norm>
-0.318176

>  <SCORE.INTRA>
-6.46579

>  <SCORE.INTRA.DIHEDRAL>
-14.6698

>  <SCORE.INTRA.DIHEDRAL.0>
21.5987

>  <SCORE.INTRA.POLAR>
0

>  <SCORE.INTRA.POLAR.0>
0

>  <SCORE.INTRA.REPUL>
0

>  <SCORE.INTRA.REPUL.0>
0

>  <SCORE.INTRA.SOLV>
2.00227

>  <SCORE.INTRA.SOLV.lig_0>
-108.715

>  <SCORE.INTRA.VDW>
-0.132011

>  <SCORE.INTRA.VDW.0>
-3.9485

>  <SCORE.INTRA.norm>
-0.174751

>  <SCORE.RESTR>
0

>  <SCORE.RESTR.CAVITY>
0

>  <SCORE.RESTR.norm>
0

>  <SCORE.SYSTEM>
0

>  <SCORE.SYSTEM.CONST>
0

>  <SCORE.SYSTEM.DIHEDRAL>
0

>  <SCORE.SYSTEM.SOLV>
0

>  <SCORE.SYSTEM.norm>
0

>  <SCORE.heavy>
37

>  <SCORE.norm>
-0.492927

>  <RMSD>
8.937

$$$$
1o9m_lig
 OpenBabel11021811403D
libRbt.so/2013.1/901 2013/11/27
 37 38  0  0  0  0  0  0  0  0999 V2000
   -6.4434   19.3557   10.0335 C   0  0  2  0  0  0  0  0  0  0  0  0
   -5.8769   19.0259    8.7287 O   0  0  0  0  0  0  0  0  0  0  0  0
   -6.1047   20.8694   10.2951 C   0  0  2  0  0  0  0  0  0  0  0  0
   -6.6549   21.7514    9.2509 N   0  0  0  0  0  0  0  0  0  0  0  0
   -4.5410   21.0363   10.3994 C   0  0  1  0  0  0  0  0  0  0  0  0
   -4.2070   22.4061   10.6392 O   0  0  0  0  0  0  0  0  0  0  0  0
   -4.0265   20.0939   11.5372 C   0  0  2  0  0  0  0  0  0  0  0  0
   -2.6011   20.1536   11.7088 O   0  0  0  0  0  0  0  0  0  0  0  0
   -4.4355   18.6266   11.2577 C   0  0  2  0  0  0  0  0  0  0  0  0
   -5.8556   18.5157   11.0831 O   0  0  0  0  0  0  0  0  0  0  0  0
   -4.0002   17.7056   12.3680 C   0  0  0  0  0  0  0  0  0  0  0  0
   -4.5007   18.1415   13.5717 N   0  0  0  0  0  0  0  0  0  0  0  0
   -6.5639   15.9378    5.7602 C   0  0  1  0  0  0  0  0  0  0  0  0
   -6.7310   14.5845    5.1601 N   0  0  0  0  0  0  0  0  0  0  0  0
   -7.6165   16.1285    6.8438 C   0  0  2  0  0  0  0  0  0  0  0  0
   -8.8720   15.9504    6.2589 O   0  0  0  0  0  0  0  0  0  0  0  0
   -7.4913   17.5443    7.4900 C   0  0  1  0  0  0  0  0  0  0  0  0
   -8.4912   17.7070    8.5417 O   0  0  0  0  0  0  0  0  0  0  0  0
   -6.0519   17.7112    8.1272 C   0  0  1  0  0  0  0  0  0  0  0  0
   -4.9915   17.5414    7.0499 C   0  0  1  0  0  0  0  0  0  0  0  0
   -3.6785   17.7133    7.6533 N   0  0  0  0  0  0  0  0  0  0  0  0
   -5.1284   16.1413    6.3939 C   0  0  0  0  0  0  0  0  0  0  0  0
  -10.0634   16.2652    5.5051 C   0  0  0  0  0  0  0  0  0  0  0  0
   -9.6804   17.0634    4.2801 C   0  0  0  0  0  0  0  0  0  0  0  0
  -10.7342   17.9826    3.8033 N   0  0  0  0  0  0  0  0  0  0  0  0
  -11.7342   19.0733    3.7497 C   0  0  0  0  0  0  0  0  0  0  0  0
  -12.8953   18.3114    4.4010 C   0  0  0  0  0  0  0  0  0  0  0  0
  -12.7677   18.2495    5.9346 C   0  0  0  0  0  0  0  0  0  0  0  0
  -12.9343   19.6329    6.5558 C   0  0  0  0  0  0  0  0  0  0  0  0
  -12.8985   19.5366    8.0082 N   0  0  0  0  0  0  0  0  0  0  0  0
   -6.6821   10.1391    2.5523 N   0  0  0  0  0  0  0  0  0  0  0  0
   -5.5287   14.2837    3.8909 C   0  0  0  0  0  0  0  0  0  0  0  0
   -4.7096   14.8446    3.4684 O   0  0  0  0  0  0  0  0  0  0  0  0
   -6.2076   12.9477    3.7122 C   0  0  2  0  0  0  0  0  0  0  0  0
   -5.8657   12.0780    4.7165 O   0  0  0  0  0  0  0  0  0  0  0  0
   -5.6754   12.3518    2.4136 C   0  0  0  0  0  0  0  0  0  0  0  0
   -6.5756   11.3295    1.6963 C   0  0  0  0  0  0  0  0  0  0  0  0
  1  2  1  6  0  0  0
  1  3  1  0  0  0  0
  3  4  1  6  0  0  0
  3  5  1  0  0  0  0
  5  6  1  1  0  0  0
  5  7  1  0  0  0  0
  7  8  1  6  0  0  0
  9  7  1  0  0  0  0
  9 10  1  0  0  0  0
  9 11  1  1  0  0  0
 10  1  1  0  0  0  0
 11 12  1  0  0  0  0
 13 14  1  1  0  0  0
 13 15  1  0  0  0  0
 13 22  1  0  0  0  0
 14 32  1  0  0  0  0
 15 16  1  6  0  0  0
 15 17  1  0  0  0  0
 16 23  1  0  0  0  0
 17 18  1  1  0  0  0
 17 19  1  0  0  0  0
 19  2  1  6  0  0  0
 19 20  1  0  0  0  0
 20 21  1  1  0  0  0
 20 22  1  0  0  0  0
 23 24  1  0  0  0  0
 24 25  1  0  0  0  0
 25 26  1  0  0  0  0
 26 27  1  0  0  0  0
 27 28  1  0  0  0  0
 28 29  1  0  0  0  0
 29 30  1  0  0  0  0
 31 37  1  0  0  0  0
 32 33  2  0  0  0  0
 34 32  1  1  0  0  0
 34 35  1  0  0  0  0
 34 36  1  0  0  0  0
 36 37  1  0  0  0  0
M  END
>  <CHROM.1>
-177.10557243,55.75957351,-179.65085805,-79.86961325,39.80922748,77.98144381
-151.55393150,59.45017319,-84.37830848,79.25375960,67.39917334,176.24561705
-76.18583872,-155.21486051,-66.05171582,-7.01573470,17.26903339,7.17367799
1.22307132,-0.41097394,0.76136798

>  <Name>
1o9m_lig

>  <RI>
0

>  <Rbt.Current_Directory>
/home/itssahil/PROJECTS/Mol_Feturizer/New_Systems/rnas/1o9m

>  <Rbt.Executable>
rbdock ($Id: //depot/dev/client3/rdock/2013.1/src/exe/rbdock.cxx#4 $)

>  <Rbt.Library>
libRbt.so (2013.1, Build901 2013/11/27)

>  <Rbt.Parameter_File>
/export/apps/rDock/src/rDock_2013.1_src/data/scripts/dock_solv.prm

>  <Rbt.Receptor>
prm/pocket_docking_3.prm

>  <SCORE>
-11.1063

>  <SCORE.INTER>
-8.57753

>  <SCORE.INTER.CONST>
1

>  <SCORE.INTER.POLAR>
-1.72101

>  <SCORE.INTER.ROT>
15

>  <SCORE.INTER.SOLV>
20.3753

>  <SCORE.INTER.VDW>
-20.3734

>  <SCORE.INTER.norm>
-0.231825

>  <SCORE.INTRA>
-3.27957

>  <SCORE.INTRA.DIHEDRAL>
-8.89701

>  <SCORE.INTRA.DIHEDRAL.0>
21.5987

>  <SCORE.INTRA.POLAR>
0

>  <SCORE.INTRA.POLAR.0>
0

>  <SCORE.INTRA.REPUL>
0

>  <SCORE.INTRA.REPUL.0>
0

>  <SCORE.INTRA.SOLV>
2.03495

>  <SCORE.INTRA.SOLV.lig_0>
-108.715

>  <SCORE.INTRA.VDW>
0.151459

>  <SCORE.INTRA.VDW.0>
-3.9485

>  <SCORE.INTRA.norm>
-0.0886371

>  <SCORE.RESTR>
0.750819

>  <SCORE.RESTR.CAVITY>
0.750819

>  <SCORE.RESTR.norm>
0.0202924

>  <SCORE.SYSTEM>
0

>  <SCORE.SYSTEM.CONST>
0

>  <SCORE.SYSTEM.DIHEDRAL>
0

>  <SCORE.SYSTEM.SOLV>
0

>  <SCORE.SYSTEM.norm>
0

>  <SCORE.heavy>
37

>  <SCORE.norm>
-0.30017

>  <RMSD>
8.939

$$$$
1o9m_lig
 OpenBabel11021811403D
libRbt.so/2013.1/901 2013/11/27
 37 38  0  0  0  0  0  0  0  0999 V2000
   -6.8287   19.8004    9.0068 C   0  0  2  0  0  0  0  0  0  0  0  0
   -5.8338   19.3368    8.0437 O   0  0  0  0  0  0  0  0  0  0  0  0
   -6.3477   21.2162    9.4955 C   0  0  2  0  0  0  0  0  0  0  0  0
   -6.2145   22.1734    8.3833 N   0  0  0  0  0  0  0  0  0  0  0  0
   -4.9801   21.0586   10.2628 C   0  0  1  0  0  0  0  0  0  0  0  0
   -4.5220   22.3342   10.7195 O   0  0  0  0  0  0  0  0  0  0  0  0
   -5.1967   20.0514   11.4401 C   0  0  2  0  0  0  0  0  0  0  0  0
   -4.0007   19.8187   12.2020 O   0  0  0  0  0  0  0  0  0  0  0  0
   -5.7229   18.6953   10.9088 C   0  0  2  0  0  0  0  0  0  0  0  0
   -6.9228   18.8767   10.1428 O   0  0  0  0  0  0  0  0  0  0  0  0
   -5.9934   17.7249   12.0294 C   0  0  0  0  0  0  0  0  0  0  0  0
   -4.8130   17.2043   12.5035 N   0  0  0  0  0  0  0  0  0  0  0  0
   -5.8638   16.1402    5.1109 C   0  0  1  0  0  0  0  0  0  0  0  0
   -6.2622   15.3317    3.9247 N   0  0  0  0  0  0  0  0  0  0  0  0
   -5.4525   17.5297    4.6433 C   0  0  2  0  0  0  0  0  0  0  0  0
   -4.4156   17.3824    3.7196 O   0  0  0  0  0  0  0  0  0  0  0  0
   -5.0079   18.4091    5.8544 C   0  0  1  0  0  0  0  0  0  0  0  0
   -4.6369   19.7450    5.3961 O   0  0  0  0  0  0  0  0  0  0  0  0
   -6.2040   18.5388    6.8831 C   0  0  1  0  0  0  0  0  0  0  0  0
   -6.6117   17.1573    7.3723 C   0  0  1  0  0  0  0  0  0  0  0  0
   -7.7008   17.3004    8.3267 N   0  0  0  0  0  0  0  0  0  0  0  0
   -7.0349   16.2767    6.1662 C   0  0  0  0  0  0  0  0  0  0  0  0
   -3.4449   17.7494    2.7148 C   0  0  0  0  0  0  0  0  0  0  0  0
   -4.1677   18.1996    1.4660 C   0  0  0  0  0  0  0  0  0  0  0  0
   -5.1109   19.3161    1.6824 N   0  0  0  0  0  0  0  0  0  0  0  0
   -5.6606   20.6642    1.9526 C   0  0  0  0  0  0  0  0  0  0  0  0
   -5.3870   21.2716    0.5709 C   0  0  0  0  0  0  0  0  0  0  0  0
   -5.8732   22.7293    0.4656 C   0  0  0  0  0  0  0  0  0  0  0  0
   -4.9416   23.6745    1.2179 C   0  0  0  0  0  0  0  0  0  0  0  0
   -5.1318   23.5263    2.6539 N   0  0  0  0  0  0  0  0  0  0  0  0
   -7.2992    9.9749    1.2261 N   0  0  0  0  0  0  0  0  0  0  0  0
   -6.1182   13.5930    4.2454 C   0  0  0  0  0  0  0  0  0  0  0  0
   -5.8228   12.9963    5.0944 O   0  0  0  0  0  0  0  0  0  0  0  0
   -6.5704   13.4002    2.8186 C   0  0  2  0  0  0  0  0  0  0  0  0
   -7.7860   13.9964    2.5975 O   0  0  0  0  0  0  0  0  0  0  0  0
   -6.7716   11.9023    2.6173 C   0  0  0  0  0  0  0  0  0  0  0  0
   -7.2425   11.4439    1.2252 C   0  0  0  0  0  0  0  0  0  0  0  0
  1  2  1  6  0  0  0
  1  3  1  0  0  0  0
  3  4  1  6  0  0  0
  3  5  1  0  0  0  0
  5  6  1  1  0  0  0
  5  7  1  0  0  0  0
  7  8  1  6  0  0  0
  9  7  1  0  0  0  0
  9 10  1  0  0  0  0
  9 11  1  1  0  0  0
 10  1  1  0  0  0  0
 11 12  1  0  0  0  0
 13 14  1  6  0  0  0
 13 15  1  0  0  0  0
 13 22  1  0  0  0  0
 14 32  1  0  0  0  0
 15 16  1  6  0  0  0
 15 17  1  0  0  0  0
 16 23  1  0  0  0  0
 17 18  1  6  0  0  0
 17 19  1  0  0  0  0
 19  2  1  1  0  0  0
 19 20  1  0  0  0  0
 20 21  1  1  0  0  0
 20 22  1  0  0  0  0
 23 24  1  0  0  0  0
 24 25  1  0  0  0  0
 25 26  1  0  0  0  0
 26 27  1  0  0  0  0
 27 28  1  0  0  0  0
 28 29  1  0  0  0  0
 29 30  1  0  0  0  0
 31 37  1  0  0  0  0
 32 33  2  0  0  0  0
 34 32  1  1  0  0  0
 34 35  1  0  0  0  0
 34 36  1  0  0  0  0
 36 37  1  0  0  0  0
M  END
>  <CHROM.1>
-145.21112921,-76.29455718,156.85046123,171.44981935,-64.56300878,168.68146716
56.66051740,70.89767400,76.67551967,178.92696396,74.77272991,-73.68860907
-57.34469259,179.82417581,176.88917845,-5.76853100,18.02571952,5.82401184
1.07232032,1.40106056,1.47138773

>  <Name>
1o9m_lig

>  <RI>
0

>  <Rbt.Current_Directory>
/home/itssahil/PROJECTS/Mol_Feturizer/New_Systems/rnas/1o9m

>  <Rbt.Executable>
rbdock ($Id: //depot/dev/client3/rdock/2013.1/src/exe/rbdock.cxx#4 $)

>  <Rbt.Library>
libRbt.so (2013.1, Build901 2013/11/27)

>  <Rbt.Parameter_File>
/export/apps/rDock/src/rDock_2013.1_src/data/scripts/dock_solv.prm

>  <Rbt.Receptor>
prm/pocket_docking_8.prm

>  <SCORE>
-6.84498

>  <SCORE.INTER>
-5.02308

>  <SCORE.INTER.CONST>
1

>  <SCORE.INTER.POLAR>
-0.957465

>  <SCORE.INTER.ROT>
15

>  <SCORE.INTER.SOLV>
9.46224

>  <SCORE.INTER.VDW>
-16.9112

>  <SCORE.INTER.norm>
-0.135759

>  <SCORE.INTRA>
-1.8219

>  <SCORE.INTRA.DIHEDRAL>
-11.9428

>  <SCORE.INTRA.DIHEDRAL.0>
21.5987

>  <SCORE.INTRA.POLAR>
0

>  <SCORE.INTRA.POLAR.0>
0

>  <SCORE.INTRA.REPUL>
0

>  <SCORE.INTRA.REPUL.0>
0

>  <SCORE.INTRA.SOLV>
4.61988

>  <SCORE.INTRA.SOLV.lig_0>
-108.715

>  <SCORE.INTRA.VDW>
1.83953

>  <SCORE.INTRA.VDW.0>
-3.9485

>  <SCORE.INTRA.norm>
-0.0492406

>  <SCORE.RESTR>
0

>  <SCORE.RESTR.CAVITY>
0

>  <SCORE.RESTR.norm>
0

>  <SCORE.SYSTEM>
0

>  <SCORE.SYSTEM.CONST>
0

>  <SCORE.SYSTEM.DIHEDRAL>
0

>  <SCORE.SYSTEM.SOLV>
0

>  <SCORE.SYSTEM.norm>
0

>  <SCORE.heavy>
37

>  <SCORE.norm>
-0.184999

>  <RMSD>
8.942

$$$$
1o9m_lig
 OpenBabel11021811403D
libRbt.so/2013.1/901 2013/11/27
 37 38  0  0  0  0  0  0  0  0999 V2000
   -3.6455   17.9788   10.1036 C   0  0  2  0  0  0  0  0  0  0  0  0
   -4.8637   17.1765   10.1708 O   0  0  0  0  0  0  0  0  0  0  0  0
   -3.3337   18.4368   11.5759 C   0  0  2  0  0  0  0  0  0  0  0  0
   -3.1543   17.2937   12.4882 N   0  0  0  0  0  0  0  0  0  0  0  0
   -4.4948   19.3759   12.0797 C   0  0  1  0  0  0  0  0  0  0  0  0
   -4.2331   19.8078   13.4178 O   0  0  0  0  0  0  0  0  0  0  0  0
   -4.6158   20.5761   11.0835 C   0  0  2  0  0  0  0  0  0  0  0  0
   -5.6632   21.4931   11.4400 O   0  0  0  0  0  0  0  0  0  0  0  0
   -4.8662   20.0667    9.6426 C   0  0  2  0  0  0  0  0  0  0  0  0
   -3.8400   19.1483    9.2392 O   0  0  0  0  0  0  0  0  0  0  0  0
   -4.9308   21.2018    8.6537 C   0  0  0  0  0  0  0  0  0  0  0  0
   -5.2226   20.7235    7.3986 N   0  0  0  0  0  0  0  0  0  0  0  0
   -4.6582   14.8422    6.5198 C   0  0  1  0  0  0  0  0  0  0  0  0
   -5.0369   13.8711    5.4553 N   0  0  0  0  0  0  0  0  0  0  0  0
   -5.7421   15.9067    6.6225 C   0  0  2  0  0  0  0  0  0  0  0  0
   -5.8742   16.5072    5.3686 O   0  0  0  0  0  0  0  0  0  0  0  0
   -5.3778   16.9597    7.7162 C   0  0  1  0  0  0  0  0  0  0  0  0
   -6.4343   17.9624    7.8203 O   0  0  0  0  0  0  0  0  0  0  0  0
   -5.2226   16.2380    9.1165 C   0  0  1  0  0  0  0  0  0  0  0  0
   -4.1287   15.1843    9.0318 C   0  0  1  0  0  0  0  0  0  0  0  0
   -3.9925   14.5445   10.3317 N   0  0  0  0  0  0  0  0  0  0  0  0
   -4.4813   14.1484    7.9309 C   0  0  0  0  0  0  0  0  0  0  0  0
   -6.3848   17.3893    4.3450 C   0  0  0  0  0  0  0  0  0  0  0  0
   -7.8587   17.1197    4.1461 C   0  0  0  0  0  0  0  0  0  0  0  0
   -8.6983   17.4573    5.3140 N   0  0  0  0  0  0  0  0  0  0  0  0
   -9.8708   17.7577    6.1670 C   0  0  0  0  0  0  0  0  0  0  0  0
   -9.8464   19.2833    6.0091 C   0  0  0  0  0  0  0  0  0  0  0  0
  -11.0039   19.9679    6.7598 C   0  0  0  0  0  0  0  0  0  0  0  0
  -10.9591   21.4816    6.5749 C   0  0  0  0  0  0  0  0  0  0  0  0
   -9.7932   22.0337    7.2501 N   0  0  0  0  0  0  0  0  0  0  0  0
   -5.5816   10.2874    2.0583 N   0  0  0  0  0  0  0  0  0  0  0  0
   -3.6823   13.5516    4.3556 C   0  0  0  0  0  0  0  0  0  0  0  0
   -2.6589   13.8867    4.2892 O   0  0  0  0  0  0  0  0  0  0  0  0
   -4.6381   12.6528    3.6098 C   0  0  2  0  0  0  0  0  0  0  0  0
   -5.2156   11.7350    4.4501 O   0  0  0  0  0  0  0  0  0  0  0  0
   -3.8087   11.8656    2.6013 C   0  0  0  0  0  0  0  0  0  0  0  0
   -4.5744   11.1745    1.4585 C   0  0  0  0  0  0  0  0  0  0  0  0
  1  2  1  1  0  0  0
  1  3  1  0  0  0  0
  3  4  1  1  0  0  0
  3  5  1  0  0  0  0
  5  6  1  1  0  0  0
  5  7  1  0  0  0  0
  7  8  1  1  0  0  0
  9  7  1  0  0  0  0
  9 10  1  0  0  0  0
  9 11  1  6  0  0  0
 10  1  1  0  0  0  0
 11 12  1  0  0  0  0
 13 14  1  6  0  0  0
 13 15  1  0  0  0  0
 13 22  1  0  0  0  0
 14 32  1  0  0  0  0
 15 16  1  6  0  0  0
 15 17  1  0  0  0  0
 16 23  1  0  0  0  0
 17 18  1  1  0  0  0
 17 19  1  0  0  0  0
 19  2  1  1  0  0  0
 19 20  1  0  0  0  0
 20 21  1  1  0  0  0
 20 22  1  0  0  0  0
 23 24  1  0  0  0  0
 24 25  1  0  0  0  0
 25 26  1  0  0  0  0
 26 27  1  0  0  0  0
 27 28  1  0  0  0  0
 28 29  1  0  0  0  0
 29 30  1  0  0  0  0
 31 37  1  0  0  0  0
 32 33  2  0  0  0  0
 34 32  1  1  0  0  0
 34 35  1  0  0  0  0
 34 36  1  0  0  0  0
 36 37  1  0  0  0  0
M  END
>  <CHROM.1>
-159.76763261,-176.87201460,132.32884091,178.67413492,-59.57528501,-59.18694655
65.70597120,164.96548372,-92.48722636,178.20774187,-179.54527300,-67.81606078
-53.32079862,-163.42152930,-56.29874205,-5.63750711,16.96613876,7.37555993
-1.68614715,0.69385361,-2.33330738

>  <Name>
1o9m_lig

>  <RI>
0

>  <Rbt.Current_Directory>
/home/itssahil/PROJECTS/Mol_Feturizer/New_Systems/rnas/1o9m

>  <Rbt.Executable>
rbdock ($Id: //depot/dev/client3/rdock/2013.1/src/exe/rbdock.cxx#4 $)

>  <Rbt.Library>
libRbt.so (2013.1, Build901 2013/11/27)

>  <Rbt.Parameter_File>
/export/apps/rDock/src/rDock_2013.1_src/data/scripts/dock_solv.prm

>  <Rbt.Receptor>
prm/pocket_docking_5.prm

>  <SCORE>
-15.7707

>  <SCORE.INTER>
-10.9267

>  <SCORE.INTER.CONST>
1

>  <SCORE.INTER.POLAR>
-2.28767

>  <SCORE.INTER.ROT>
15

>  <SCORE.INTER.SOLV>
14.2849

>  <SCORE.INTER.VDW>
-18.0206

>  <SCORE.INTER.norm>
-0.295318

>  <SCORE.INTRA>
-4.84391

>  <SCORE.INTRA.DIHEDRAL>
-15.5018

>  <SCORE.INTRA.DIHEDRAL.0>
21.5987

>  <SCORE.INTRA.POLAR>
0

>  <SCORE.INTRA.POLAR.0>
0

>  <SCORE.INTRA.REPUL>
0

>  <SCORE.INTRA.REPUL.0>
0

>  <SCORE.INTRA.SOLV>
5.43524

>  <SCORE.INTRA.SOLV.lig_0>
-108.715

>  <SCORE.INTRA.VDW>
0.189372

>  <SCORE.INTRA.VDW.0>
-3.9485

>  <SCORE.INTRA.norm>
-0.130916

>  <SCORE.RESTR>
0

>  <SCORE.RESTR.CAVITY>
0

>  <SCORE.RESTR.norm>
0

>  <SCORE.SYSTEM>
0

>  <SCORE.SYSTEM.CONST>
0

>  <SCORE.SYSTEM.DIHEDRAL>
0

>  <SCORE.SYSTEM.SOLV>
0

>  <SCORE.SYSTEM.norm>
0

>  <SCORE.heavy>
37

>  <SCORE.norm>
-0.426234

>  <RMSD>
8.943

$$$$
1o9m_lig
 OpenBabel11021811403D
libRbt.so/2013.1/901 2013/11/27
 37 38  0  0  0  0  0  0  0  0999 V2000
   -3.1875   13.9132    9.8147 C   0  0  2  0  0  0  0  0  0  0  0  0
   -4.4413   14.3612    9.2152 O   0  0  0  0  0  0  0  0  0  0  0  0
   -3.5342   12.6388   10.6692 C   0  0  2  0  0  0  0  0  0  0  0  0
   -4.1330   11.5677    9.8536 N   0  0  0  0  0  0  0  0  0  0  0  0
   -4.5011   13.0534   11.8427 C   0  0  1  0  0  0  0  0  0  0  0  0
   -4.8302   11.9103   12.6366 O   0  0  0  0  0  0  0  0  0  0  0  0
   -3.7975   14.1724   12.6796 C   0  0  2  0  0  0  0  0  0  0  0  0
   -4.6032   14.6402   13.7737 O   0  0  0  0  0  0  0  0  0  0  0  0
   -3.4286   15.3773   11.7793 C   0  0  2  0  0  0  0  0  0  0  0  0
   -2.6177   14.9589   10.6717 O   0  0  0  0  0  0  0  0  0  0  0  0
   -2.6988   16.4464   12.5507 C   0  0  0  0  0  0  0  0  0  0  0  0
   -1.4691   15.9851   12.9561 N   0  0  0  0  0  0  0  0  0  0  0  0
   -5.3955   15.5361    5.1496 C   0  0  1  0  0  0  0  0  0  0  0  0
   -5.4193   16.3333    3.8912 N   0  0  0  0  0  0  0  0  0  0  0  0
   -3.9563   15.1456    5.4571 C   0  0  2  0  0  0  0  0  0  0  0  0
   -3.4603   14.4362    4.3612 O   0  0  0  0  0  0  0  0  0  0  0  0
   -3.8845   14.2905    6.7615 C   0  0  1  0  0  0  0  0  0  0  0  0
   -2.4979   13.9409    7.0575 O   0  0  0  0  0  0  0  0  0  0  0  0
   -4.4686   15.1232    7.9744 C   0  0  1  0  0  0  0  0  0  0  0  0
   -5.9131   15.5033    7.6870 C   0  0  1  0  0  0  0  0  0  0  0  0
   -6.4346   16.2540    8.8193 N   0  0  0  0  0  0  0  0  0  0  0  0
   -5.9869   16.3367    6.3796 C   0  0  0  0  0  0  0  0  0  0  0  0
   -2.5156   13.7184    3.5374 C   0  0  0  0  0  0  0  0  0  0  0  0
   -3.2508   13.0710    2.3863 C   0  0  0  0  0  0  0  0  0  0  0  0
   -4.2952   12.1110    2.7992 N   0  0  0  0  0  0  0  0  0  0  0  0
   -5.4355   11.1671    2.7627 C   0  0  0  0  0  0  0  0  0  0  0  0
   -6.4921   12.1511    2.2446 C   0  0  0  0  0  0  0  0  0  0  0  0
   -7.6636   11.4371    1.5445 C   0  0  0  0  0  0  0  0  0  0  0  0
   -8.5454   12.4324    0.7969 C   0  0  0  0  0  0  0  0  0  0  0  0
   -9.6296   11.7322    0.1228 N   0  0  0  0  0  0  0  0  0  0  0  0
   -7.6316   19.3475    2.9091 N   0  0  0  0  0  0  0  0  0  0  0  0
   -4.3891   17.7722    4.0141 C   0  0  0  0  0  0  0  0  0  0  0  0
   -3.7504   18.1895    4.7769 O   0  0  0  0  0  0  0  0  0  0  0  0
   -4.8508   18.0920    2.6133 C   0  0  2  0  0  0  0  0  0  0  0  0
   -3.8339   17.9329    1.7063 O   0  0  0  0  0  0  0  0  0  0  0  0
   -5.2268   19.5695    2.5984 C   0  0  0  0  0  0  0  0  0  0  0  0
   -6.4303   19.9904    3.4612 C   0  0  0  0  0  0  0  0  0  0  0  0
  1  2  1  1  0  0  0
  1  3  1  0  0  0  0
  3  4  1  6  0  0  0
  3  5  1  0  0  0  0
  5  6  1  1  0  0  0
  5  7  1  0  0  0  0
  7  8  1  1  0  0  0
  9  7  1  0  0  0  0
  9 10  1  0  0  0  0
  9 11  1  1  0  0  0
 10  1  1  0  0  0  0
 11 12  1  0  0  0  0
 13 14  1  6  0  0  0
 13 15  1  0  0  0  0
 13 22  1  0  0  0  0
 14 32  1  0  0  0  0
 15 16  1  6  0  0  0
 15 17  1  0  0  0  0
 16 23  1  0  0  0  0
 17 18  1  1  0  0  0
 17 19  1  0  0  0  0
 19  2  1  1  0  0  0
 19 20  1  0  0  0  0
 20 21  1  1  0  0  0
 20 22  1  0  0  0  0
 23 24  1  0  0  0  0
 24 25  1  0  0  0  0
 25 26  1  0  0  0  0
 26 27  1  0  0  0  0
 27 28  1  0  0  0  0
 28 29  1  0  0  0  0
 29 30  1  0  0  0  0
 31 37  1  0  0  0  0
 32 33  2  0  0  0  0
 34 32  1  1  0  0  0
 34 35  1  0  0  0  0
 34 36  1  0  0  0  0
 36 37  1  0  0  0  0
M  END
>  <CHROM.1>
-154.13808989,66.50748182,-57.50131171,177.27338080,169.33027827,62.97150125
-59.79249839,171.13488270,-60.92710386,156.81889081,-168.41904343,178.90648660
-109.86813736,-65.47987910,-65.01959314,-4.70041380,14.87762375,6.50888411
0.54798531,1.27758524,2.64605049

>  <Name>
1o9m_lig

>  <RI>
0

>  <Rbt.Current_Directory>
/home/itssahil/PROJECTS/Mol_Feturizer/New_Systems/rnas/1o9m

>  <Rbt.Executable>
rbdock ($Id: //depot/dev/client3/rdock/2013.1/src/exe/rbdock.cxx#4 $)

>  <Rbt.Library>
libRbt.so (2013.1, Build901 2013/11/27)

>  <Rbt.Parameter_File>
/export/apps/rDock/src/rDock_2013.1_src/data/scripts/dock_solv.prm

>  <Rbt.Receptor>
prm/pocket_docking_8.prm

>  <SCORE>
-18.685

>  <SCORE.INTER>
-12.3687

>  <SCORE.INTER.CONST>
1

>  <SCORE.INTER.POLAR>
-1.69241

>  <SCORE.INTER.ROT>
15

>  <SCORE.INTER.SOLV>
21.3947

>  <SCORE.INTER.VDW>
-23.336

>  <SCORE.INTER.norm>
-0.33429

>  <SCORE.INTRA>
-6.31632

>  <SCORE.INTRA.DIHEDRAL>
-13.1261

>  <SCORE.INTRA.DIHEDRAL.0>
21.5987

>  <SCORE.INTRA.POLAR>
0

>  <SCORE.INTRA.POLAR.0>
0

>  <SCORE.INTRA.REPUL>
0.00223879

>  <SCORE.INTRA.REPUL.0>
0

>  <SCORE.INTRA.SOLV>
2.27362

>  <SCORE.INTRA.SOLV.lig_0>
-108.715

>  <SCORE.INTRA.VDW>
-0.90127

>  <SCORE.INTRA.VDW.0>
-3.9485

>  <SCORE.INTRA.norm>
-0.170711

>  <SCORE.RESTR>
0

>  <SCORE.RESTR.CAVITY>
0

>  <SCORE.RESTR.norm>
0

>  <SCORE.SYSTEM>
0

>  <SCORE.SYSTEM.CONST>
0

>  <SCORE.SYSTEM.DIHEDRAL>
0

>  <SCORE.SYSTEM.SOLV>
0

>  <SCORE.SYSTEM.norm>
0

>  <SCORE.heavy>
37

>  <SCORE.norm>
-0.505001

>  <RMSD>
8.954

$$$$
1o9m_lig
 OpenBabel11021811403D
libRbt.so/2013.1/901 2013/11/27
 37 38  0  0  0  0  0  0  0  0999 V2000
  -10.6809   17.4696    4.1941 C   0  0  2  0  0  0  0  0  0  0  0  0
   -9.8180   18.1755    5.1370 O   0  0  0  0  0  0  0  0  0  0  0  0
  -10.8514   18.4192    2.9516 C   0  0  2  0  0  0  0  0  0  0  0  0
   -9.5604   18.7537    2.3254 N   0  0  0  0  0  0  0  0  0  0  0  0
  -11.6081   19.7260    3.4026 C   0  0  1  0  0  0  0  0  0  0  0  0
  -11.7773   20.6063    2.2881 O   0  0  0  0  0  0  0  0  0  0  0  0
  -12.9750   19.3025    4.0348 C   0  0  2  0  0  0  0  0  0  0  0  0
  -13.7455   20.4229    4.4993 O   0  0  0  0  0  0  0  0  0  0  0  0
  -12.7512   18.3256    5.2154 C   0  0  2  0  0  0  0  0  0  0  0  0
  -11.9875   17.1847    4.7977 O   0  0  0  0  0  0  0  0  0  0  0  0
  -14.0559   17.8579    5.8068 C   0  0  0  0  0  0  0  0  0  0  0  0
  -14.7292   18.9155    6.3702 N   0  0  0  0  0  0  0  0  0  0  0  0
   -7.0822   17.0680    8.3166 C   0  0  1  0  0  0  0  0  0  0  0  0
   -6.5488   16.3948    9.5339 N   0  0  0  0  0  0  0  0  0  0  0  0
   -7.4387   16.0070    7.2843 C   0  0  2  0  0  0  0  0  0  0  0  0
   -6.2895   15.2572    7.0247 O   0  0  0  0  0  0  0  0  0  0  0  0
   -7.9863   16.6691    5.9807 C   0  0  1  0  0  0  0  0  0  0  0  0
   -8.3448   15.6413    5.0073 O   0  0  0  0  0  0  0  0  0  0  0  0
   -9.2772   17.5201    6.3198 C   0  0  1  0  0  0  0  0  0  0  0  0
   -8.9292   18.5964    7.3368 C   0  0  1  0  0  0  0  0  0  0  0  0
  -10.1246   19.3754    7.6228 N   0  0  0  0  0  0  0  0  0  0  0  0
   -8.3664   17.9393    8.6255 C   0  0  0  0  0  0  0  0  0  0  0  0
   -5.1705   14.3781    7.2730 C   0  0  0  0  0  0  0  0  0  0  0  0
   -4.2748   14.3574    6.0557 C   0  0  0  0  0  0  0  0  0  0  0  0
   -4.5606   13.2561    5.1131 N   0  0  0  0  0  0  0  0  0  0  0  0
   -4.4264   12.2663    4.0202 C   0  0  0  0  0  0  0  0  0  0  0  0
   -5.9227   12.0629    3.7506 C   0  0  0  0  0  0  0  0  0  0  0  0
   -6.1832   10.9984    2.6684 C   0  0  0  0  0  0  0  0  0  0  0  0
   -7.6788   10.7950    2.4469 C   0  0  0  0  0  0  0  0  0  0  0  0
   -7.9020    9.6978    1.5160 N   0  0  0  0  0  0  0  0  0  0  0  0
   -3.2366   14.8402   12.6118 N   0  0  0  0  0  0  0  0  0  0  0  0
   -6.0525   17.5734   10.7633 C   0  0  0  0  0  0  0  0  0  0  0  0
   -6.0590   18.6499   10.8338 O   0  0  0  0  0  0  0  0  0  0  0  0
   -5.6327   16.3796   11.5857 C   0  0  2  0  0  0  0  0  0  0  0  0
   -6.6784   15.8966   12.3308 O   0  0  0  0  0  0  0  0  0  0  0  0
   -4.5792   16.8710   12.5723 C   0  0  0  0  0  0  0  0  0  0  0  0
   -3.9233   15.8113   13.4759 C   0  0  0  0  0  0  0  0  0  0  0  0
  1  2  1  1  0  0  0
  1  3  1  0  0  0  0
  3  4  1  1  0  0  0
  3  5  1  0  0  0  0
  5  6  1  6  0  0  0
  5  7  1  0  0  0  0
  7  8  1  1  0  0  0
  9  7  1  0  0  0  0
  9 10  1  0  0  0  0
  9 11  1  6  0  0  0
 10  1  1  0  0  0  0
 11 12  1  0  0  0  0
 13 14  1  1  0  0  0
 13 15  1  0  0  0  0
 13 22  1  0  0  0  0
 14 32  1  0  0  0  0
 15 16  1  6  0  0  0
 15 17  1  0  0  0  0
 16 23  1  0  0  0  0
 17 18  1  6  0  0  0
 17 19  1  0  0  0  0
 19  2  1  6  0  0  0
 19 20  1  0  0  0  0
 20 21  1  1  0  0  0
 20 22  1  0  0  0  0
 23 24  1  0  0  0  0
 24 25  1  0  0  0  0
 25 26  1  0  0  0  0
 26 27  1  0  0  0  0
 27 28  1  0  0  0  0
 28 29  1  0  0  0  0
 29 30  1  0  0  0  0
 31 37  1  0  0  0  0
 32 33  2  0  0  0  0
 34 32  1  6  0  0  0
 34 35  1  0  0  0  0
 34 36  1  0  0  0  0
 36 37  1  0  0  0  0
M  END
>  <CHROM.1>
-170.63105038,-64.75910111,177.86062861,62.21607034,-171.67995215,81.88886569
-93.95364123,-162.87173722,-155.00949955,-177.16681995,178.63918246,-174.57818772
-87.20332989,-176.32177428,61.08676348,-8.31617687,16.47827423,6.50860022
-2.84200937,-0.70417781,0.98721887

>  <Name>
1o9m_lig

>  <RI>
0

>  <Rbt.Current_Directory>
/home/itssahil/PROJECTS/Mol_Feturizer/New_Systems/rnas/1o9m

>  <Rbt.Executable>
rbdock ($Id: //depot/dev/client3/rdock/2013.1/src/exe/rbdock.cxx#4 $)

>  <Rbt.Library>
libRbt.so (2013.1, Build901 2013/11/27)

>  <Rbt.Parameter_File>
/export/apps/rDock/src/rDock_2013.1_src/data/scripts/dock_solv.prm

>  <Rbt.Receptor>
prm/pocket_docking_8.prm

>  <SCORE>
-17.191

>  <SCORE.INTER>
-11.0185

>  <SCORE.INTER.CONST>
1

>  <SCORE.INTER.POLAR>
-1.09274

>  <SCORE.INTER.ROT>
15

>  <SCORE.INTER.SOLV>
12.5115

>  <SCORE.INTER.VDW>
-21.4737

>  <SCORE.INTER.norm>
-0.297798

>  <SCORE.INTRA>
-6.17242

>  <SCORE.INTRA.DIHEDRAL>
-13.0728

>  <SCORE.INTRA.DIHEDRAL.0>
21.5987

>  <SCORE.INTRA.POLAR>
0

>  <SCORE.INTRA.POLAR.0>
0

>  <SCORE.INTRA.REPUL>
0

>  <SCORE.INTRA.REPUL.0>
0

>  <SCORE.INTRA.SOLV>
0.834972

>  <SCORE.INTRA.SOLV.lig_0>
-108.715

>  <SCORE.INTRA.VDW>
-0.0535206

>  <SCORE.INTRA.VDW.0>
-3.9485

>  <SCORE.INTRA.norm>
-0.166822

>  <SCORE.RESTR>
0

>  <SCORE.RESTR.CAVITY>
0

>  <SCORE.RESTR.norm>
0

>  <SCORE.SYSTEM>
0

>  <SCORE.SYSTEM.CONST>
0

>  <SCORE.SYSTEM.DIHEDRAL>
0

>  <SCORE.SYSTEM.SOLV>
0

>  <SCORE.SYSTEM.norm>
0

>  <SCORE.heavy>
37

>  <SCORE.norm>
-0.46462

>  <RMSD>
8.958

$$$$
1o9m_lig
 OpenBabel11021811403D
libRbt.so/2013.1/901 2013/11/27
 37 38  0  0  0  0  0  0  0  0999 V2000
   -3.7281   17.6101    9.6821 C   0  0  2  0  0  0  0  0  0  0  0  0
   -4.9055   16.7637    9.5106 O   0  0  0  0  0  0  0  0  0  0  0  0
   -3.6803   18.0012   11.2050 C   0  0  2  0  0  0  0  0  0  0  0  0
   -3.6034   16.8191   12.0811 N   0  0  0  0  0  0  0  0  0  0  0  0
   -4.9470   18.8721   11.5527 C   0  0  1  0  0  0  0  0  0  0  0  0
   -4.9257   19.2424   12.9339 O   0  0  0  0  0  0  0  0  0  0  0  0
   -4.9551   20.1176   10.6062 C   0  0  2  0  0  0  0  0  0  0  0  0
   -6.0847   20.9780   10.8265 O   0  0  0  0  0  0  0  0  0  0  0  0
   -4.9451   19.6757    9.1219 C   0  0  2  0  0  0  0  0  0  0  0  0
   -3.8287   18.8155    8.8517 O   0  0  0  0  0  0  0  0  0  0  0  0
   -4.8960   20.8578    8.1888 C   0  0  0  0  0  0  0  0  0  0  0  0
   -3.7175   21.5457    8.3539 N   0  0  0  0  0  0  0  0  0  0  0  0
   -4.4514   15.3249    5.4431 C   0  0  1  0  0  0  0  0  0  0  0  0
   -4.7130   14.5635    4.1896 N   0  0  0  0  0  0  0  0  0  0  0  0
   -5.6699   16.1803    5.7623 C   0  0  2  0  0  0  0  0  0  0  0  0
   -5.9089   17.0129    4.6669 O   0  0  0  0  0  0  0  0  0  0  0  0
   -5.4333   17.0125    7.0620 C   0  0  1  0  0  0  0  0  0  0  0  0
   -6.6163   17.8116    7.3694 O   0  0  0  0  0  0  0  0  0  0  0  0
   -5.1518   16.0343    8.2743 C   0  0  1  0  0  0  0  0  0  0  0  0
   -3.9245   15.1869    7.9751 C   0  0  1  0  0  0  0  0  0  0  0  0
   -3.6751   14.3069    9.1068 N   0  0  0  0  0  0  0  0  0  0  0  0
   -4.1520   14.3744    6.6722 C   0  0  0  0  0  0  0  0  0  0  0  0
   -6.5977   17.9570    3.8179 C   0  0  0  0  0  0  0  0  0  0  0  0
   -7.7973   17.2816    3.1940 C   0  0  0  0  0  0  0  0  0  0  0  0
   -8.7552   16.7259    4.1720 N   0  0  0  0  0  0  0  0  0  0  0  0
  -10.0111   16.3998    4.8854 C   0  0  0  0  0  0  0  0  0  0  0  0
  -10.9268   17.3726    4.1318 C   0  0  0  0  0  0  0  0  0  0  0  0
  -12.3327   17.4553    4.7555 C   0  0  0  0  0  0  0  0  0  0  0  0
  -13.1999   18.4735    4.0217 C   0  0  0  0  0  0  0  0  0  0  0  0
  -12.7582   19.8251    4.3353 N   0  0  0  0  0  0  0  0  0  0  0  0
   -6.7696   10.0888    2.6969 N   0  0  0  0  0  0  0  0  0  0  0  0
   -6.1193   13.4957    4.3595 C   0  0  0  0  0  0  0  0  0  0  0  0
   -6.8242   13.2831    5.1482 O   0  0  0  0  0  0  0  0  0  0  0  0
   -5.8266   13.0605    2.9444 C   0  0  2  0  0  0  0  0  0  0  0  0
   -6.9823   12.7715    2.2641 O   0  0  0  0  0  0  0  0  0  0  0  0
   -5.0334   11.7617    3.0365 C   0  0  0  0  0  0  0  0  0  0  0  0
   -5.7528   10.5487    3.6538 C   0  0  0  0  0  0  0  0  0  0  0  0
  1  2  1  1  0  0  0
  1  3  1  0  0  0  0
  3  4  1  1  0  0  0
  3  5  1  0  0  0  0
  5  6  1  1  0  0  0
  5  7  1  0  0  0  0
  7  8  1  6  0  0  0
  9  7  1  0  0  0  0
  9 10  1  0  0  0  0
  9 11  1  6  0  0  0
 10  1  1  0  0  0  0
 11 12  1  0  0  0  0
 13 14  1  6  0  0  0
 13 15  1  0  0  0  0
 13 22  1  0  0  0  0
 14 32  1  0  0  0  0
 15 16  1  6  0  0  0
 15 17  1  0  0  0  0
 16 23  1  0  0  0  0
 17 18  1  1  0  0  0
 17 19  1  0  0  0  0
 19  2  1  1  0  0  0
 19 20  1  0  0  0  0
 20 21  1  1  0  0  0
 20 22  1  0  0  0  0
 23 24  1  0  0  0  0
 24 25  1  0  0  0  0
 25 26  1  0  0  0  0
 26 27  1  0  0  0  0
 27 28  1  0  0  0  0
 28 29  1  0  0  0  0
 29 30  1  0  0  0  0
 31 37  1  0  0  0  0
 32 33  2  0  0  0  0
 34 32  1  1  0  0  0
 34 35  1  0  0  0  0
 34 36  1  0  0  0  0
 36 37  1  0  0  0  0
M  END
>  <CHROM.1>
-169.83450200,64.12108102,-60.42944897,169.97151325,-70.58461481,-66.09638220
57.70279935,130.79730551,-9.50360234,-171.93070853,177.56866444,-72.50356865
-146.19214396,64.26953082,71.27856627,-6.22228110,16.60218406,6.68034244
-1.12590859,0.60154495,-2.45200372

>  <Name>
1o9m_lig

>  <RI>
0

>  <Rbt.Current_Directory>
/home/itssahil/PROJECTS/Mol_Feturizer/New_Systems/rnas/1o9m

>  <Rbt.Executable>
rbdock ($Id: //depot/dev/client3/rdock/2013.1/src/exe/rbdock.cxx#4 $)

>  <Rbt.Library>
libRbt.so (2013.1, Build901 2013/11/27)

>  <Rbt.Parameter_File>
/export/apps/rDock/src/rDock_2013.1_src/data/scripts/dock_solv.prm

>  <Rbt.Receptor>
prm/pocket_docking_4.prm

>  <SCORE>
-8.1212

>  <SCORE.INTER>
-3.05071

>  <SCORE.INTER.CONST>
1

>  <SCORE.INTER.POLAR>
0

>  <SCORE.INTER.ROT>
15

>  <SCORE.INTER.SOLV>
11.2869

>  <SCORE.INTER.VDW>
-19.3961

>  <SCORE.INTER.norm>
-0.0824517

>  <SCORE.INTRA>
-5.11041

>  <SCORE.INTRA.DIHEDRAL>
-14.2224

>  <SCORE.INTRA.DIHEDRAL.0>
21.5987

>  <SCORE.INTRA.POLAR>
0

>  <SCORE.INTRA.POLAR.0>
0

>  <SCORE.INTRA.REPUL>
0

>  <SCORE.INTRA.REPUL.0>
0

>  <SCORE.INTRA.SOLV>
5.79055

>  <SCORE.INTRA.SOLV.lig_0>
-108.715

>  <SCORE.INTRA.VDW>
-0.894483

>  <SCORE.INTRA.VDW.0>
-3.9485

>  <SCORE.INTRA.norm>
-0.138119

>  <SCORE.RESTR>
0.0399314

>  <SCORE.RESTR.CAVITY>
0.0399314

>  <SCORE.RESTR.norm>
0.00107923

>  <SCORE.SYSTEM>
0

>  <SCORE.SYSTEM.CONST>
0

>  <SCORE.SYSTEM.DIHEDRAL>
0

>  <SCORE.SYSTEM.SOLV>
0

>  <SCORE.SYSTEM.norm>
0

>  <SCORE.heavy>
37

>  <SCORE.norm>
-0.219492

>  <RMSD>
8.963

$$$$
1o9m_lig
 OpenBabel11021811403D
libRbt.so/2013.1/901 2013/11/27
 37 38  0  0  0  0  0  0  0  0999 V2000
   -0.6644   14.8023    8.4453 C   0  0  2  0  0  0  0  0  0  0  0  0
   -2.0380   15.0665    8.8645 O   0  0  0  0  0  0  0  0  0  0  0  0
    0.1521   14.5102    9.7578 C   0  0  2  0  0  0  0  0  0  0  0  0
   -0.3921   13.3652   10.5087 N   0  0  0  0  0  0  0  0  0  0  0  0
    0.1690   15.8073   10.6528 C   0  0  1  0  0  0  0  0  0  0  0  0
    0.9082   15.5673   11.8534 O   0  0  0  0  0  0  0  0  0  0  0  0
    0.7775   16.9738    9.8065 C   0  0  2  0  0  0  0  0  0  0  0  0
    0.8252   18.2176   10.5246 O   0  0  0  0  0  0  0  0  0  0  0  0
   -0.0302   17.1806    8.5014 C   0  0  2  0  0  0  0  0  0  0  0  0
   -0.1018   15.9627    7.7457 O   0  0  0  0  0  0  0  0  0  0  0  0
    0.5692   18.2624    7.6406 C   0  0  0  0  0  0  0  0  0  0  0  0
    1.8351   17.9058    7.2410 N   0  0  0  0  0  0  0  0  0  0  0  0
   -5.7472   14.5206    6.6819 C   0  0  1  0  0  0  0  0  0  0  0  0
   -6.8372   14.7517    5.6928 N   0  0  0  0  0  0  0  0  0  0  0  0
   -4.4416   14.2964    5.9313 C   0  0  2  0  0  0  0  0  0  0  0  0
   -4.6231   13.2139    5.0679 O   0  0  0  0  0  0  0  0  0  0  0  0
   -3.2710   14.0308    6.9298 C   0  0  1  0  0  0  0  0  0  0  0  0
   -2.0211   13.8390    6.1995 O   0  0  0  0  0  0  0  0  0  0  0  0
   -3.1082   15.2722    7.8985 C   0  0  1  0  0  0  0  0  0  0  0  0
   -4.4011   15.4949    8.6684 C   0  0  1  0  0  0  0  0  0  0  0  0
   -4.2249   16.6295    9.5623 N   0  0  0  0  0  0  0  0  0  0  0  0
   -5.5686   15.7393    7.6751 C   0  0  0  0  0  0  0  0  0  0  0  0
   -4.3154   12.2388    4.0475 C   0  0  0  0  0  0  0  0  0  0  0  0
   -5.5573   11.4352    3.7370 C   0  0  0  0  0  0  0  0  0  0  0  0
   -5.4086   10.5090    2.5955 N   0  0  0  0  0  0  0  0  0  0  0  0
   -5.6865    9.4670    1.5808 C   0  0  0  0  0  0  0  0  0  0  0  0
   -5.1611   10.2327    0.3599 C   0  0  0  0  0  0  0  0  0  0  0  0
   -3.6228   10.2264    0.2825 C   0  0  0  0  0  0  0  0  0  0  0  0
   -3.1039    8.8830   -0.2207 C   0  0  0  0  0  0  0  0  0  0  0  0
   -1.6604    8.9409   -0.4032 N   0  0  0  0  0  0  0  0  0  0  0  0
   -8.6728   19.4578    3.2799 N   0  0  0  0  0  0  0  0  0  0  0  0
   -6.3796   15.9793    4.4969 C   0  0  0  0  0  0  0  0  0  0  0  0
   -5.5012   16.5798    4.3186 O   0  0  0  0  0  0  0  0  0  0  0  0
   -7.7578   15.7751    3.9168 C   0  0  2  0  0  0  0  0  0  0  0  0
   -7.7499   14.8061    2.9457 O   0  0  0  0  0  0  0  0  0  0  0  0
   -8.1473   17.0808    3.2326 C   0  0  0  0  0  0  0  0  0  0  0  0
   -8.3011   18.3199    4.1331 C   0  0  0  0  0  0  0  0  0  0  0  0
  1  2  1  1  0  0  0
  1  3  1  0  0  0  0
  3  4  1  1  0  0  0
  3  5  1  0  0  0  0
  5  6  1  1  0  0  0
  5  7  1  0  0  0  0
  7  8  1  1  0  0  0
  9  7  1  0  0  0  0
  9 10  1  0  0  0  0
  9 11  1  6  0  0  0
 10  1  1  0  0  0  0
 11 12  1  0  0  0  0
 13 14  1  6  0  0  0
 13 15  1  0  0  0  0
 13 22  1  0  0  0  0
 14 32  1  0  0  0  0
 15 16  1  6  0  0  0
 15 17  1  0  0  0  0
 16 23  1  0  0  0  0
 17 18  1  6  0  0  0
 17 19  1  0  0  0  0
 19  2  1  1  0  0  0
 19 20  1  0  0  0  0
 20 21  1  1  0  0  0
 20 22  1  0  0  0  0
 23 24  1  0  0  0  0
 24 25  1  0  0  0  0
 25 26  1  0  0  0  0
 26 27  1  0  0  0  0
 27 28  1  0  0  0  0
 28 29  1  0  0  0  0
 29 30  1  0  0  0  0
 31 37  1  0  0  0  0
 32 33  2  0  0  0  0
 34 32  1  6  0  0  0
 34 35  1  0  0  0  0
 34 36  1  0  0  0  0
 36 37  1  0  0  0  0
M  END
>  <CHROM.1>
-174.95266808,62.83252727,-49.67702471,176.69334926,-173.27081519,58.21568133
173.27526094,176.17794636,134.34786924,77.43581850,76.78784879,174.76442713
-90.94399188,-64.03933873,179.86076928,-3.47292631,14.63423069,5.95131217
-0.91559267,0.51481164,-2.43771043

>  <Name>
1o9m_lig

>  <RI>
0

>  <Rbt.Current_Directory>
/home/itssahil/PROJECTS/Mol_Feturizer/New_Systems/rnas/1o9m

>  <Rbt.Executable>
rbdock ($Id: //depot/dev/client3/rdock/2013.1/src/exe/rbdock.cxx#4 $)

>  <Rbt.Library>
libRbt.so (2013.1, Build901 2013/11/27)

>  <Rbt.Parameter_File>
/export/apps/rDock/src/rDock_2013.1_src/data/scripts/dock_solv.prm

>  <Rbt.Receptor>
prm/pocket_docking_8.prm

>  <SCORE>
-13.1402

>  <SCORE.INTER>
-5.70658

>  <SCORE.INTER.CONST>
1

>  <SCORE.INTER.POLAR>
-0.913675

>  <SCORE.INTER.ROT>
15

>  <SCORE.INTER.SOLV>
12.2423

>  <SCORE.INTER.VDW>
-18.4396

>  <SCORE.INTER.norm>
-0.154232

>  <SCORE.INTRA>
-7.43358

>  <SCORE.INTRA.DIHEDRAL>
-16.0007

>  <SCORE.INTRA.DIHEDRAL.0>
21.5987

>  <SCORE.INTRA.POLAR>
0

>  <SCORE.INTRA.POLAR.0>
0

>  <SCORE.INTRA.REPUL>
0

>  <SCORE.INTRA.REPUL.0>
0

>  <SCORE.INTRA.SOLV>
0.482344

>  <SCORE.INTRA.SOLV.lig_0>
-108.715

>  <SCORE.INTRA.VDW>
0.325609

>  <SCORE.INTRA.VDW.0>
-3.9485

>  <SCORE.INTRA.norm>
-0.200908

>  <SCORE.RESTR>
0

>  <SCORE.RESTR.CAVITY>
0

>  <SCORE.RESTR.norm>
0

>  <SCORE.SYSTEM>
0

>  <SCORE.SYSTEM.CONST>
0

>  <SCORE.SYSTEM.DIHEDRAL>
0

>  <SCORE.SYSTEM.SOLV>
0

>  <SCORE.SYSTEM.norm>
0

>  <SCORE.heavy>
37

>  <SCORE.norm>
-0.35514

>  <RMSD>
8.966

$$$$
1o9m_lig
 OpenBabel11021811403D
libRbt.so/2013.1/901 2013/11/27
 37 38  0  0  0  0  0  0  0  0999 V2000
  -11.2253   18.1335    6.4767 C   0  0  2  0  0  0  0  0  0  0  0  0
   -9.9444   18.8014    6.6897 O   0  0  0  0  0  0  0  0  0  0  0  0
  -11.6376   18.4280    4.9875 C   0  0  2  0  0  0  0  0  0  0  0  0
  -10.6320   17.9440    4.0255 N   0  0  0  0  0  0  0  0  0  0  0  0
  -11.8742   19.9766    4.8157 C   0  0  1  0  0  0  0  0  0  0  0  0
  -12.2525   20.2703    3.4680 O   0  0  0  0  0  0  0  0  0  0  0  0
  -12.9650   20.4189    5.8462 C   0  0  2  0  0  0  0  0  0  0  0  0
  -13.2490   21.8263    5.7881 O   0  0  0  0  0  0  0  0  0  0  0  0
  -12.5334   20.0549    7.2883 C   0  0  2  0  0  0  0  0  0  0  0  0
  -12.2426   18.6539    7.3971 O   0  0  0  0  0  0  0  0  0  0  0  0
  -13.5927   20.4200    8.2959 C   0  0  0  0  0  0  0  0  0  0  0  0
  -13.7391   21.7852    8.3590 N   0  0  0  0  0  0  0  0  0  0  0  0
   -6.1264   17.7250    8.4461 C   0  0  1  0  0  0  0  0  0  0  0  0
   -5.1331   17.2047    9.4270 N   0  0  0  0  0  0  0  0  0  0  0  0
   -7.0748   16.5975    8.0617 C   0  0  2  0  0  0  0  0  0  0  0  0
   -6.3092   15.5489    7.5475 O   0  0  0  0  0  0  0  0  0  0  0  0
   -8.1251   17.0931    7.0182 C   0  0  1  0  0  0  0  0  0  0  0  0
   -9.0417   16.0096    6.6741 O   0  0  0  0  0  0  0  0  0  0  0  0
   -8.9602   18.2891    7.6330 C   0  0  1  0  0  0  0  0  0  0  0  0
   -8.0250   19.4300    8.0038 C   0  0  1  0  0  0  0  0  0  0  0  0
   -8.8136   20.5231    8.5523 N   0  0  0  0  0  0  0  0  0  0  0  0
   -6.9686   18.9323    9.0264 C   0  0  0  0  0  0  0  0  0  0  0  0
   -5.4615   14.8248    6.6289 C   0  0  0  0  0  0  0  0  0  0  0  0
   -4.1651   15.5804    6.4476 C   0  0  0  0  0  0  0  0  0  0  0  0
   -3.3341   15.0954    5.3264 N   0  0  0  0  0  0  0  0  0  0  0  0
   -2.4985   15.0590    4.1045 C   0  0  0  0  0  0  0  0  0  0  0  0
   -2.7578   13.5945    3.7293 C   0  0  0  0  0  0  0  0  0  0  0  0
   -4.2091   13.3554    3.2723 C   0  0  0  0  0  0  0  0  0  0  0  0
   -4.5141   11.8641    3.1704 C   0  0  0  0  0  0  0  0  0  0  0  0
   -5.9019   11.6631    2.7784 N   0  0  0  0  0  0  0  0  0  0  0  0
   -3.8132   19.5447   13.5728 N   0  0  0  0  0  0  0  0  0  0  0  0
   -5.9022   16.7826   10.9687 C   0  0  0  0  0  0  0  0  0  0  0  0
   -6.9117   16.8061   11.3487 O   0  0  0  0  0  0  0  0  0  0  0  0
   -4.5150   16.4204   11.4399 C   0  0  2  0  0  0  0  0  0  0  0  0
   -4.5607   15.5234   12.4770 O   0  0  0  0  0  0  0  0  0  0  0  0
   -3.8874   17.6967   11.9892 C   0  0  0  0  0  0  0  0  0  0  0  0
   -4.5415   18.3121   13.2396 C   0  0  0  0  0  0  0  0  0  0  0  0
  1  2  1  1  0  0  0
  1  3  1  0  0  0  0
  3  4  1  6  0  0  0
  3  5  1  0  0  0  0
  5  6  1  6  0  0  0
  5  7  1  0  0  0  0
  7  8  1  1  0  0  0
  9  7  1  0  0  0  0
  9 10  1  0  0  0  0
  9 11  1  1  0  0  0
 10  1  1  0  0  0  0
 11 12  1  0  0  0  0
 13 14  1  1  0  0  0
 13 15  1  0  0  0  0
 13 22  1  0  0  0  0
 14 32  1  0  0  0  0
 15 16  1  6  0  0  0
 15 17  1  0  0  0  0
 16 23  1  0  0  0  0
 17 18  1  1  0  0  0
 17 19  1  0  0  0  0
 19  2  1  6  0  0  0
 19 20  1  0  0  0  0
 20 21  1  1  0  0  0
 20 22  1  0  0  0  0
 23 24  1  0  0  0  0
 24 25  1  0  0  0  0
 25 26  1  0  0  0  0
 26 27  1  0  0  0  0
 27 28  1  0  0  0  0
 28 29  1  0  0  0  0
 29 30  1  0  0  0  0
 31 37  1  0  0  0  0
 32 33  2  0  0  0  0
 34 32  1  1  0  0  0
 34 35  1  0  0  0  0
 34 36  1  0  0  0  0
 36 37  1  0  0  0  0
M  END
>  <CHROM.1>
-150.16721316,-66.44174287,-66.92634832,-69.52460646,60.60774688,80.18381319
-167.91928879,130.27677609,-157.01717395,68.74643350,-168.84312807,178.20653683
-156.46211765,64.75776266,-178.29896183,-7.78870244,17.46102458,7.41117584
3.00986021,-0.54917669,1.12636351

>  <Name>
1o9m_lig

>  <RI>
0

>  <Rbt.Current_Directory>
/home/itssahil/PROJECTS/Mol_Feturizer/New_Systems/rnas/1o9m

>  <Rbt.Executable>
rbdock ($Id: //depot/dev/client3/rdock/2013.1/src/exe/rbdock.cxx#4 $)

>  <Rbt.Library>
libRbt.so (2013.1, Build901 2013/11/27)

>  <Rbt.Parameter_File>
/export/apps/rDock/src/rDock_2013.1_src/data/scripts/dock_solv.prm

>  <Rbt.Receptor>
prm/pocket_docking_4.prm

>  <SCORE>
-9.94456

>  <SCORE.INTER>
-5.25688

>  <SCORE.INTER.CONST>
1

>  <SCORE.INTER.POLAR>
-0.87178

>  <SCORE.INTER.ROT>
15

>  <SCORE.INTER.SOLV>
19.6048

>  <SCORE.INTER.VDW>
-20.7336

>  <SCORE.INTER.norm>
-0.142078

>  <SCORE.INTRA>
-4.68768

>  <SCORE.INTRA.DIHEDRAL>
-11.1001

>  <SCORE.INTRA.DIHEDRAL.0>
21.5987

>  <SCORE.INTRA.POLAR>
0

>  <SCORE.INTRA.POLAR.0>
0

>  <SCORE.INTRA.REPUL>
0

>  <SCORE.INTRA.REPUL.0>
0

>  <SCORE.INTRA.SOLV>
1.27308

>  <SCORE.INTRA.SOLV.lig_0>
-108.715

>  <SCORE.INTRA.VDW>
0.225827

>  <SCORE.INTRA.VDW.0>
-3.9485

>  <SCORE.INTRA.norm>
-0.126694

>  <SCORE.RESTR>
0

>  <SCORE.RESTR.CAVITY>
0

>  <SCORE.RESTR.norm>
0

>  <SCORE.SYSTEM>
0

>  <SCORE.SYSTEM.CONST>
0

>  <SCORE.SYSTEM.DIHEDRAL>
0

>  <SCORE.SYSTEM.SOLV>
0

>  <SCORE.SYSTEM.norm>
0

>  <SCORE.heavy>
37

>  <SCORE.norm>
-0.268772

>  <RMSD>
8.980

$$$$
1o9m_lig
 OpenBabel11021811403D
libRbt.so/2013.1/901 2013/11/27
 37 38  0  0  0  0  0  0  0  0999 V2000
  -10.2833   20.4536    7.5668 C   0  0  2  0  0  0  0  0  0  0  0  0
  -10.2485   19.7365    6.2953 O   0  0  0  0  0  0  0  0  0  0  0  0
  -11.7971   20.7651    7.8597 C   0  0  2  0  0  0  0  0  0  0  0  0
  -12.6137   19.5407    7.9304 N   0  0  0  0  0  0  0  0  0  0  0  0
  -12.3465   21.7389    6.7491 C   0  0  1  0  0  0  0  0  0  0  0  0
  -13.7231   22.0391    6.9947 O   0  0  0  0  0  0  0  0  0  0  0  0
  -11.4528   23.0230    6.7433 C   0  0  2  0  0  0  0  0  0  0  0  0
  -11.8568   23.9790    5.7495 O   0  0  0  0  0  0  0  0  0  0  0  0
   -9.9675   22.6534    6.5072 C   0  0  2  0  0  0  0  0  0  0  0  0
   -9.5160   21.7013    7.4814 O   0  0  0  0  0  0  0  0  0  0  0  0
   -9.0770   23.8681    6.5530 C   0  0  0  0  0  0  0  0  0  0  0  0
   -7.7697   23.5086    6.3275 N   0  0  0  0  0  0  0  0  0  0  0  0
   -7.4520   16.8310    4.6958 C   0  0  1  0  0  0  0  0  0  0  0  0
   -6.1884   16.2506    4.1609 N   0  0  0  0  0  0  0  0  0  0  0  0
   -7.1904   17.3739    6.0941 C   0  0  2  0  0  0  0  0  0  0  0  0
   -6.7057   16.3250    6.8783 O   0  0  0  0  0  0  0  0  0  0  0  0
   -8.4951   17.9772    6.7036 C   0  0  1  0  0  0  0  0  0  0  0  0
   -8.2266   18.5138    8.0349 O   0  0  0  0  0  0  0  0  0  0  0  0
   -9.0192   19.1505    5.7791 C   0  0  1  0  0  0  0  0  0  0  0  0
   -9.3023   18.6159    4.3834 C   0  0  1  0  0  0  0  0  0  0  0  0
   -9.7965   19.7058    3.5553 N   0  0  0  0  0  0  0  0  0  0  0  0
   -8.0100   17.9985    3.7851 C   0  0  0  0  0  0  0  0  0  0  0  0
   -5.8276   15.2644    7.3151 C   0  0  0  0  0  0  0  0  0  0  0  0
   -4.5729   15.8682    7.9031 C   0  0  0  0  0  0  0  0  0  0  0  0
   -3.6085   14.8752    8.4195 N   0  0  0  0  0  0  0  0  0  0  0  0
   -2.5846   13.8075    8.4861 C   0  0  0  0  0  0  0  0  0  0  0  0
   -2.7725   13.4432    9.9643 C   0  0  0  0  0  0  0  0  0  0  0  0
   -4.0769   12.6632   10.2137 C   0  0  0  0  0  0  0  0  0  0  0  0
   -4.2558   12.3523   11.6965 C   0  0  0  0  0  0  0  0  0  0  0  0
   -3.1950   11.4656   12.1532 N   0  0  0  0  0  0  0  0  0  0  0  0
   -2.0970   15.7241    4.1563 N   0  0  0  0  0  0  0  0  0  0  0  0
   -6.2203   14.4774    4.2001 C   0  0  0  0  0  0  0  0  0  0  0  0
   -6.9395   13.7345    4.5081 O   0  0  0  0  0  0  0  0  0  0  0  0
   -4.8206   14.5457    3.6399 C   0  0  2  0  0  0  0  0  0  0  0  0
   -4.6354   13.6143    2.6499 O   0  0  0  0  0  0  0  0  0  0  0  0
   -3.8718   14.1763    4.7749 C   0  0  0  0  0  0  0  0  0  0  0  0
   -2.3645   14.3193    4.4968 C   0  0  0  0  0  0  0  0  0  0  0  0
  1  2  1  6  0  0  0
  1  3  1  0  0  0  0
  3  4  1  6  0  0  0
  3  5  1  0  0  0  0
  5  6  1  1  0  0  0
  5  7  1  0  0  0  0
  7  8  1  6  0  0  0
  9  7  1  0  0  0  0
  9 10  1  0  0  0  0
  9 11  1  1  0  0  0
 10  1  1  0  0  0  0
 11 12  1  0  0  0  0
 13 14  1  6  0  0  0
 13 15  1  0  0  0  0
 13 22  1  0  0  0  0
 14 32  1  0  0  0  0
 15 16  1  1  0  0  0
 15 17  1  0  0  0  0
 16 23  1  0  0  0  0
 17 18  1  1  0  0  0
 17 19  1  0  0  0  0
 19  2  1  1  0  0  0
 19 20  1  0  0  0  0
 20 21  1  6  0  0  0
 20 22  1  0  0  0  0
 23 24  1  0  0  0  0
 24 25  1  0  0  0  0
 25 26  1  0  0  0  0
 26 27  1  0  0  0  0
 27 28  1  0  0  0  0
 28 29  1  0  0  0  0
 29 30  1  0  0  0  0
 31 37  1  0  0  0  0
 32 33  2  0  0  0  0
 34 32  1  1  0  0  0
 34 35  1  0  0  0  0
 34 36  1  0  0  0  0
 36 37  1  0  0  0  0
M  END
>  <CHROM.1>
-172.86781728,-179.42422626,104.53196047,61.12042779,72.94324728,65.15366142
178.48375672,72.09264589,-164.11897233,73.36573349,-178.29196149,-64.19268571
-137.51694660,-173.60961374,59.51561709,-7.38789430,17.63155300,6.52955015
2.96815851,0.84029302,-1.45432976

>  <Name>
1o9m_lig

>  <RI>
0

>  <Rbt.Current_Directory>
/home/itssahil/PROJECTS/Mol_Feturizer/New_Systems/rnas/1o9m

>  <Rbt.Executable>
rbdock ($Id: //depot/dev/client3/rdock/2013.1/src/exe/rbdock.cxx#4 $)

>  <Rbt.Library>
libRbt.so (2013.1, Build901 2013/11/27)

>  <Rbt.Parameter_File>
/export/apps/rDock/src/rDock_2013.1_src/data/scripts/dock_solv.prm

>  <Rbt.Receptor>
prm/pocket_docking_8.prm

>  <SCORE>
-15.2579

>  <SCORE.INTER>
-6.93213

>  <SCORE.INTER.CONST>
1

>  <SCORE.INTER.POLAR>
-1.52683

>  <SCORE.INTER.ROT>
15

>  <SCORE.INTER.SOLV>
10.3793

>  <SCORE.INTER.VDW>
-16.5918

>  <SCORE.INTER.norm>
-0.187355

>  <SCORE.INTRA>
-8.32576

>  <SCORE.INTRA.DIHEDRAL>
-15.9332

>  <SCORE.INTRA.DIHEDRAL.0>
21.5987

>  <SCORE.INTRA.POLAR>
0

>  <SCORE.INTRA.POLAR.0>
0

>  <SCORE.INTRA.REPUL>
0

>  <SCORE.INTRA.REPUL.0>
0

>  <SCORE.INTRA.SOLV>
1.85216

>  <SCORE.INTRA.SOLV.lig_0>
-108.715

>  <SCORE.INTRA.VDW>
-1.28525

>  <SCORE.INTRA.VDW.0>
-3.9485

>  <SCORE.INTRA.norm>
-0.225021

>  <SCORE.RESTR>
0

>  <SCORE.RESTR.CAVITY>
0

>  <SCORE.RESTR.norm>
0

>  <SCORE.SYSTEM>
0

>  <SCORE.SYSTEM.CONST>
0

>  <SCORE.SYSTEM.DIHEDRAL>
0

>  <SCORE.SYSTEM.SOLV>
0

>  <SCORE.SYSTEM.norm>
0

>  <SCORE.heavy>
37

>  <SCORE.norm>
-0.412376

>  <RMSD>
8.989

$$$$
1o9m_lig
 OpenBabel11021811403D
libRbt.so/2013.1/901 2013/11/27
 37 38  0  0  0  0  0  0  0  0999 V2000
   -4.1580   19.2615   10.8502 C   0  0  2  0  0  0  0  0  0  0  0  0
   -3.5068   18.1689   10.1330 O   0  0  0  0  0  0  0  0  0  0  0  0
   -4.1674   18.8525   12.3691 C   0  0  2  0  0  0  0  0  0  0  0  0
   -2.8091   18.6234   12.8922 N   0  0  0  0  0  0  0  0  0  0  0  0
   -5.0595   17.5660   12.5502 C   0  0  1  0  0  0  0  0  0  0  0  0
   -5.0854   17.1745   13.9256 O   0  0  0  0  0  0  0  0  0  0  0  0
   -6.4885   17.8839   11.9985 C   0  0  2  0  0  0  0  0  0  0  0  0
   -7.3863   16.7665   12.0991 O   0  0  0  0  0  0  0  0  0  0  0  0
   -6.4147   18.3345   10.5187 C   0  0  2  0  0  0  0  0  0  0  0  0
   -5.5304   19.4547   10.3685 O   0  0  0  0  0  0  0  0  0  0  0  0
   -7.7732   18.7010    9.9794 C   0  0  0  0  0  0  0  0  0  0  0  0
   -7.6743   19.0898    8.6648 N   0  0  0  0  0  0  0  0  0  0  0  0
   -4.3653   15.8191    6.5887 C   0  0  1  0  0  0  0  0  0  0  0  0
   -5.1132   14.9743    5.6158 N   0  0  0  0  0  0  0  0  0  0  0  0
   -5.1024   17.1403    6.7611 C   0  0  2  0  0  0  0  0  0  0  0  0
   -5.2130   17.7374    5.5035 O   0  0  0  0  0  0  0  0  0  0  0  0
   -4.3428   18.0682    7.7609 C   0  0  1  0  0  0  0  0  0  0  0  0
   -5.0703   19.3224    7.9344 O   0  0  0  0  0  0  0  0  0  0  0  0
   -4.2257   17.3501    9.1667 C   0  0  1  0  0  0  0  0  0  0  0  0
   -3.4740   16.0369    9.0106 C   0  0  1  0  0  0  0  0  0  0  0  0
   -3.3647   15.4014   10.3151 N   0  0  0  0  0  0  0  0  0  0  0  0
   -4.2186   15.1221    8.0016 C   0  0  0  0  0  0  0  0  0  0  0  0
   -5.7536   18.0372    4.1980 C   0  0  0  0  0  0  0  0  0  0  0  0
   -6.9928   18.8880    4.3563 C   0  0  0  0  0  0  0  0  0  0  0  0
   -8.0657   18.2525    5.1487 N   0  0  0  0  0  0  0  0  0  0  0  0
   -9.3313   18.0305    5.8845 C   0  0  0  0  0  0  0  0  0  0  0  0
   -9.3661   16.5016    5.7645 C   0  0  0  0  0  0  0  0  0  0  0  0
   -9.8361   16.0341    4.3743 C   0  0  0  0  0  0  0  0  0  0  0  0
  -11.3582   16.0548    4.2736 C   0  0  0  0  0  0  0  0  0  0  0  0
  -11.8418   17.4282    4.2881 N   0  0  0  0  0  0  0  0  0  0  0  0
   -3.6691   11.4737    1.1048 N   0  0  0  0  0  0  0  0  0  0  0  0
   -4.0419   13.8192    4.8005 C   0  0  0  0  0  0  0  0  0  0  0  0
   -2.9901   13.5850    4.8556 O   0  0  0  0  0  0  0  0  0  0  0  0
   -5.2684   13.3829    4.0370 C   0  0  2  0  0  0  0  0  0  0  0  0
   -5.8326   12.2658    4.5990 O   0  0  0  0  0  0  0  0  0  0  0  0
   -4.8018   12.9855    2.6409 C   0  0  0  0  0  0  0  0  0  0  0  0
   -3.9528   11.7063    2.5283 C   0  0  0  0  0  0  0  0  0  0  0  0
  1  2  1  6  0  0  0
  1  3  1  0  0  0  0
  3  4  1  6  0  0  0
  3  5  1  0  0  0  0
  5  6  1  1  0  0  0
  5  7  1  0  0  0  0
  7  8  1  6  0  0  0
  9  7  1  0  0  0  0
  9 10  1  0  0  0  0
  9 11  1  1  0  0  0
 10  1  1  0  0  0  0
 11 12  1  0  0  0  0
 13 14  1  6  0  0  0
 13 15  1  0  0  0  0
 13 22  1  0  0  0  0
 14 32  1  0  0  0  0
 15 16  1  6  0  0  0
 15 17  1  0  0  0  0
 16 23  1  0  0  0  0
 17 18  1  1  0  0  0
 17 19  1  0  0  0  0
 19  2  1  1  0  0  0
 19 20  1  0  0  0  0
 20 21  1  1  0  0  0
 20 22  1  0  0  0  0
 23 24  1  0  0  0  0
 24 25  1  0  0  0  0
 25 26  1  0  0  0  0
 26 27  1  0  0  0  0
 27 28  1  0  0  0  0
 28 29  1  0  0  0  0
 29 30  1  0  0  0  0
 31 37  1  0  0  0  0
 32 33  2  0  0  0  0
 34 32  1  1  0  0  0
 34 35  1  0  0  0  0
 34 36  1  0  0  0  0
 36 37  1  0  0  0  0
M  END
>  <CHROM.1>
114.86407586,-179.71841069,153.93699416,85.39209560,73.78668126,80.42084522
-59.52680116,174.40559610,156.68494730,-77.94261862,-81.83671491,68.75053629
-97.35215206,69.26919982,177.27949932,-5.77991756,16.63285110,7.46524372
-1.43768400,0.49893011,-2.10122223

>  <Name>
1o9m_lig

>  <RI>
0

>  <Rbt.Current_Directory>
/home/itssahil/PROJECTS/Mol_Feturizer/New_Systems/rnas/1o9m

>  <Rbt.Executable>
rbdock ($Id: //depot/dev/client3/rdock/2013.1/src/exe/rbdock.cxx#4 $)

>  <Rbt.Library>
libRbt.so (2013.1, Build901 2013/11/27)

>  <Rbt.Parameter_File>
/export/apps/rDock/src/rDock_2013.1_src/data/scripts/dock_solv.prm

>  <Rbt.Receptor>
prm/pocket_docking_4.prm

>  <SCORE>
-3.37712

>  <SCORE.INTER>
-7.03332

>  <SCORE.INTER.CONST>
1

>  <SCORE.INTER.POLAR>
-0.957006

>  <SCORE.INTER.ROT>
15

>  <SCORE.INTER.SOLV>
14.7813

>  <SCORE.INTER.VDW>
-20.026

>  <SCORE.INTER.norm>
-0.19009

>  <SCORE.INTRA>
3.6562

>  <SCORE.INTRA.DIHEDRAL>
-2.82275

>  <SCORE.INTRA.DIHEDRAL.0>
21.5987

>  <SCORE.INTRA.POLAR>
0

>  <SCORE.INTRA.POLAR.0>
0

>  <SCORE.INTRA.REPUL>
0.0544566

>  <SCORE.INTRA.REPUL.0>
0

>  <SCORE.INTRA.SOLV>
8.38171

>  <SCORE.INTRA.SOLV.lig_0>
-108.715

>  <SCORE.INTRA.VDW>
0.604435

>  <SCORE.INTRA.VDW.0>
-3.9485

>  <SCORE.INTRA.norm>
0.0988161

>  <SCORE.RESTR>
0

>  <SCORE.RESTR.CAVITY>
0

>  <SCORE.RESTR.norm>
0

>  <SCORE.SYSTEM>
0

>  <SCORE.SYSTEM.CONST>
0

>  <SCORE.SYSTEM.DIHEDRAL>
0

>  <SCORE.SYSTEM.SOLV>
0

>  <SCORE.SYSTEM.norm>
0

>  <SCORE.heavy>
37

>  <SCORE.norm>
-0.0912735

>  <RMSD>
8.992

$$$$
1o9m_lig
 OpenBabel11021811403D
libRbt.so/2013.1/901 2013/11/27
 37 38  0  0  0  0  0  0  0  0999 V2000
   -4.4596   17.8489   10.7039 C   0  0  2  0  0  0  0  0  0  0  0  0
   -3.6425   17.4234    9.5709 O   0  0  0  0  0  0  0  0  0  0  0  0
   -3.8392   19.2007   11.2160 C   0  0  2  0  0  0  0  0  0  0  0  0
   -3.8215   20.2371   10.1689 N   0  0  0  0  0  0  0  0  0  0  0  0
   -2.3837   18.9273   11.7552 C   0  0  1  0  0  0  0  0  0  0  0  0
   -1.7979   20.1430   12.2291 O   0  0  0  0  0  0  0  0  0  0  0  0
   -2.4768   17.8393   12.8755 C   0  0  2  0  0  0  0  0  0  0  0  0
   -1.1955   17.4986   13.4297 O   0  0  0  0  0  0  0  0  0  0  0  0
   -3.1451   16.5521   12.3324 C   0  0  2  0  0  0  0  0  0  0  0  0
   -4.4335   16.8423   11.7710 O   0  0  0  0  0  0  0  0  0  0  0  0
   -3.2979   15.5074   13.4075 C   0  0  0  0  0  0  0  0  0  0  0  0
   -2.0765   14.9547   13.7110 N   0  0  0  0  0  0  0  0  0  0  0  0
   -4.2422   14.7490    6.2081 C   0  0  1  0  0  0  0  0  0  0  0  0
   -4.5584   13.5105    5.4429 N   0  0  0  0  0  0  0  0  0  0  0  0
   -5.4633   15.1467    7.0262 C   0  0  2  0  0  0  0  0  0  0  0  0
   -6.5334   15.3169    6.1453 O   0  0  0  0  0  0  0  0  0  0  0  0
   -5.1837   16.4539    7.8328 C   0  0  1  0  0  0  0  0  0  0  0  0
   -6.3537   16.8128    8.6296 O   0  0  0  0  0  0  0  0  0  0  0  0
   -3.9569   16.2243    8.8065 C   0  0  1  0  0  0  0  0  0  0  0  0
   -2.7252   15.8446    7.9986 C   0  0  1  0  0  0  0  0  0  0  0  0
   -1.6073   15.6531    8.9103 N   0  0  0  0  0  0  0  0  0  0  0  0
   -3.0097   14.5559    7.1814 C   0  0  0  0  0  0  0  0  0  0  0  0
   -7.4611   15.0169    5.0795 C   0  0  0  0  0  0  0  0  0  0  0  0
   -8.6067   16.0017    5.1254 C   0  0  0  0  0  0  0  0  0  0  0  0
   -8.2413   17.3741    4.7180 N   0  0  0  0  0  0  0  0  0  0  0  0
   -7.8466   18.8004    4.7662 C   0  0  0  0  0  0  0  0  0  0  0  0
   -8.3054   19.1821    3.3532 C   0  0  0  0  0  0  0  0  0  0  0  0
   -8.2189   20.6987    3.0993 C   0  0  0  0  0  0  0  0  0  0  0  0
   -9.2160   21.4587    3.9686 C   0  0  0  0  0  0  0  0  0  0  0  0
   -9.1329   22.8862    3.6938 N   0  0  0  0  0  0  0  0  0  0  0  0
   -6.4276   10.5746    1.8560 N   0  0  0  0  0  0  0  0  0  0  0  0
   -3.6667   13.4481    3.9106 C   0  0  0  0  0  0  0  0  0  0  0  0
   -2.9502   14.0876    3.4189 O   0  0  0  0  0  0  0  0  0  0  0  0
   -4.3903   12.1467    3.6649 C   0  0  2  0  0  0  0  0  0  0  0  0
   -3.8056   11.4374    2.6466 O   0  0  0  0  0  0  0  0  0  0  0  0
   -5.7978   12.5044    3.2005 C   0  0  0  0  0  0  0  0  0  0  0  0
   -6.7983   11.3438    3.0527 C   0  0  0  0  0  0  0  0  0  0  0  0
  1  2  1  6  0  0  0
  1  3  1  0  0  0  0
  3  4  1  6  0  0  0
  3  5  1  0  0  0  0
  5  6  1  1  0  0  0
  5  7  1  0  0  0  0
  7  8  1  6  0  0  0
  9  7  1  0  0  0  0
  9 10  1  0  0  0  0
  9 11  1  1  0  0  0
 10  1  1  0  0  0  0
 11 12  1  0  0  0  0
 13 14  1  1  0  0  0
 13 15  1  0  0  0  0
 13 22  1  0  0  0  0
 14 32  1  0  0  0  0
 15 16  1  6  0  0  0
 15 17  1  0  0  0  0
 16 23  1  0  0  0  0
 17 18  1  1  0  0  0
 17 19  1  0  0  0  0
 19  2  1  6  0  0  0
 19 20  1  0  0  0  0
 20 21  1  1  0  0  0
 20 22  1  0  0  0  0
 23 24  1  0  0  0  0
 24 25  1  0  0  0  0
 25 26  1  0  0  0  0
 26 27  1  0  0  0  0
 27 28  1  0  0  0  0
 28 29  1  0  0  0  0
 29 30  1  0  0  0  0
 31 37  1  0  0  0  0
 32 33  2  0  0  0  0
 34 32  1  6  0  0  0
 34 35  1  0  0  0  0
 34 36  1  0  0  0  0
 36 37  1  0  0  0  0
M  END
>  <CHROM.1>
-177.59603485,-73.01594164,149.40860317,49.77875892,168.14030851,75.79076106
70.82613152,-97.57962399,-160.79532134,172.25883511,-66.63626735,-178.96536242
-165.21437845,-172.49528883,-73.05297462,-4.88886851,16.33434214,7.38552548
0.87608940,-0.92117039,0.67739253

>  <Name>
1o9m_lig

>  <RI>
0

>  <Rbt.Current_Directory>
/home/itssahil/PROJECTS/Mol_Feturizer/New_Systems/rnas/1o9m

>  <Rbt.Executable>
rbdock ($Id: //depot/dev/client3/rdock/2013.1/src/exe/rbdock.cxx#4 $)

>  <Rbt.Library>
libRbt.so (2013.1, Build901 2013/11/27)

>  <Rbt.Parameter_File>
/export/apps/rDock/src/rDock_2013.1_src/data/scripts/dock_solv.prm

>  <Rbt.Receptor>
prm/pocket_docking_4.prm

>  <SCORE>
-9.57505

>  <SCORE.INTER>
-3.61177

>  <SCORE.INTER.CONST>
1

>  <SCORE.INTER.POLAR>
-0.919976

>  <SCORE.INTER.ROT>
15

>  <SCORE.INTER.SOLV>
8.17972

>  <SCORE.INTER.VDW>
-15.6678

>  <SCORE.INTER.norm>
-0.0976155

>  <SCORE.INTRA>
-6.25791

>  <SCORE.INTRA.DIHEDRAL>
-14.0743

>  <SCORE.INTRA.DIHEDRAL.0>
21.5987

>  <SCORE.INTRA.POLAR>
0

>  <SCORE.INTRA.POLAR.0>
0

>  <SCORE.INTRA.REPUL>
0

>  <SCORE.INTRA.REPUL.0>
0

>  <SCORE.INTRA.SOLV>
1.46625

>  <SCORE.INTRA.SOLV.lig_0>
-108.715

>  <SCORE.INTRA.VDW>
0.0461279

>  <SCORE.INTRA.VDW.0>
-3.9485

>  <SCORE.INTRA.norm>
-0.169133

>  <SCORE.RESTR>
0.294629

>  <SCORE.RESTR.CAVITY>
0.294629

>  <SCORE.RESTR.norm>
0.00796293

>  <SCORE.SYSTEM>
0

>  <SCORE.SYSTEM.CONST>
0

>  <SCORE.SYSTEM.DIHEDRAL>
0

>  <SCORE.SYSTEM.SOLV>
0

>  <SCORE.SYSTEM.norm>
0

>  <SCORE.heavy>
37

>  <SCORE.norm>
-0.258785

>  <RMSD>
8.996

$$$$
1o9m_lig
 OpenBabel11021811403D
libRbt.so/2013.1/901 2013/11/27
 37 38  0  0  0  0  0  0  0  0999 V2000
   -0.5391   14.6133    7.5419 C   0  0  2  0  0  0  0  0  0  0  0  0
   -1.8532   14.9040    8.1085 O   0  0  0  0  0  0  0  0  0  0  0  0
    0.4202   14.3456    8.7595 C   0  0  2  0  0  0  0  0  0  0  0  0
   -0.0439   13.2266    9.5983 N   0  0  0  0  0  0  0  0  0  0  0  0
    0.5508   15.6649    9.6116 C   0  0  1  0  0  0  0  0  0  0  0  0
    1.4210   15.4473   10.7256 O   0  0  0  0  0  0  0  0  0  0  0  0
    1.0680   16.8023    8.6701 C   0  0  2  0  0  0  0  0  0  0  0  0
    1.2086   18.0634    9.3443 O   0  0  0  0  0  0  0  0  0  0  0  0
    0.1176   16.9847    7.4611 C   0  0  2  0  0  0  0  0  0  0  0  0
   -0.0508   15.7488    6.7515 O   0  0  0  0  0  0  0  0  0  0  0  0
    0.6234   18.0371    6.5085 C   0  0  0  0  0  0  0  0  0  0  0  0
   -0.3100   18.2808    5.5294 N   0  0  0  0  0  0  0  0  0  0  0  0
   -5.7177   14.4930    6.1807 C   0  0  1  0  0  0  0  0  0  0  0  0
   -6.8930   14.8029    5.3192 N   0  0  0  0  0  0  0  0  0  0  0  0
   -4.4746   14.4101    5.3053 C   0  0  2  0  0  0  0  0  0  0  0  0
   -4.6998   13.4353    4.3311 O   0  0  0  0  0  0  0  0  0  0  0  0
   -3.2174   14.0678    6.1654 C   0  0  1  0  0  0  0  0  0  0  0  0
   -2.0289   14.0126    5.3186 O   0  0  0  0  0  0  0  0  0  0  0  0
   -3.0062   15.1867    7.2650 C   0  0  1  0  0  0  0  0  0  0  0  0
   -4.2349   15.2661    8.1583 C   0  0  1  0  0  0  0  0  0  0  0  0
   -4.0139   16.2888    9.1696 N   0  0  0  0  0  0  0  0  0  0  0  0
   -5.4881   15.5870    7.3005 C   0  0  0  0  0  0  0  0  0  0  0  0
   -5.3620   12.7332    3.2563 C   0  0  0  0  0  0  0  0  0  0  0  0
   -4.4932   11.5818    2.8047 C   0  0  0  0  0  0  0  0  0  0  0  0
   -5.2251   10.5158    2.0900 N   0  0  0  0  0  0  0  0  0  0  0  0
   -6.1134    9.8110    1.1377 C   0  0  0  0  0  0  0  0  0  0  0  0
   -5.8795    8.3887    1.6623 C   0  0  0  0  0  0  0  0  0  0  0  0
   -6.5651    7.3222    0.7878 C   0  0  0  0  0  0  0  0  0  0  0  0
   -6.3149    5.9201    1.3345 C   0  0  0  0  0  0  0  0  0  0  0  0
   -6.9877    4.9318    0.5034 N   0  0  0  0  0  0  0  0  0  0  0  0
  -11.0571   17.2374    3.7566 N   0  0  0  0  0  0  0  0  0  0  0  0
   -6.7979   16.4459    4.6571 C   0  0  0  0  0  0  0  0  0  0  0  0
   -6.0884   17.2557    4.7261 O   0  0  0  0  0  0  0  0  0  0  0  0
   -8.1305   16.1496    4.0136 C   0  0  2  0  0  0  0  0  0  0  0  0
   -8.3928   17.0229    2.9887 O   0  0  0  0  0  0  0  0  0  0  0  0
   -9.1971   16.3860    5.0772 C   0  0  0  0  0  0  0  0  0  0  0  0
  -10.6601   16.1485    4.6609 C   0  0  0  0  0  0  0  0  0  0  0  0
  1  2  1  1  0  0  0
  1  3  1  0  0  0  0
  3  4  1  1  0  0  0
  3  5  1  0  0  0  0
  5  6  1  1  0  0  0
  5  7  1  0  0  0  0
  7  8  1  1  0  0  0
  9  7  1  0  0  0  0
  9 10  1  0  0  0  0
  9 11  1  6  0  0  0
 10  1  1  0  0  0  0
 11 12  1  0  0  0  0
 13 14  1  6  0  0  0
 13 15  1  0  0  0  0
 13 22  1  0  0  0  0
 14 32  1  0  0  0  0
 15 16  1  6  0  0  0
 15 17  1  0  0  0  0
 16 23  1  0  0  0  0
 17 18  1  6  0  0  0
 17 19  1  0  0  0  0
 19  2  1  1  0  0  0
 19 20  1  0  0  0  0
 20 21  1  1  0  0  0
 20 22  1  0  0  0  0
 23 24  1  0  0  0  0
 24 25  1  0  0  0  0
 25 26  1  0  0  0  0
 26 27  1  0  0  0  0
 27 28  1  0  0  0  0
 28 29  1  0  0  0  0
 29 30  1  0  0  0  0
 31 37  1  0  0  0  0
 32 33  2  0  0  0  0
 34 32  1  1  0  0  0
 34 35  1  0  0  0  0
 34 36  1  0  0  0  0
 36 37  1  0  0  0  0
M  END
>  <CHROM.1>
-179.19161365,-173.31739829,-68.25637719,53.09244800,176.04229912,52.07188045
158.75898937,50.09094558,-178.98318945,-174.16287976,-179.98100525,179.18990712
-161.87147604,179.96852648,-71.79653140,-3.98938919,14.27220271,5.58158657
-0.80327312,0.42893548,-2.70279411

>  <Name>
1o9m_lig

>  <RI>
0

>  <Rbt.Current_Directory>
/home/itssahil/PROJECTS/Mol_Feturizer/New_Systems/rnas/1o9m

>  <Rbt.Executable>
rbdock ($Id: //depot/dev/client3/rdock/2013.1/src/exe/rbdock.cxx#4 $)

>  <Rbt.Library>
libRbt.so (2013.1, Build901 2013/11/27)

>  <Rbt.Parameter_File>
/export/apps/rDock/src/rDock_2013.1_src/data/scripts/dock_solv.prm

>  <Rbt.Receptor>
prm/pocket_docking_7.prm

>  <SCORE>
-12.9885

>  <SCORE.INTER>
-4.86724

>  <SCORE.INTER.CONST>
1

>  <SCORE.INTER.POLAR>
0

>  <SCORE.INTER.ROT>
15

>  <SCORE.INTER.SOLV>
14.7245

>  <SCORE.INTER.VDW>
-21.753

>  <SCORE.INTER.norm>
-0.131547

>  <SCORE.INTRA>
-8.12131

>  <SCORE.INTRA.DIHEDRAL>
-17.1717

>  <SCORE.INTRA.DIHEDRAL.0>
21.5987

>  <SCORE.INTRA.POLAR>
0

>  <SCORE.INTRA.POLAR.0>
0

>  <SCORE.INTRA.REPUL>
0

>  <SCORE.INTRA.REPUL.0>
0

>  <SCORE.INTRA.SOLV>
-0.142986

>  <SCORE.INTRA.SOLV.lig_0>
-108.715

>  <SCORE.INTRA.VDW>
0.536013

>  <SCORE.INTRA.VDW.0>
-3.9485

>  <SCORE.INTRA.norm>
-0.219495

>  <SCORE.RESTR>
0

>  <SCORE.RESTR.CAVITY>
0

>  <SCORE.RESTR.norm>
0

>  <SCORE.SYSTEM>
0

>  <SCORE.SYSTEM.CONST>
0

>  <SCORE.SYSTEM.DIHEDRAL>
0

>  <SCORE.SYSTEM.SOLV>
0

>  <SCORE.SYSTEM.norm>
0

>  <SCORE.heavy>
37

>  <SCORE.norm>
-0.351042

>  <RMSD>
8.996

$$$$
1o9m_lig
 OpenBabel11021811403D
libRbt.so/2013.1/901 2013/11/27
 37 38  0  0  0  0  0  0  0  0999 V2000
   -3.3487   14.7941    9.4281 C   0  0  2  0  0  0  0  0  0  0  0  0
   -4.1546   15.4209    8.3841 O   0  0  0  0  0  0  0  0  0  0  0  0
   -3.7987   15.4451   10.7875 C   0  0  2  0  0  0  0  0  0  0  0  0
   -5.2351   15.2483   11.0504 N   0  0  0  0  0  0  0  0  0  0  0  0
   -3.4404   16.9797   10.7668 C   0  0  1  0  0  0  0  0  0  0  0  0
   -3.8388   17.5949   11.9950 O   0  0  0  0  0  0  0  0  0  0  0  0
   -1.9036   17.1164   10.5078 C   0  0  2  0  0  0  0  0  0  0  0  0
   -1.4671   18.4844   10.4519 O   0  0  0  0  0  0  0  0  0  0  0  0
   -1.5075   16.4108    9.1874 C   0  0  2  0  0  0  0  0  0  0  0  0
   -1.9200   15.0364    9.1981 O   0  0  0  0  0  0  0  0  0  0  0  0
   -0.0222   16.4795    8.9427 C   0  0  0  0  0  0  0  0  0  0  0  0
    0.2828   15.9449    7.7137 N   0  0  0  0  0  0  0  0  0  0  0  0
   -5.0349   14.4220    4.2552 C   0  0  1  0  0  0  0  0  0  0  0  0
   -5.4929   13.6450    3.0694 N   0  0  0  0  0  0  0  0  0  0  0  0
   -6.2086   14.6015    5.2086 C   0  0  2  0  0  0  0  0  0  0  0  0
   -7.2351   15.2407    4.5101 O   0  0  0  0  0  0  0  0  0  0  0  0
   -5.7789   15.4286    6.4611 C   0  0  1  0  0  0  0  0  0  0  0  0
   -6.9064   15.5753    7.3775 O   0  0  0  0  0  0  0  0  0  0  0  0
   -4.6058   14.6792    7.2148 C   0  0  1  0  0  0  0  0  0  0  0  0
   -3.4196   14.5105    6.2776 C   0  0  1  0  0  0  0  0  0  0  0  0
   -2.3487   13.8339    6.9939 N   0  0  0  0  0  0  0  0  0  0  0  0
   -3.8516   13.7052    5.0230 C   0  0  0  0  0  0  0  0  0  0  0  0
   -8.5181   15.8592    4.2693 C   0  0  0  0  0  0  0  0  0  0  0  0
   -8.6623   17.0695    5.1631 C   0  0  0  0  0  0  0  0  0  0  0  0
   -9.8762   17.8711    4.9047 N   0  0  0  0  0  0  0  0  0  0  0  0
  -10.7800   19.0118    4.6319 C   0  0  0  0  0  0  0  0  0  0  0  0
  -12.1054   18.2781    4.8730 C   0  0  0  0  0  0  0  0  0  0  0  0
  -13.3135   19.2333    4.8632 C   0  0  0  0  0  0  0  0  0  0  0  0
  -14.6012   18.4937    5.2126 C   0  0  0  0  0  0  0  0  0  0  0  0
  -14.5754   18.0757    6.6072 N   0  0  0  0  0  0  0  0  0  0  0  0
   -3.2887    9.3574    0.7363 N   0  0  0  0  0  0  0  0  0  0  0  0
   -5.6183   11.9139    3.4358 C   0  0  0  0  0  0  0  0  0  0  0  0
   -5.4515   11.3060    4.3114 O   0  0  0  0  0  0  0  0  0  0  0  0
   -6.0288   11.7466    1.9932 C   0  0  2  0  0  0  0  0  0  0  0  0
   -7.3725   11.4920    1.8851 O   0  0  0  0  0  0  0  0  0  0  0  0
   -5.3033   10.5130    1.4674 C   0  0  0  0  0  0  0  0  0  0  0  0
   -3.8095   10.6740    1.1319 C   0  0  0  0  0  0  0  0  0  0  0  0
  1  2  1  6  0  0  0
  1  3  1  0  0  0  0
  3  4  1  6  0  0  0
  3  5  1  0  0  0  0
  5  6  1  1  0  0  0
  5  7  1  0  0  0  0
  7  8  1  6  0  0  0
  9  7  1  0  0  0  0
  9 10  1  0  0  0  0
  9 11  1  1  0  0  0
 10  1  1  0  0  0  0
 11 12  1  0  0  0  0
 13 14  1  6  0  0  0
 13 15  1  0  0  0  0
 13 22  1  0  0  0  0
 14 32  1  0  0  0  0
 15 16  1  6  0  0  0
 15 17  1  0  0  0  0
 16 23  1  0  0  0  0
 17 18  1  1  0  0  0
 17 19  1  0  0  0  0
 19  2  1  1  0  0  0
 19 20  1  0  0  0  0
 20 21  1  1  0  0  0
 20 22  1  0  0  0  0
 23 24  1  0  0  0  0
 24 25  1  0  0  0  0
 25 26  1  0  0  0  0
 26 27  1  0  0  0  0
 27 28  1  0  0  0  0
 28 29  1  0  0  0  0
 29 30  1  0  0  0  0
 31 37  1  0  0  0  0
 32 33  2  0  0  0  0
 34 32  1  1  0  0  0
 34 35  1  0  0  0  0
 34 36  1  0  0  0  0
 36 37  1  0  0  0  0
M  END
>  <CHROM.1>
-144.90963050,-174.98156132,-77.73993920,-178.18573953,60.95256861,163.58370447
173.79843230,-129.06059265,-169.37643204,172.08420413,-175.58656815,68.46406760
-106.20444274,-76.56547041,176.12137620,-5.69725573,15.18496767,6.24009766
0.32193340,-0.39544169,0.88747587

>  <Name>
1o9m_lig

>  <RI>
0

>  <Rbt.Current_Directory>
/home/itssahil/PROJECTS/Mol_Feturizer/New_Systems/rnas/1o9m

>  <Rbt.Executable>
rbdock ($Id: //depot/dev/client3/rdock/2013.1/src/exe/rbdock.cxx#4 $)

>  <Rbt.Library>
libRbt.so (2013.1, Build901 2013/11/27)

>  <Rbt.Parameter_File>
/export/apps/rDock/src/rDock_2013.1_src/data/scripts/dock_solv.prm

>  <Rbt.Receptor>
prm/pocket_docking_7.prm

>  <SCORE>
-10.8428

>  <SCORE.INTER>
-7.58248

>  <SCORE.INTER.CONST>
1

>  <SCORE.INTER.POLAR>
-1.77027

>  <SCORE.INTER.ROT>
15

>  <SCORE.INTER.SOLV>
18.0504

>  <SCORE.INTER.VDW>
-18.7709

>  <SCORE.INTER.norm>
-0.204932

>  <SCORE.INTRA>
-3.26035

>  <SCORE.INTRA.DIHEDRAL>
-10.4009

>  <SCORE.INTRA.DIHEDRAL.0>
21.5987

>  <SCORE.INTRA.POLAR>
0

>  <SCORE.INTRA.POLAR.0>
0

>  <SCORE.INTRA.REPUL>
0

>  <SCORE.INTRA.REPUL.0>
0

>  <SCORE.INTRA.SOLV>
3.30464

>  <SCORE.INTRA.SOLV.lig_0>
-108.715

>  <SCORE.INTRA.VDW>
0.287796

>  <SCORE.INTRA.VDW.0>
-3.9485

>  <SCORE.INTRA.norm>
-0.0881177

>  <SCORE.RESTR>
0

>  <SCORE.RESTR.CAVITY>
0

>  <SCORE.RESTR.norm>
0

>  <SCORE.SYSTEM>
0

>  <SCORE.SYSTEM.CONST>
0

>  <SCORE.SYSTEM.DIHEDRAL>
0

>  <SCORE.SYSTEM.SOLV>
0

>  <SCORE.SYSTEM.norm>
0

>  <SCORE.heavy>
37

>  <SCORE.norm>
-0.293049

>  <RMSD>
9.007

$$$$
1o9m_lig
 OpenBabel11021811403D
libRbt.so/2013.1/901 2013/11/27
 37 38  0  0  0  0  0  0  0  0999 V2000
   -4.2969   18.1867    8.3998 C   0  0  2  0  0  0  0  0  0  0  0  0
   -4.7117   16.9207    8.9975 O   0  0  0  0  0  0  0  0  0  0  0  0
   -4.0582   19.1839    9.5927 C   0  0  2  0  0  0  0  0  0  0  0  0
   -3.0357   18.6926   10.5329 N   0  0  0  0  0  0  0  0  0  0  0  0
   -5.4254   19.4340   10.3358 C   0  0  1  0  0  0  0  0  0  0  0  0
   -5.2348   20.3405   11.4255 O   0  0  0  0  0  0  0  0  0  0  0  0
   -6.4554   19.9745    9.2897 C   0  0  2  0  0  0  0  0  0  0  0  0
   -7.7510   20.2226    9.8596 O   0  0  0  0  0  0  0  0  0  0  0  0
   -6.6092   18.9814    8.1114 C   0  0  2  0  0  0  0  0  0  0  0  0
   -5.3379   18.7055    7.5055 O   0  0  0  0  0  0  0  0  0  0  0  0
   -7.5545   19.5049    7.0612 C   0  0  0  0  0  0  0  0  0  0  0  0
   -6.9735   20.5433    6.3731 N   0  0  0  0  0  0  0  0  0  0  0  0
   -4.2869   14.1351    5.6989 C   0  0  1  0  0  0  0  0  0  0  0  0
   -4.3245   12.8604    4.9287 N   0  0  0  0  0  0  0  0  0  0  0  0
   -5.6956   14.4643    6.1740 C   0  0  2  0  0  0  0  0  0  0  0  0
   -6.5213   14.5387    5.0502 O   0  0  0  0  0  0  0  0  0  0  0  0
   -5.7079   15.8059    6.9724 C   0  0  1  0  0  0  0  0  0  0  0  0
   -7.0595   16.0995    7.4410 O   0  0  0  0  0  0  0  0  0  0  0  0
   -4.7502   15.6854    8.2270 C   0  0  1  0  0  0  0  0  0  0  0  0
   -3.3350   15.3751    7.7637 C   0  0  1  0  0  0  0  0  0  0  0  0
   -2.4694   15.2835    8.9299 N   0  0  0  0  0  0  0  0  0  0  0  0
   -3.3258   14.0514    6.9531 C   0  0  0  0  0  0  0  0  0  0  0  0
   -7.0382   15.0144    3.7881 C   0  0  0  0  0  0  0  0  0  0  0  0
   -7.5488   16.4265    3.9603 C   0  0  0  0  0  0  0  0  0  0  0  0
   -8.7481   16.5359    4.8163 N   0  0  0  0  0  0  0  0  0  0  0  0
  -10.0166   16.2201    5.5117 C   0  0  0  0  0  0  0  0  0  0  0  0
  -10.9679   16.5755    4.3620 C   0  0  0  0  0  0  0  0  0  0  0  0
  -11.1353   18.0969    4.1899 C   0  0  0  0  0  0  0  0  0  0  0  0
  -12.3139   18.4198    3.2766 C   0  0  0  0  0  0  0  0  0  0  0  0
  -12.5978   19.8475    3.3122 N   0  0  0  0  0  0  0  0  0  0  0  0
   -7.6558    9.9040    2.7262 N   0  0  0  0  0  0  0  0  0  0  0  0
   -4.0610   13.1396    3.1969 C   0  0  0  0  0  0  0  0  0  0  0  0
   -3.8717   14.0077    2.5848 O   0  0  0  0  0  0  0  0  0  0  0  0
   -4.2441   11.6502    3.0371 C   0  0  2  0  0  0  0  0  0  0  0  0
   -3.7131   11.2083    1.8518 O   0  0  0  0  0  0  0  0  0  0  0  0
   -5.7456   11.3942    2.9694 C   0  0  0  0  0  0  0  0  0  0  0  0
   -6.2004    9.9239    2.9320 C   0  0  0  0  0  0  0  0  0  0  0  0
  1  2  1  1  0  0  0
  1  3  1  0  0  0  0
  3  4  1  1  0  0  0
  3  5  1  0  0  0  0
  5  6  1  1  0  0  0
  5  7  1  0  0  0  0
  7  8  1  1  0  0  0
  9  7  1  0  0  0  0
  9 10  1  0  0  0  0
  9 11  1  6  0  0  0
 10  1  1  0  0  0  0
 11 12  1  0  0  0  0
 13 14  1  1  0  0  0
 13 15  1  0  0  0  0
 13 22  1  0  0  0  0
 14 32  1  0  0  0  0
 15 16  1  6  0  0  0
 15 17  1  0  0  0  0
 16 23  1  0  0  0  0
 17 18  1  1  0  0  0
 17 19  1  0  0  0  0
 19  2  1  6  0  0  0
 19 20  1  0  0  0  0
 20 21  1  1  0  0  0
 20 22  1  0  0  0  0
 23 24  1  0  0  0  0
 24 25  1  0  0  0  0
 25 26  1  0  0  0  0
 26 27  1  0  0  0  0
 27 28  1  0  0  0  0
 28 29  1  0  0  0  0
 29 30  1  0  0  0  0
 31 37  1  0  0  0  0
 32 33  2  0  0  0  0
 34 32  1  6  0  0  0
 34 35  1  0  0  0  0
 34 36  1  0  0  0  0
 36 37  1  0  0  0  0
M  END
>  <CHROM.1>
-166.85980589,71.70730361,109.20881745,-62.87304996,-64.15245685,-58.40729566
-67.76162315,-28.61195794,-82.95318392,-76.15904988,-166.75680109,170.17092827
-160.36329652,-174.68888085,-174.13877100,-6.25061027,16.15700491,6.16735259
-1.64437291,0.51959574,-2.43100897

>  <Name>
1o9m_lig

>  <RI>
0

>  <Rbt.Current_Directory>
/home/itssahil/PROJECTS/Mol_Feturizer/New_Systems/rnas/1o9m

>  <Rbt.Executable>
rbdock ($Id: //depot/dev/client3/rdock/2013.1/src/exe/rbdock.cxx#4 $)

>  <Rbt.Library>
libRbt.so (2013.1, Build901 2013/11/27)

>  <Rbt.Parameter_File>
/export/apps/rDock/src/rDock_2013.1_src/data/scripts/dock_solv.prm

>  <Rbt.Receptor>
prm/pocket_docking_6.prm

>  <SCORE>
-17.9076

>  <SCORE.INTER>
-10.5401

>  <SCORE.INTER.CONST>
1

>  <SCORE.INTER.POLAR>
-0.945268

>  <SCORE.INTER.ROT>
15

>  <SCORE.INTER.SOLV>
11.8139

>  <SCORE.INTER.VDW>
-21.4138

>  <SCORE.INTER.norm>
-0.284866

>  <SCORE.INTRA>
-7.36754

>  <SCORE.INTRA.DIHEDRAL>
-14.1849

>  <SCORE.INTRA.DIHEDRAL.0>
21.5987

>  <SCORE.INTRA.POLAR>
0

>  <SCORE.INTRA.POLAR.0>
0

>  <SCORE.INTRA.REPUL>
0

>  <SCORE.INTRA.REPUL.0>
0

>  <SCORE.INTRA.SOLV>
3.04924

>  <SCORE.INTRA.SOLV.lig_0>
-108.715

>  <SCORE.INTRA.VDW>
-1.79973

>  <SCORE.INTRA.VDW.0>
-3.9485

>  <SCORE.INTRA.norm>
-0.199123

>  <SCORE.RESTR>
0

>  <SCORE.RESTR.CAVITY>
0

>  <SCORE.RESTR.norm>
0

>  <SCORE.SYSTEM>
0

>  <SCORE.SYSTEM.CONST>
0

>  <SCORE.SYSTEM.DIHEDRAL>
0

>  <SCORE.SYSTEM.SOLV>
0

>  <SCORE.SYSTEM.norm>
0

>  <SCORE.heavy>
37

>  <SCORE.norm>
-0.483989

>  <RMSD>
9.020

$$$$
1o9m_lig
 OpenBabel11021811403D
libRbt.so/2013.1/901 2013/11/27
 37 38  0  0  0  0  0  0  0  0999 V2000
  -12.5081   20.3405    6.1053 C   0  0  2  0  0  0  0  0  0  0  0  0
  -11.6427   19.6106    7.0275 O   0  0  0  0  0  0  0  0  0  0  0  0
  -12.1060   21.8566    6.2248 C   0  0  2  0  0  0  0  0  0  0  0  0
  -10.6875   22.0838    5.8974 N   0  0  0  0  0  0  0  0  0  0  0  0
  -12.4302   22.3617    7.6821 C   0  0  1  0  0  0  0  0  0  0  0  0
  -12.0745   23.7405    7.8157 O   0  0  0  0  0  0  0  0  0  0  0  0
  -13.9504   22.1136    7.9555 C   0  0  2  0  0  0  0  0  0  0  0  0
  -14.3545   22.5247    9.2718 O   0  0  0  0  0  0  0  0  0  0  0  0
  -14.3016   20.6168    7.7692 C   0  0  2  0  0  0  0  0  0  0  0  0
  -13.9194   20.1603    6.4635 O   0  0  0  0  0  0  0  0  0  0  0  0
  -15.7724   20.3601    7.9721 C   0  0  0  0  0  0  0  0  0  0  0  0
  -16.1038   20.5129    9.2973 N   0  0  0  0  0  0  0  0  0  0  0  0
   -8.7614   16.4115    6.4937 C   0  0  1  0  0  0  0  0  0  0  0  0
   -7.5662   15.6710    6.0010 N   0  0  0  0  0  0  0  0  0  0  0  0
   -8.2978   17.6733    7.2089 C   0  0  2  0  0  0  0  0  0  0  0  0
   -7.4385   17.2906    8.2411 O   0  0  0  0  0  0  0  0  0  0  0  0
   -9.5195   18.4742    7.7601 C   0  0  1  0  0  0  0  0  0  0  0  0
   -9.0636   19.6922    8.4243 O   0  0  0  0  0  0  0  0  0  0  0  0
  -10.4745   18.8752    6.5631 C   0  0  1  0  0  0  0  0  0  0  0  0
  -10.9597   17.6211    5.8520 C   0  0  1  0  0  0  0  0  0  0  0  0
  -11.8466   18.0112    4.7663 N   0  0  0  0  0  0  0  0  0  0  0  0
   -9.7443   16.8147    5.3211 C   0  0  0  0  0  0  0  0  0  0  0  0
   -7.0217   16.7958    9.5326 C   0  0  0  0  0  0  0  0  0  0  0  0
   -5.5338   16.5311    9.5071 C   0  0  0  0  0  0  0  0  0  0  0  0
   -5.1379   15.3835    8.6651 N   0  0  0  0  0  0  0  0  0  0  0  0
   -4.9018   14.5116    7.4918 C   0  0  0  0  0  0  0  0  0  0  0  0
   -3.6477   13.8030    8.0191 C   0  0  0  0  0  0  0  0  0  0  0  0
   -2.3898   14.6857    7.9165 C   0  0  0  0  0  0  0  0  0  0  0  0
   -1.1541   13.9404    8.4114 C   0  0  0  0  0  0  0  0  0  0  0  0
   -1.2113   13.7822    9.8577 N   0  0  0  0  0  0  0  0  0  0  0  0
   -6.3839   11.7662    2.9486 N   0  0  0  0  0  0  0  0  0  0  0  0
   -6.9714   16.3425    4.4706 C   0  0  0  0  0  0  0  0  0  0  0  0
   -7.2667   17.1593    3.8305 O   0  0  0  0  0  0  0  0  0  0  0  0
   -5.9313   15.2500    4.5181 C   0  0  2  0  0  0  0  0  0  0  0  0
   -4.7896   15.6214    3.8544 O   0  0  0  0  0  0  0  0  0  0  0  0
   -6.5093   14.0564    3.7657 C   0  0  0  0  0  0  0  0  0  0  0  0
   -5.6594   12.7732    3.7374 C   0  0  0  0  0  0  0  0  0  0  0  0
  1  2  1  1  0  0  0
  1  3  1  0  0  0  0
  3  4  1  1  0  0  0
  3  5  1  0  0  0  0
  5  6  1  6  0  0  0
  5  7  1  0  0  0  0
  7  8  1  1  0  0  0
  9  7  1  0  0  0  0
  9 10  1  0  0  0  0
  9 11  1  6  0  0  0
 10  1  1  0  0  0  0
 11 12  1  0  0  0  0
 13 14  1  6  0  0  0
 13 15  1  0  0  0  0
 13 22  1  0  0  0  0
 14 32  1  0  0  0  0
 15 16  1  1  0  0  0
 15 17  1  0  0  0  0
 16 23  1  0  0  0  0
 17 18  1  6  0  0  0
 17 19  1  0  0  0  0
 19  2  1  1  0  0  0
 19 20  1  0  0  0  0
 20 21  1  6  0  0  0
 20 22  1  0  0  0  0
 23 24  1  0  0  0  0
 24 25  1  0  0  0  0
 25 26  1  0  0  0  0
 26 27  1  0  0  0  0
 27 28  1  0  0  0  0
 28 29  1  0  0  0  0
 29 30  1  0  0  0  0
 31 37  1  0  0  0  0
 32 33  2  0  0  0  0
 34 32  1  6  0  0  0
 34 35  1  0  0  0  0
 34 36  1  0  0  0  0
 36 37  1  0  0  0  0
M  END
>  <CHROM.1>
-101.11532157,-70.09496599,-81.58920333,-79.50865910,168.30106706,166.13231910
-69.56447038,65.48460621,148.05534386,-77.15996708,-178.40305634,-71.07540532
-152.44714741,-176.79304847,-179.02358678,-8.86762940,17.73515363,6.84028298
2.75313939,-0.53344384,1.02657190

>  <Name>
1o9m_lig

>  <RI>
0

>  <Rbt.Current_Directory>
/home/itssahil/PROJECTS/Mol_Feturizer/New_Systems/rnas/1o9m

>  <Rbt.Executable>
rbdock ($Id: //depot/dev/client3/rdock/2013.1/src/exe/rbdock.cxx#4 $)

>  <Rbt.Library>
libRbt.so (2013.1, Build901 2013/11/27)

>  <Rbt.Parameter_File>
/export/apps/rDock/src/rDock_2013.1_src/data/scripts/dock_solv.prm

>  <Rbt.Receptor>
prm/pocket_docking_7.prm

>  <SCORE>
-5.96745

>  <SCORE.INTER>
-4.03822

>  <SCORE.INTER.CONST>
1

>  <SCORE.INTER.POLAR>
-0.632773

>  <SCORE.INTER.ROT>
15

>  <SCORE.INTER.SOLV>
13.3291

>  <SCORE.INTER.VDW>
-18.6259

>  <SCORE.INTER.norm>
-0.109141

>  <SCORE.INTRA>
-1.92923

>  <SCORE.INTRA.DIHEDRAL>
-7.7553

>  <SCORE.INTRA.DIHEDRAL.0>
21.5987

>  <SCORE.INTRA.POLAR>
0

>  <SCORE.INTRA.POLAR.0>
0

>  <SCORE.INTRA.REPUL>
0

>  <SCORE.INTRA.REPUL.0>
0

>  <SCORE.INTRA.SOLV>
3.83709

>  <SCORE.INTRA.SOLV.lig_0>
-108.715

>  <SCORE.INTRA.VDW>
0.0298761

>  <SCORE.INTRA.VDW.0>
-3.9485

>  <SCORE.INTRA.norm>
-0.0521413

>  <SCORE.RESTR>
0

>  <SCORE.RESTR.CAVITY>
0

>  <SCORE.RESTR.norm>
0

>  <SCORE.SYSTEM>
0

>  <SCORE.SYSTEM.CONST>
0

>  <SCORE.SYSTEM.DIHEDRAL>
0

>  <SCORE.SYSTEM.SOLV>
0

>  <SCORE.SYSTEM.norm>
0

>  <SCORE.heavy>
37

>  <SCORE.norm>
-0.161282

>  <RMSD>
9.020

$$$$
1o9m_lig
 OpenBabel11021811403D
libRbt.so/2013.1/901 2013/11/27
 37 38  0  0  0  0  0  0  0  0999 V2000
   -5.8113   17.6083   10.0380 C   0  0  2  0  0  0  0  0  0  0  0  0
   -4.8452   17.5778    8.9435 O   0  0  0  0  0  0  0  0  0  0  0  0
   -6.2085   19.1172   10.2379 C   0  0  2  0  0  0  0  0  0  0  0  0
   -6.7860   19.7072    9.0175 N   0  0  0  0  0  0  0  0  0  0  0  0
   -4.9383   19.9266   10.7019 C   0  0  1  0  0  0  0  0  0  0  0  0
   -5.2746   21.3036   10.8925 O   0  0  0  0  0  0  0  0  0  0  0  0
   -4.3911   19.2647   12.0095 C   0  0  2  0  0  0  0  0  0  0  0  0
   -3.2146   19.9171   12.5146 O   0  0  0  0  0  0  0  0  0  0  0  0
   -4.0699   17.7686   11.7711 C   0  0  2  0  0  0  0  0  0  0  0  0
   -5.2198   17.0721   11.2690 O   0  0  0  0  0  0  0  0  0  0  0  0
   -3.5937   17.0932   13.0311 C   0  0  0  0  0  0  0  0  0  0  0  0
   -2.9869   15.8972   12.7298 N   0  0  0  0  0  0  0  0  0  0  0  0
   -4.8318   16.0544    4.8816 C   0  0  1  0  0  0  0  0  0  0  0  0
   -4.9803   15.1085    3.7402 N   0  0  0  0  0  0  0  0  0  0  0  0
   -6.1755   16.1912    5.5847 C   0  0  2  0  0  0  0  0  0  0  0  0
   -7.1104   16.6265    4.6431 O   0  0  0  0  0  0  0  0  0  0  0  0
   -6.0721   17.1902    6.7801 C   0  0  1  0  0  0  0  0  0  0  0  0
   -7.3605   17.2963    7.4593 O   0  0  0  0  0  0  0  0  0  0  0  0
   -4.9936   16.6693    7.8151 C   0  0  1  0  0  0  0  0  0  0  0  0
   -3.6417   16.5464    7.1286 C   0  0  1  0  0  0  0  0  0  0  0  0
   -2.6632   16.0811    8.1000 N   0  0  0  0  0  0  0  0  0  0  0  0
   -3.7491   15.5683    5.9281 C   0  0  0  0  0  0  0  0  0  0  0  0
   -8.3498   17.1522    4.1195 C   0  0  0  0  0  0  0  0  0  0  0  0
   -9.4874   16.2458    4.5302 C   0  0  0  0  0  0  0  0  0  0  0  0
  -10.7813   16.9383    4.7005 N   0  0  0  0  0  0  0  0  0  0  0  0
  -12.1274   17.4950    4.4346 C   0  0  0  0  0  0  0  0  0  0  0  0
  -12.4089   18.0196    5.8483 C   0  0  0  0  0  0  0  0  0  0  0  0
  -13.8951   18.3640    6.0597 C   0  0  0  0  0  0  0  0  0  0  0  0
  -14.0517   19.6816    6.8125 C   0  0  0  0  0  0  0  0  0  0  0  0
  -13.5276   19.5504    8.1647 N   0  0  0  0  0  0  0  0  0  0  0  0
   -6.7976   10.2098    2.5566 N   0  0  0  0  0  0  0  0  0  0  0  0
   -5.1687   13.4366    4.3022 C   0  0  0  0  0  0  0  0  0  0  0  0
   -5.2107   12.9570    5.2678 O   0  0  0  0  0  0  0  0  0  0  0  0
   -5.2168   13.0629    2.8408 C   0  0  2  0  0  0  0  0  0  0  0  0
   -6.4940   13.1490    2.3475 O   0  0  0  0  0  0  0  0  0  0  0  0
   -4.8059   11.5977    2.7456 C   0  0  0  0  0  0  0  0  0  0  0  0
   -5.7023   10.5748    3.4667 C   0  0  0  0  0  0  0  0  0  0  0  0
  1  2  1  6  0  0  0
  1  3  1  0  0  0  0
  3  4  1  6  0  0  0
  3  5  1  0  0  0  0
  5  6  1  1  0  0  0
  5  7  1  0  0  0  0
  7  8  1  6  0  0  0
  9  7  1  0  0  0  0
  9 10  1  0  0  0  0
  9 11  1  1  0  0  0
 10  1  1  0  0  0  0
 11 12  1  0  0  0  0
 13 14  1  6  0  0  0
 13 15  1  0  0  0  0
 13 22  1  0  0  0  0
 14 32  1  0  0  0  0
 15 16  1  6  0  0  0
 15 17  1  0  0  0  0
 16 23  1  0  0  0  0
 17 18  1  1  0  0  0
 17 19  1  0  0  0  0
 19  2  1  1  0  0  0
 19 20  1  0  0  0  0
 20 21  1  1  0  0  0
 20 22  1  0  0  0  0
 23 24  1  0  0  0  0
 24 25  1  0  0  0  0
 25 26  1  0  0  0  0
 26 27  1  0  0  0  0
 27 28  1  0  0  0  0
 28 29  1  0  0  0  0
 29 30  1  0  0  0  0
 31 37  1  0  0  0  0
 32 33  2  0  0  0  0
 34 32  1  1  0  0  0
 34 35  1  0  0  0  0
 34 36  1  0  0  0  0
 36 37  1  0  0  0  0
M  END
>  <CHROM.1>
-129.84146643,-163.99576774,-71.89851035,-167.30548316,-59.57488097,78.10543321
149.92074386,94.16902019,175.66148776,-165.34126649,-137.10914785,-65.47947407
-86.99029269,61.92754052,85.72913296,-6.57251288,16.60609061,7.13219793,-1.21723755
0.39914918,-2.25734721

>  <Name>
1o9m_lig

>  <RI>
0

>  <Rbt.Current_Directory>
/home/itssahil/PROJECTS/Mol_Feturizer/New_Systems/rnas/1o9m

>  <Rbt.Executable>
rbdock ($Id: //depot/dev/client3/rdock/2013.1/src/exe/rbdock.cxx#4 $)

>  <Rbt.Library>
libRbt.so (2013.1, Build901 2013/11/27)

>  <Rbt.Parameter_File>
/export/apps/rDock/src/rDock_2013.1_src/data/scripts/dock_solv.prm

>  <Rbt.Receptor>
prm/pocket_docking_3.prm

>  <SCORE>
-8.44159

>  <SCORE.INTER>
-10.6895

>  <SCORE.INTER.CONST>
1

>  <SCORE.INTER.POLAR>
-1.63835

>  <SCORE.INTER.ROT>
15

>  <SCORE.INTER.SOLV>
13.4799

>  <SCORE.INTER.VDW>
-19.7584

>  <SCORE.INTER.norm>
-0.288904

>  <SCORE.INTRA>
2.19563

>  <SCORE.INTRA.DIHEDRAL>
1.2681

>  <SCORE.INTRA.DIHEDRAL.0>
21.5987

>  <SCORE.INTRA.POLAR>
0

>  <SCORE.INTRA.POLAR.0>
0

>  <SCORE.INTRA.REPUL>
0

>  <SCORE.INTRA.REPUL.0>
0

>  <SCORE.INTRA.SOLV>
3.01744

>  <SCORE.INTRA.SOLV.lig_0>
-108.715

>  <SCORE.INTRA.VDW>
0.0528593

>  <SCORE.INTRA.VDW.0>
-3.9485

>  <SCORE.INTRA.norm>
0.0593413

>  <SCORE.RESTR>
0.0522351

>  <SCORE.RESTR.CAVITY>
0.0522351

>  <SCORE.RESTR.norm>
0.00141176

>  <SCORE.SYSTEM>
0

>  <SCORE.SYSTEM.CONST>
0

>  <SCORE.SYSTEM.DIHEDRAL>
0

>  <SCORE.SYSTEM.SOLV>
0

>  <SCORE.SYSTEM.norm>
0

>  <SCORE.heavy>
37

>  <SCORE.norm>
-0.228151

>  <RMSD>
9.023

$$$$
1o9m_lig
 OpenBabel11021811403D
libRbt.so/2013.1/901 2013/11/27
 37 38  0  0  0  0  0  0  0  0999 V2000
  -10.6585   17.7484    4.5395 C   0  0  2  0  0  0  0  0  0  0  0  0
   -9.6448   18.3465    5.4037 O   0  0  0  0  0  0  0  0  0  0  0  0
  -10.9175   18.7789    3.3796 C   0  0  2  0  0  0  0  0  0  0  0  0
   -9.6931   19.0771    2.6161 N   0  0  0  0  0  0  0  0  0  0  0  0
  -11.5297   20.0970    3.9894 C   0  0  1  0  0  0  0  0  0  0  0  0
  -11.7763   21.0507    2.9525 O   0  0  0  0  0  0  0  0  0  0  0  0
  -12.8342   19.7140    4.7635 C   0  0  2  0  0  0  0  0  0  0  0  0
  -13.4702   20.8463    5.3786 O   0  0  0  0  0  0  0  0  0  0  0  0
  -12.5315   18.6569    5.8541 C   0  0  2  0  0  0  0  0  0  0  0  0
  -11.8979   17.5019    5.2851 O   0  0  0  0  0  0  0  0  0  0  0  0
  -13.7821   18.2290    6.5776 C   0  0  0  0  0  0  0  0  0  0  0  0
  -14.6548   17.6259    5.7036 N   0  0  0  0  0  0  0  0  0  0  0  0
   -7.1260   17.0796    8.7008 C   0  0  1  0  0  0  0  0  0  0  0  0
   -6.7070   16.4250    9.9718 N   0  0  0  0  0  0  0  0  0  0  0  0
   -7.6297   16.0110    7.7401 C   0  0  2  0  0  0  0  0  0  0  0  0
   -6.6033   15.0825    7.5543 O   0  0  0  0  0  0  0  0  0  0  0  0
   -8.0637   16.6506    6.3836 C   0  0  1  0  0  0  0  0  0  0  0  0
   -8.5649   15.6194    5.4792 O   0  0  0  0  0  0  0  0  0  0  0  0
   -9.2157   17.7058    6.6391 C   0  0  1  0  0  0  0  0  0  0  0  0
   -8.7180   18.7896    7.5833 C   0  0  1  0  0  0  0  0  0  0  0  0
   -9.7860   19.7557    7.7926 N   0  0  0  0  0  0  0  0  0  0  0  0
   -8.2681   18.1516    8.9249 C   0  0  0  0  0  0  0  0  0  0  0  0
   -5.2989   14.5687    7.2065 C   0  0  0  0  0  0  0  0  0  0  0  0
   -5.1254   14.6268    5.7062 C   0  0  0  0  0  0  0  0  0  0  0  0
   -5.6990   13.4715    4.9857 N   0  0  0  0  0  0  0  0  0  0  0  0
   -6.6286   12.6046    4.2262 C   0  0  0  0  0  0  0  0  0  0  0  0
   -6.6712   13.4376    2.9389 C   0  0  0  0  0  0  0  0  0  0  0  0
   -7.7174   12.9140    1.9371 C   0  0  0  0  0  0  0  0  0  0  0  0
   -7.3151   11.5495    1.3860 C   0  0  0  0  0  0  0  0  0  0  0  0
   -8.2745   11.1134    0.3812 N   0  0  0  0  0  0  0  0  0  0  0  0
   -2.6968   14.3761   11.8475 N   0  0  0  0  0  0  0  0  0  0  0  0
   -6.2419   17.6213   11.1962 C   0  0  0  0  0  0  0  0  0  0  0  0
   -6.2042   18.6989   11.2335 O   0  0  0  0  0  0  0  0  0  0  0  0
   -5.9331   16.4386   12.0813 C   0  0  2  0  0  0  0  0  0  0  0  0
   -5.9322   16.7958   13.4059 O   0  0  0  0  0  0  0  0  0  0  0  0
   -4.5144   15.9930   11.7446 C   0  0  0  0  0  0  0  0  0  0  0  0
   -4.0106   14.7045   12.4197 C   0  0  0  0  0  0  0  0  0  0  0  0
  1  2  1  1  0  0  0
  1  3  1  0  0  0  0
  3  4  1  1  0  0  0
  3  5  1  0  0  0  0
  5  6  1  6  0  0  0
  5  7  1  0  0  0  0
  7  8  1  1  0  0  0
  9  7  1  0  0  0  0
  9 10  1  0  0  0  0
  9 11  1  6  0  0  0
 10  1  1  0  0  0  0
 11 12  1  0  0  0  0
 13 14  1  1  0  0  0
 13 15  1  0  0  0  0
 13 22  1  0  0  0  0
 14 32  1  0  0  0  0
 15 16  1  6  0  0  0
 15 17  1  0  0  0  0
 16 23  1  0  0  0  0
 17 18  1  6  0  0  0
 17 19  1  0  0  0  0
 19  2  1  6  0  0  0
 19 20  1  0  0  0  0
 20 21  1  1  0  0  0
 20 22  1  0  0  0  0
 23 24  1  0  0  0  0
 24 25  1  0  0  0  0
 25 26  1  0  0  0  0
 26 27  1  0  0  0  0
 27 28  1  0  0  0  0
 28 29  1  0  0  0  0
 29 30  1  0  0  0  0
 31 37  1  0  0  0  0
 32 33  2  0  0  0  0
 34 32  1  6  0  0  0
 34 35  1  0  0  0  0
 34 36  1  0  0  0  0
 36 37  1  0  0  0  0
M  END
>  <CHROM.1>
175.95776412,62.65720807,-174.94786525,-57.73131481,-70.17731952,85.75068548
-84.01910733,95.11280496,65.07176716,-172.70905877,-67.75830769,-176.47287659
-158.93001507,-174.06191598,173.67525075,-8.45113380,16.70761915,6.64486925
2.66808496,0.71297056,-2.11123860

>  <Name>
1o9m_lig

>  <RI>
0

>  <Rbt.Current_Directory>
/home/itssahil/PROJECTS/Mol_Feturizer/New_Systems/rnas/1o9m

>  <Rbt.Executable>
rbdock ($Id: //depot/dev/client3/rdock/2013.1/src/exe/rbdock.cxx#4 $)

>  <Rbt.Library>
libRbt.so (2013.1, Build901 2013/11/27)

>  <Rbt.Parameter_File>
/export/apps/rDock/src/rDock_2013.1_src/data/scripts/dock_solv.prm

>  <Rbt.Receptor>
prm/pocket_docking_5.prm

>  <SCORE>
-13.5393

>  <SCORE.INTER>
-7.45431

>  <SCORE.INTER.CONST>
1

>  <SCORE.INTER.POLAR>
-1.10829

>  <SCORE.INTER.ROT>
15

>  <SCORE.INTER.SOLV>
14.9912

>  <SCORE.INTER.VDW>
-19.8723

>  <SCORE.INTER.norm>
-0.201468

>  <SCORE.INTRA>
-6.08495

>  <SCORE.INTRA.DIHEDRAL>
-13.2352

>  <SCORE.INTRA.DIHEDRAL.0>
21.5987

>  <SCORE.INTRA.POLAR>
0

>  <SCORE.INTRA.POLAR.0>
0

>  <SCORE.INTRA.REPUL>
0

>  <SCORE.INTRA.REPUL.0>
0

>  <SCORE.INTRA.SOLV>
1.42408

>  <SCORE.INTRA.SOLV.lig_0>
-108.715

>  <SCORE.INTRA.VDW>
-0.179381

>  <SCORE.INTRA.VDW.0>
-3.9485

>  <SCORE.INTRA.norm>
-0.164458

>  <SCORE.RESTR>
0

>  <SCORE.RESTR.CAVITY>
0

>  <SCORE.RESTR.norm>
0

>  <SCORE.SYSTEM>
0

>  <SCORE.SYSTEM.CONST>
0

>  <SCORE.SYSTEM.DIHEDRAL>
0

>  <SCORE.SYSTEM.SOLV>
0

>  <SCORE.SYSTEM.norm>
0

>  <SCORE.heavy>
37

>  <SCORE.norm>
-0.365926

>  <RMSD>
9.031

$$$$
1o9m_lig
 OpenBabel11021811403D
libRbt.so/2013.1/901 2013/11/27
 37 38  0  0  0  0  0  0  0  0999 V2000
  -14.4560   18.6231    6.6582 C   0  0  2  0  0  0  0  0  0  0  0  0
  -13.6823   18.0170    5.5783 O   0  0  0  0  0  0  0  0  0  0  0  0
  -15.8065   17.8208    6.7415 C   0  0  2  0  0  0  0  0  0  0  0  0
  -15.5870   16.3869    7.0000 N   0  0  0  0  0  0  0  0  0  0  0  0
  -16.6126   18.0296    5.4035 C   0  0  1  0  0  0  0  0  0  0  0  0
  -17.8476   17.3102    5.4554 O   0  0  0  0  0  0  0  0  0  0  0  0
  -16.8306   19.5657    5.2022 C   0  0  2  0  0  0  0  0  0  0  0  0
  -17.5459   19.8737    3.9945 O   0  0  0  0  0  0  0  0  0  0  0  0
  -15.4738   20.3120    5.1840 C   0  0  2  0  0  0  0  0  0  0  0  0
  -14.7231   20.0379    6.3760 O   0  0  0  0  0  0  0  0  0  0  0  0
  -15.6588   21.8012    5.0475 C   0  0  0  0  0  0  0  0  0  0  0  0
  -14.4451   22.4155    4.8504 N   0  0  0  0  0  0  0  0  0  0  0  0
   -9.4372   17.7306    4.7312 C   0  0  1  0  0  0  0  0  0  0  0  0
   -8.0341   18.1454    4.4505 N   0  0  0  0  0  0  0  0  0  0  0  0
   -9.8557   18.2947    6.0822 C   0  0  2  0  0  0  0  0  0  0  0  0
   -8.9542   17.8268    7.0407 O   0  0  0  0  0  0  0  0  0  0  0  0
  -11.3174   17.8687    6.4278 C   0  0  1  0  0  0  0  0  0  0  0  0
  -11.7146   18.4333    7.7147 O   0  0  0  0  0  0  0  0  0  0  0  0
  -12.3040   18.4045    5.3117 C   0  0  1  0  0  0  0  0  0  0  0  0
  -11.9072   17.8324    3.9593 C   0  0  1  0  0  0  0  0  0  0  0  0
  -12.8345   18.3249    2.9517 N   0  0  0  0  0  0  0  0  0  0  0  0
  -10.4472   18.2394    3.6245 C   0  0  0  0  0  0  0  0  0  0  0  0
   -7.6990   17.6387    7.7304 C   0  0  0  0  0  0  0  0  0  0  0  0
   -7.9424   16.8591    9.0022 C   0  0  0  0  0  0  0  0  0  0  0  0
   -7.1008   17.2812   10.1408 N   0  0  0  0  0  0  0  0  0  0  0  0
   -6.5408   18.0663   11.2644 C   0  0  0  0  0  0  0  0  0  0  0  0
   -6.5215   16.9394   12.3049 C   0  0  0  0  0  0  0  0  0  0  0  0
   -6.1265   17.4429   13.7059 C   0  0  0  0  0  0  0  0  0  0  0  0
   -4.7794   18.1582   13.6726 C   0  0  0  0  0  0  0  0  0  0  0  0
   -3.7267   17.2249   13.2968 N   0  0  0  0  0  0  0  0  0  0  0  0
   -3.0733   18.1997    5.0367 N   0  0  0  0  0  0  0  0  0  0  0  0
   -7.0504   16.7769    3.8972 C   0  0  0  0  0  0  0  0  0  0  0  0
   -7.2364   15.7307    3.7100 O   0  0  0  0  0  0  0  0  0  0  0  0
   -5.9045   17.7577    3.8472 C   0  0  2  0  0  0  0  0  0  0  0  0
   -6.0102   18.5908    2.7624 O   0  0  0  0  0  0  0  0  0  0  0  0
   -4.6318   16.9410    3.6527 C   0  0  0  0  0  0  0  0  0  0  0  0
   -3.2999   17.7129    3.6682 C   0  0  0  0  0  0  0  0  0  0  0  0
  1  2  1  6  0  0  0
  1  3  1  0  0  0  0
  3  4  1  6  0  0  0
  3  5  1  0  0  0  0
  5  6  1  1  0  0  0
  5  7  1  0  0  0  0
  7  8  1  6  0  0  0
  9  7  1  0  0  0  0
  9 10  1  0  0  0  0
  9 11  1  1  0  0  0
 10  1  1  0  0  0  0
 11 12  1  0  0  0  0
 13 14  1  6  0  0  0
 13 15  1  0  0  0  0
 13 22  1  0  0  0  0
 14 32  1  0  0  0  0
 15 16  1  1  0  0  0
 15 17  1  0  0  0  0
 16 23  1  0  0  0  0
 17 18  1  1  0  0  0
 17 19  1  0  0  0  0
 19  2  1  1  0  0  0
 19 20  1  0  0  0  0
 20 21  1  6  0  0  0
 20 22  1  0  0  0  0
 23 24  1  0  0  0  0
 24 25  1  0  0  0  0
 25 26  1  0  0  0  0
 26 27  1  0  0  0  0
 27 28  1  0  0  0  0
 28 29  1  0  0  0  0
 29 30  1  0  0  0  0
 31 37  1  0  0  0  0
 32 33  2  0  0  0  0
 34 32  1  6  0  0  0
 34 35  1  0  0  0  0
 34 36  1  0  0  0  0
 36 37  1  0  0  0  0
M  END
>  <CHROM.1>
-172.84181860,-171.76151134,132.64980247,64.16571572,173.78782899,71.85917557
-143.33121615,72.23178392,130.17092242,-173.47148848,-55.81251638,-64.12073792
-75.09227174,-175.84074394,68.77356293,-10.37365010,18.18125314,6.41636042
2.81153602,0.14547659,-1.53770353

>  <Name>
1o9m_lig

>  <RI>
0

>  <Rbt.Current_Directory>
/home/itssahil/PROJECTS/Mol_Feturizer/New_Systems/rnas/1o9m

>  <Rbt.Executable>
rbdock ($Id: //depot/dev/client3/rdock/2013.1/src/exe/rbdock.cxx#4 $)

>  <Rbt.Library>
libRbt.so (2013.1, Build901 2013/11/27)

>  <Rbt.Parameter_File>
/export/apps/rDock/src/rDock_2013.1_src/data/scripts/dock_solv.prm

>  <Rbt.Receptor>
prm/pocket_docking_8.prm

>  <SCORE>
-12.026

>  <SCORE.INTER>
-7.1446

>  <SCORE.INTER.CONST>
1

>  <SCORE.INTER.POLAR>
-0.86686

>  <SCORE.INTER.ROT>
15

>  <SCORE.INTER.SOLV>
19.1479

>  <SCORE.INTER.VDW>
-21.8562

>  <SCORE.INTER.norm>
-0.193097

>  <SCORE.INTRA>
-4.88139

>  <SCORE.INTRA.DIHEDRAL>
-12.5477

>  <SCORE.INTRA.DIHEDRAL.0>
21.5987

>  <SCORE.INTRA.POLAR>
0

>  <SCORE.INTRA.POLAR.0>
0

>  <SCORE.INTRA.REPUL>
0

>  <SCORE.INTRA.REPUL.0>
0

>  <SCORE.INTRA.SOLV>
0.803456

>  <SCORE.INTRA.SOLV.lig_0>
-108.715

>  <SCORE.INTRA.VDW>
0.990751

>  <SCORE.INTRA.VDW.0>
-3.9485

>  <SCORE.INTRA.norm>
-0.13193

>  <SCORE.RESTR>
0

>  <SCORE.RESTR.CAVITY>
0

>  <SCORE.RESTR.norm>
0

>  <SCORE.SYSTEM>
0

>  <SCORE.SYSTEM.CONST>
0

>  <SCORE.SYSTEM.DIHEDRAL>
0

>  <SCORE.SYSTEM.SOLV>
0

>  <SCORE.SYSTEM.norm>
0

>  <SCORE.heavy>
37

>  <SCORE.norm>
-0.325027

>  <RMSD>
9.035

$$$$
1o9m_lig
 OpenBabel11021811403D
libRbt.so/2013.1/901 2013/11/27
 37 38  0  0  0  0  0  0  0  0999 V2000
   -6.3357   17.6606    9.7344 C   0  0  2  0  0  0  0  0  0  0  0  0
   -5.6085   17.7702    8.4729 O   0  0  0  0  0  0  0  0  0  0  0  0
   -6.5896   19.1318   10.2300 C   0  0  2  0  0  0  0  0  0  0  0  0
   -7.3583   19.9233    9.2535 N   0  0  0  0  0  0  0  0  0  0  0  0
   -5.2044   19.8176   10.5375 C   0  0  1  0  0  0  0  0  0  0  0  0
   -5.4089   21.1581   10.9923 O   0  0  0  0  0  0  0  0  0  0  0  0
   -4.4527   18.9425   11.5942 C   0  0  2  0  0  0  0  0  0  0  0  0
   -3.1609   19.4699   11.9375 O   0  0  0  0  0  0  0  0  0  0  0  0
   -4.2799   17.4924   11.0787 C   0  0  2  0  0  0  0  0  0  0  0  0
   -5.5478   16.9201   10.7263 O   0  0  0  0  0  0  0  0  0  0  0  0
   -3.6079   16.6137   12.1019 C   0  0  0  0  0  0  0  0  0  0  0  0
   -2.2933   16.9838   12.2572 N   0  0  0  0  0  0  0  0  0  0  0  0
   -6.2033   15.9066    4.6008 C   0  0  1  0  0  0  0  0  0  0  0  0
   -6.2928   14.8504    3.5539 N   0  0  0  0  0  0  0  0  0  0  0  0
   -7.2081   15.5944    5.7014 C   0  0  2  0  0  0  0  0  0  0  0  0
   -8.4748   15.5209    5.1181 O   0  0  0  0  0  0  0  0  0  0  0  0
   -7.1627   16.6881    6.8148 C   0  0  1  0  0  0  0  0  0  0  0  0
   -8.1145   16.3663    7.8745 O   0  0  0  0  0  0  0  0  0  0  0  0
   -5.7092   16.7497    7.4389 C   0  0  1  0  0  0  0  0  0  0  0  0
   -4.6980   17.0798    6.3515 C   0  0  1  0  0  0  0  0  0  0  0  0
   -3.3726   17.1463    6.9485 N   0  0  0  0  0  0  0  0  0  0  0  0
   -4.7568   16.0032    5.2350 C   0  0  0  0  0  0  0  0  0  0  0  0
   -9.8162   15.9170    4.7571 C   0  0  0  0  0  0  0  0  0  0  0  0
   -9.7815   17.3066    4.1636 C   0  0  0  0  0  0  0  0  0  0  0  0
  -11.0102   18.0940    4.3950 N   0  0  0  0  0  0  0  0  0  0  0  0
  -12.1350   19.0384    4.2070 C   0  0  0  0  0  0  0  0  0  0  0  0
  -12.9842   18.5765    5.3980 C   0  0  0  0  0  0  0  0  0  0  0  0
  -14.1817   19.5091    5.6596 C   0  0  0  0  0  0  0  0  0  0  0  0
  -14.8949   19.1366    6.9557 C   0  0  0  0  0  0  0  0  0  0  0  0
  -13.9546   19.1563    8.0674 N   0  0  0  0  0  0  0  0  0  0  0  0
   -3.9431    9.9436    1.2489 N   0  0  0  0  0  0  0  0  0  0  0  0
   -5.8387   13.2600    4.1950 C   0  0  0  0  0  0  0  0  0  0  0  0
   -5.5276   12.8869    5.1584 O   0  0  0  0  0  0  0  0  0  0  0  0
   -6.0773   12.7459    2.7963 C   0  0  2  0  0  0  0  0  0  0  0  0
   -7.3765   12.3373    2.6318 O   0  0  0  0  0  0  0  0  0  0  0  0
   -5.2018   11.5095    2.6245 C   0  0  0  0  0  0  0  0  0  0  0  0
   -4.8292   11.1149    1.1840 C   0  0  0  0  0  0  0  0  0  0  0  0
  1  2  1  6  0  0  0
  1  3  1  0  0  0  0
  3  4  1  6  0  0  0
  3  5  1  0  0  0  0
  5  6  1  1  0  0  0
  5  7  1  0  0  0  0
  7  8  1  6  0  0  0
  9  7  1  0  0  0  0
  9 10  1  0  0  0  0
  9 11  1  1  0  0  0
 10  1  1  0  0  0  0
 11 12  1  0  0  0  0
 13 14  1  6  0  0  0
 13 15  1  0  0  0  0
 13 22  1  0  0  0  0
 14 32  1  0  0  0  0
 15 16  1  6  0  0  0
 15 17  1  0  0  0  0
 16 23  1  0  0  0  0
 17 18  1  1  0  0  0
 17 19  1  0  0  0  0
 19  2  1  1  0  0  0
 19 20  1  0  0  0  0
 20 21  1  1  0  0  0
 20 22  1  0  0  0  0
 23 24  1  0  0  0  0
 24 25  1  0  0  0  0
 25 26  1  0  0  0  0
 26 27  1  0  0  0  0
 27 28  1  0  0  0  0
 28 29  1  0  0  0  0
 29 30  1  0  0  0  0
 31 37  1  0  0  0  0
 32 33  2  0  0  0  0
 34 32  1  1  0  0  0
 34 35  1  0  0  0  0
 34 36  1  0  0  0  0
 36 37  1  0  0  0  0
M  END
>  <CHROM.1>
-151.86701962,-69.09213660,-63.39536031,-105.02964432,51.66341476,66.51206455
-149.78318791,-144.92079453,168.08059980,171.01708379,-172.30112748,56.16554872
-90.40606864,-156.91507341,177.58200990,-7.01471411,16.60473035,6.82964780
-1.39007422,0.39493439,-2.25299988

>  <Name>
1o9m_lig

>  <RI>
0

>  <Rbt.Current_Directory>
/home/itssahil/PROJECTS/Mol_Feturizer/New_Systems/rnas/1o9m

>  <Rbt.Executable>
rbdock ($Id: //depot/dev/client3/rdock/2013.1/src/exe/rbdock.cxx#4 $)

>  <Rbt.Library>
libRbt.so (2013.1, Build901 2013/11/27)

>  <Rbt.Parameter_File>
/export/apps/rDock/src/rDock_2013.1_src/data/scripts/dock_solv.prm

>  <Rbt.Receptor>
prm/pocket_docking_3.prm

>  <SCORE>
-7.97735

>  <SCORE.INTER>
-6.38049

>  <SCORE.INTER.CONST>
1

>  <SCORE.INTER.POLAR>
-1.62658

>  <SCORE.INTER.ROT>
15

>  <SCORE.INTER.SOLV>
15.9637

>  <SCORE.INTER.VDW>
-17.753

>  <SCORE.INTER.norm>
-0.172446

>  <SCORE.INTRA>
-1.59686

>  <SCORE.INTRA.DIHEDRAL>
-3.96022

>  <SCORE.INTRA.DIHEDRAL.0>
21.5987

>  <SCORE.INTRA.POLAR>
0

>  <SCORE.INTRA.POLAR.0>
0

>  <SCORE.INTRA.REPUL>
0

>  <SCORE.INTRA.REPUL.0>
0

>  <SCORE.INTRA.SOLV>
0.740437

>  <SCORE.INTRA.SOLV.lig_0>
-108.715

>  <SCORE.INTRA.VDW>
0.0130336

>  <SCORE.INTRA.VDW.0>
-3.9485

>  <SCORE.INTRA.norm>
-0.0431583

>  <SCORE.RESTR>
0

>  <SCORE.RESTR.CAVITY>
0

>  <SCORE.RESTR.norm>
0

>  <SCORE.SYSTEM>
0

>  <SCORE.SYSTEM.CONST>
0

>  <SCORE.SYSTEM.DIHEDRAL>
0

>  <SCORE.SYSTEM.SOLV>
0

>  <SCORE.SYSTEM.norm>
0

>  <SCORE.heavy>
37

>  <SCORE.norm>
-0.215604

>  <RMSD>
9.044

$$$$
1o9m_lig
 OpenBabel11021811403D
libRbt.so/2013.1/901 2013/11/27
 37 38  0  0  0  0  0  0  0  0999 V2000
   -3.8236   17.8687    8.6316 C   0  0  2  0  0  0  0  0  0  0  0  0
   -3.1639   16.9976    7.6630 O   0  0  0  0  0  0  0  0  0  0  0  0
   -2.7365   18.8969    9.1167 C   0  0  2  0  0  0  0  0  0  0  0  0
   -2.1793   19.6848    8.0033 N   0  0  0  0  0  0  0  0  0  0  0  0
   -1.5951   18.1194    9.8761 C   0  0  1  0  0  0  0  0  0  0  0  0
   -0.5937   19.0343   10.3294 O   0  0  0  0  0  0  0  0  0  0  0  0
   -2.2490   17.3260   11.0552 C   0  0  2  0  0  0  0  0  0  0  0  0
   -1.2945   16.5618   11.8101 O   0  0  0  0  0  0  0  0  0  0  0  0
   -3.3487   16.3716   10.5277 C   0  0  2  0  0  0  0  0  0  0  0  0
   -4.3305   17.0923    9.7687 O   0  0  0  0  0  0  0  0  0  0  0  0
   -4.0336   15.6360   11.6503 C   0  0  0  0  0  0  0  0  0  0  0  0
   -4.8648   14.6646   11.1455 N   0  0  0  0  0  0  0  0  0  0  0  0
   -4.9089   14.0972    4.9494 C   0  0  1  0  0  0  0  0  0  0  0  0
   -5.5471   12.8422    4.4623 N   0  0  0  0  0  0  0  0  0  0  0  0
   -5.8231   14.7458    5.9800 C   0  0  2  0  0  0  0  0  0  0  0  0
   -7.0609   14.9716    5.3742 O   0  0  0  0  0  0  0  0  0  0  0  0
   -5.2017   16.0779    6.5063 C   0  0  1  0  0  0  0  0  0  0  0  0
   -6.0767   16.6789    7.5092 O   0  0  0  0  0  0  0  0  0  0  0  0
   -3.7959   15.7813    7.1708 C   0  0  1  0  0  0  0  0  0  0  0  0
   -2.8669   15.1500    6.1450 C   0  0  1  0  0  0  0  0  0  0  0  0
   -1.5776   14.8997    6.7715 N   0  0  0  0  0  0  0  0  0  0  0  0
   -3.4937   13.8358    5.6071 C   0  0  0  0  0  0  0  0  0  0  0  0
   -8.0426   15.5670    4.4976 C   0  0  0  0  0  0  0  0  0  0  0  0
   -8.4571   16.9097    5.0543 C   0  0  0  0  0  0  0  0  0  0  0  0
   -9.7800   17.3751    4.5893 N   0  0  0  0  0  0  0  0  0  0  0  0
  -11.2258   17.4232    4.2733 C   0  0  0  0  0  0  0  0  0  0  0  0
  -11.2371   18.8020    3.6011 C   0  0  0  0  0  0  0  0  0  0  0  0
  -10.5306   18.7918    2.2325 C   0  0  0  0  0  0  0  0  0  0  0  0
  -10.4800   20.1925    1.6303 C   0  0  0  0  0  0  0  0  0  0  0  0
   -9.8401   20.1521    0.3230 N   0  0  0  0  0  0  0  0  0  0  0  0
   -4.5926    8.7979    1.1403 N   0  0  0  0  0  0  0  0  0  0  0  0
   -4.8241   12.2951    2.9377 C   0  0  0  0  0  0  0  0  0  0  0  0
   -4.0321   12.6524    2.2980 O   0  0  0  0  0  0  0  0  0  0  0  0
   -5.8277   11.1691    2.9888 C   0  0  2  0  0  0  0  0  0  0  0  0
   -5.3324   10.0927    3.6802 O   0  0  0  0  0  0  0  0  0  0  0  0
   -6.0468   10.7068    1.5525 C   0  0  0  0  0  0  0  0  0  0  0  0
   -4.8091   10.2079    0.7851 C   0  0  0  0  0  0  0  0  0  0  0  0
  1  2  1  6  0  0  0
  1  3  1  0  0  0  0
  3  4  1  6  0  0  0
  3  5  1  0  0  0  0
  5  6  1  1  0  0  0
  5  7  1  0  0  0  0
  7  8  1  6  0  0  0
  9  7  1  0  0  0  0
  9 10  1  0  0  0  0
  9 11  1  1  0  0  0
 10  1  1  0  0  0  0
 11 12  1  0  0  0  0
 13 14  1  1  0  0  0
 13 15  1  0  0  0  0
 13 22  1  0  0  0  0
 14 32  1  0  0  0  0
 15 16  1  6  0  0  0
 15 17  1  0  0  0  0
 16 23  1  0  0  0  0
 17 18  1  1  0  0  0
 17 19  1  0  0  0  0
 19  2  1  6  0  0  0
 19 20  1  0  0  0  0
 20 21  1  1  0  0  0
 20 22  1  0  0  0  0
 23 24  1  0  0  0  0
 24 25  1  0  0  0  0
 25 26  1  0  0  0  0
 26 27  1  0  0  0  0
 27 28  1  0  0  0  0
 28 29  1  0  0  0  0
 29 30  1  0  0  0  0
 31 37  1  0  0  0  0
 32 33  2  0  0  0  0
 34 32  1  6  0  0  0
 34 35  1  0  0  0  0
 34 36  1  0  0  0  0
 36 37  1  0  0  0  0
M  END
>  <CHROM.1>
169.27465945,-171.45767487,162.42582913,-70.71047132,-76.48718674,57.03676249
-157.26969640,52.23639233,-176.78564635,70.38744022,-176.38584511,-178.50980319
-88.85534756,58.90048665,83.39162802,-5.28035985,15.63650186,6.00901170,0.78345612
-0.70587415,0.64980588

>  <Name>
1o9m_lig

>  <RI>
0

>  <Rbt.Current_Directory>
/home/itssahil/PROJECTS/Mol_Feturizer/New_Systems/rnas/1o9m

>  <Rbt.Executable>
rbdock ($Id: //depot/dev/client3/rdock/2013.1/src/exe/rbdock.cxx#4 $)

>  <Rbt.Library>
libRbt.so (2013.1, Build901 2013/11/27)

>  <Rbt.Parameter_File>
/export/apps/rDock/src/rDock_2013.1_src/data/scripts/dock_solv.prm

>  <Rbt.Receptor>
prm/pocket_docking_6.prm

>  <SCORE>
-11.0344

>  <SCORE.INTER>
-5.53203

>  <SCORE.INTER.CONST>
1

>  <SCORE.INTER.POLAR>
-1.93129

>  <SCORE.INTER.ROT>
15

>  <SCORE.INTER.SOLV>
14.736

>  <SCORE.INTER.VDW>
-15.7624

>  <SCORE.INTER.norm>
-0.149514

>  <SCORE.INTRA>
-5.50234

>  <SCORE.INTRA.DIHEDRAL>
-13.1921

>  <SCORE.INTRA.DIHEDRAL.0>
21.5987

>  <SCORE.INTRA.POLAR>
0

>  <SCORE.INTRA.POLAR.0>
0

>  <SCORE.INTRA.REPUL>
0

>  <SCORE.INTRA.REPUL.0>
0

>  <SCORE.INTRA.SOLV>
0.864762

>  <SCORE.INTRA.SOLV.lig_0>
-108.715

>  <SCORE.INTRA.VDW>
0.66132

>  <SCORE.INTRA.VDW.0>
-3.9485

>  <SCORE.INTRA.norm>
-0.148712

>  <SCORE.RESTR>
0

>  <SCORE.RESTR.CAVITY>
0

>  <SCORE.RESTR.norm>
0

>  <SCORE.SYSTEM>
0

>  <SCORE.SYSTEM.CONST>
0

>  <SCORE.SYSTEM.DIHEDRAL>
0

>  <SCORE.SYSTEM.SOLV>
0

>  <SCORE.SYSTEM.norm>
0

>  <SCORE.heavy>
37

>  <SCORE.norm>
-0.298226

>  <RMSD>
9.044

$$$$
1o9m_lig
 OpenBabel11021811403D
libRbt.so/2013.1/901 2013/11/27
 37 38  0  0  0  0  0  0  0  0999 V2000
   -3.2888   17.0546   10.1125 C   0  0  2  0  0  0  0  0  0  0  0  0
   -3.7915   17.1645    8.7459 O   0  0  0  0  0  0  0  0  0  0  0  0
   -4.5510   16.9060   11.0394 C   0  0  2  0  0  0  0  0  0  0  0  0
   -5.3643   15.7287   10.6879 N   0  0  0  0  0  0  0  0  0  0  0  0
   -5.4109   18.2240   10.9532 C   0  0  1  0  0  0  0  0  0  0  0  0
   -6.5654   18.1142   11.7902 O   0  0  0  0  0  0  0  0  0  0  0  0
   -4.4977   19.4275   11.3598 C   0  0  2  0  0  0  0  0  0  0  0  0
   -5.1803   20.6906   11.2996 O   0  0  0  0  0  0  0  0  0  0  0  0
   -3.2443   19.4927   10.4525 C   0  0  2  0  0  0  0  0  0  0  0  0
   -2.5251   18.2512   10.4835 O   0  0  0  0  0  0  0  0  0  0  0  0
   -2.3193   20.6104   10.8595 C   0  0  0  0  0  0  0  0  0  0  0  0
   -1.2052   20.6232   10.0546 N   0  0  0  0  0  0  0  0  0  0  0  0
   -4.8117   14.4695    5.5030 C   0  0  1  0  0  0  0  0  0  0  0  0
   -5.3553   13.2805    4.7887 N   0  0  0  0  0  0  0  0  0  0  0  0
   -5.9515   15.1702    6.2298 C   0  0  2  0  0  0  0  0  0  0  0  0
   -6.9211   15.5078    5.2832 O   0  0  0  0  0  0  0  0  0  0  0  0
   -5.4305   16.4367    6.9796 C   0  0  1  0  0  0  0  0  0  0  0  0
   -6.5280   17.0872    7.6901 O   0  0  0  0  0  0  0  0  0  0  0  0
   -4.3249   16.0136    8.0305 C   0  0  1  0  0  0  0  0  0  0  0  0
   -3.1712   15.3288    7.3135 C   0  0  1  0  0  0  0  0  0  0  0  0
   -2.1610   14.9621    8.2946 N   0  0  0  0  0  0  0  0  0  0  0  0
   -3.6926   14.0808    6.5519 C   0  0  0  0  0  0  0  0  0  0  0  0
   -8.0740   16.1639    4.7115 C   0  0  0  0  0  0  0  0  0  0  0  0
   -9.2604   15.9728    5.6283 C   0  0  0  0  0  0  0  0  0  0  0  0
  -10.1887   17.1217    5.6637 N   0  0  0  0  0  0  0  0  0  0  0  0
  -11.1699   18.1536    5.2576 C   0  0  0  0  0  0  0  0  0  0  0  0
  -11.6206   18.5649    6.6650 C   0  0  0  0  0  0  0  0  0  0  0  0
  -10.6408   19.5505    7.3288 C   0  0  0  0  0  0  0  0  0  0  0  0
  -10.7188   20.9265    6.6748 C   0  0  0  0  0  0  0  0  0  0  0  0
   -9.7851   21.8399    7.3184 N   0  0  0  0  0  0  0  0  0  0  0  0
   -5.4154    9.6647   -0.0511 N   0  0  0  0  0  0  0  0  0  0  0  0
   -4.2257   12.6914    3.5544 C   0  0  0  0  0  0  0  0  0  0  0  0
   -3.2448   12.9866    3.2156 O   0  0  0  0  0  0  0  0  0  0  0  0
   -5.2771   11.6559    3.2382 C   0  0  2  0  0  0  0  0  0  0  0  0
   -5.2423   10.6212    4.1383 O   0  0  0  0  0  0  0  0  0  0  0  0
   -4.9226   11.0674    1.8771 C   0  0  0  0  0  0  0  0  0  0  0  0
   -5.9678   10.1453    1.2236 C   0  0  0  0  0  0  0  0  0  0  0  0
  1  2  1  6  0  0  0
  1  3  1  0  0  0  0
  3  4  1  6  0  0  0
  3  5  1  0  0  0  0
  5  6  1  1  0  0  0
  5  7  1  0  0  0  0
  7  8  1  6  0  0  0
  9  7  1  0  0  0  0
  9 10  1  0  0  0  0
  9 11  1  1  0  0  0
 10  1  1  0  0  0  0
 11 12  1  0  0  0  0
 13 14  1  1  0  0  0
 13 15  1  0  0  0  0
 13 22  1  0  0  0  0
 14 32  1  0  0  0  0
 15 16  1  6  0  0  0
 15 17  1  0  0  0  0
 16 23  1  0  0  0  0
 17 18  1  1  0  0  0
 17 19  1  0  0  0  0
 19  2  1  6  0  0  0
 19 20  1  0  0  0  0
 20 21  1  1  0  0  0
 20 22  1  0  0  0  0
 23 24  1  0  0  0  0
 24 25  1  0  0  0  0
 25 26  1  0  0  0  0
 26 27  1  0  0  0  0
 27 28  1  0  0  0  0
 28 29  1  0  0  0  0
 29 30  1  0  0  0  0
 31 37  1  0  0  0  0
 32 33  2  0  0  0  0
 34 32  1  1  0  0  0
 34 35  1  0  0  0  0
 34 36  1  0  0  0  0
 36 37  1  0  0  0  0
M  END
>  <CHROM.1>
-73.79075275,178.70853123,163.27753443,-164.03012872,-53.43963534,150.41551202
145.55092792,63.74966102,163.16470046,81.01808363,71.54180437,179.99143769
-79.80700856,-170.48477502,-178.52528969,-5.73995865,16.27609449,7.06347050
-1.55483556,0.41855462,-2.37875652

>  <Name>
1o9m_lig

>  <RI>
0

>  <Rbt.Current_Directory>
/home/itssahil/PROJECTS/Mol_Feturizer/New_Systems/rnas/1o9m

>  <Rbt.Executable>
rbdock ($Id: //depot/dev/client3/rdock/2013.1/src/exe/rbdock.cxx#4 $)

>  <Rbt.Library>
libRbt.so (2013.1, Build901 2013/11/27)

>  <Rbt.Parameter_File>
/export/apps/rDock/src/rDock_2013.1_src/data/scripts/dock_solv.prm

>  <Rbt.Receptor>
prm/pocket_docking_7.prm

>  <SCORE>
-15.8795

>  <SCORE.INTER>
-12.9076

>  <SCORE.INTER.CONST>
1

>  <SCORE.INTER.POLAR>
-2.44321

>  <SCORE.INTER.ROT>
15

>  <SCORE.INTER.SOLV>
13.9692

>  <SCORE.INTER.VDW>
-18.7174

>  <SCORE.INTER.norm>
-0.348855

>  <SCORE.INTRA>
-2.97189

>  <SCORE.INTRA.DIHEDRAL>
-8.48824

>  <SCORE.INTRA.DIHEDRAL.0>
21.5987

>  <SCORE.INTRA.POLAR>
0

>  <SCORE.INTRA.POLAR.0>
0

>  <SCORE.INTRA.REPUL>
0

>  <SCORE.INTRA.REPUL.0>
0

>  <SCORE.INTRA.SOLV>
1.87532

>  <SCORE.INTRA.SOLV.lig_0>
-108.715

>  <SCORE.INTRA.VDW>
0.334564

>  <SCORE.INTRA.VDW.0>
-3.9485

>  <SCORE.INTRA.norm>
-0.0803214

>  <SCORE.RESTR>
0

>  <SCORE.RESTR.CAVITY>
0

>  <SCORE.RESTR.norm>
0

>  <SCORE.SYSTEM>
0

>  <SCORE.SYSTEM.CONST>
0

>  <SCORE.SYSTEM.DIHEDRAL>
0

>  <SCORE.SYSTEM.SOLV>
0

>  <SCORE.SYSTEM.norm>
0

>  <SCORE.heavy>
37

>  <SCORE.norm>
-0.429176

>  <RMSD>
9.048

$$$$
1o9m_lig
 OpenBabel11021811403D
libRbt.so/2013.1/901 2013/11/27
 37 38  0  0  0  0  0  0  0  0999 V2000
   -4.1777   17.0792    9.8448 C   0  0  2  0  0  0  0  0  0  0  0  0
   -5.3983   17.1495    9.0464 O   0  0  0  0  0  0  0  0  0  0  0  0
   -4.3755   15.8894   10.8547 C   0  0  2  0  0  0  0  0  0  0  0  0
   -4.6214   14.6101   10.1663 N   0  0  0  0  0  0  0  0  0  0  0  0
   -5.5634   16.2351   11.8310 C   0  0  1  0  0  0  0  0  0  0  0  0
   -5.7622   15.1675   12.7617 O   0  0  0  0  0  0  0  0  0  0  0  0
   -5.2289   17.5869   12.5438 C   0  0  2  0  0  0  0  0  0  0  0  0
   -6.2602   18.0089   13.4512 O   0  0  0  0  0  0  0  0  0  0  0  0
   -4.9889   18.7083   11.5030 C   0  0  2  0  0  0  0  0  0  0  0  0
   -3.9608   18.3333   10.5748 O   0  0  0  0  0  0  0  0  0  0  0  0
   -4.6094   20.0088   12.1627 C   0  0  0  0  0  0  0  0  0  0  0  0
   -4.4335   20.9893   11.2155 N   0  0  0  0  0  0  0  0  0  0  0  0
   -6.1320   15.9056    4.9556 C   0  0  1  0  0  0  0  0  0  0  0  0
   -6.3316   15.0172    3.7764 N   0  0  0  0  0  0  0  0  0  0  0  0
   -7.1964   15.5871    5.9968 C   0  0  2  0  0  0  0  0  0  0  0  0
   -8.4467   15.7589    5.3991 O   0  0  0  0  0  0  0  0  0  0  0  0
   -7.0375   16.5094    7.2466 C   0  0  1  0  0  0  0  0  0  0  0  0
   -8.0495   16.1799    8.2464 O   0  0  0  0  0  0  0  0  0  0  0  0
   -5.6046   16.2959    7.8846 C   0  0  1  0  0  0  0  0  0  0  0  0
   -4.5318   16.6294    6.8590 C   0  0  1  0  0  0  0  0  0  0  0  0
   -3.2245   16.4412    7.4698 N   0  0  0  0  0  0  0  0  0  0  0  0
   -4.7018   15.7260    5.6082 C   0  0  0  0  0  0  0  0  0  0  0  0
   -9.8728   15.9637    5.2949 C   0  0  0  0  0  0  0  0  0  0  0  0
  -10.2046   17.3761    5.7184 C   0  0  0  0  0  0  0  0  0  0  0  0
   -9.5859   18.4211    4.8769 N   0  0  0  0  0  0  0  0  0  0  0  0
   -9.3188   19.3562    3.7603 C   0  0  0  0  0  0  0  0  0  0  0  0
   -9.4270   18.3384    2.6177 C   0  0  0  0  0  0  0  0  0  0  0  0
   -9.0991   18.9599    1.2472 C   0  0  0  0  0  0  0  0  0  0  0  0
  -10.1060   20.0463    0.8820 C   0  0  0  0  0  0  0  0  0  0  0  0
  -11.4210   19.4584    0.6694 N   0  0  0  0  0  0  0  0  0  0  0  0
   -3.1467   11.2708    1.4084 N   0  0  0  0  0  0  0  0  0  0  0  0
   -5.9579   13.3273    4.1655 C   0  0  0  0  0  0  0  0  0  0  0  0
   -5.6345   12.8024    5.0509 O   0  0  0  0  0  0  0  0  0  0  0  0
   -6.2843   13.0337    2.7216 C   0  0  2  0  0  0  0  0  0  0  0  0
   -7.5529   12.5281    2.5915 O   0  0  0  0  0  0  0  0  0  0  0  0
   -5.3255   11.9395    2.2654 C   0  0  0  0  0  0  0  0  0  0  0  0
   -3.8325   12.3076    2.1932 C   0  0  0  0  0  0  0  0  0  0  0  0
  1  2  1  1  0  0  0
  1  3  1  0  0  0  0
  3  4  1  6  0  0  0
  3  5  1  0  0  0  0
  5  6  1  1  0  0  0
  5  7  1  0  0  0  0
  7  8  1  1  0  0  0
  9  7  1  0  0  0  0
  9 10  1  0  0  0  0
  9 11  1  1  0  0  0
 10  1  1  0  0  0  0
 11 12  1  0  0  0  0
 13 14  1  6  0  0  0
 13 15  1  0  0  0  0
 13 22  1  0  0  0  0
 14 32  1  0  0  0  0
 15 16  1  6  0  0  0
 15 17  1  0  0  0  0
 16 23  1  0  0  0  0
 17 18  1  1  0  0  0
 17 19  1  0  0  0  0
 19  2  1  1  0  0  0
 19 20  1  0  0  0  0
 20 21  1  1  0  0  0
 20 22  1  0  0  0  0
 23 24  1  0  0  0  0
 24 25  1  0  0  0  0
 25 26  1  0  0  0  0
 26 27  1  0  0  0  0
 27 28  1  0  0  0  0
 28 29  1  0  0  0  0
 29 30  1  0  0  0  0
 31 37  1  0  0  0  0
 32 33  2  0  0  0  0
 34 32  1  1  0  0  0
 34 35  1  0  0  0  0
 34 36  1  0  0  0  0
 36 37  1  0  0  0  0
M  END
>  <CHROM.1>
-83.13083821,-178.63210558,-68.67348097,-160.50506979,70.29707843,176.72175213
61.82529981,79.65093105,-49.38376217,-175.99186188,-63.55152334,-66.53512606
-99.96335983,-66.34219948,-165.04203877,-6.43551051,16.34383563,6.64367271
-1.12104090,0.85411100,-2.13467816

>  <Name>
1o9m_lig

>  <RI>
0

>  <Rbt.Current_Directory>
/home/itssahil/PROJECTS/Mol_Feturizer/New_Systems/rnas/1o9m

>  <Rbt.Executable>
rbdock ($Id: //depot/dev/client3/rdock/2013.1/src/exe/rbdock.cxx#4 $)

>  <Rbt.Library>
libRbt.so (2013.1, Build901 2013/11/27)

>  <Rbt.Parameter_File>
/export/apps/rDock/src/rDock_2013.1_src/data/scripts/dock_solv.prm

>  <Rbt.Receptor>
prm/pocket_docking_6.prm

>  <SCORE>
-13.2227

>  <SCORE.INTER>
-9.7511

>  <SCORE.INTER.CONST>
1

>  <SCORE.INTER.POLAR>
-1.68694

>  <SCORE.INTER.ROT>
15

>  <SCORE.INTER.SOLV>
20.685

>  <SCORE.INTER.VDW>
-21.3726

>  <SCORE.INTER.norm>
-0.263543

>  <SCORE.INTRA>
-3.47161

>  <SCORE.INTRA.DIHEDRAL>
-13.418

>  <SCORE.INTRA.DIHEDRAL.0>
21.5987

>  <SCORE.INTRA.POLAR>
0

>  <SCORE.INTRA.POLAR.0>
0

>  <SCORE.INTRA.REPUL>
0

>  <SCORE.INTRA.REPUL.0>
0

>  <SCORE.INTRA.SOLV>
4.4706

>  <SCORE.INTRA.SOLV.lig_0>
-108.715

>  <SCORE.INTRA.VDW>
1.00211

>  <SCORE.INTRA.VDW.0>
-3.9485

>  <SCORE.INTRA.norm>
-0.0938273

>  <SCORE.RESTR>
0

>  <SCORE.RESTR.CAVITY>
0

>  <SCORE.RESTR.norm>
0

>  <SCORE.SYSTEM>
0

>  <SCORE.SYSTEM.CONST>
0

>  <SCORE.SYSTEM.DIHEDRAL>
0

>  <SCORE.SYSTEM.SOLV>
0

>  <SCORE.SYSTEM.norm>
0

>  <SCORE.heavy>
37

>  <SCORE.norm>
-0.357371

>  <RMSD>
9.054

$$$$
1o9m_lig
 OpenBabel11021811403D
libRbt.so/2013.1/901 2013/11/27
 37 38  0  0  0  0  0  0  0  0999 V2000
  -13.0698   20.0929    7.9192 C   0  0  2  0  0  0  0  0  0  0  0  0
  -12.6369   19.5928    6.6174 O   0  0  0  0  0  0  0  0  0  0  0  0
  -14.6426   20.1041    7.8899 C   0  0  2  0  0  0  0  0  0  0  0  0
  -15.2042   18.7663    7.6334 N   0  0  0  0  0  0  0  0  0  0  0  0
  -15.1297   21.1323    6.7993 C   0  0  1  0  0  0  0  0  0  0  0  0
  -16.5589   21.1622    6.7545 O   0  0  0  0  0  0  0  0  0  0  0  0
  -14.5191   22.5310    7.1429 C   0  0  2  0  0  0  0  0  0  0  0  0
  -14.8872   23.5478    6.1965 O   0  0  0  0  0  0  0  0  0  0  0  0
  -12.9742   22.4498    7.2140 C   0  0  2  0  0  0  0  0  0  0  0  0
  -12.5572   21.4476    8.1526 O   0  0  0  0  0  0  0  0  0  0  0  0
  -12.3638   23.7726    7.5989 C   0  0  0  0  0  0  0  0  0  0  0  0
  -10.9920   23.6903    7.5694 N   0  0  0  0  0  0  0  0  0  0  0  0
   -8.8893   17.8383    5.3143 C   0  0  1  0  0  0  0  0  0  0  0  0
   -7.4462   17.7180    4.9643 N   0  0  0  0  0  0  0  0  0  0  0  0
   -9.0081   18.2581    6.7732 C   0  0  2  0  0  0  0  0  0  0  0  0
   -8.3436   17.3061    7.5493 O   0  0  0  0  0  0  0  0  0  0  0  0
  -10.5075   18.3791    7.1909 C   0  0  1  0  0  0  0  0  0  0  0  0
  -10.6083   18.8030    8.5847 O   0  0  0  0  0  0  0  0  0  0  0  0
  -11.2270   19.4548    6.2794 C   0  0  1  0  0  0  0  0  0  0  0  0
  -11.1314   19.0366    4.8200 C   0  0  1  0  0  0  0  0  0  0  0  0
  -11.8110   20.0300    4.0022 N   0  0  0  0  0  0  0  0  0  0  0  0
   -9.6409   18.8971    4.4100 C   0  0  0  0  0  0  0  0  0  0  0  0
   -7.7662   16.6885    8.7205 C   0  0  0  0  0  0  0  0  0  0  0  0
   -8.2749   17.3941    9.9566 C   0  0  0  0  0  0  0  0  0  0  0  0
   -7.9821   18.8418    9.9904 N   0  0  0  0  0  0  0  0  0  0  0  0
   -7.3751   20.1636    9.7131 C   0  0  0  0  0  0  0  0  0  0  0  0
   -5.9146   19.7007    9.6394 C   0  0  0  0  0  0  0  0  0  0  0  0
   -5.2926   19.5013   11.0343 C   0  0  0  0  0  0  0  0  0  0  0  0
   -4.9391   20.8403   11.6743 C   0  0  0  0  0  0  0  0  0  0  0  0
   -4.0505   21.5933   10.8005 N   0  0  0  0  0  0  0  0  0  0  0  0
   -5.1786   13.6233    5.2698 N   0  0  0  0  0  0  0  0  0  0  0  0
   -6.8179   16.1033    5.3446 C   0  0  0  0  0  0  0  0  0  0  0  0
   -7.2388   15.1987    5.7552 O   0  0  0  0  0  0  0  0  0  0  0  0
   -5.4888   16.6203    4.8508 C   0  0  2  0  0  0  0  0  0  0  0  0
   -5.2868   16.2944    3.5336 O   0  0  0  0  0  0  0  0  0  0  0  0
   -4.4094   15.9015    5.6527 C   0  0  0  0  0  0  0  0  0  0  0  0
   -4.0014   14.4980    5.1693 C   0  0  0  0  0  0  0  0  0  0  0  0
  1  2  1  6  0  0  0
  1  3  1  0  0  0  0
  3  4  1  6  0  0  0
  3  5  1  0  0  0  0
  5  6  1  1  0  0  0
  5  7  1  0  0  0  0
  7  8  1  6  0  0  0
  9  7  1  0  0  0  0
  9 10  1  0  0  0  0
  9 11  1  1  0  0  0
 10  1  1  0  0  0  0
 11 12  1  0  0  0  0
 13 14  1  6  0  0  0
 13 15  1  0  0  0  0
 13 22  1  0  0  0  0
 14 32  1  0  0  0  0
 15 16  1  1  0  0  0
 15 17  1  0  0  0  0
 16 23  1  0  0  0  0
 17 18  1  1  0  0  0
 17 19  1  0  0  0  0
 19  2  1  1  0  0  0
 19 20  1  0  0  0  0
 20 21  1  6  0  0  0
 20 22  1  0  0  0  0
 23 24  1  0  0  0  0
 24 25  1  0  0  0  0
 25 26  1  0  0  0  0
 26 27  1  0  0  0  0
 27 28  1  0  0  0  0
 28 29  1  0  0  0  0
 29 30  1  0  0  0  0
 31 37  1  0  0  0  0
 32 33  2  0  0  0  0
 34 32  1  1  0  0  0
 34 35  1  0  0  0  0
 34 36  1  0  0  0  0
 36 37  1  0  0  0  0
M  END
>  <CHROM.1>
179.55093332,-176.13895417,87.06511725,172.37417468,14.61780167,64.41663206
-58.05450744,-19.51131304,-40.40718570,-79.38522155,-76.51685924,-56.18660045
-95.42654284,82.77617068,-62.62591239,-9.58535776,19.10981484,7.15226672
-2.78758720,0.38501378,-2.29581995

>  <Name>
1o9m_lig

>  <RI>
0

>  <Rbt.Current_Directory>
/home/itssahil/PROJECTS/Mol_Feturizer/New_Systems/rnas/1o9m

>  <Rbt.Executable>
rbdock ($Id: //depot/dev/client3/rdock/2013.1/src/exe/rbdock.cxx#4 $)

>  <Rbt.Library>
libRbt.so (2013.1, Build901 2013/11/27)

>  <Rbt.Parameter_File>
/export/apps/rDock/src/rDock_2013.1_src/data/scripts/dock_solv.prm

>  <Rbt.Receptor>
prm/pocket_docking_3.prm

>  <SCORE>
-0.647315

>  <SCORE.INTER>
-0.9592

>  <SCORE.INTER.CONST>
1

>  <SCORE.INTER.POLAR>
-1.65075

>  <SCORE.INTER.ROT>
15

>  <SCORE.INTER.SOLV>
17.1291

>  <SCORE.INTER.VDW>
-14.4467

>  <SCORE.INTER.norm>
-0.0259243

>  <SCORE.INTRA>
-0.679503

>  <SCORE.INTRA.DIHEDRAL>
-7.47421

>  <SCORE.INTRA.DIHEDRAL.0>
21.5987

>  <SCORE.INTRA.POLAR>
0

>  <SCORE.INTRA.POLAR.0>
0

>  <SCORE.INTRA.REPUL>
0

>  <SCORE.INTRA.REPUL.0>
0

>  <SCORE.INTRA.SOLV>
6.20303

>  <SCORE.INTRA.SOLV.lig_0>
-108.715

>  <SCORE.INTRA.VDW>
-0.0439104

>  <SCORE.INTRA.VDW.0>
-3.9485

>  <SCORE.INTRA.norm>
-0.018365

>  <SCORE.RESTR>
0.991388

>  <SCORE.RESTR.CAVITY>
0.991388

>  <SCORE.RESTR.norm>
0.0267943

>  <SCORE.SYSTEM>
0

>  <SCORE.SYSTEM.CONST>
0

>  <SCORE.SYSTEM.DIHEDRAL>
0

>  <SCORE.SYSTEM.SOLV>
0

>  <SCORE.SYSTEM.norm>
0

>  <SCORE.heavy>
37

>  <SCORE.norm>
-0.017495

>  <RMSD>
9.059

$$$$
1o9m_lig
 OpenBabel11021811403D
libRbt.so/2013.1/901 2013/11/27
 37 38  0  0  0  0  0  0  0  0999 V2000
  -12.5133   17.9424    4.4934 C   0  0  2  0  0  0  0  0  0  0  0  0
  -11.4392   18.6530    5.1815 O   0  0  0  0  0  0  0  0  0  0  0  0
  -13.2788   19.0166    3.6364 C   0  0  2  0  0  0  0  0  0  0  0  0
  -12.3951   19.6883    2.6674 N   0  0  0  0  0  0  0  0  0  0  0  0
  -13.9463   20.0664    4.6039 C   0  0  1  0  0  0  0  0  0  0  0  0
  -14.6512   21.0545    3.8473 O   0  0  0  0  0  0  0  0  0  0  0  0
  -14.8857   19.2927    5.5870 C   0  0  2  0  0  0  0  0  0  0  0  0
  -15.5377   20.1572    6.5317 O   0  0  0  0  0  0  0  0  0  0  0  0
  -14.0930   18.2117    6.3626 C   0  0  2  0  0  0  0  0  0  0  0  0
  -13.4260   17.3190    5.4583 O   0  0  0  0  0  0  0  0  0  0  0  0
  -14.9867   17.4137    7.2763 C   0  0  0  0  0  0  0  0  0  0  0  0
  -15.9099   16.7082    6.5419 N   0  0  0  0  0  0  0  0  0  0  0  0
   -7.5739   17.3397    6.6497 C   0  0  1  0  0  0  0  0  0  0  0  0
   -6.5570   16.6178    7.4647 N   0  0  0  0  0  0  0  0  0  0  0  0
   -8.4473   16.3174    5.9352 C   0  0  2  0  0  0  0  0  0  0  0  0
   -7.6140   15.5070    5.1612 O   0  0  0  0  0  0  0  0  0  0  0  0
   -9.5191   17.0305    5.0517 C   0  0  1  0  0  0  0  0  0  0  0  0
  -10.3638   16.0405    4.3892 O   0  0  0  0  0  0  0  0  0  0  0  0
  -10.4316   17.9490    5.9625 C   0  0  1  0  0  0  0  0  0  0  0  0
   -9.5721   18.9873    6.6676 C   0  0  1  0  0  0  0  0  0  0  0  0
  -10.4312   19.8291    7.4866 N   0  0  0  0  0  0  0  0  0  0  0  0
   -8.4939   18.2785    7.5305 C   0  0  0  0  0  0  0  0  0  0  0  0
   -6.6482   15.1454    4.1498 C   0  0  0  0  0  0  0  0  0  0  0  0
   -5.3537   15.8798    4.4132 C   0  0  0  0  0  0  0  0  0  0  0  0
   -4.2025   15.3735    3.6378 N   0  0  0  0  0  0  0  0  0  0  0  0
   -2.8273   15.1677    3.1287 C   0  0  0  0  0  0  0  0  0  0  0  0
   -3.1467   14.0361    2.1437 C   0  0  0  0  0  0  0  0  0  0  0  0
   -3.3931   12.6926    2.8555 C   0  0  0  0  0  0  0  0  0  0  0  0
   -4.8128   12.6165    3.4085 C   0  0  0  0  0  0  0  0  0  0  0  0
   -4.9339   11.4892    4.3222 N   0  0  0  0  0  0  0  0  0  0  0  0
   -3.3362   18.0404   12.1211 N   0  0  0  0  0  0  0  0  0  0  0  0
   -5.6232   17.7356    8.4773 C   0  0  0  0  0  0  0  0  0  0  0  0
   -5.6310   18.8017    8.6431 O   0  0  0  0  0  0  0  0  0  0  0  0
   -4.8605   16.5164    8.9347 C   0  0  2  0  0  0  0  0  0  0  0  0
   -5.6903   15.6116    9.5470 O   0  0  0  0  0  0  0  0  0  0  0  0
   -3.8668   16.9872    9.9909 C   0  0  0  0  0  0  0  0  0  0  0  0
   -4.4541   17.5834   11.2829 C   0  0  0  0  0  0  0  0  0  0  0  0
  1  2  1  1  0  0  0
  1  3  1  0  0  0  0
  3  4  1  6  0  0  0
  3  5  1  0  0  0  0
  5  6  1  6  0  0  0
  5  7  1  0  0  0  0
  7  8  1  1  0  0  0
  9  7  1  0  0  0  0
  9 10  1  0  0  0  0
  9 11  1  6  0  0  0
 10  1  1  0  0  0  0
 11 12  1  0  0  0  0
 13 14  1  1  0  0  0
 13 15  1  0  0  0  0
 13 22  1  0  0  0  0
 14 32  1  0  0  0  0
 15 16  1  6  0  0  0
 15 17  1  0  0  0  0
 16 23  1  0  0  0  0
 17 18  1  1  0  0  0
 17 19  1  0  0  0  0
 19  2  1  6  0  0  0
 19 20  1  0  0  0  0
 20 21  1  1  0  0  0
 20 22  1  0  0  0  0
 23 24  1  0  0  0  0
 24 25  1  0  0  0  0
 25 26  1  0  0  0  0
 26 27  1  0  0  0  0
 27 28  1  0  0  0  0
 28 29  1  0  0  0  0
 29 30  1  0  0  0  0
 31 37  1  0  0  0  0
 32 33  2  0  0  0  0
 34 32  1  1  0  0  0
 34 35  1  0  0  0  0
 34 36  1  0  0  0  0
 36 37  1  0  0  0  0
M  END
>  <CHROM.1>
-173.48364124,64.06817911,-173.27527637,-59.72753937,59.33222880,65.72564872
167.02320753,-173.50072522,176.63115733,-75.11754029,80.73358069,-167.34627681
-60.78164514,63.37965275,-176.75098852,-8.80182225,17.11188799,5.98500557
3.05434342,-0.36272122,1.10412023

>  <Name>
1o9m_lig

>  <RI>
0

>  <Rbt.Current_Directory>
/home/itssahil/PROJECTS/Mol_Feturizer/New_Systems/rnas/1o9m

>  <Rbt.Executable>
rbdock ($Id: //depot/dev/client3/rdock/2013.1/src/exe/rbdock.cxx#4 $)

>  <Rbt.Library>
libRbt.so (2013.1, Build901 2013/11/27)

>  <Rbt.Parameter_File>
/export/apps/rDock/src/rDock_2013.1_src/data/scripts/dock_solv.prm

>  <Rbt.Receptor>
prm/pocket_docking_8.prm

>  <SCORE>
-15.116

>  <SCORE.INTER>
-10.0082

>  <SCORE.INTER.CONST>
1

>  <SCORE.INTER.POLAR>
-1.48223

>  <SCORE.INTER.ROT>
15

>  <SCORE.INTER.SOLV>
21.3286

>  <SCORE.INTER.VDW>
-22.4409

>  <SCORE.INTER.norm>
-0.270491

>  <SCORE.INTRA>
-5.10778

>  <SCORE.INTRA.DIHEDRAL>
-16.5163

>  <SCORE.INTRA.DIHEDRAL.0>
21.5987

>  <SCORE.INTRA.POLAR>
0

>  <SCORE.INTRA.POLAR.0>
0

>  <SCORE.INTRA.REPUL>
0

>  <SCORE.INTRA.REPUL.0>
0

>  <SCORE.INTRA.SOLV>
2.13308

>  <SCORE.INTRA.SOLV.lig_0>
-108.715

>  <SCORE.INTRA.VDW>
2.08385

>  <SCORE.INTRA.VDW.0>
-3.9485

>  <SCORE.INTRA.norm>
-0.138048

>  <SCORE.RESTR>
0

>  <SCORE.RESTR.CAVITY>
0

>  <SCORE.RESTR.norm>
0

>  <SCORE.SYSTEM>
0

>  <SCORE.SYSTEM.CONST>
0

>  <SCORE.SYSTEM.DIHEDRAL>
0

>  <SCORE.SYSTEM.SOLV>
0

>  <SCORE.SYSTEM.norm>
0

>  <SCORE.heavy>
37

>  <SCORE.norm>
-0.408539

>  <RMSD>
9.061

$$$$
1o9m_lig
 OpenBabel11021811403D
libRbt.so/2013.1/901 2013/11/27
 37 38  0  0  0  0  0  0  0  0999 V2000
   -5.0285   19.1618    8.6714 C   0  0  2  0  0  0  0  0  0  0  0  0
   -4.1344   18.0833    8.2596 O   0  0  0  0  0  0  0  0  0  0  0  0
   -4.1074   20.3488    9.1373 C   0  0  2  0  0  0  0  0  0  0  0  0
   -3.2017   20.8035    8.0678 N   0  0  0  0  0  0  0  0  0  0  0  0
   -3.2896   19.8979   10.4068 C   0  0  1  0  0  0  0  0  0  0  0  0
   -2.4443   20.9625   10.8515 O   0  0  0  0  0  0  0  0  0  0  0  0
   -4.3078   19.4517   11.5076 C   0  0  2  0  0  0  0  0  0  0  0  0
   -3.6656   19.0015   12.7116 O   0  0  0  0  0  0  0  0  0  0  0  0
   -5.2248   18.3219   10.9774 C   0  0  2  0  0  0  0  0  0  0  0  0
   -5.8934   18.7279    9.7743 O   0  0  0  0  0  0  0  0  0  0  0  0
   -6.2526   17.9123   12.0003 C   0  0  0  0  0  0  0  0  0  0  0  0
   -7.0697   16.9328   11.4882 N   0  0  0  0  0  0  0  0  0  0  0  0
   -5.0984   14.8427    5.5411 C   0  0  1  0  0  0  0  0  0  0  0  0
   -5.6174   13.5364    5.0476 N   0  0  0  0  0  0  0  0  0  0  0  0
   -6.2526   15.6365    6.1381 C   0  0  2  0  0  0  0  0  0  0  0  0
   -7.2286   15.7838    5.1503 O   0  0  0  0  0  0  0  0  0  0  0  0
   -5.7577   17.0248    6.6532 C   0  0  1  0  0  0  0  0  0  0  0  0
   -6.8685   17.7673    7.2427 O   0  0  0  0  0  0  0  0  0  0  0  0
   -4.6439   16.8145    7.7582 C   0  0  1  0  0  0  0  0  0  0  0  0
   -3.4764   16.0384    7.1680 C   0  0  1  0  0  0  0  0  0  0  0  0
   -2.4590   15.8694    8.1947 N   0  0  0  0  0  0  0  0  0  0  0  0
   -3.9718   14.6662    6.6381 C   0  0  0  0  0  0  0  0  0  0  0  0
   -8.4430   16.2392    4.5144 C   0  0  0  0  0  0  0  0  0  0  0  0
   -9.5704   16.2159    5.5208 C   0  0  0  0  0  0  0  0  0  0  0  0
  -10.8470   16.7581    5.0118 N   0  0  0  0  0  0  0  0  0  0  0  0
  -11.8526   17.6577    4.4019 C   0  0  0  0  0  0  0  0  0  0  0  0
  -12.7612   17.8023    5.6292 C   0  0  0  0  0  0  0  0  0  0  0  0
  -14.0261   18.6274    5.3271 C   0  0  0  0  0  0  0  0  0  0  0  0
  -14.9184   18.7358    6.5598 C   0  0  0  0  0  0  0  0  0  0  0  0
  -14.3039   19.6129    7.5464 N   0  0  0  0  0  0  0  0  0  0  0  0
   -8.0018   10.6739    2.3147 N   0  0  0  0  0  0  0  0  0  0  0  0
   -4.4827   12.7710    3.9192 C   0  0  0  0  0  0  0  0  0  0  0  0
   -3.5122   13.0267    3.5233 O   0  0  0  0  0  0  0  0  0  0  0  0
   -5.5101   11.6722    3.7975 C   0  0  2  0  0  0  0  0  0  0  0  0
   -5.0691   10.5122    4.3822 O   0  0  0  0  0  0  0  0  0  0  0  0
   -5.6719   11.3813    2.3096 C   0  0  0  0  0  0  0  0  0  0  0  0
   -6.6481   10.2557    1.9223 C   0  0  0  0  0  0  0  0  0  0  0  0
  1  2  1  1  0  0  0
  1  3  1  0  0  0  0
  3  4  1  6  0  0  0
  3  5  1  0  0  0  0
  5  6  1  1  0  0  0
  5  7  1  0  0  0  0
  7  8  1  1  0  0  0
  9  7  1  0  0  0  0
  9 10  1  0  0  0  0
  9 11  1  1  0  0  0
 10  1  1  0  0  0  0
 11 12  1  0  0  0  0
 13 14  1  1  0  0  0
 13 15  1  0  0  0  0
 13 22  1  0  0  0  0
 14 32  1  0  0  0  0
 15 16  1  6  0  0  0
 15 17  1  0  0  0  0
 16 23  1  0  0  0  0
 17 18  1  1  0  0  0
 17 19  1  0  0  0  0
 19  2  1  6  0  0  0
 19 20  1  0  0  0  0
 20 21  1  1  0  0  0
 20 22  1  0  0  0  0
 23 24  1  0  0  0  0
 24 25  1  0  0  0  0
 25 26  1  0  0  0  0
 26 27  1  0  0  0  0
 27 28  1  0  0  0  0
 28 29  1  0  0  0  0
 29 30  1  0  0  0  0
 31 37  1  0  0  0  0
 32 33  2  0  0  0  0
 34 32  1  6  0  0  0
 34 35  1  0  0  0  0
 34 36  1  0  0  0  0
 36 37  1  0  0  0  0
M  END
>  <CHROM.1>
-179.71866141,178.53366607,162.72323760,-174.00755500,-40.94574536,48.10959584
175.67933122,-53.47055045,-118.88255295,-175.78650367,179.15504562,71.33630003
-110.44266499,178.29006858,65.13295783,-6.52396474,16.48048118,6.93455704
-1.21264121,0.27521842,-2.40715425

>  <Name>
1o9m_lig

>  <RI>
0

>  <Rbt.Current_Directory>
/home/itssahil/PROJECTS/Mol_Feturizer/New_Systems/rnas/1o9m

>  <Rbt.Executable>
rbdock ($Id: //depot/dev/client3/rdock/2013.1/src/exe/rbdock.cxx#4 $)

>  <Rbt.Library>
libRbt.so (2013.1, Build901 2013/11/27)

>  <Rbt.Parameter_File>
/export/apps/rDock/src/rDock_2013.1_src/data/scripts/dock_solv.prm

>  <Rbt.Receptor>
prm/pocket_docking_3.prm

>  <SCORE>
-12.3878

>  <SCORE.INTER>
-5.64473

>  <SCORE.INTER.CONST>
1

>  <SCORE.INTER.POLAR>
-0.80844

>  <SCORE.INTER.ROT>
15

>  <SCORE.INTER.SOLV>
15.1983

>  <SCORE.INTER.VDW>
-19.7344

>  <SCORE.INTER.norm>
-0.15256

>  <SCORE.INTRA>
-7.06306

>  <SCORE.INTRA.DIHEDRAL>
-14.6456

>  <SCORE.INTRA.DIHEDRAL.0>
21.5987

>  <SCORE.INTRA.POLAR>
0

>  <SCORE.INTRA.POLAR.0>
0

>  <SCORE.INTRA.REPUL>
0

>  <SCORE.INTRA.REPUL.0>
0

>  <SCORE.INTRA.SOLV>
-0.405927

>  <SCORE.INTRA.SOLV.lig_0>
-108.715

>  <SCORE.INTRA.VDW>
0.462709

>  <SCORE.INTRA.VDW.0>
-3.9485

>  <SCORE.INTRA.norm>
-0.190894

>  <SCORE.RESTR>
0.319964

>  <SCORE.RESTR.CAVITY>
0.319964

>  <SCORE.RESTR.norm>
0.00864766

>  <SCORE.SYSTEM>
0

>  <SCORE.SYSTEM.CONST>
0

>  <SCORE.SYSTEM.DIHEDRAL>
0

>  <SCORE.SYSTEM.SOLV>
0

>  <SCORE.SYSTEM.norm>
0

>  <SCORE.heavy>
37

>  <SCORE.norm>
-0.334806

>  <RMSD>
9.071

$$$$
1o9m_lig
 OpenBabel11021811403D
libRbt.so/2013.1/901 2013/11/27
 37 38  0  0  0  0  0  0  0  0999 V2000
  -12.4596   18.3779    6.7555 C   0  0  2  0  0  0  0  0  0  0  0  0
  -11.3873   19.3495    6.5599 O   0  0  0  0  0  0  0  0  0  0  0  0
  -13.2127   18.2645    5.3791 C   0  0  2  0  0  0  0  0  0  0  0  0
  -12.3179   17.8395    4.2884 N   0  0  0  0  0  0  0  0  0  0  0  0
  -13.8825   19.6510    5.0431 C   0  0  1  0  0  0  0  0  0  0  0  0
  -14.5761   19.5730    3.7948 O   0  0  0  0  0  0  0  0  0  0  0  0
  -14.8336   20.0306    6.2258 C   0  0  2  0  0  0  0  0  0  0  0  0
  -15.4885   21.2947    6.0310 O   0  0  0  0  0  0  0  0  0  0  0  0
  -14.0527   20.0728    7.5626 C   0  0  2  0  0  0  0  0  0  0  0  0
  -13.3833   18.8265    7.8036 O   0  0  0  0  0  0  0  0  0  0  0  0
  -14.9578   20.3814    8.7271 C   0  0  0  0  0  0  0  0  0  0  0  0
  -16.0054   19.4923    8.7643 N   0  0  0  0  0  0  0  0  0  0  0  0
   -7.0644   19.0082    6.4310 C   0  0  1  0  0  0  0  0  0  0  0  0
   -5.6682   18.7267    6.8679 N   0  0  0  0  0  0  0  0  0  0  0  0
   -7.8763   17.7232    6.5207 C   0  0  2  0  0  0  0  0  0  0  0  0
   -7.2474   16.7617    5.7267 O   0  0  0  0  0  0  0  0  0  0  0  0
   -9.3460   17.9666    6.0534 C   0  0  1  0  0  0  0  0  0  0  0  0
  -10.1196   16.7331    6.1646 O   0  0  0  0  0  0  0  0  0  0  0  0
  -10.0171   19.0713    6.9673 C   0  0  1  0  0  0  0  0  0  0  0  0
   -9.2251   20.3665    6.8712 C   0  0  1  0  0  0  0  0  0  0  0  0
   -9.8667   21.3712    7.7058 N   0  0  0  0  0  0  0  0  0  0  0  0
   -7.7589   20.1201    7.3171 C   0  0  0  0  0  0  0  0  0  0  0  0
   -6.6839   16.1492    4.5461 C   0  0  0  0  0  0  0  0  0  0  0  0
   -5.6149   17.0544    3.9784 C   0  0  0  0  0  0  0  0  0  0  0  0
   -4.4712   16.3371    3.3780 N   0  0  0  0  0  0  0  0  0  0  0  0
   -3.3342   15.4083    3.1858 C   0  0  0  0  0  0  0  0  0  0  0  0
   -2.3567   16.0867    4.1539 C   0  0  0  0  0  0  0  0  0  0  0  0
   -0.9832   15.3904    4.1826 C   0  0  0  0  0  0  0  0  0  0  0  0
   -0.0198   16.1149    5.1176 C   0  0  0  0  0  0  0  0  0  0  0  0
    0.2381   17.4607    4.6252 N   0  0  0  0  0  0  0  0  0  0  0  0
   -4.4935   14.8183   10.2169 N   0  0  0  0  0  0  0  0  0  0  0  0
   -5.6272   17.5462    8.1913 C   0  0  0  0  0  0  0  0  0  0  0  0
   -6.3708   16.9858    8.7364 O   0  0  0  0  0  0  0  0  0  0  0  0
   -4.1299   17.7343    8.1710 C   0  0  2  0  0  0  0  0  0  0  0  0
   -3.5873   17.2765    6.9971 O   0  0  0  0  0  0  0  0  0  0  0  0
   -3.5602   16.8661    9.2873 C   0  0  0  0  0  0  0  0  0  0  0  0
   -3.6769   15.3411    9.1120 C   0  0  0  0  0  0  0  0  0  0  0  0
  1  2  1  6  0  0  0
  1  3  1  0  0  0  0
  3  4  1  6  0  0  0
  3  5  1  0  0  0  0
  5  6  1  6  0  0  0
  5  7  1  0  0  0  0
  7  8  1  6  0  0  0
  9  7  1  0  0  0  0
  9 10  1  0  0  0  0
  9 11  1  1  0  0  0
 10  1  1  0  0  0  0
 11 12  1  0  0  0  0
 13 14  1  1  0  0  0
 13 15  1  0  0  0  0
 13 22  1  0  0  0  0
 14 32  1  0  0  0  0
 15 16  1  6  0  0  0
 15 17  1  0  0  0  0
 16 23  1  0  0  0  0
 17 18  1  1  0  0  0
 17 19  1  0  0  0  0
 19  2  1  6  0  0  0
 19 20  1  0  0  0  0
 20 21  1  1  0  0  0
 20 22  1  0  0  0  0
 23 24  1  0  0  0  0
 24 25  1  0  0  0  0
 25 26  1  0  0  0  0
 26 27  1  0  0  0  0
 27 28  1  0  0  0  0
 28 29  1  0  0  0  0
 29 30  1  0  0  0  0
 31 37  1  0  0  0  0
 32 33  2  0  0  0  0
 34 32  1  6  0  0  0
 34 35  1  0  0  0  0
 34 36  1  0  0  0  0
 36 37  1  0  0  0  0
M  END
>  <CHROM.1>
-130.78304349,54.46632426,-36.10405415,-57.50272953,56.81613880,69.93871872
144.94410475,-51.76967413,-70.49906009,-178.02631292,178.08999691,-63.58167416
-65.75520314,67.38199453,-118.56313006,-8.27701983,18.03478903,6.40952925
-3.05323423,0.28009414,-1.67625811

>  <Name>
1o9m_lig

>  <RI>
0

>  <Rbt.Current_Directory>
/home/itssahil/PROJECTS/Mol_Feturizer/New_Systems/rnas/1o9m

>  <Rbt.Executable>
rbdock ($Id: //depot/dev/client3/rdock/2013.1/src/exe/rbdock.cxx#4 $)

>  <Rbt.Library>
libRbt.so (2013.1, Build901 2013/11/27)

>  <Rbt.Parameter_File>
/export/apps/rDock/src/rDock_2013.1_src/data/scripts/dock_solv.prm

>  <Rbt.Receptor>
prm/pocket_docking_7.prm

>  <SCORE>
-3.0804

>  <SCORE.INTER>
-4.30935

>  <SCORE.INTER.CONST>
1

>  <SCORE.INTER.POLAR>
-2.08787

>  <SCORE.INTER.ROT>
15

>  <SCORE.INTER.SOLV>
14.8009

>  <SCORE.INTER.VDW>
-14.447

>  <SCORE.INTER.norm>
-0.116469

>  <SCORE.INTRA>
1.22895

>  <SCORE.INTRA.DIHEDRAL>
-3.65524

>  <SCORE.INTRA.DIHEDRAL.0>
21.5987

>  <SCORE.INTRA.POLAR>
0

>  <SCORE.INTRA.POLAR.0>
0

>  <SCORE.INTRA.REPUL>
0

>  <SCORE.INTRA.REPUL.0>
0

>  <SCORE.INTRA.SOLV>
5.50612

>  <SCORE.INTRA.SOLV.lig_0>
-108.715

>  <SCORE.INTRA.VDW>
0.30351

>  <SCORE.INTRA.VDW.0>
-3.9485

>  <SCORE.INTRA.norm>
0.0332148

>  <SCORE.RESTR>
0

>  <SCORE.RESTR.CAVITY>
0

>  <SCORE.RESTR.norm>
0

>  <SCORE.SYSTEM>
0

>  <SCORE.SYSTEM.CONST>
0

>  <SCORE.SYSTEM.DIHEDRAL>
0

>  <SCORE.SYSTEM.SOLV>
0

>  <SCORE.SYSTEM.norm>
0

>  <SCORE.heavy>
37

>  <SCORE.norm>
-0.0832542

>  <RMSD>
9.076

$$$$
1o9m_lig
 OpenBabel11021811403D
libRbt.so/2013.1/901 2013/11/27
 37 38  0  0  0  0  0  0  0  0999 V2000
   -5.3676   17.0634    9.9317 C   0  0  2  0  0  0  0  0  0  0  0  0
   -4.6801   17.3248    8.6703 O   0  0  0  0  0  0  0  0  0  0  0  0
   -6.2242   18.3452   10.2445 C   0  0  2  0  0  0  0  0  0  0  0  0
   -7.1936   18.6415    9.1751 N   0  0  0  0  0  0  0  0  0  0  0  0
   -5.2562   19.5675   10.4745 C   0  0  1  0  0  0  0  0  0  0  0  0
   -6.0124   20.7468   10.7629 O   0  0  0  0  0  0  0  0  0  0  0  0
   -4.2727   19.1972   11.6334 C   0  0  2  0  0  0  0  0  0  0  0  0
   -3.3276   20.2416   11.9177 O   0  0  0  0  0  0  0  0  0  0  0  0
   -3.4976   17.8991   11.2979 C   0  0  2  0  0  0  0  0  0  0  0  0
   -4.4023   16.8229   11.0101 O   0  0  0  0  0  0  0  0  0  0  0  0
   -2.5834   17.4892   12.4234 C   0  0  0  0  0  0  0  0  0  0  0  0
   -1.5495   18.3864   12.5475 N   0  0  0  0  0  0  0  0  0  0  0  0
   -5.1886   15.8048    4.6389 C   0  0  1  0  0  0  0  0  0  0  0  0
   -5.2533   14.8437    3.5024 N   0  0  0  0  0  0  0  0  0  0  0  0
   -6.2153   15.3970    5.6868 C   0  0  2  0  0  0  0  0  0  0  0  0
   -7.4693   15.3733    5.0728 O   0  0  0  0  0  0  0  0  0  0  0  0
   -6.1962   16.3896    6.8918 C   0  0  1  0  0  0  0  0  0  0  0  0
   -7.1691   15.9758    7.8992 O   0  0  0  0  0  0  0  0  0  0  0  0
   -4.7563   16.3981    7.5494 C   0  0  1  0  0  0  0  0  0  0  0  0
   -3.7235   16.8226    6.5164 C   0  0  1  0  0  0  0  0  0  0  0  0
   -2.4110   16.8381    7.1448 N   0  0  0  0  0  0  0  0  0  0  0  0
   -3.7560   15.8472    5.3094 C   0  0  0  0  0  0  0  0  0  0  0  0
   -8.6879   15.8730    4.4795 C   0  0  0  0  0  0  0  0  0  0  0  0
   -9.4842   16.6143    5.5287 C   0  0  0  0  0  0  0  0  0  0  0  0
  -10.7333   17.2206    5.0237 N   0  0  0  0  0  0  0  0  0  0  0  0
  -12.1091   17.7638    4.9560 C   0  0  0  0  0  0  0  0  0  0  0  0
  -12.1667   18.3382    6.3772 C   0  0  0  0  0  0  0  0  0  0  0  0
  -13.6121   18.5145    6.8792 C   0  0  0  0  0  0  0  0  0  0  0  0
  -14.1975   19.8433    6.4113 C   0  0  0  0  0  0  0  0  0  0  0  0
  -14.2974   19.8621    4.9588 N   0  0  0  0  0  0  0  0  0  0  0  0
   -2.9391   14.3926    1.6350 N   0  0  0  0  0  0  0  0  0  0  0  0
   -5.3129   13.1654    4.0735 C   0  0  0  0  0  0  0  0  0  0  0  0
   -5.3238   12.6895    5.0417 O   0  0  0  0  0  0  0  0  0  0  0  0
   -5.3205   12.7808    2.6142 C   0  0  2  0  0  0  0  0  0  0  0  0
   -6.1916   11.7479    2.3768 O   0  0  0  0  0  0  0  0  0  0  0  0
   -3.9243   12.2633    2.2861 C   0  0  0  0  0  0  0  0  0  0  0  0
   -2.7505   13.2321    2.5175 C   0  0  0  0  0  0  0  0  0  0  0  0
  1  2  1  6  0  0  0
  1  3  1  0  0  0  0
  3  4  1  6  0  0  0
  3  5  1  0  0  0  0
  5  6  1  1  0  0  0
  5  7  1  0  0  0  0
  7  8  1  6  0  0  0
  9  7  1  0  0  0  0
  9 10  1  0  0  0  0
  9 11  1  1  0  0  0
 10  1  1  0  0  0  0
 11 12  1  0  0  0  0
 13 14  1  6  0  0  0
 13 15  1  0  0  0  0
 13 22  1  0  0  0  0
 14 32  1  0  0  0  0
 15 16  1  6  0  0  0
 15 17  1  0  0  0  0
 16 23  1  0  0  0  0
 17 18  1  1  0  0  0
 17 19  1  0  0  0  0
 19  2  1  1  0  0  0
 19 20  1  0  0  0  0
 20 21  1  1  0  0  0
 20 22  1  0  0  0  0
 23 24  1  0  0  0  0
 24 25  1  0  0  0  0
 25 26  1  0  0  0  0
 26 27  1  0  0  0  0
 27 28  1  0  0  0  0
 28 29  1  0  0  0  0
 29 30  1  0  0  0  0
 31 37  1  0  0  0  0
 32 33  2  0  0  0  0
 34 32  1  1  0  0  0
 34 35  1  0  0  0  0
 34 36  1  0  0  0  0
 36 37  1  0  0  0  0
M  END
>  <CHROM.1>
-127.31242081,-68.58851732,-45.62322881,-74.31294054,-64.48227689,70.34845602
177.67406557,152.34044674,33.12847858,-157.89104169,-84.65828081,64.08663653
-139.15862960,-58.91964047,-62.17702137,-6.31972451,16.64091516,6.92158543
-1.11538276,0.31543430,-2.17821548

>  <Name>
1o9m_lig

>  <RI>
0

>  <Rbt.Current_Directory>
/home/itssahil/PROJECTS/Mol_Feturizer/New_Systems/rnas/1o9m

>  <Rbt.Executable>
rbdock ($Id: //depot/dev/client3/rdock/2013.1/src/exe/rbdock.cxx#4 $)

>  <Rbt.Library>
libRbt.so (2013.1, Build901 2013/11/27)

>  <Rbt.Parameter_File>
/export/apps/rDock/src/rDock_2013.1_src/data/scripts/dock_solv.prm

>  <Rbt.Receptor>
prm/pocket_docking_3.prm

>  <SCORE>
-6.26736

>  <SCORE.INTER>
-6.89742

>  <SCORE.INTER.CONST>
1

>  <SCORE.INTER.POLAR>
-0.958559

>  <SCORE.INTER.ROT>
15

>  <SCORE.INTER.SOLV>
14.0329

>  <SCORE.INTER.VDW>
-19.6807

>  <SCORE.INTER.norm>
-0.186417

>  <SCORE.INTRA>
0.580649

>  <SCORE.INTRA.DIHEDRAL>
-5.43396

>  <SCORE.INTRA.DIHEDRAL.0>
21.5987

>  <SCORE.INTRA.POLAR>
0

>  <SCORE.INTRA.POLAR.0>
0

>  <SCORE.INTRA.REPUL>
0

>  <SCORE.INTRA.REPUL.0>
0

>  <SCORE.INTRA.SOLV>
6.5722

>  <SCORE.INTRA.SOLV.lig_0>
-108.715

>  <SCORE.INTRA.VDW>
0.0115268

>  <SCORE.INTRA.VDW.0>
-3.9485

>  <SCORE.INTRA.norm>
0.0156932

>  <SCORE.RESTR>
0.0494014

>  <SCORE.RESTR.CAVITY>
0.0494014

>  <SCORE.RESTR.norm>
0.00133517

>  <SCORE.SYSTEM>
0

>  <SCORE.SYSTEM.CONST>
0

>  <SCORE.SYSTEM.DIHEDRAL>
0

>  <SCORE.SYSTEM.SOLV>
0

>  <SCORE.SYSTEM.norm>
0

>  <SCORE.heavy>
37

>  <SCORE.norm>
-0.169388

>  <RMSD>
9.097

$$$$
1o9m_lig
 OpenBabel11021811403D
libRbt.so/2013.1/901 2013/11/27
 37 38  0  0  0  0  0  0  0  0999 V2000
  -11.2161   18.1925    4.3935 C   0  0  2  0  0  0  0  0  0  0  0  0
  -10.5835   19.1221    5.3252 O   0  0  0  0  0  0  0  0  0  0  0  0
  -10.1636   17.0569    4.1160 C   0  0  2  0  0  0  0  0  0  0  0  0
   -9.7570   16.3612    5.3495 N   0  0  0  0  0  0  0  0  0  0  0  0
   -8.9123   17.6812    3.3891 C   0  0  1  0  0  0  0  0  0  0  0  0
   -7.9400   16.6664    3.1238 O   0  0  0  0  0  0  0  0  0  0  0  0
   -9.4092   18.3810    2.0811 C   0  0  2  0  0  0  0  0  0  0  0  0
   -8.3449   19.0034    1.3430 O   0  0  0  0  0  0  0  0  0  0  0  0
  -10.4827   19.4486    2.4070 C   0  0  2  0  0  0  0  0  0  0  0  0
  -11.5715   18.8714    3.1424 O   0  0  0  0  0  0  0  0  0  0  0  0
  -11.0190   20.0989    1.1580 C   0  0  0  0  0  0  0  0  0  0  0  0
  -11.6974   19.1781    0.3957 N   0  0  0  0  0  0  0  0  0  0  0  0
  -12.0807   22.3311    7.8315 C   0  0  1  0  0  0  0  0  0  0  0  0
  -12.7411   23.6062    8.2284 N   0  0  0  0  0  0  0  0  0  0  0  0
  -13.0993   21.4502    7.1210 C   0  0  2  0  0  0  0  0  0  0  0  0
  -14.1749   21.2516    7.9892 O   0  0  0  0  0  0  0  0  0  0  0  0
  -12.4548   20.0913    6.7017 C   0  0  1  0  0  0  0  0  0  0  0  0
  -13.4348   19.2647    6.0026 O   0  0  0  0  0  0  0  0  0  0  0  0
  -11.2330   20.3605    5.7320 C   0  0  1  0  0  0  0  0  0  0  0  0
  -10.1990   21.2246    6.4377 C   0  0  1  0  0  0  0  0  0  0  0  0
   -9.0793   21.4471    5.5353 N   0  0  0  0  0  0  0  0  0  0  0  0
  -10.8448   22.5676    6.8720 C   0  0  0  0  0  0  0  0  0  0  0  0
  -14.8815   20.9066    9.2009 C   0  0  0  0  0  0  0  0  0  0  0  0
  -16.3683   21.0416    8.9651 C   0  0  0  0  0  0  0  0  0  0  0  0
  -17.1474   21.3559   10.1805 N   0  0  0  0  0  0  0  0  0  0  0  0
  -17.7739   21.2542   11.5183 C   0  0  0  0  0  0  0  0  0  0  0  0
  -18.4473   22.6324   11.5284 C   0  0  0  0  0  0  0  0  0  0  0  0
  -19.1935   22.9096   12.8469 C   0  0  0  0  0  0  0  0  0  0  0  0
  -19.8874   24.2677   12.8100 C   0  0  0  0  0  0  0  0  0  0  0  0
  -18.8989   25.3318   12.7067 N   0  0  0  0  0  0  0  0  0  0  0  0
  -12.4314   29.1349    7.8576 N   0  0  0  0  0  0  0  0  0  0  0  0
  -13.3640   24.4820    6.8172 C   0  0  0  0  0  0  0  0  0  0  0  0
  -13.3831   24.2993    5.7540 O   0  0  0  0  0  0  0  0  0  0  0  0
  -13.8016   25.5404    7.8001 C   0  0  2  0  0  0  0  0  0  0  0  0
  -15.1351   25.8296    7.6583 O   0  0  0  0  0  0  0  0  0  0  0  0
  -13.0358   26.8116    7.4506 C   0  0  0  0  0  0  0  0  0  0  0  0
  -13.1972   28.0069    8.4073 C   0  0  0  0  0  0  0  0  0  0  0  0
  1  2  1  1  0  0  0
  1  3  1  0  0  0  0
  3  4  1  1  0  0  0
  3  5  1  0  0  0  0
  5  6  1  6  0  0  0
  5  7  1  0  0  0  0
  7  8  1  1  0  0  0
  9  7  1  0  0  0  0
  9 10  1  0  0  0  0
  9 11  1  6  0  0  0
 10  1  1  0  0  0  0
 11 12  1  0  0  0  0
 13 14  1  6  0  0  0
 13 15  1  0  0  0  0
 13 22  1  0  0  0  0
 14 32  1  0  0  0  0
 15 16  1  1  0  0  0
 15 17  1  0  0  0  0
 16 23  1  0  0  0  0
 17 18  1  6  0  0  0
 17 19  1  0  0  0  0
 19  2  1  1  0  0  0
 19 20  1  0  0  0  0
 20 21  1  6  0  0  0
 20 22  1  0  0  0  0
 23 24  1  0  0  0  0
 24 25  1  0  0  0  0
 25 26  1  0  0  0  0
 26 27  1  0  0  0  0
 27 28  1  0  0  0  0
 28 29  1  0  0  0  0
 29 30  1  0  0  0  0
 31 37  1  0  0  0  0
 32 33  2  0  0  0  0
 34 32  1  6  0  0  0
 34 35  1  0  0  0  0
 34 36  1  0  0  0  0
 36 37  1  0  0  0  0
M  END
>  <CHROM.1>
175.33410601,65.28585639,-60.11365243,-51.85343375,-177.31517884,71.77988981
-152.25283670,-64.52616290,178.68592138,-178.21168662,-178.25721295,-64.16894175
-126.50211203,-173.74578736,-177.50422533,-12.90422610,21.54039139,6.63325839
0.59613118,-0.76227448,-3.01889888

>  <Name>
1o9m_lig

>  <RI>
0

>  <Rbt.Current_Directory>
/home/itssahil/PROJECTS/Mol_Feturizer/New_Systems/rnas/1o9m

>  <Rbt.Executable>
rbdock ($Id: //depot/dev/client3/rdock/2013.1/src/exe/rbdock.cxx#4 $)

>  <Rbt.Library>
libRbt.so (2013.1, Build901 2013/11/27)

>  <Rbt.Parameter_File>
/export/apps/rDock/src/rDock_2013.1_src/data/scripts/dock_solv.prm

>  <Rbt.Receptor>
prm/pocket_docking_8.prm

>  <SCORE>
-7.96085

>  <SCORE.INTER>
-0.156561

>  <SCORE.INTER.CONST>
1

>  <SCORE.INTER.POLAR>
0

>  <SCORE.INTER.ROT>
15

>  <SCORE.INTER.SOLV>
13.6859

>  <SCORE.INTER.VDW>
-18.2663

>  <SCORE.INTER.norm>
-0.00423137

>  <SCORE.INTRA>
-7.80429

>  <SCORE.INTRA.DIHEDRAL>
-15.1999

>  <SCORE.INTRA.DIHEDRAL.0>
21.5987

>  <SCORE.INTRA.POLAR>
0

>  <SCORE.INTRA.POLAR.0>
0

>  <SCORE.INTRA.REPUL>
0

>  <SCORE.INTRA.REPUL.0>
0

>  <SCORE.INTRA.SOLV>
0.492511

>  <SCORE.INTRA.SOLV.lig_0>
-108.715

>  <SCORE.INTRA.VDW>
-0.450616

>  <SCORE.INTRA.VDW.0>
-3.9485

>  <SCORE.INTRA.norm>
-0.210927

>  <SCORE.RESTR>
0

>  <SCORE.RESTR.CAVITY>
0

>  <SCORE.RESTR.norm>
0

>  <SCORE.SYSTEM>
0

>  <SCORE.SYSTEM.CONST>
0

>  <SCORE.SYSTEM.DIHEDRAL>
0

>  <SCORE.SYSTEM.SOLV>
0

>  <SCORE.SYSTEM.norm>
0

>  <SCORE.heavy>
37

>  <SCORE.norm>
-0.215158

>  <RMSD>
9.105

$$$$
1o9m_lig
 OpenBabel11021811403D
libRbt.so/2013.1/901 2013/11/27
 37 38  0  0  0  0  0  0  0  0999 V2000
  -12.2559   18.0686    6.7977 C   0  0  2  0  0  0  0  0  0  0  0  0
  -11.0383   18.8370    6.5543 O   0  0  0  0  0  0  0  0  0  0  0  0
  -13.0503   18.0534    5.4401 C   0  0  2  0  0  0  0  0  0  0  0  0
  -12.2680   17.4553    4.3441 N   0  0  0  0  0  0  0  0  0  0  0  0
  -13.4811   19.5258    5.0793 C   0  0  1  0  0  0  0  0  0  0  0  0
  -14.2078   19.5383    3.8475 O   0  0  0  0  0  0  0  0  0  0  0  0
  -14.3244   20.0910    6.2696 C   0  0  2  0  0  0  0  0  0  0  0  0
  -14.7581   21.4437    6.0529 O   0  0  0  0  0  0  0  0  0  0  0  0
  -13.5157   20.0304    7.5890 C   0  0  2  0  0  0  0  0  0  0  0  0
  -13.0636   18.6939    7.8510 O   0  0  0  0  0  0  0  0  0  0  0  0
  -14.3263   20.5174    8.7622 C   0  0  0  0  0  0  0  0  0  0  0  0
  -15.4685   19.7646    8.8967 N   0  0  0  0  0  0  0  0  0  0  0  0
   -7.1056   19.5388    8.2460 C   0  0  1  0  0  0  0  0  0  0  0  0
   -5.9639   19.4932    9.2020 N   0  0  0  0  0  0  0  0  0  0  0  0
   -7.4576   18.1163    7.8323 C   0  0  2  0  0  0  0  0  0  0  0  0
   -6.3149   17.5351    7.2786 O   0  0  0  0  0  0  0  0  0  0  0  0
   -8.6406   18.1160    6.8133 C   0  0  1  0  0  0  0  0  0  0  0  0
   -8.9829   16.7461    6.4411 O   0  0  0  0  0  0  0  0  0  0  0  0
   -9.9091   18.7954    7.4730 C   0  0  1  0  0  0  0  0  0  0  0  0
   -9.5752   20.2243    7.8737 C   0  0  1  0  0  0  0  0  0  0  0  0
  -10.7575   20.8342    8.4634 N   0  0  0  0  0  0  0  0  0  0  0  0
   -8.3863   20.2259    8.8716 C   0  0  0  0  0  0  0  0  0  0  0  0
   -5.4823   16.5373    6.6479 C   0  0  0  0  0  0  0  0  0  0  0  0
   -4.0563   17.0361    6.6023 C   0  0  0  0  0  0  0  0  0  0  0  0
   -3.1139   16.1139    5.9358 N   0  0  0  0  0  0  0  0  0  0  0  0
   -2.4805   14.8824    5.4117 C   0  0  0  0  0  0  0  0  0  0  0  0
   -3.7084   14.3209    4.6838 C   0  0  0  0  0  0  0  0  0  0  0  0
   -3.4119   12.9817    3.9831 C   0  0  0  0  0  0  0  0  0  0  0  0
   -4.6587   12.4339    3.2955 C   0  0  0  0  0  0  0  0  0  0  0  0
   -5.6516   12.0526    4.2899 N   0  0  0  0  0  0  0  0  0  0  0  0
   -2.5155   18.6322   12.8234 N   0  0  0  0  0  0  0  0  0  0  0  0
   -6.3888   18.6087   10.6798 C   0  0  0  0  0  0  0  0  0  0  0  0
   -7.2687   18.0946   11.0342 O   0  0  0  0  0  0  0  0  0  0  0  0
   -4.9945   18.9407   11.1525 C   0  0  2  0  0  0  0  0  0  0  0  0
   -4.0596   18.1445   10.5409 O   0  0  0  0  0  0  0  0  0  0  0  0
   -4.9435   18.6157   12.6412 C   0  0  0  0  0  0  0  0  0  0  0  0
   -3.7428   19.1645   13.4330 C   0  0  0  0  0  0  0  0  0  0  0  0
  1  2  1  6  0  0  0
  1  3  1  0  0  0  0
  3  4  1  6  0  0  0
  3  5  1  0  0  0  0
  5  6  1  6  0  0  0
  5  7  1  0  0  0  0
  7  8  1  6  0  0  0
  9  7  1  0  0  0  0
  9 10  1  0  0  0  0
  9 11  1  1  0  0  0
 10  1  1  0  0  0  0
 11 12  1  0  0  0  0
 13 14  1  1  0  0  0
 13 15  1  0  0  0  0
 13 22  1  0  0  0  0
 14 32  1  0  0  0  0
 15 16  1  6  0  0  0
 15 17  1  0  0  0  0
 16 23  1  0  0  0  0
 17 18  1  1  0  0  0
 17 19  1  0  0  0  0
 19  2  1  6  0  0  0
 19 20  1  0  0  0  0
 20 21  1  1  0  0  0
 20 22  1  0  0  0  0
 23 24  1  0  0  0  0
 24 25  1  0  0  0  0
 25 26  1  0  0  0  0
 26 27  1  0  0  0  0
 27 28  1  0  0  0  0
 28 29  1  0  0  0  0
 29 30  1  0  0  0  0
 31 37  1  0  0  0  0
 32 33  2  0  0  0  0
 34 32  1  6  0  0  0
 34 35  1  0  0  0  0
 34 36  1  0  0  0  0
 36 37  1  0  0  0  0
M  END
>  <CHROM.1>
-164.80429049,58.36890564,-62.02572604,-178.24480037,-174.17298854,113.64697204
-178.11460423,-26.91378243,50.97808033,179.85747753,178.72602887,-67.31848266
-76.32162394,-166.21471780,-58.80222003,-8.42702885,18.05381011,7.53383423
3.04887056,-0.35533366,0.98182781

>  <Name>
1o9m_lig

>  <RI>
0

>  <Rbt.Current_Directory>
/home/itssahil/PROJECTS/Mol_Feturizer/New_Systems/rnas/1o9m

>  <Rbt.Executable>
rbdock ($Id: //depot/dev/client3/rdock/2013.1/src/exe/rbdock.cxx#4 $)

>  <Rbt.Library>
libRbt.so (2013.1, Build901 2013/11/27)

>  <Rbt.Parameter_File>
/export/apps/rDock/src/rDock_2013.1_src/data/scripts/dock_solv.prm

>  <Rbt.Receptor>
prm/pocket_docking_3.prm

>  <SCORE>
-12.2052

>  <SCORE.INTER>
-9.71667

>  <SCORE.INTER.CONST>
1

>  <SCORE.INTER.POLAR>
-1.83095

>  <SCORE.INTER.ROT>
15

>  <SCORE.INTER.SOLV>
20.1078

>  <SCORE.INTER.VDW>
-20.6772

>  <SCORE.INTER.norm>
-0.262613

>  <SCORE.INTRA>
-3.35033

>  <SCORE.INTRA.DIHEDRAL>
-10.7199

>  <SCORE.INTRA.DIHEDRAL.0>
21.5987

>  <SCORE.INTRA.POLAR>
0

>  <SCORE.INTRA.POLAR.0>
0

>  <SCORE.INTRA.REPUL>
0

>  <SCORE.INTRA.REPUL.0>
0

>  <SCORE.INTRA.SOLV>
5.24319

>  <SCORE.INTRA.SOLV.lig_0>
-108.715

>  <SCORE.INTRA.VDW>
-0.611996

>  <SCORE.INTRA.VDW.0>
-3.9485

>  <SCORE.INTRA.norm>
-0.0905495

>  <SCORE.RESTR>
0.861812

>  <SCORE.RESTR.CAVITY>
0.861812

>  <SCORE.RESTR.norm>
0.0232922

>  <SCORE.SYSTEM>
0

>  <SCORE.SYSTEM.CONST>
0

>  <SCORE.SYSTEM.DIHEDRAL>
0

>  <SCORE.SYSTEM.SOLV>
0

>  <SCORE.SYSTEM.norm>
0

>  <SCORE.heavy>
37

>  <SCORE.norm>
-0.32987

>  <RMSD>
9.117

$$$$
1o9m_lig
 OpenBabel11021811403D
libRbt.so/2013.1/901 2013/11/27
 37 38  0  0  0  0  0  0  0  0999 V2000
   -3.2196   13.4743    9.5814 C   0  0  2  0  0  0  0  0  0  0  0  0
   -4.4286   14.1026    9.0565 O   0  0  0  0  0  0  0  0  0  0  0  0
   -3.6980   12.3258   10.5441 C   0  0  2  0  0  0  0  0  0  0  0  0
   -4.5411   11.3350    9.8525 N   0  0  0  0  0  0  0  0  0  0  0  0
   -4.4700   12.9629   11.7614 C   0  0  1  0  0  0  0  0  0  0  0  0
   -4.9144   11.9373   12.6536 O   0  0  0  0  0  0  0  0  0  0  0  0
   -3.5141   13.9838   12.4626 C   0  0  2  0  0  0  0  0  0  0  0  0
   -4.1262   14.6409   13.5844 O   0  0  0  0  0  0  0  0  0  0  0  0
   -3.0298   15.0576   11.4572 C   0  0  2  0  0  0  0  0  0  0  0  0
   -2.4055   14.4475   10.3182 O   0  0  0  0  0  0  0  0  0  0  0  0
   -2.0625   16.0214   12.0943 C   0  0  0  0  0  0  0  0  0  0  0  0
   -1.7597   17.0388   11.2211 N   0  0  0  0  0  0  0  0  0  0  0  0
   -5.2879   15.5300    5.0509 C   0  0  1  0  0  0  0  0  0  0  0  0
   -5.2588   16.3892    3.8341 N   0  0  0  0  0  0  0  0  0  0  0  0
   -3.8745   15.0456    5.3446 C   0  0  2  0  0  0  0  0  0  0  0  0
   -3.4106   14.3655    4.2166 O   0  0  0  0  0  0  0  0  0  0  0  0
   -3.8591   14.1238    6.6047 C   0  0  1  0  0  0  0  0  0  0  0  0
   -2.4960   13.6836    6.8888 O   0  0  0  0  0  0  0  0  0  0  0  0
   -4.4051   14.9259    7.8554 C   0  0  1  0  0  0  0  0  0  0  0  0
   -5.8245   15.3993    7.5812 C   0  0  1  0  0  0  0  0  0  0  0  0
   -6.3118   16.1202    8.7475 N   0  0  0  0  0  0  0  0  0  0  0  0
   -5.8430   16.2997    6.3170 C   0  0  0  0  0  0  0  0  0  0  0  0
   -2.9376   14.1612    2.8671 C   0  0  0  0  0  0  0  0  0  0  0  0
   -3.1668   12.7203    2.4726 C   0  0  0  0  0  0  0  0  0  0  0  0
   -4.4406   12.1543    2.9625 N   0  0  0  0  0  0  0  0  0  0  0  0
   -5.8715   11.9957    3.3087 C   0  0  0  0  0  0  0  0  0  0  0  0
   -5.8549   10.4786    3.5346 C   0  0  0  0  0  0  0  0  0  0  0  0
   -5.7436    9.6915    2.2154 C   0  0  0  0  0  0  0  0  0  0  0  0
   -6.9722    9.9128    1.3387 C   0  0  0  0  0  0  0  0  0  0  0  0
   -6.8872    9.0886    0.1412 N   0  0  0  0  0  0  0  0  0  0  0  0
   -4.4750   21.7943    1.3344 N   0  0  0  0  0  0  0  0  0  0  0  0
   -4.1663   17.7714    4.0406 C   0  0  0  0  0  0  0  0  0  0  0  0
   -3.5196   18.1205    4.8305 O   0  0  0  0  0  0  0  0  0  0  0  0
   -4.5943   18.1814    2.6527 C   0  0  2  0  0  0  0  0  0  0  0  0
   -3.8087   17.5911    1.6955 O   0  0  0  0  0  0  0  0  0  0  0  0
   -4.3643   19.6848    2.5454 C   0  0  0  0  0  0  0  0  0  0  0  0
   -4.7940   20.3629    1.2318 C   0  0  0  0  0  0  0  0  0  0  0  0
  1  2  1  1  0  0  0
  1  3  1  0  0  0  0
  3  4  1  6  0  0  0
  3  5  1  0  0  0  0
  5  6  1  1  0  0  0
  5  7  1  0  0  0  0
  7  8  1  1  0  0  0
  9  7  1  0  0  0  0
  9 10  1  0  0  0  0
  9 11  1  1  0  0  0
 10  1  1  0  0  0  0
 11 12  1  0  0  0  0
 13 14  1  6  0  0  0
 13 15  1  0  0  0  0
 13 22  1  0  0  0  0
 14 32  1  0  0  0  0
 15 16  1  6  0  0  0
 15 17  1  0  0  0  0
 16 23  1  0  0  0  0
 17 18  1  1  0  0  0
 17 19  1  0  0  0  0
 19  2  1  1  0  0  0
 19 20  1  0  0  0  0
 20 21  1  1  0  0  0
 20 22  1  0  0  0  0
 23 24  1  0  0  0  0
 24 25  1  0  0  0  0
 25 26  1  0  0  0  0
 26 27  1  0  0  0  0
 27 28  1  0  0  0  0
 28 29  1  0  0  0  0
 29 30  1  0  0  0  0
 31 37  1  0  0  0  0
 32 33  2  0  0  0  0
 34 32  1  1  0  0  0
 34 35  1  0  0  0  0
 34 36  1  0  0  0  0
 36 37  1  0  0  0  0
M  END
>  <CHROM.1>
-161.54856249,-173.77331261,-58.16653237,69.96779745,-158.58579931,58.31976372
38.67492255,43.85596219,165.52519403,-73.22147407,-64.34870200,-176.09288517
-87.63138707,-177.04060334,-179.49096613,-4.31659058,14.66794520,6.34538801
0.96758797,1.34101288,2.30342270

>  <Name>
1o9m_lig

>  <RI>
0

>  <Rbt.Current_Directory>
/home/itssahil/PROJECTS/Mol_Feturizer/New_Systems/rnas/1o9m

>  <Rbt.Executable>
rbdock ($Id: //depot/dev/client3/rdock/2013.1/src/exe/rbdock.cxx#4 $)

>  <Rbt.Library>
libRbt.so (2013.1, Build901 2013/11/27)

>  <Rbt.Parameter_File>
/export/apps/rDock/src/rDock_2013.1_src/data/scripts/dock_solv.prm

>  <Rbt.Receptor>
prm/pocket_docking_8.prm

>  <SCORE>
-17.1084

>  <SCORE.INTER>
-10.6468

>  <SCORE.INTER.CONST>
1

>  <SCORE.INTER.POLAR>
-1.53224

>  <SCORE.INTER.ROT>
15

>  <SCORE.INTER.SOLV>
17.8282

>  <SCORE.INTER.VDW>
-21.5331

>  <SCORE.INTER.norm>
-0.287751

>  <SCORE.INTRA>
-6.46163

>  <SCORE.INTRA.DIHEDRAL>
-13.2868

>  <SCORE.INTRA.DIHEDRAL.0>
21.5987

>  <SCORE.INTRA.POLAR>
0

>  <SCORE.INTRA.POLAR.0>
0

>  <SCORE.INTRA.REPUL>
0

>  <SCORE.INTRA.REPUL.0>
0

>  <SCORE.INTRA.SOLV>
0.258187

>  <SCORE.INTRA.SOLV.lig_0>
-108.715

>  <SCORE.INTRA.VDW>
0.0526979

>  <SCORE.INTRA.VDW.0>
-3.9485

>  <SCORE.INTRA.norm>
-0.174639

>  <SCORE.RESTR>
0

>  <SCORE.RESTR.CAVITY>
0

>  <SCORE.RESTR.norm>
0

>  <SCORE.SYSTEM>
0

>  <SCORE.SYSTEM.CONST>
0

>  <SCORE.SYSTEM.DIHEDRAL>
0

>  <SCORE.SYSTEM.SOLV>
0

>  <SCORE.SYSTEM.norm>
0

>  <SCORE.heavy>
37

>  <SCORE.norm>
-0.46239

>  <RMSD>
9.119

$$$$
1o9m_lig
 OpenBabel11021811403D
libRbt.so/2013.1/901 2013/11/27
 37 38  0  0  0  0  0  0  0  0999 V2000
   -3.1271   16.5749   10.2366 C   0  0  2  0  0  0  0  0  0  0  0  0
   -3.8420   16.7978    8.9830 O   0  0  0  0  0  0  0  0  0  0  0  0
   -4.2254   16.3831   11.3462 C   0  0  2  0  0  0  0  0  0  0  0  0
   -5.1233   15.2527   11.0513 N   0  0  0  0  0  0  0  0  0  0  0  0
   -5.0440   17.7214   11.4969 C   0  0  1  0  0  0  0  0  0  0  0  0
   -6.0495   17.5728   12.5031 O   0  0  0  0  0  0  0  0  0  0  0  0
   -4.0377   18.8716   11.8314 C   0  0  2  0  0  0  0  0  0  0  0  0
   -4.6791   20.1495   11.9744 O   0  0  0  0  0  0  0  0  0  0  0  0
   -2.9476   18.9789   10.7365 C   0  0  2  0  0  0  0  0  0  0  0  0
   -2.2742   17.7240   10.5603 O   0  0  0  0  0  0  0  0  0  0  0  0
   -1.9324   20.0434   11.0635 C   0  0  0  0  0  0  0  0  0  0  0  0
   -2.4376   21.2882   10.7727 N   0  0  0  0  0  0  0  0  0  0  0  0
   -4.6978   14.3059    5.5364 C   0  0  1  0  0  0  0  0  0  0  0  0
   -5.2004   13.1613    4.7261 N   0  0  0  0  0  0  0  0  0  0  0  0
   -5.8738   14.9545    6.2539 C   0  0  2  0  0  0  0  0  0  0  0  0
   -6.8030   15.3461    5.2878 O   0  0  0  0  0  0  0  0  0  0  0  0
   -5.3958   16.1741    7.1035 C   0  0  1  0  0  0  0  0  0  0  0  0
   -6.5285   16.7739    7.8033 O   0  0  0  0  0  0  0  0  0  0  0  0
   -4.3347   15.6913    8.1743 C   0  0  1  0  0  0  0  0  0  0  0  0
   -3.1454   15.0581    7.4683 C   0  0  1  0  0  0  0  0  0  0  0  0
   -2.1769   14.6355    8.4687 N   0  0  0  0  0  0  0  0  0  0  0  0
   -3.6233   13.8577    6.6081 C   0  0  0  0  0  0  0  0  0  0  0  0
   -7.3215   15.9719    4.0936 C   0  0  0  0  0  0  0  0  0  0  0  0
   -8.8305   16.0137    4.1692 C   0  0  0  0  0  0  0  0  0  0  0  0
   -9.3636   17.0954    5.0229 N   0  0  0  0  0  0  0  0  0  0  0  0
   -9.8168   17.8645    6.2042 C   0  0  0  0  0  0  0  0  0  0  0  0
   -9.3587   19.2490    5.7283 C   0  0  0  0  0  0  0  0  0  0  0  0
   -9.7116   20.3602    6.7347 C   0  0  0  0  0  0  0  0  0  0  0  0
   -9.4093   21.7397    6.1578 C   0  0  0  0  0  0  0  0  0  0  0  0
   -9.6999   22.7695    7.1454 N   0  0  0  0  0  0  0  0  0  0  0  0
   -4.7658    9.5091   -0.1078 N   0  0  0  0  0  0  0  0  0  0  0  0
   -4.0026   12.6389    3.5265 C   0  0  0  0  0  0  0  0  0  0  0  0
   -3.0040   12.9492    3.2612 O   0  0  0  0  0  0  0  0  0  0  0  0
   -5.0348   11.6269    3.0928 C   0  0  2  0  0  0  0  0  0  0  0  0
   -5.1672   10.6236    4.0190 O   0  0  0  0  0  0  0  0  0  0  0  0
   -4.5106   10.9805    1.8153 C   0  0  0  0  0  0  0  0  0  0  0  0
   -5.4303    9.9574    1.1245 C   0  0  0  0  0  0  0  0  0  0  0  0
  1  2  1  6  0  0  0
  1  3  1  0  0  0  0
  3  4  1  6  0  0  0
  3  5  1  0  0  0  0
  5  6  1  1  0  0  0
  5  7  1  0  0  0  0
  7  8  1  6  0  0  0
  9  7  1  0  0  0  0
  9 10  1  0  0  0  0
  9 11  1  1  0  0  0
 10  1  1  0  0  0  0
 11 12  1  0  0  0  0
 13 14  1  1  0  0  0
 13 15  1  0  0  0  0
 13 22  1  0  0  0  0
 14 32  1  0  0  0  0
 15 16  1  6  0  0  0
 15 17  1  0  0  0  0
 16 23  1  0  0  0  0
 17 18  1  1  0  0  0
 17 19  1  0  0  0  0
 19  2  1  6  0  0  0
 19 20  1  0  0  0  0
 20 21  1  1  0  0  0
 20 22  1  0  0  0  0
 23 24  1  0  0  0  0
 24 25  1  0  0  0  0
 25 26  1  0  0  0  0
 26 27  1  0  0  0  0
 27 28  1  0  0  0  0
 28 29  1  0  0  0  0
 29 30  1  0  0  0  0
 31 37  1  0  0  0  0
 32 33  2  0  0  0  0
 34 32  1  1  0  0  0
 34 35  1  0  0  0  0
 34 36  1  0  0  0  0
 36 37  1  0  0  0  0
M  END
>  <CHROM.1>
-83.96842767,-78.45925664,164.18809196,-51.48244462,-165.50932437,164.34562686
78.90948645,-83.90055479,145.23320782,178.53668018,-172.63393831,-177.72421454
-72.41306818,-176.64575553,177.39716325,-5.38581355,16.13752398,7.09376585
-1.55232076,0.64463598,-2.35230449

>  <Name>
1o9m_lig

>  <RI>
0

>  <Rbt.Current_Directory>
/home/itssahil/PROJECTS/Mol_Feturizer/New_Systems/rnas/1o9m

>  <Rbt.Executable>
rbdock ($Id: //depot/dev/client3/rdock/2013.1/src/exe/rbdock.cxx#4 $)

>  <Rbt.Library>
libRbt.so (2013.1, Build901 2013/11/27)

>  <Rbt.Parameter_File>
/export/apps/rDock/src/rDock_2013.1_src/data/scripts/dock_solv.prm

>  <Rbt.Receptor>
prm/pocket_docking_5.prm

>  <SCORE>
-16.5787

>  <SCORE.INTER>
-11.8854

>  <SCORE.INTER.CONST>
1

>  <SCORE.INTER.POLAR>
-2.54771

>  <SCORE.INTER.ROT>
15

>  <SCORE.INTER.SOLV>
15.9015

>  <SCORE.INTER.VDW>
-18.3317

>  <SCORE.INTER.norm>
-0.321227

>  <SCORE.INTRA>
-4.69327

>  <SCORE.INTRA.DIHEDRAL>
-11.7061

>  <SCORE.INTRA.DIHEDRAL.0>
21.5987

>  <SCORE.INTRA.POLAR>
0

>  <SCORE.INTRA.POLAR.0>
0

>  <SCORE.INTRA.REPUL>
0

>  <SCORE.INTRA.REPUL.0>
0

>  <SCORE.INTRA.SOLV>
2.2209

>  <SCORE.INTRA.SOLV.lig_0>
-108.715

>  <SCORE.INTRA.VDW>
0.0493412

>  <SCORE.INTRA.VDW.0>
-3.9485

>  <SCORE.INTRA.norm>
-0.126845

>  <SCORE.RESTR>
0

>  <SCORE.RESTR.CAVITY>
0

>  <SCORE.RESTR.norm>
0

>  <SCORE.SYSTEM>
0

>  <SCORE.SYSTEM.CONST>
0

>  <SCORE.SYSTEM.DIHEDRAL>
0

>  <SCORE.SYSTEM.SOLV>
0

>  <SCORE.SYSTEM.norm>
0

>  <SCORE.heavy>
37

>  <SCORE.norm>
-0.448072

>  <RMSD>
9.132

$$$$
1o9m_lig
 OpenBabel11021811403D
libRbt.so/2013.1/901 2013/11/27
 37 38  0  0  0  0  0  0  0  0999 V2000
   -5.5885   16.4480   10.2279 C   0  0  2  0  0  0  0  0  0  0  0  0
   -4.6013   16.5955    9.1620 O   0  0  0  0  0  0  0  0  0  0  0  0
   -5.4521   17.7231   11.1390 C   0  0  2  0  0  0  0  0  0  0  0  0
   -5.6792   18.9705   10.3883 N   0  0  0  0  0  0  0  0  0  0  0  0
   -4.0256   17.7268   11.8089 C   0  0  1  0  0  0  0  0  0  0  0  0
   -3.8775   18.8776   12.6452 O   0  0  0  0  0  0  0  0  0  0  0  0
   -3.8595   16.3909   12.6059 C   0  0  2  0  0  0  0  0  0  0  0  0
   -2.5786   16.2801   13.2477 O   0  0  0  0  0  0  0  0  0  0  0  0
   -4.0589   15.1705   11.6735 C   0  0  2  0  0  0  0  0  0  0  0  0
   -5.3305   15.2347   11.0115 O   0  0  0  0  0  0  0  0  0  0  0  0
   -3.9595   13.8703   12.4286 C   0  0  0  0  0  0  0  0  0  0  0  0
   -4.0435   12.8081   11.5603 N   0  0  0  0  0  0  0  0  0  0  0  0
   -4.6472   15.5404    4.9543 C   0  0  1  0  0  0  0  0  0  0  0  0
   -4.7021   14.7084    3.7197 N   0  0  0  0  0  0  0  0  0  0  0  0
   -5.9202   15.3123    5.7579 C   0  0  2  0  0  0  0  0  0  0  0  0
   -7.0067   15.6325    4.9411 O   0  0  0  0  0  0  0  0  0  0  0  0
   -5.9152   16.1806    7.0555 C   0  0  1  0  0  0  0  0  0  0  0  0
   -7.1303   15.9370    7.8279 O   0  0  0  0  0  0  0  0  0  0  0  0
   -4.6627   15.7984    7.9447 C   0  0  1  0  0  0  0  0  0  0  0  0
   -3.3830   16.0400    7.1587 C   0  0  1  0  0  0  0  0  0  0  0  0
   -2.2451   15.6970    7.9986 N   0  0  0  0  0  0  0  0  0  0  0  0
   -3.3966   15.1917    5.8589 C   0  0  0  0  0  0  0  0  0  0  0  0
   -8.3827   15.7975    4.5337 C   0  0  0  0  0  0  0  0  0  0  0  0
   -9.0376   16.8436    5.4062 C   0  0  0  0  0  0  0  0  0  0  0  0
  -10.4084   17.2058    4.9908 N   0  0  0  0  0  0  0  0  0  0  0  0
  -11.8813   17.2056    4.8390 C   0  0  0  0  0  0  0  0  0  0  0  0
  -11.9521   18.0785    3.5797 C   0  0  0  0  0  0  0  0  0  0  0  0
  -11.5216   19.5323    3.8502 C   0  0  0  0  0  0  0  0  0  0  0  0
  -11.7673   20.4139    2.6296 C   0  0  0  0  0  0  0  0  0  0  0  0
  -10.9477   19.9629    1.5138 N   0  0  0  0  0  0  0  0  0  0  0  0
   -4.0501   10.9168    0.2511 N   0  0  0  0  0  0  0  0  0  0  0  0
   -4.8448   12.9827    4.1050 C   0  0  0  0  0  0  0  0  0  0  0  0
   -4.9109   12.4078    5.0155 O   0  0  0  0  0  0  0  0  0  0  0  0
   -4.8091   12.7554    2.6134 C   0  0  2  0  0  0  0  0  0  0  0  0
   -5.7835   11.8727    2.2217 O   0  0  0  0  0  0  0  0  0  0  0  0
   -3.4690   12.1003    2.2981 C   0  0  0  0  0  0  0  0  0  0  0  0
   -3.1205   11.9085    0.8109 C   0  0  0  0  0  0  0  0  0  0  0  0
  1  2  1  6  0  0  0
  1  3  1  0  0  0  0
  3  4  1  6  0  0  0
  3  5  1  0  0  0  0
  5  6  1  1  0  0  0
  5  7  1  0  0  0  0
  7  8  1  6  0  0  0
  9  7  1  0  0  0  0
  9 10  1  0  0  0  0
  9 11  1  1  0  0  0
 10  1  1  0  0  0  0
 11 12  1  0  0  0  0
 13 14  1  6  0  0  0
 13 15  1  0  0  0  0
 13 22  1  0  0  0  0
 14 32  1  0  0  0  0
 15 16  1  6  0  0  0
 15 17  1  0  0  0  0
 16 23  1  0  0  0  0
 17 18  1  1  0  0  0
 17 19  1  0  0  0  0
 19  2  1  1  0  0  0
 19 20  1  0  0  0  0
 20 21  1  1  0  0  0
 20 22  1  0  0  0  0
 23 24  1  0  0  0  0
 24 25  1  0  0  0  0
 25 26  1  0  0  0  0
 26 27  1  0  0  0  0
 27 28  1  0  0  0  0
 28 29  1  0  0  0  0
 29 30  1  0  0  0  0
 31 37  1  0  0  0  0
 32 33  2  0  0  0  0
 34 32  1  1  0  0  0
 34 35  1  0  0  0  0
 34 36  1  0  0  0  0
 36 37  1  0  0  0  0
M  END
>  <CHROM.1>
-163.68253115,-175.63971375,-59.58334058,177.33930283,64.21570180,68.01417426
173.73651884,86.34303437,-161.98534755,-67.86468519,-172.89747468,-63.32972834
-134.05323769,-173.30292033,-67.33306060,-5.92322814,15.72821018,6.77070201
0.98882831,-0.66938773,1.13467434

>  <Name>
1o9m_lig

>  <RI>
0

>  <Rbt.Current_Directory>
/home/itssahil/PROJECTS/Mol_Feturizer/New_Systems/rnas/1o9m

>  <Rbt.Executable>
rbdock ($Id: //depot/dev/client3/rdock/2013.1/src/exe/rbdock.cxx#4 $)

>  <Rbt.Library>
libRbt.so (2013.1, Build901 2013/11/27)

>  <Rbt.Parameter_File>
/export/apps/rDock/src/rDock_2013.1_src/data/scripts/dock_solv.prm

>  <Rbt.Receptor>
prm/pocket_docking_6.prm

>  <SCORE>
-18.074

>  <SCORE.INTER>
-10.9207

>  <SCORE.INTER.CONST>
1

>  <SCORE.INTER.POLAR>
-1.68643

>  <SCORE.INTER.ROT>
15

>  <SCORE.INTER.SOLV>
11.302

>  <SCORE.INTER.VDW>
-19.0264

>  <SCORE.INTER.norm>
-0.295153

>  <SCORE.INTRA>
-7.15331

>  <SCORE.INTRA.DIHEDRAL>
-15.7731

>  <SCORE.INTRA.DIHEDRAL.0>
21.5987

>  <SCORE.INTRA.POLAR>
0

>  <SCORE.INTRA.POLAR.0>
0

>  <SCORE.INTRA.REPUL>
0

>  <SCORE.INTRA.REPUL.0>
0

>  <SCORE.INTRA.SOLV>
1.70303

>  <SCORE.INTRA.SOLV.lig_0>
-108.715

>  <SCORE.INTRA.VDW>
-0.118281

>  <SCORE.INTRA.VDW.0>
-3.9485

>  <SCORE.INTRA.norm>
-0.193333

>  <SCORE.RESTR>
0

>  <SCORE.RESTR.CAVITY>
0

>  <SCORE.RESTR.norm>
0

>  <SCORE.SYSTEM>
0

>  <SCORE.SYSTEM.CONST>
0

>  <SCORE.SYSTEM.DIHEDRAL>
0

>  <SCORE.SYSTEM.SOLV>
0

>  <SCORE.SYSTEM.norm>
0

>  <SCORE.heavy>
37

>  <SCORE.norm>
-0.488486

>  <RMSD>
9.139

$$$$
1o9m_lig
 OpenBabel11021811403D
libRbt.so/2013.1/901 2013/11/27
 37 38  0  0  0  0  0  0  0  0999 V2000
  -12.3223   17.7331    4.5835 C   0  0  2  0  0  0  0  0  0  0  0  0
  -11.4635   18.7074    5.2510 O   0  0  0  0  0  0  0  0  0  0  0  0
  -13.0328   18.4993    3.4077 C   0  0  2  0  0  0  0  0  0  0  0  0
  -12.0675   19.0793    2.4576 N   0  0  0  0  0  0  0  0  0  0  0  0
  -13.9633   19.6190    4.0111 C   0  0  1  0  0  0  0  0  0  0  0  0
  -14.6232   20.3300    2.9601 O   0  0  0  0  0  0  0  0  0  0  0  0
  -14.9752   18.9353    4.9890 C   0  0  2  0  0  0  0  0  0  0  0  0
  -15.8674   19.8728    5.6134 O   0  0  0  0  0  0  0  0  0  0  0  0
  -14.2231   18.1501    6.0918 C   0  0  2  0  0  0  0  0  0  0  0  0
  -13.3204   17.1953    5.5148 O   0  0  0  0  0  0  0  0  0  0  0  0
  -15.1756   17.4351    7.0148 C   0  0  0  0  0  0  0  0  0  0  0  0
  -15.9106   18.3444    7.7375 N   0  0  0  0  0  0  0  0  0  0  0  0
   -7.6984   18.1922    7.3435 C   0  0  1  0  0  0  0  0  0  0  0  0
   -6.7252   17.7856    8.3958 N   0  0  0  0  0  0  0  0  0  0  0  0
   -8.3871   16.9464    6.8029 C   0  0  2  0  0  0  0  0  0  0  0  0
   -7.3996   16.0858    6.3190 O   0  0  0  0  0  0  0  0  0  0  0  0
   -9.4056   17.3233    5.6812 C   0  0  1  0  0  0  0  0  0  0  0  0
  -10.0749   16.1235    5.1863 O   0  0  0  0  0  0  0  0  0  0  0  0
  -10.4972   18.3097    6.2654 C   0  0  1  0  0  0  0  0  0  0  0  0
   -9.8226   19.5673    6.7918 C   0  0  1  0  0  0  0  0  0  0  0  0
  -10.8438   20.4653    7.3097 N   0  0  0  0  0  0  0  0  0  0  0  0
   -8.7957   19.1909    7.8933 C   0  0  0  0  0  0  0  0  0  0  0  0
   -6.8049   15.0083    5.5627 C   0  0  0  0  0  0  0  0  0  0  0  0
   -5.4360   14.7020    6.1255 C   0  0  0  0  0  0  0  0  0  0  0  0
   -4.7435   13.5817    5.4559 N   0  0  0  0  0  0  0  0  0  0  0  0
   -3.8684   12.8081    4.5459 C   0  0  0  0  0  0  0  0  0  0  0  0
   -4.9545   12.3555    3.5619 C   0  0  0  0  0  0  0  0  0  0  0  0
   -4.4016   11.4219    2.4687 C   0  0  0  0  0  0  0  0  0  0  0  0
   -3.3872   12.1465    1.5894 C   0  0  0  0  0  0  0  0  0  0  0  0
   -3.1299   11.3743    0.3820 N   0  0  0  0  0  0  0  0  0  0  0  0
   -4.6123   18.6381   12.5105 N   0  0  0  0  0  0  0  0  0  0  0  0
   -7.5343   16.9759    9.7510 C   0  0  0  0  0  0  0  0  0  0  0  0
   -8.5536   16.7051    9.9786 O   0  0  0  0  0  0  0  0  0  0  0  0
   -6.1643   16.8878   10.3778 C   0  0  2  0  0  0  0  0  0  0  0  0
   -5.6088   15.6481   10.1864 O   0  0  0  0  0  0  0  0  0  0  0  0
   -6.3543   17.0577   11.8811 C   0  0  0  0  0  0  0  0  0  0  0  0
   -5.0830   17.2620   12.7249 C   0  0  0  0  0  0  0  0  0  0  0  0
  1  2  1  1  0  0  0
  1  3  1  0  0  0  0
  3  4  1  6  0  0  0
  3  5  1  0  0  0  0
  5  6  1  6  0  0  0
  5  7  1  0  0  0  0
  7  8  1  1  0  0  0
  9  7  1  0  0  0  0
  9 10  1  0  0  0  0
  9 11  1  1  0  0  0
 10  1  1  0  0  0  0
 11 12  1  0  0  0  0
 13 14  1  1  0  0  0
 13 15  1  0  0  0  0
 13 22  1  0  0  0  0
 14 32  1  0  0  0  0
 15 16  1  6  0  0  0
 15 17  1  0  0  0  0
 16 23  1  0  0  0  0
 17 18  1  1  0  0  0
 17 19  1  0  0  0  0
 19  2  1  6  0  0  0
 19 20  1  0  0  0  0
 20 21  1  1  0  0  0
 20 22  1  0  0  0  0
 23 24  1  0  0  0  0
 24 25  1  0  0  0  0
 25 26  1  0  0  0  0
 26 27  1  0  0  0  0
 27 28  1  0  0  0  0
 28 29  1  0  0  0  0
 29 30  1  0  0  0  0
 31 37  1  0  0  0  0
 32 33  2  0  0  0  0
 34 32  1  6  0  0  0
 34 35  1  0  0  0  0
 34 36  1  0  0  0  0
 36 37  1  0  0  0  0
M  END
>  <CHROM.1>
-170.62256697,-66.41440533,-61.01399582,-159.93772415,-164.74360622,61.72618709
178.16948242,94.64713333,-101.16620670,-176.74764746,-64.02151421,-165.88194719
-99.07089721,-169.19379465,75.03368589,-9.13453381,16.92409611,6.33832752
2.99881669,-0.47122157,1.15557366

>  <Name>
1o9m_lig

>  <RI>
0

>  <Rbt.Current_Directory>
/home/itssahil/PROJECTS/Mol_Feturizer/New_Systems/rnas/1o9m

>  <Rbt.Executable>
rbdock ($Id: //depot/dev/client3/rdock/2013.1/src/exe/rbdock.cxx#4 $)

>  <Rbt.Library>
libRbt.so (2013.1, Build901 2013/11/27)

>  <Rbt.Parameter_File>
/export/apps/rDock/src/rDock_2013.1_src/data/scripts/dock_solv.prm

>  <Rbt.Receptor>
prm/pocket_docking_7.prm

>  <SCORE>
-20.8403

>  <SCORE.INTER>
-15.3125

>  <SCORE.INTER.CONST>
1

>  <SCORE.INTER.POLAR>
-1.65341

>  <SCORE.INTER.ROT>
15

>  <SCORE.INTER.SOLV>
18.6151

>  <SCORE.INTER.VDW>
-24.502

>  <SCORE.INTER.norm>
-0.41385

>  <SCORE.INTRA>
-5.52781

>  <SCORE.INTRA.DIHEDRAL>
-12.5468

>  <SCORE.INTRA.DIHEDRAL.0>
21.5987

>  <SCORE.INTRA.POLAR>
0

>  <SCORE.INTRA.POLAR.0>
0

>  <SCORE.INTRA.REPUL>
0

>  <SCORE.INTRA.REPUL.0>
0

>  <SCORE.INTRA.SOLV>
0.394567

>  <SCORE.INTRA.SOLV.lig_0>
-108.715

>  <SCORE.INTRA.VDW>
0.54828

>  <SCORE.INTRA.VDW.0>
-3.9485

>  <SCORE.INTRA.norm>
-0.1494

>  <SCORE.RESTR>
0

>  <SCORE.RESTR.CAVITY>
0

>  <SCORE.RESTR.norm>
0

>  <SCORE.SYSTEM>
0

>  <SCORE.SYSTEM.CONST>
0

>  <SCORE.SYSTEM.DIHEDRAL>
0

>  <SCORE.SYSTEM.SOLV>
0

>  <SCORE.SYSTEM.norm>
0

>  <SCORE.heavy>
37

>  <SCORE.norm>
-0.563251

>  <RMSD>
9.141

$$$$
1o9m_lig
 OpenBabel11021811403D
libRbt.so/2013.1/901 2013/11/27
 37 38  0  0  0  0  0  0  0  0999 V2000
  -13.6722   21.0004    6.0239 C   0  0  2  0  0  0  0  0  0  0  0  0
  -12.7350   20.3888    6.9619 O   0  0  0  0  0  0  0  0  0  0  0  0
  -13.2412   22.5068    5.8842 C   0  0  2  0  0  0  0  0  0  0  0  0
  -11.8561   22.6470    5.4016 N   0  0  0  0  0  0  0  0  0  0  0  0
  -13.4229   23.2253    7.2751 C   0  0  1  0  0  0  0  0  0  0  0  0
  -13.0386   24.5992    7.1734 O   0  0  0  0  0  0  0  0  0  0  0  0
  -14.9146   23.0593    7.7165 C   0  0  2  0  0  0  0  0  0  0  0  0
  -15.1902   23.6666    8.9894 O   0  0  0  0  0  0  0  0  0  0  0  0
  -15.3008   21.5611    7.7832 C   0  0  2  0  0  0  0  0  0  0  0  0
  -15.0467   20.9109    6.5294 O   0  0  0  0  0  0  0  0  0  0  0  0
  -16.7499   21.3751    8.1521 C   0  0  0  0  0  0  0  0  0  0  0  0
  -16.9841   20.0713    8.5189 N   0  0  0  0  0  0  0  0  0  0  0  0
   -9.4049   17.6335    6.5885 C   0  0  1  0  0  0  0  0  0  0  0  0
   -8.1210   17.0444    6.1151 N   0  0  0  0  0  0  0  0  0  0  0  0
   -9.1264   19.0086    7.1800 C   0  0  2  0  0  0  0  0  0  0  0  0
   -8.1943   18.8530    8.2082 O   0  0  0  0  0  0  0  0  0  0  0  0
  -10.4445   19.6583    7.7076 C   0  0  1  0  0  0  0  0  0  0  0  0
  -10.1681   20.9847    8.2523 O   0  0  0  0  0  0  0  0  0  0  0  0
  -11.4779   19.8031    6.5173 C   0  0  1  0  0  0  0  0  0  0  0  0
  -11.7788   18.4325    5.9299 C   0  0  1  0  0  0  0  0  0  0  0  0
  -12.7406   18.5866    4.8489 N   0  0  0  0  0  0  0  0  0  0  0  0
  -10.4655   17.7783    5.4233 C   0  0  0  0  0  0  0  0  0  0  0  0
   -7.6335   18.4017    9.4605 C   0  0  0  0  0  0  0  0  0  0  0  0
   -6.2132   18.9048    9.5794 C   0  0  0  0  0  0  0  0  0  0  0  0
   -6.1020   20.3685    9.7471 N   0  0  0  0  0  0  0  0  0  0  0  0
   -6.1023   21.8228    9.4689 C   0  0  0  0  0  0  0  0  0  0  0  0
   -5.2006   22.2489   10.6344 C   0  0  0  0  0  0  0  0  0  0  0  0
   -3.7078   22.0155   10.3351 C   0  0  0  0  0  0  0  0  0  0  0  0
   -3.3166   20.5637   10.5929 C   0  0  0  0  0  0  0  0  0  0  0  0
   -1.8699   20.4151   10.5202 N   0  0  0  0  0  0  0  0  0  0  0  0
   -3.1472   16.1974    6.1603 N   0  0  0  0  0  0  0  0  0  0  0  0
   -7.3409   16.0815    7.3844 C   0  0  0  0  0  0  0  0  0  0  0  0
   -7.5858   15.8202    8.4021 O   0  0  0  0  0  0  0  0  0  0  0  0
   -6.2349   15.8528    6.3834 C   0  0  2  0  0  0  0  0  0  0  0  0
   -6.6439   15.0210    5.3720 O   0  0  0  0  0  0  0  0  0  0  0  0
   -5.1134   15.1301    7.1213 C   0  0  0  0  0  0  0  0  0  0  0  0
   -3.8058   14.8959    6.3434 C   0  0  0  0  0  0  0  0  0  0  0  0
  1  2  1  1  0  0  0
  1  3  1  0  0  0  0
  3  4  1  1  0  0  0
  3  5  1  0  0  0  0
  5  6  1  6  0  0  0
  5  7  1  0  0  0  0
  7  8  1  1  0  0  0
  9  7  1  0  0  0  0
  9 10  1  0  0  0  0
  9 11  1  6  0  0  0
 10  1  1  0  0  0  0
 11 12  1  0  0  0  0
 13 14  1  6  0  0  0
 13 15  1  0  0  0  0
 13 22  1  0  0  0  0
 14 32  1  0  0  0  0
 15 16  1  1  0  0  0
 15 17  1  0  0  0  0
 16 23  1  0  0  0  0
 17 18  1  6  0  0  0
 17 19  1  0  0  0  0
 19  2  1  1  0  0  0
 19 20  1  0  0  0  0
 20 21  1  6  0  0  0
 20 22  1  0  0  0  0
 23 24  1  0  0  0  0
 24 25  1  0  0  0  0
 25 26  1  0  0  0  0
 26 27  1  0  0  0  0
 27 28  1  0  0  0  0
 28 29  1  0  0  0  0
 29 30  1  0  0  0  0
 31 37  1  0  0  0  0
 32 33  2  0  0  0  0
 34 32  1  1  0  0  0
 34 35  1  0  0  0  0
 34 36  1  0  0  0  0
 36 37  1  0  0  0  0
M  END
>  <CHROM.1>
-88.09615378,-165.42909554,90.88194584,-62.11849246,177.50118367,160.67934246
68.44161459,-73.90514151,-157.86065658,79.83338456,-81.87642711,-170.59049304
-70.90900972,-174.49098909,70.00843405,-9.57856240,19.65072049,7.60027486
2.85034786,-0.28014231,0.49909012

>  <Name>
1o9m_lig

>  <RI>
0

>  <Rbt.Current_Directory>
/home/itssahil/PROJECTS/Mol_Feturizer/New_Systems/rnas/1o9m

>  <Rbt.Executable>
rbdock ($Id: //depot/dev/client3/rdock/2013.1/src/exe/rbdock.cxx#4 $)

>  <Rbt.Library>
libRbt.so (2013.1, Build901 2013/11/27)

>  <Rbt.Parameter_File>
/export/apps/rDock/src/rDock_2013.1_src/data/scripts/dock_solv.prm

>  <Rbt.Receptor>
prm/pocket_docking_3.prm

>  <SCORE>
-1.33763

>  <SCORE.INTER>
0.366306

>  <SCORE.INTER.CONST>
1

>  <SCORE.INTER.POLAR>
-0.531754

>  <SCORE.INTER.ROT>
15

>  <SCORE.INTER.SOLV>
8.48168

>  <SCORE.INTER.VDW>
-14.4105

>  <SCORE.INTER.norm>
0.00990016

>  <SCORE.INTRA>
-2.29942

>  <SCORE.INTRA.DIHEDRAL>
-9.63834

>  <SCORE.INTRA.DIHEDRAL.0>
21.5987

>  <SCORE.INTRA.POLAR>
0

>  <SCORE.INTRA.POLAR.0>
0

>  <SCORE.INTRA.REPUL>
0

>  <SCORE.INTRA.REPUL.0>
0

>  <SCORE.INTRA.SOLV>
4.10813

>  <SCORE.INTRA.SOLV.lig_0>
-108.715

>  <SCORE.INTRA.VDW>
0.465679

>  <SCORE.INTRA.VDW.0>
-3.9485

>  <SCORE.INTRA.norm>
-0.0621466

>  <SCORE.RESTR>
0.595493

>  <SCORE.RESTR.CAVITY>
0.595493

>  <SCORE.RESTR.norm>
0.0160944

>  <SCORE.SYSTEM>
0

>  <SCORE.SYSTEM.CONST>
0

>  <SCORE.SYSTEM.DIHEDRAL>
0

>  <SCORE.SYSTEM.SOLV>
0

>  <SCORE.SYSTEM.norm>
0

>  <SCORE.heavy>
37

>  <SCORE.norm>
-0.0361521

>  <RMSD>
9.149

$$$$
1o9m_lig
 OpenBabel11021811403D
libRbt.so/2013.1/901 2013/11/27
 37 38  0  0  0  0  0  0  0  0999 V2000
   -1.5028   15.0658   13.0820 C   0  0  2  0  0  0  0  0  0  0  0  0
   -2.8502   15.5862   13.2964 O   0  0  0  0  0  0  0  0  0  0  0  0
   -1.1368   14.2376   14.3684 C   0  0  2  0  0  0  0  0  0  0  0  0
   -2.0868   13.1379   14.6114 N   0  0  0  0  0  0  0  0  0  0  0  0
   -1.0798   15.2098   15.6075 C   0  0  1  0  0  0  0  0  0  0  0  0
   -0.7464   14.4796   16.7912 O   0  0  0  0  0  0  0  0  0  0  0  0
   -0.0398   16.3358   15.2943 C   0  0  2  0  0  0  0  0  0  0  0  0
    0.0811   17.2947   16.3578 O   0  0  0  0  0  0  0  0  0  0  0  0
   -0.4175   17.0806   13.9900 C   0  0  2  0  0  0  0  0  0  0  0  0
   -0.5456   16.1619   12.8951 O   0  0  0  0  0  0  0  0  0  0  0  0
    0.5998   18.1341   13.6354 C   0  0  0  0  0  0  0  0  0  0  0  0
    0.2134   18.8057   12.5001 N   0  0  0  0  0  0  0  0  0  0  0  0
   -5.9998   16.7316   10.5416 C   0  0  1  0  0  0  0  0  0  0  0  0
   -6.7259   17.4799    9.4775 N   0  0  0  0  0  0  0  0  0  0  0  0
   -4.7134   16.1664    9.9548 C   0  0  2  0  0  0  0  0  0  0  0  0
   -5.0556   15.3597    8.8675 O   0  0  0  0  0  0  0  0  0  0  0  0
   -3.9262   15.3561   11.0324 C   0  0  1  0  0  0  0  0  0  0  0  0
   -2.6848   14.8379   10.4641 O   0  0  0  0  0  0  0  0  0  0  0  0
   -3.5711   16.3007   12.2520 C   0  0  1  0  0  0  0  0  0  0  0  0
   -4.8502   16.8570   12.8590 C   0  0  1  0  0  0  0  0  0  0  0  0
   -4.5023   17.7093   13.9859 N   0  0  0  0  0  0  0  0  0  0  0  0
   -5.6427   17.6460   11.7825 C   0  0  0  0  0  0  0  0  0  0  0  0
   -4.9578   14.7421    7.5654 C   0  0  0  0  0  0  0  0  0  0  0  0
   -3.5652   14.1835    7.3833 C   0  0  0  0  0  0  0  0  0  0  0  0
   -3.0764   14.2198    5.9895 N   0  0  0  0  0  0  0  0  0  0  0  0
   -2.6935   14.7011    4.6426 C   0  0  0  0  0  0  0  0  0  0  0  0
   -2.9926   13.4066    3.8759 C   0  0  0  0  0  0  0  0  0  0  0  0
   -4.5038   13.1392    3.7456 C   0  0  0  0  0  0  0  0  0  0  0  0
   -4.7677   11.7826    3.0998 C   0  0  0  0  0  0  0  0  0  0  0  0
   -6.1979   11.5916    2.9038 N   0  0  0  0  0  0  0  0  0  0  0  0
   -9.8393   20.4207    6.6328 N   0  0  0  0  0  0  0  0  0  0  0  0
   -8.4761   17.4859    9.7664 C   0  0  0  0  0  0  0  0  0  0  0  0
   -9.1239   17.0866   10.5312 O   0  0  0  0  0  0  0  0  0  0  0  0
   -8.5792   18.2629    8.4767 C   0  0  2  0  0  0  0  0  0  0  0  0
   -7.8343   19.4137    8.5288 O   0  0  0  0  0  0  0  0  0  0  0  0
  -10.0363   18.6878    8.3319 C   0  0  0  0  0  0  0  0  0  0  0  0
  -10.4943   19.1393    6.9333 C   0  0  0  0  0  0  0  0  0  0  0  0
  1  2  1  1  0  0  0
  1  3  1  0  0  0  0
  3  4  1  1  0  0  0
  3  5  1  0  0  0  0
  5  6  1  1  0  0  0
  5  7  1  0  0  0  0
  7  8  1  1  0  0  0
  9  7  1  0  0  0  0
  9 10  1  0  0  0  0
  9 11  1  6  0  0  0
 10  1  1  0  0  0  0
 11 12  1  0  0  0  0
 13 14  1  6  0  0  0
 13 15  1  0  0  0  0
 13 22  1  0  0  0  0
 14 32  1  0  0  0  0
 15 16  1  6  0  0  0
 15 17  1  0  0  0  0
 16 23  1  0  0  0  0
 17 18  1  6  0  0  0
 17 19  1  0  0  0  0
 19  2  1  1  0  0  0
 19 20  1  0  0  0  0
 20 21  1  1  0  0  0
 20 22  1  0  0  0  0
 23 24  1  0  0  0  0
 24 25  1  0  0  0  0
 25 26  1  0  0  0  0
 26 27  1  0  0  0  0
 27 28  1  0  0  0  0
 28 29  1  0  0  0  0
 29 30  1  0  0  0  0
 31 37  1  0  0  0  0
 32 33  2  0  0  0  0
 34 32  1  1  0  0  0
 34 35  1  0  0  0  0
 34 36  1  0  0  0  0
 36 37  1  0  0  0  0
M  END
>  <CHROM.1>
-174.05689136,-177.99184739,152.23838564,143.48266530,48.76601772,66.57321641
-147.61820746,54.70259300,-149.59706596,72.05201671,-174.50768580,-176.12787610
-57.37079933,-163.07894855,-69.06201513,-4.15612131,16.05969194,10.33924690
-0.85420208,0.55681893,-2.03904318

>  <Name>
1o9m_lig

>  <RI>
0

>  <Rbt.Current_Directory>
/home/itssahil/PROJECTS/Mol_Feturizer/New_Systems/rnas/1o9m

>  <Rbt.Executable>
rbdock ($Id: //depot/dev/client3/rdock/2013.1/src/exe/rbdock.cxx#4 $)

>  <Rbt.Library>
libRbt.so (2013.1, Build901 2013/11/27)

>  <Rbt.Parameter_File>
/export/apps/rDock/src/rDock_2013.1_src/data/scripts/dock_solv.prm

>  <Rbt.Receptor>
prm/pocket_docking_7.prm

>  <SCORE>
-10.7993

>  <SCORE.INTER>
-7.31269

>  <SCORE.INTER.CONST>
1

>  <SCORE.INTER.POLAR>
-0.637829

>  <SCORE.INTER.ROT>
15

>  <SCORE.INTER.SOLV>
17.5617

>  <SCORE.INTER.VDW>
-22.2029

>  <SCORE.INTER.norm>
-0.19764

>  <SCORE.INTRA>
-3.48659

>  <SCORE.INTRA.DIHEDRAL>
-8.6947

>  <SCORE.INTRA.DIHEDRAL.0>
21.5987

>  <SCORE.INTRA.POLAR>
0

>  <SCORE.INTRA.POLAR.0>
0

>  <SCORE.INTRA.REPUL>
0

>  <SCORE.INTRA.REPUL.0>
0

>  <SCORE.INTRA.SOLV>
0.101333

>  <SCORE.INTRA.SOLV.lig_0>
-108.715

>  <SCORE.INTRA.VDW>
0.810086

>  <SCORE.INTRA.VDW.0>
-3.9485

>  <SCORE.INTRA.norm>
-0.0942323

>  <SCORE.RESTR>
0

>  <SCORE.RESTR.CAVITY>
0

>  <SCORE.RESTR.norm>
0

>  <SCORE.SYSTEM>
0

>  <SCORE.SYSTEM.CONST>
0

>  <SCORE.SYSTEM.DIHEDRAL>
0

>  <SCORE.SYSTEM.SOLV>
0

>  <SCORE.SYSTEM.norm>
0

>  <SCORE.heavy>
37

>  <SCORE.norm>
-0.291873

>  <RMSD>
9.163

$$$$
1o9m_lig
 OpenBabel11021811403D
libRbt.so/2013.1/901 2013/11/27
 37 38  0  0  0  0  0  0  0  0999 V2000
   -3.2046   16.2927   10.8095 C   0  0  2  0  0  0  0  0  0  0  0  0
   -2.8222   16.8510    9.5156 O   0  0  0  0  0  0  0  0  0  0  0  0
   -4.7716   16.4010   10.8943 C   0  0  2  0  0  0  0  0  0  0  0  0
   -5.4397   15.6782    9.7978 N   0  0  0  0  0  0  0  0  0  0  0  0
   -5.1833   17.9223   10.8921 C   0  0  1  0  0  0  0  0  0  0  0  0
   -6.6059   18.0474   10.9704 O   0  0  0  0  0  0  0  0  0  0  0  0
   -4.4609   18.6229   12.0898 C   0  0  2  0  0  0  0  0  0  0  0  0
   -4.7538   20.0273   12.1733 O   0  0  0  0  0  0  0  0  0  0  0  0
   -2.9269   18.4374   11.9864 C   0  0  2  0  0  0  0  0  0  0  0  0
   -2.5841   17.0462   11.9049 O   0  0  0  0  0  0  0  0  0  0  0  0
   -2.2105   19.0555   13.1591 C   0  0  0  0  0  0  0  0  0  0  0  0
   -0.8500   18.9411   12.9998 N   0  0  0  0  0  0  0  0  0  0  0  0
   -1.9450   15.0338    5.6752 C   0  0  1  0  0  0  0  0  0  0  0  0
   -2.1328   14.2565    4.4181 N   0  0  0  0  0  0  0  0  0  0  0  0
   -2.9624   16.1661    5.7096 C   0  0  2  0  0  0  0  0  0  0  0  0
   -2.7789   16.9432    4.5639 O   0  0  0  0  0  0  0  0  0  0  0  0
   -2.7906   17.0215    7.0044 C   0  0  1  0  0  0  0  0  0  0  0  0
   -3.7852   18.0902    7.0365 O   0  0  0  0  0  0  0  0  0  0  0  0
   -2.9910   16.1026    8.2777 C   0  0  1  0  0  0  0  0  0  0  0  0
   -1.9672   14.9776    8.2643 C   0  0  1  0  0  0  0  0  0  0  0  0
   -2.1592   14.1550    9.4492 N   0  0  0  0  0  0  0  0  0  0  0  0
   -2.1250   14.1390    6.9677 C   0  0  0  0  0  0  0  0  0  0  0  0
   -2.1186   17.8122    3.6176 C   0  0  0  0  0  0  0  0  0  0  0  0
   -1.8772   19.1576    4.2625 C   0  0  0  0  0  0  0  0  0  0  0  0
   -0.9701   19.1158    5.4279 N   0  0  0  0  0  0  0  0  0  0  0  0
    0.2332   18.9330    6.2712 C   0  0  0  0  0  0  0  0  0  0  0  0
    0.1880   17.4020    6.3540 C   0  0  0  0  0  0  0  0  0  0  0  0
    1.1618   16.8438    7.4086 C   0  0  0  0  0  0  0  0  0  0  0  0
    0.7110   17.2086    8.8197 C   0  0  0  0  0  0  0  0  0  0  0  0
    1.6065   16.6118    9.8007 N   0  0  0  0  0  0  0  0  0  0  0  0
   -5.1977   10.2128    1.0513 N   0  0  0  0  0  0  0  0  0  0  0  0
   -3.5791   13.2325    4.4973 C   0  0  0  0  0  0  0  0  0  0  0  0
   -4.3483   13.0552    5.2328 O   0  0  0  0  0  0  0  0  0  0  0  0
   -3.1923   12.7624    3.1164 C   0  0  2  0  0  0  0  0  0  0  0  0
   -3.2199   13.7951    2.2138 O   0  0  0  0  0  0  0  0  0  0  0  0
   -4.2564   11.7635    2.6753 C   0  0  0  0  0  0  0  0  0  0  0  0
   -4.0031   11.0140    1.3548 C   0  0  0  0  0  0  0  0  0  0  0  0
  1  2  1  6  0  0  0
  1  3  1  0  0  0  0
  3  4  1  6  0  0  0
  3  5  1  0  0  0  0
  5  6  1  1  0  0  0
  5  7  1  0  0  0  0
  7  8  1  6  0  0  0
  9  7  1  0  0  0  0
  9 10  1  0  0  0  0
  9 11  1  1  0  0  0
 10  1  1  0  0  0  0
 11 12  1  0  0  0  0
 13 14  1  6  0  0  0
 13 15  1  0  0  0  0
 13 22  1  0  0  0  0
 14 32  1  0  0  0  0
 15 16  1  6  0  0  0
 15 17  1  0  0  0  0
 16 23  1  0  0  0  0
 17 18  1  6  0  0  0
 17 19  1  0  0  0  0
 19  2  1  1  0  0  0
 19 20  1  0  0  0  0
 20 21  1  1  0  0  0
 20 22  1  0  0  0  0
 23 24  1  0  0  0  0
 24 25  1  0  0  0  0
 25 26  1  0  0  0  0
 26 27  1  0  0  0  0
 27 28  1  0  0  0  0
 28 29  1  0  0  0  0
 29 30  1  0  0  0  0
 31 37  1  0  0  0  0
 32 33  2  0  0  0  0
 34 32  1  1  0  0  0
 34 35  1  0  0  0  0
 34 36  1  0  0  0  0
 36 37  1  0  0  0  0
M  END
>  <CHROM.1>
-77.04186085,-176.57225036,-74.53576055,-62.39824506,-65.72194985,168.11144768
63.24317420,63.11602093,-76.53079382,-168.63369343,68.46074437,177.02613178
-63.00340304,-173.25517896,-174.42775129,-2.73009116,16.21746453,7.47913421
1.51664433,0.59741490,1.06140736

>  <Name>
1o9m_lig

>  <RI>
0

>  <Rbt.Current_Directory>
/home/itssahil/PROJECTS/Mol_Feturizer/New_Systems/rnas/1o9m

>  <Rbt.Executable>
rbdock ($Id: //depot/dev/client3/rdock/2013.1/src/exe/rbdock.cxx#4 $)

>  <Rbt.Library>
libRbt.so (2013.1, Build901 2013/11/27)

>  <Rbt.Parameter_File>
/export/apps/rDock/src/rDock_2013.1_src/data/scripts/dock_solv.prm

>  <Rbt.Receptor>
prm/pocket_docking_8.prm

>  <SCORE>
-14.8741

>  <SCORE.INTER>
-7.93353

>  <SCORE.INTER.CONST>
1

>  <SCORE.INTER.POLAR>
-1.70333

>  <SCORE.INTER.ROT>
15

>  <SCORE.INTER.SOLV>
12.8604

>  <SCORE.INTER.VDW>
-17.4981

>  <SCORE.INTER.norm>
-0.21442

>  <SCORE.INTRA>
-6.94061

>  <SCORE.INTRA.DIHEDRAL>
-17.0218

>  <SCORE.INTRA.DIHEDRAL.0>
21.5987

>  <SCORE.INTRA.POLAR>
0

>  <SCORE.INTRA.POLAR.0>
0

>  <SCORE.INTRA.REPUL>
0

>  <SCORE.INTRA.REPUL.0>
0

>  <SCORE.INTRA.SOLV>
5.17981

>  <SCORE.INTRA.SOLV.lig_0>
-108.715

>  <SCORE.INTRA.VDW>
-1.01963

>  <SCORE.INTRA.VDW.0>
-3.9485

>  <SCORE.INTRA.norm>
-0.187584

>  <SCORE.RESTR>
0

>  <SCORE.RESTR.CAVITY>
0

>  <SCORE.RESTR.norm>
0

>  <SCORE.SYSTEM>
0

>  <SCORE.SYSTEM.CONST>
0

>  <SCORE.SYSTEM.DIHEDRAL>
0

>  <SCORE.SYSTEM.SOLV>
0

>  <SCORE.SYSTEM.norm>
0

>  <SCORE.heavy>
37

>  <SCORE.norm>
-0.402004

>  <RMSD>
9.167

$$$$
1o9m_lig
 OpenBabel11021811403D
libRbt.so/2013.1/901 2013/11/27
 37 38  0  0  0  0  0  0  0  0999 V2000
  -12.1623   18.4733    3.9408 C   0  0  2  0  0  0  0  0  0  0  0  0
  -11.2606   19.1175    4.8918 O   0  0  0  0  0  0  0  0  0  0  0  0
  -12.6478   19.5998    2.9561 C   0  0  2  0  0  0  0  0  0  0  0  0
  -11.5257   20.2463    2.2533 N   0  0  0  0  0  0  0  0  0  0  0  0
  -13.4871   20.6621    3.7629 C   0  0  1  0  0  0  0  0  0  0  0  0
  -13.9422   21.6976    2.8877 O   0  0  0  0  0  0  0  0  0  0  0  0
  -14.6709   19.9161    4.4627 C   0  0  2  0  0  0  0  0  0  0  0  0
  -15.4975   20.7930    5.2456 O   0  0  0  0  0  0  0  0  0  0  0  0
  -14.1394   18.7832    5.3750 C   0  0  2  0  0  0  0  0  0  0  0  0
  -13.3095   17.8767    4.6341 O   0  0  0  0  0  0  0  0  0  0  0  0
  -15.2630   18.0120    6.0179 C   0  0  0  0  0  0  0  0  0  0  0  0
  -14.7722   17.1876    7.0021 N   0  0  0  0  0  0  0  0  0  0  0  0
   -8.2621   17.7017    7.6891 C   0  0  1  0  0  0  0  0  0  0  0  0
   -7.6394   16.9409    8.8085 N   0  0  0  0  0  0  0  0  0  0  0  0
   -8.7974   16.7141    6.6612 C   0  0  2  0  0  0  0  0  0  0  0  0
   -7.7337   15.9128    6.2411 O   0  0  0  0  0  0  0  0  0  0  0  0
   -9.4444   17.4690    5.4573 C   0  0  1  0  0  0  0  0  0  0  0  0
   -9.9732   16.5118    4.4895 O   0  0  0  0  0  0  0  0  0  0  0  0
  -10.6335   18.3756    5.9768 C   0  0  1  0  0  0  0  0  0  0  0  0
  -10.1073   19.3797    6.9911 C   0  0  1  0  0  0  0  0  0  0  0  0
  -11.2121   20.2115    7.4439 N   0  0  0  0  0  0  0  0  0  0  0  0
   -9.4465   18.6297    8.1787 C   0  0  0  0  0  0  0  0  0  0  0  0
   -6.4193   15.5674    5.7518 C   0  0  0  0  0  0  0  0  0  0  0  0
   -6.4134   14.1182    5.3226 C   0  0  0  0  0  0  0  0  0  0  0  0
   -5.0631   13.5470    5.1398 N   0  0  0  0  0  0  0  0  0  0  0  0
   -3.7823   13.1257    4.5279 C   0  0  0  0  0  0  0  0  0  0  0  0
   -4.3584   12.0938    3.5500 C   0  0  0  0  0  0  0  0  0  0  0  0
   -3.6264   12.0991    2.1949 C   0  0  0  0  0  0  0  0  0  0  0  0
   -4.2422   11.0867    1.2341 C   0  0  0  0  0  0  0  0  0  0  0  0
   -3.4613   11.0226    0.0068 N   0  0  0  0  0  0  0  0  0  0  0  0
   -3.9853   18.3216   13.0544 N   0  0  0  0  0  0  0  0  0  0  0  0
   -7.2748   17.9957   10.1872 C   0  0  0  0  0  0  0  0  0  0  0  0
   -7.4090   19.0447   10.4011 O   0  0  0  0  0  0  0  0  0  0  0  0
   -6.7068   16.7619   10.8450 C   0  0  2  0  0  0  0  0  0  0  0  0
   -7.7042   15.9395   11.3042 O   0  0  0  0  0  0  0  0  0  0  0  0
   -5.9263   17.2322   12.0674 C   0  0  0  0  0  0  0  0  0  0  0  0
   -4.7779   18.2270   11.8199 C   0  0  0  0  0  0  0  0  0  0  0  0
  1  2  1  1  0  0  0
  1  3  1  0  0  0  0
  3  4  1  1  0  0  0
  3  5  1  0  0  0  0
  5  6  1  6  0  0  0
  5  7  1  0  0  0  0
  7  8  1  1  0  0  0
  9  7  1  0  0  0  0
  9 10  1  0  0  0  0
  9 11  1  6  0  0  0
 10  1  1  0  0  0  0
 11 12  1  0  0  0  0
 13 14  1  1  0  0  0
 13 15  1  0  0  0  0
 13 22  1  0  0  0  0
 14 32  1  0  0  0  0
 15 16  1  6  0  0  0
 15 17  1  0  0  0  0
 16 23  1  0  0  0  0
 17 18  1  6  0  0  0
 17 19  1  0  0  0  0
 19  2  1  6  0  0  0
 19 20  1  0  0  0  0
 20 21  1  1  0  0  0
 20 22  1  0  0  0  0
 23 24  1  0  0  0  0
 24 25  1  0  0  0  0
 25 26  1  0  0  0  0
 26 27  1  0  0  0  0
 27 28  1  0  0  0  0
 28 29  1  0  0  0  0
 29 30  1  0  0  0  0
 31 37  1  0  0  0  0
 32 33  2  0  0  0  0
 34 32  1  1  0  0  0
 34 35  1  0  0  0  0
 34 36  1  0  0  0  0
 36 37  1  0  0  0  0
M  END
>  <CHROM.1>
178.83272100,-168.82837632,-168.96710755,-49.66410817,-166.28452830,75.49936606
-164.77122962,-90.80166094,-65.14432708,142.16514268,-178.67665334,-174.86056310
-76.28885728,-58.27947259,-167.90791712,-9.13002502,17.20376270,6.17750676
2.99867879,-0.56188292,1.15554690

>  <Name>
1o9m_lig

>  <RI>
0

>  <Rbt.Current_Directory>
/home/itssahil/PROJECTS/Mol_Feturizer/New_Systems/rnas/1o9m

>  <Rbt.Executable>
rbdock ($Id: //depot/dev/client3/rdock/2013.1/src/exe/rbdock.cxx#4 $)

>  <Rbt.Library>
libRbt.so (2013.1, Build901 2013/11/27)

>  <Rbt.Parameter_File>
/export/apps/rDock/src/rDock_2013.1_src/data/scripts/dock_solv.prm

>  <Rbt.Receptor>
prm/pocket_docking_5.prm

>  <SCORE>
-14.9349

>  <SCORE.INTER>
-8.96728

>  <SCORE.INTER.CONST>
1

>  <SCORE.INTER.POLAR>
-0.906821

>  <SCORE.INTER.ROT>
15

>  <SCORE.INTER.SOLV>
19.3892

>  <SCORE.INTER.VDW>
-23.0185

>  <SCORE.INTER.norm>
-0.242359

>  <SCORE.INTRA>
-5.97202

>  <SCORE.INTRA.DIHEDRAL>
-11.5526

>  <SCORE.INTRA.DIHEDRAL.0>
21.5987

>  <SCORE.INTRA.POLAR>
0

>  <SCORE.INTRA.POLAR.0>
0

>  <SCORE.INTRA.REPUL>
0

>  <SCORE.INTRA.REPUL.0>
0

>  <SCORE.INTRA.SOLV>
-1.55548

>  <SCORE.INTRA.SOLV.lig_0>
-108.715

>  <SCORE.INTRA.VDW>
0.582009

>  <SCORE.INTRA.VDW.0>
-3.9485

>  <SCORE.INTRA.norm>
-0.161406

>  <SCORE.RESTR>
0.00442823

>  <SCORE.RESTR.CAVITY>
0.00442823

>  <SCORE.RESTR.norm>
0.000119682

>  <SCORE.SYSTEM>
0

>  <SCORE.SYSTEM.CONST>
0

>  <SCORE.SYSTEM.DIHEDRAL>
0

>  <SCORE.SYSTEM.SOLV>
0

>  <SCORE.SYSTEM.norm>
0

>  <SCORE.heavy>
37

>  <SCORE.norm>
-0.403645

>  <RMSD>
9.187

$$$$
1o9m_lig
 OpenBabel11021811403D
libRbt.so/2013.1/901 2013/11/27
 37 38  0  0  0  0  0  0  0  0999 V2000
   -9.7486   20.1069    8.4832 C   0  0  2  0  0  0  0  0  0  0  0  0
   -8.8736   19.0053    8.0920 O   0  0  0  0  0  0  0  0  0  0  0  0
  -11.0785   19.9309    7.6616 C   0  0  2  0  0  0  0  0  0  0  0  0
  -11.7266   18.6337    7.9227 N   0  0  0  0  0  0  0  0  0  0  0  0
  -10.7611   20.0973    6.1268 C   0  0  1  0  0  0  0  0  0  0  0  0
  -11.9568   19.9431    5.3574 O   0  0  0  0  0  0  0  0  0  0  0  0
  -10.0989   21.4990    5.9167 C   0  0  2  0  0  0  0  0  0  0  0  0
   -9.7500   21.7509    4.5457 O   0  0  0  0  0  0  0  0  0  0  0  0
   -8.8276   21.6387    6.7900 C   0  0  2  0  0  0  0  0  0  0  0  0
   -9.1279   21.3996    8.1727 O   0  0  0  0  0  0  0  0  0  0  0  0
   -8.2014   23.0020    6.6484 C   0  0  0  0  0  0  0  0  0  0  0  0
   -8.7641   23.8795    7.5443 N   0  0  0  0  0  0  0  0  0  0  0  0
   -5.1452   17.6221    9.8259 C   0  0  1  0  0  0  0  0  0  0  0  0
   -4.1927   17.0150   10.7974 N   0  0  0  0  0  0  0  0  0  0  0  0
   -6.1751   16.5740    9.4267 C   0  0  2  0  0  0  0  0  0  0  0  0
   -5.4899   15.4791    8.8959 O   0  0  0  0  0  0  0  0  0  0  0  0
   -7.1862   17.1617    8.3923 C   0  0  1  0  0  0  0  0  0  0  0  0
   -8.1811   16.1546    8.0340 O   0  0  0  0  0  0  0  0  0  0  0  0
   -7.9296   18.4074    9.0260 C   0  0  1  0  0  0  0  0  0  0  0  0
   -6.9119   19.4700    9.4119 C   0  0  1  0  0  0  0  0  0  0  0  0
   -7.6166   20.6105    9.9777 N   0  0  0  0  0  0  0  0  0  0  0  0
   -5.8948   18.8800   10.4253 C   0  0  0  0  0  0  0  0  0  0  0  0
   -4.6682   14.7180    7.9837 C   0  0  0  0  0  0  0  0  0  0  0  0
   -3.3130   15.3770    7.8671 C   0  0  0  0  0  0  0  0  0  0  0  0
   -2.6148   15.1032    6.5941 N   0  0  0  0  0  0  0  0  0  0  0  0
   -2.3436   14.8745    5.1565 C   0  0  0  0  0  0  0  0  0  0  0  0
   -2.8971   16.2065    4.6348 C   0  0  0  0  0  0  0  0  0  0  0  0
   -3.1934   16.1657    3.1239 C   0  0  0  0  0  0  0  0  0  0  0  0
   -3.5655   17.5493    2.5998 C   0  0  0  0  0  0  0  0  0  0  0  0
   -4.7702   18.0280    3.2630 N   0  0  0  0  0  0  0  0  0  0  0  0
   -0.9623   16.0507   13.9789 N   0  0  0  0  0  0  0  0  0  0  0  0
   -4.9906   16.6268   12.3334 C   0  0  0  0  0  0  0  0  0  0  0  0
   -5.9956   16.7186   12.7149 O   0  0  0  0  0  0  0  0  0  0  0  0
   -3.6337   16.1562   12.7972 C   0  0  2  0  0  0  0  0  0  0  0  0
   -3.7464   15.2051   13.7793 O   0  0  0  0  0  0  0  0  0  0  0  0
   -2.9401   17.3592   13.4268 C   0  0  0  0  0  0  0  0  0  0  0  0
   -1.4008   17.3467   13.4411 C   0  0  0  0  0  0  0  0  0  0  0  0
  1  2  1  6  0  0  0
  1  3  1  0  0  0  0
  3  4  1  6  0  0  0
  3  5  1  0  0  0  0
  5  6  1  6  0  0  0
  5  7  1  0  0  0  0
  7  8  1  6  0  0  0
  9  7  1  0  0  0  0
  9 10  1  0  0  0  0
  9 11  1  1  0  0  0
 10  1  1  0  0  0  0
 11 12  1  0  0  0  0
 13 14  1  1  0  0  0
 13 15  1  0  0  0  0
 13 22  1  0  0  0  0
 14 32  1  0  0  0  0
 15 16  1  6  0  0  0
 15 17  1  0  0  0  0
 16 23  1  0  0  0  0
 17 18  1  1  0  0  0
 17 19  1  0  0  0  0
 19  2  1  6  0  0  0
 19 20  1  0  0  0  0
 20 21  1  1  0  0  0
 20 22  1  0  0  0  0
 23 24  1  0  0  0  0
 24 25  1  0  0  0  0
 25 26  1  0  0  0  0
 26 27  1  0  0  0  0
 27 28  1  0  0  0  0
 28 29  1  0  0  0  0
 29 30  1  0  0  0  0
 31 37  1  0  0  0  0
 32 33  2  0  0  0  0
 34 32  1  1  0  0  0
 34 35  1  0  0  0  0
 34 36  1  0  0  0  0
 36 37  1  0  0  0  0
M  END
>  <CHROM.1>
-147.56074425,87.43789231,-66.85472620,-65.42464373,58.32881638,175.42921882
-154.22639704,38.98187363,57.82871932,-161.92291729,-172.51277104,-61.36009128
-153.76825134,-154.94498061,-49.71785394,-6.36046550,18.14538703,8.40090490
2.62482579,0.63551441,-1.59108899

>  <Name>
1o9m_lig

>  <RI>
0

>  <Rbt.Current_Directory>
/home/itssahil/PROJECTS/Mol_Feturizer/New_Systems/rnas/1o9m

>  <Rbt.Executable>
rbdock ($Id: //depot/dev/client3/rdock/2013.1/src/exe/rbdock.cxx#4 $)

>  <Rbt.Library>
libRbt.so (2013.1, Build901 2013/11/27)

>  <Rbt.Parameter_File>
/export/apps/rDock/src/rDock_2013.1_src/data/scripts/dock_solv.prm

>  <Rbt.Receptor>
prm/pocket_docking_7.prm

>  <SCORE>
-6.21822

>  <SCORE.INTER>
-6.45155

>  <SCORE.INTER.CONST>
1

>  <SCORE.INTER.POLAR>
-2.48214

>  <SCORE.INTER.ROT>
15

>  <SCORE.INTER.SOLV>
21.2461

>  <SCORE.INTER.VDW>
-16.7093

>  <SCORE.INTER.norm>
-0.174366

>  <SCORE.INTRA>
0.233331

>  <SCORE.INTRA.DIHEDRAL>
-7.11977

>  <SCORE.INTRA.DIHEDRAL.0>
21.5987

>  <SCORE.INTRA.POLAR>
0

>  <SCORE.INTRA.POLAR.0>
0

>  <SCORE.INTRA.REPUL>
0

>  <SCORE.INTRA.REPUL.0>
0

>  <SCORE.INTRA.SOLV>
4.95783

>  <SCORE.INTRA.SOLV.lig_0>
-108.715

>  <SCORE.INTRA.VDW>
1.3143

>  <SCORE.INTRA.VDW.0>
-3.9485

>  <SCORE.INTRA.norm>
0.00630623

>  <SCORE.RESTR>
0

>  <SCORE.RESTR.CAVITY>
0

>  <SCORE.RESTR.norm>
0

>  <SCORE.SYSTEM>
0

>  <SCORE.SYSTEM.CONST>
0

>  <SCORE.SYSTEM.DIHEDRAL>
0

>  <SCORE.SYSTEM.SOLV>
0

>  <SCORE.SYSTEM.norm>
0

>  <SCORE.heavy>
37

>  <SCORE.norm>
-0.16806

>  <RMSD>
9.198

$$$$
1o9m_lig
 OpenBabel11021811403D
libRbt.so/2013.1/901 2013/11/27
 37 38  0  0  0  0  0  0  0  0999 V2000
   -6.9127   22.5255    4.9130 C   0  0  2  0  0  0  0  0  0  0  0  0
   -6.6367   21.3367    5.7148 O   0  0  0  0  0  0  0  0  0  0  0  0
   -6.6622   23.7624    5.8521 C   0  0  2  0  0  0  0  0  0  0  0  0
   -5.2848   23.7951    6.3741 N   0  0  0  0  0  0  0  0  0  0  0  0
   -7.7058   23.7320    7.0327 C   0  0  1  0  0  0  0  0  0  0  0  0
   -7.4995   24.8496    7.9010 O   0  0  0  0  0  0  0  0  0  0  0  0
   -9.1418   23.7222    6.4119 C   0  0  2  0  0  0  0  0  0  0  0  0
  -10.1786   23.6774    7.4058 O   0  0  0  0  0  0  0  0  0  0  0  0
   -9.3145   22.5174    5.4544 C   0  0  2  0  0  0  0  0  0  0  0  0
   -8.3010   22.5219    4.4384 O   0  0  0  0  0  0  0  0  0  0  0  0
  -10.6715   22.5163    4.7993 C   0  0  0  0  0  0  0  0  0  0  0  0
  -10.8280   21.3877    4.0306 N   0  0  0  0  0  0  0  0  0  0  0  0
   -5.0996   17.4179    4.6658 C   0  0  1  0  0  0  0  0  0  0  0  0
   -5.0208   16.0630    4.0513 N   0  0  0  0  0  0  0  0  0  0  0  0
   -5.2188   18.4545    3.5569 C   0  0  2  0  0  0  0  0  0  0  0  0
   -4.1154   18.3096    2.7132 O   0  0  0  0  0  0  0  0  0  0  0  0
   -5.2859   19.8952    4.1549 C   0  0  1  0  0  0  0  0  0  0  0  0
   -5.4219   20.8782    3.0835 O   0  0  0  0  0  0  0  0  0  0  0  0
   -6.5390   20.0133    5.1149 C   0  0  1  0  0  0  0  0  0  0  0  0
   -6.4219   18.9945    6.2384 C   0  0  1  0  0  0  0  0  0  0  0  0
   -7.5745   19.1301    7.1162 N   0  0  0  0  0  0  0  0  0  0  0  0
   -6.3353   17.5636    5.6432 C   0  0  0  0  0  0  0  0  0  0  0  0
   -2.7486   18.4035    2.2556 C   0  0  0  0  0  0  0  0  0  0  0  0
   -1.8181   18.0452    3.3916 C   0  0  0  0  0  0  0  0  0  0  0  0
   -0.3880   18.2690    3.0956 N   0  0  0  0  0  0  0  0  0  0  0  0
    1.0899   18.2405    3.1809 C   0  0  0  0  0  0  0  0  0  0  0  0
    1.2395   19.1980    4.3699 C   0  0  0  0  0  0  0  0  0  0  0  0
    0.7711   18.5651    5.6936 C   0  0  0  0  0  0  0  0  0  0  0  0
    1.0254   19.5020    6.8704 C   0  0  0  0  0  0  0  0  0  0  0  0
    0.6196   18.8638    8.1147 N   0  0  0  0  0  0  0  0  0  0  0  0
   -3.7274   11.9598    1.9603 N   0  0  0  0  0  0  0  0  0  0  0  0
   -4.5079   14.8428    5.2323 C   0  0  0  0  0  0  0  0  0  0  0  0
   -4.2543   14.8560    6.2809 O   0  0  0  0  0  0  0  0  0  0  0  0
   -4.5867   13.8586    4.0909 C   0  0  2  0  0  0  0  0  0  0  0  0
   -4.8554   12.5920    4.5444 O   0  0  0  0  0  0  0  0  0  0  0  0
   -3.2038   13.8128    3.4505 C   0  0  0  0  0  0  0  0  0  0  0  0
   -3.1243   13.2998    2.0012 C   0  0  0  0  0  0  0  0  0  0  0  0
  1  2  1  1  0  0  0
  1  3  1  0  0  0  0
  3  4  1  1  0  0  0
  3  5  1  0  0  0  0
  5  6  1  1  0  0  0
  5  7  1  0  0  0  0
  7  8  1  1  0  0  0
  9  7  1  0  0  0  0
  9 10  1  0  0  0  0
  9 11  1  6  0  0  0
 10  1  1  0  0  0  0
 11 12  1  0  0  0  0
 13 14  1  6  0  0  0
 13 15  1  0  0  0  0
 13 22  1  0  0  0  0
 14 32  1  0  0  0  0
 15 16  1  6  0  0  0
 15 17  1  0  0  0  0
 16 23  1  0  0  0  0
 17 18  1  6  0  0  0
 17 19  1  0  0  0  0
 19  2  1  1  0  0  0
 19 20  1  0  0  0  0
 20 21  1  1  0  0  0
 20 22  1  0  0  0  0
 23 24  1  0  0  0  0
 24 25  1  0  0  0  0
 25 26  1  0  0  0  0
 26 27  1  0  0  0  0
 27 28  1  0  0  0  0
 28 29  1  0  0  0  0
 29 30  1  0  0  0  0
 31 37  1  0  0  0  0
 32 33  2  0  0  0  0
 34 32  1  1  0  0  0
 34 35  1  0  0  0  0
 34 36  1  0  0  0  0
 36 37  1  0  0  0  0
M  END
>  <CHROM.1>
-169.17950689,-175.78336459,166.83544479,-75.58353227,43.01812519,66.27023077
-172.68823179,-166.78673917,-72.79775658,71.20307090,175.88962092,-177.95347863
-152.38922668,-158.74008283,-56.13820764,-5.00033674,19.12966685,4.89995671
-2.26631715,0.03359401,-2.84197015

>  <Name>
1o9m_lig

>  <RI>
0

>  <Rbt.Current_Directory>
/home/itssahil/PROJECTS/Mol_Feturizer/New_Systems/rnas/1o9m

>  <Rbt.Executable>
rbdock ($Id: //depot/dev/client3/rdock/2013.1/src/exe/rbdock.cxx#4 $)

>  <Rbt.Library>
libRbt.so (2013.1, Build901 2013/11/27)

>  <Rbt.Parameter_File>
/export/apps/rDock/src/rDock_2013.1_src/data/scripts/dock_solv.prm

>  <Rbt.Receptor>
prm/pocket_docking_7.prm

>  <SCORE>
-12.5781

>  <SCORE.INTER>
-5.26853

>  <SCORE.INTER.CONST>
1

>  <SCORE.INTER.POLAR>
-1.78838

>  <SCORE.INTER.ROT>
15

>  <SCORE.INTER.SOLV>
12.3313

>  <SCORE.INTER.VDW>
-15.2615

>  <SCORE.INTER.norm>
-0.142393

>  <SCORE.INTRA>
-7.30961

>  <SCORE.INTRA.DIHEDRAL>
-13.9486

>  <SCORE.INTRA.DIHEDRAL.0>
21.5987

>  <SCORE.INTRA.POLAR>
0

>  <SCORE.INTRA.POLAR.0>
0

>  <SCORE.INTRA.REPUL>
0

>  <SCORE.INTRA.REPUL.0>
0

>  <SCORE.INTRA.SOLV>
0.0680792

>  <SCORE.INTRA.SOLV.lig_0>
-108.715

>  <SCORE.INTRA.VDW>
-0.369325

>  <SCORE.INTRA.VDW.0>
-3.9485

>  <SCORE.INTRA.norm>
-0.197557

>  <SCORE.RESTR>
0

>  <SCORE.RESTR.CAVITY>
0

>  <SCORE.RESTR.norm>
0

>  <SCORE.SYSTEM>
0

>  <SCORE.SYSTEM.CONST>
0

>  <SCORE.SYSTEM.DIHEDRAL>
0

>  <SCORE.SYSTEM.SOLV>
0

>  <SCORE.SYSTEM.norm>
0

>  <SCORE.heavy>
37

>  <SCORE.norm>
-0.33995

>  <RMSD>
9.224

$$$$
1o9m_lig
 OpenBabel11021811403D
libRbt.so/2013.1/901 2013/11/27
 37 38  0  0  0  0  0  0  0  0999 V2000
   -1.6924   15.0127   12.5154 C   0  0  2  0  0  0  0  0  0  0  0  0
   -3.0484   15.5098   12.7304 O   0  0  0  0  0  0  0  0  0  0  0  0
   -1.3738   14.0551   13.7221 C   0  0  2  0  0  0  0  0  0  0  0  0
   -2.3295   12.9374   13.8130 N   0  0  0  0  0  0  0  0  0  0  0  0
   -1.3672   14.8935   15.0566 C   0  0  1  0  0  0  0  0  0  0  0  0
   -1.0776   14.0440   16.1702 O   0  0  0  0  0  0  0  0  0  0  0  0
   -0.3190   16.0445   14.9022 C   0  0  2  0  0  0  0  0  0  0  0  0
   -0.2417   16.8878   16.0632 O   0  0  0  0  0  0  0  0  0  0  0  0
   -0.6482   16.9210   13.6686 C   0  0  2  0  0  0  0  0  0  0  0  0
   -0.7316   16.1210   12.4801 O   0  0  0  0  0  0  0  0  0  0  0  0
    0.3791   18.0044   13.4646 C   0  0  0  0  0  0  0  0  0  0  0  0
    0.3203   18.9156   14.4919 N   0  0  0  0  0  0  0  0  0  0  0  0
   -6.1022   16.6196    9.8559 C   0  0  1  0  0  0  0  0  0  0  0  0
   -6.8256   17.3972    8.8111 N   0  0  0  0  0  0  0  0  0  0  0  0
   -4.7287   16.2371    9.3214 C   0  0  2  0  0  0  0  0  0  0  0  0
   -4.9136   15.5120    8.1423 O   0  0  0  0  0  0  0  0  0  0  0  0
   -3.9393   15.4024   10.3787 C   0  0  1  0  0  0  0  0  0  0  0  0
   -2.6165   15.0604    9.8632 O   0  0  0  0  0  0  0  0  0  0  0  0
   -3.7646   16.2525   11.7026 C   0  0  1  0  0  0  0  0  0  0  0  0
   -5.1313   16.6249   12.2569 C   0  0  1  0  0  0  0  0  0  0  0  0
   -4.9481   17.3919   13.4799 N   0  0  0  0  0  0  0  0  0  0  0  0
   -5.9238   17.4379   11.1984 C   0  0  0  0  0  0  0  0  0  0  0  0
   -5.3362   14.4373    7.2745 C   0  0  0  0  0  0  0  0  0  0  0  0
   -4.6316   14.5666    5.9436 C   0  0  0  0  0  0  0  0  0  0  0  0
   -4.5125   13.2975    5.1964 N   0  0  0  0  0  0  0  0  0  0  0  0
   -4.3038   12.3193    4.1047 C   0  0  0  0  0  0  0  0  0  0  0  0
   -5.7567   12.2516    3.6172 C   0  0  0  0  0  0  0  0  0  0  0  0
   -5.8898   11.5070    2.2756 C   0  0  0  0  0  0  0  0  0  0  0  0
   -7.3422   11.4695    1.8103 C   0  0  0  0  0  0  0  0  0  0  0  0
   -8.1055   10.5374    2.6281 N   0  0  0  0  0  0  0  0  0  0  0  0
   -9.7322   20.6491    6.2330 N   0  0  0  0  0  0  0  0  0  0  0  0
   -8.5270   17.6453    9.2473 C   0  0  0  0  0  0  0  0  0  0  0  0
   -9.1454   17.3750   10.0890 O   0  0  0  0  0  0  0  0  0  0  0  0
   -8.6523   18.3585    7.9232 C   0  0  2  0  0  0  0  0  0  0  0  0
   -7.8648   19.4812    7.8868 O   0  0  0  0  0  0  0  0  0  0  0  0
  -10.0976   18.8308    7.8106 C   0  0  0  0  0  0  0  0  0  0  0  0
  -10.5295   19.4355    6.4624 C   0  0  0  0  0  0  0  0  0  0  0  0
  1  2  1  1  0  0  0
  1  3  1  0  0  0  0
  3  4  1  1  0  0  0
  3  5  1  0  0  0  0
  5  6  1  1  0  0  0
  5  7  1  0  0  0  0
  7  8  1  1  0  0  0
  9  7  1  0  0  0  0
  9 10  1  0  0  0  0
  9 11  1  6  0  0  0
 10  1  1  0  0  0  0
 11 12  1  0  0  0  0
 13 14  1  6  0  0  0
 13 15  1  0  0  0  0
 13 22  1  0  0  0  0
 14 32  1  0  0  0  0
 15 16  1  6  0  0  0
 15 17  1  0  0  0  0
 16 23  1  0  0  0  0
 17 18  1  6  0  0  0
 17 19  1  0  0  0  0
 19  2  1  1  0  0  0
 19 20  1  0  0  0  0
 20 21  1  1  0  0  0
 20 22  1  0  0  0  0
 23 24  1  0  0  0  0
 24 25  1  0  0  0  0
 25 26  1  0  0  0  0
 26 27  1  0  0  0  0
 27 28  1  0  0  0  0
 28 29  1  0  0  0  0
 29 30  1  0  0  0  0
 31 37  1  0  0  0  0
 32 33  2  0  0  0  0
 34 32  1  1  0  0  0
 34 35  1  0  0  0  0
 34 36  1  0  0  0  0
 36 37  1  0  0  0  0
M  END
>  <CHROM.1>
-169.80521644,-67.10332025,170.41517301,-63.66539973,-165.41891396,59.68466865
155.59019001,163.67430472,-89.73556801,168.94267667,-179.38797143,-72.86675345
-63.33026875,-172.46536321,-62.89190967,-4.61612925,15.82407601,9.81346323
-0.78181001,0.67576713,-2.27553056

>  <Name>
1o9m_lig

>  <RI>
0

>  <Rbt.Current_Directory>
/home/itssahil/PROJECTS/Mol_Feturizer/New_Systems/rnas/1o9m

>  <Rbt.Executable>
rbdock ($Id: //depot/dev/client3/rdock/2013.1/src/exe/rbdock.cxx#4 $)

>  <Rbt.Library>
libRbt.so (2013.1, Build901 2013/11/27)

>  <Rbt.Parameter_File>
/export/apps/rDock/src/rDock_2013.1_src/data/scripts/dock_solv.prm

>  <Rbt.Receptor>
prm/pocket_docking_6.prm

>  <SCORE>
-10.4849

>  <SCORE.INTER>
-5.00056

>  <SCORE.INTER.CONST>
1

>  <SCORE.INTER.POLAR>
-0.959166

>  <SCORE.INTER.ROT>
15

>  <SCORE.INTER.SOLV>
17.7481

>  <SCORE.INTER.VDW>
-19.6525

>  <SCORE.INTER.norm>
-0.13515

>  <SCORE.INTRA>
-5.55455

>  <SCORE.INTRA.DIHEDRAL>
-14.9176

>  <SCORE.INTRA.DIHEDRAL.0>
21.5987

>  <SCORE.INTRA.POLAR>
0

>  <SCORE.INTRA.POLAR.0>
0

>  <SCORE.INTRA.REPUL>
0

>  <SCORE.INTRA.REPUL.0>
0

>  <SCORE.INTRA.SOLV>
1.33493

>  <SCORE.INTRA.SOLV.lig_0>
-108.715

>  <SCORE.INTRA.VDW>
1.23681

>  <SCORE.INTRA.VDW.0>
-3.9485

>  <SCORE.INTRA.norm>
-0.150123

>  <SCORE.RESTR>
0.0701837

>  <SCORE.RESTR.CAVITY>
0.0701837

>  <SCORE.RESTR.norm>
0.00189686

>  <SCORE.SYSTEM>
0

>  <SCORE.SYSTEM.CONST>
0

>  <SCORE.SYSTEM.DIHEDRAL>
0

>  <SCORE.SYSTEM.SOLV>
0

>  <SCORE.SYSTEM.norm>
0

>  <SCORE.heavy>
37

>  <SCORE.norm>
-0.283376

>  <RMSD>
9.225

$$$$
1o9m_lig
 OpenBabel11021811403D
libRbt.so/2013.1/901 2013/11/27
 37 38  0  0  0  0  0  0  0  0999 V2000
  -10.0255   17.4091    4.8836 C   0  0  2  0  0  0  0  0  0  0  0  0
   -9.0889   18.0105    5.8287 O   0  0  0  0  0  0  0  0  0  0  0  0
  -10.1502   18.4151    3.6807 C   0  0  2  0  0  0  0  0  0  0  0  0
   -8.8517   18.6729    3.0338 N   0  0  0  0  0  0  0  0  0  0  0  0
  -10.7925   19.7583    4.1976 C   0  0  1  0  0  0  0  0  0  0  0  0
  -10.9183   20.6904    3.1201 O   0  0  0  0  0  0  0  0  0  0  0  0
  -12.1733   19.4174    4.8492 C   0  0  2  0  0  0  0  0  0  0  0  0
  -12.8436   20.5754    5.3733 O   0  0  0  0  0  0  0  0  0  0  0  0
  -11.9991   18.3824    5.9880 C   0  0  2  0  0  0  0  0  0  0  0  0
  -11.3361   17.2027    5.5101 O   0  0  0  0  0  0  0  0  0  0  0  0
  -13.3222   17.9944    6.5956 C   0  0  0  0  0  0  0  0  0  0  0  0
  -13.5720   18.7514    7.7153 N   0  0  0  0  0  0  0  0  0  0  0  0
   -5.8453   16.5585    8.3168 C   0  0  1  0  0  0  0  0  0  0  0  0
   -5.1042   15.7308    9.3095 N   0  0  0  0  0  0  0  0  0  0  0  0
   -6.3388   15.6556    7.1945 C   0  0  2  0  0  0  0  0  0  0  0  0
   -5.2290   15.0149    6.6394 O   0  0  0  0  0  0  0  0  0  0  0  0
   -7.1076   16.4852    6.1182 C   0  0  1  0  0  0  0  0  0  0  0  0
   -7.5943   15.6058    5.0588 O   0  0  0  0  0  0  0  0  0  0  0  0
   -8.3467   17.2062    6.7894 C   0  0  1  0  0  0  0  0  0  0  0  0
   -7.8645   18.1260    7.9008 C   0  0  1  0  0  0  0  0  0  0  0  0
   -9.0163   18.7890    8.4935 N   0  0  0  0  0  0  0  0  0  0  0  0
   -7.0832   17.3045    8.9609 C   0  0  0  0  0  0  0  0  0  0  0  0
   -4.4694   14.1591    5.7578 C   0  0  0  0  0  0  0  0  0  0  0  0
   -4.1915   14.8955    4.4675 C   0  0  0  0  0  0  0  0  0  0  0  0
   -3.6806   14.0370    3.3790 N   0  0  0  0  0  0  0  0  0  0  0  0
   -2.7853   13.2068    2.5413 C   0  0  0  0  0  0  0  0  0  0  0  0
   -3.8382   12.1995    2.0620 C   0  0  0  0  0  0  0  0  0  0  0  0
   -3.2392   11.1204    1.1407 C   0  0  0  0  0  0  0  0  0  0  0  0
   -3.0201   11.6617   -0.2687 C   0  0  0  0  0  0  0  0  0  0  0  0
   -3.8478   10.9321   -1.2189 N   0  0  0  0  0  0  0  0  0  0  0  0
   -1.3780   16.0257   12.7525 N   0  0  0  0  0  0  0  0  0  0  0  0
   -4.7488   16.6491   10.7849 C   0  0  0  0  0  0  0  0  0  0  0  0
   -4.9533   17.6519   11.1267 O   0  0  0  0  0  0  0  0  0  0  0  0
   -4.0502   15.4010   11.2664 C   0  0  2  0  0  0  0  0  0  0  0  0
   -4.8631   14.3016   11.1542 O   0  0  0  0  0  0  0  0  0  0  0  0
   -3.7743   15.5946   12.7534 C   0  0  0  0  0  0  0  0  0  0  0  0
   -2.6752   16.6037   13.1321 C   0  0  0  0  0  0  0  0  0  0  0  0
  1  2  1  1  0  0  0
  1  3  1  0  0  0  0
  3  4  1  1  0  0  0
  3  5  1  0  0  0  0
  5  6  1  6  0  0  0
  5  7  1  0  0  0  0
  7  8  1  1  0  0  0
  9  7  1  0  0  0  0
  9 10  1  0  0  0  0
  9 11  1  6  0  0  0
 10  1  1  0  0  0  0
 11 12  1  0  0  0  0
 13 14  1  1  0  0  0
 13 15  1  0  0  0  0
 13 22  1  0  0  0  0
 14 32  1  0  0  0  0
 15 16  1  6  0  0  0
 15 17  1  0  0  0  0
 16 23  1  0  0  0  0
 17 18  1  6  0  0  0
 17 19  1  0  0  0  0
 19  2  1  6  0  0  0
 19 20  1  0  0  0  0
 20 21  1  1  0  0  0
 20 22  1  0  0  0  0
 23 24  1  0  0  0  0
 24 25  1  0  0  0  0
 25 26  1  0  0  0  0
 26 27  1  0  0  0  0
 27 28  1  0  0  0  0
 28 29  1  0  0  0  0
 29 30  1  0  0  0  0
 31 37  1  0  0  0  0
 32 33  2  0  0  0  0
 34 32  1  1  0  0  0
 34 35  1  0  0  0  0
 34 36  1  0  0  0  0
 36 37  1  0  0  0  0
M  END
>  <CHROM.1>
-156.75644617,-95.42567351,-169.80655440,-178.53155469,82.46027165,78.67365980
-167.47001792,-75.82772933,145.45095185,-179.18112393,-77.98302894,-116.91863882
-51.69774332,-71.96309999,-70.60101774,-7.04568711,16.38858381,6.38040031
3.03128950,-0.56497653,1.26193920

>  <Name>
1o9m_lig

>  <RI>
0

>  <Rbt.Current_Directory>
/home/itssahil/PROJECTS/Mol_Feturizer/New_Systems/rnas/1o9m

>  <Rbt.Executable>
rbdock ($Id: //depot/dev/client3/rdock/2013.1/src/exe/rbdock.cxx#4 $)

>  <Rbt.Library>
libRbt.so (2013.1, Build901 2013/11/27)

>  <Rbt.Parameter_File>
/export/apps/rDock/src/rDock_2013.1_src/data/scripts/dock_solv.prm

>  <Rbt.Receptor>
prm/pocket_docking_8.prm

>  <SCORE>
-11.5232

>  <SCORE.INTER>
-12.7945

>  <SCORE.INTER.CONST>
1

>  <SCORE.INTER.POLAR>
-2.18051

>  <SCORE.INTER.ROT>
15

>  <SCORE.INTER.SOLV>
13.6866

>  <SCORE.INTER.VDW>
-19.4235

>  <SCORE.INTER.norm>
-0.345796

>  <SCORE.INTRA>
1.27122

>  <SCORE.INTRA.DIHEDRAL>
-1.85847

>  <SCORE.INTRA.DIHEDRAL.0>
21.5987

>  <SCORE.INTRA.POLAR>
0

>  <SCORE.INTRA.POLAR.0>
0

>  <SCORE.INTRA.REPUL>
0

>  <SCORE.INTRA.REPUL.0>
0

>  <SCORE.INTRA.SOLV>
0.934783

>  <SCORE.INTRA.SOLV.lig_0>
-108.715

>  <SCORE.INTRA.VDW>
1.73307

>  <SCORE.INTRA.VDW.0>
-3.9485

>  <SCORE.INTRA.norm>
0.0343574

>  <SCORE.RESTR>
0

>  <SCORE.RESTR.CAVITY>
0

>  <SCORE.RESTR.norm>
0

>  <SCORE.SYSTEM>
0

>  <SCORE.SYSTEM.CONST>
0

>  <SCORE.SYSTEM.DIHEDRAL>
0

>  <SCORE.SYSTEM.SOLV>
0

>  <SCORE.SYSTEM.norm>
0

>  <SCORE.heavy>
37

>  <SCORE.norm>
-0.311439

>  <RMSD>
9.245

$$$$
1o9m_lig
 OpenBabel11021811403D
libRbt.so/2013.1/901 2013/11/27
 37 38  0  0  0  0  0  0  0  0999 V2000
   -4.2140   16.4490    9.7415 C   0  0  2  0  0  0  0  0  0  0  0  0
   -4.6375   15.0735    9.4945 O   0  0  0  0  0  0  0  0  0  0  0  0
   -3.8861   16.5437   11.2771 C   0  0  2  0  0  0  0  0  0  0  0  0
   -2.8338   15.5948   11.6811 N   0  0  0  0  0  0  0  0  0  0  0  0
   -5.2064   16.2971   12.1015 C   0  0  1  0  0  0  0  0  0  0  0  0
   -4.9343   16.3800   13.5032 O   0  0  0  0  0  0  0  0  0  0  0  0
   -6.2698   17.3485   11.6421 C   0  0  2  0  0  0  0  0  0  0  0  0
   -7.5273   17.2035   12.3221 O   0  0  0  0  0  0  0  0  0  0  0  0
   -6.5123   17.2488   10.1157 C   0  0  2  0  0  0  0  0  0  0  0  0
   -5.2817   17.3927    9.3917 O   0  0  0  0  0  0  0  0  0  0  0  0
   -7.4919   18.2893    9.6380 C   0  0  0  0  0  0  0  0  0  0  0  0
   -7.6086   18.2402    8.2693 N   0  0  0  0  0  0  0  0  0  0  0  0
   -4.2259   14.7060    5.1915 C   0  0  1  0  0  0  0  0  0  0  0  0
   -4.3053   14.1258    3.8215 N   0  0  0  0  0  0  0  0  0  0  0  0
   -5.6329   14.8081    5.7645 C   0  0  2  0  0  0  0  0  0  0  0  0
   -6.3958   15.5883    4.8931 O   0  0  0  0  0  0  0  0  0  0  0  0
   -5.6005   15.4299    7.1963 C   0  0  1  0  0  0  0  0  0  0  0  0
   -6.9525   15.5024    7.7434 O   0  0  0  0  0  0  0  0  0  0  0  0
   -4.7153   14.5256    8.1474 C   0  0  1  0  0  0  0  0  0  0  0  0
   -3.3012   14.4314    7.5950 C   0  0  1  0  0  0  0  0  0  0  0  0
   -2.5017   13.6094    8.4909 N   0  0  0  0  0  0  0  0  0  0  0  0
   -3.3351   13.8315    6.1638 C   0  0  0  0  0  0  0  0  0  0  0  0
   -6.7725   16.7196    4.0777 C   0  0  0  0  0  0  0  0  0  0  0  0
   -8.0538   16.3985    3.3431 C   0  0  0  0  0  0  0  0  0  0  0  0
   -9.2626   16.4327    4.1919 N   0  0  0  0  0  0  0  0  0  0  0  0
  -10.3866   16.0156    5.0609 C   0  0  0  0  0  0  0  0  0  0  0  0
  -11.5187   16.6424    4.2371 C   0  0  0  0  0  0  0  0  0  0  0  0
  -11.4058   18.1765    4.1594 C   0  0  0  0  0  0  0  0  0  0  0  0
  -12.5945   18.7775    3.4155 C   0  0  0  0  0  0  0  0  0  0  0  0
  -13.8184   18.5677    4.1760 N   0  0  0  0  0  0  0  0  0  0  0  0
   -2.9628   12.5849   -0.1435 N   0  0  0  0  0  0  0  0  0  0  0  0
   -4.9828   12.4866    3.8484 C   0  0  0  0  0  0  0  0  0  0  0  0
   -5.3550   11.8281    4.6178 O   0  0  0  0  0  0  0  0  0  0  0  0
   -4.7663   12.4870    2.3549 C   0  0  2  0  0  0  0  0  0  0  0  0
   -5.7396   11.7656    1.7113 O   0  0  0  0  0  0  0  0  0  0  0  0
   -3.4453   11.7698    2.0995 C   0  0  0  0  0  0  0  0  0  0  0  0
   -3.1457   11.3587    0.6465 C   0  0  0  0  0  0  0  0  0  0  0  0
  1  2  1  1  0  0  0
  1  3  1  0  0  0  0
  3  4  1  1  0  0  0
  3  5  1  0  0  0  0
  5  6  1  1  0  0  0
  5  7  1  0  0  0  0
  7  8  1  1  0  0  0
  9  7  1  0  0  0  0
  9 10  1  0  0  0  0
  9 11  1  6  0  0  0
 10  1  1  0  0  0  0
 11 12  1  0  0  0  0
 13 14  1  6  0  0  0
 13 15  1  0  0  0  0
 13 22  1  0  0  0  0
 14 32  1  0  0  0  0
 15 16  1  6  0  0  0
 15 17  1  0  0  0  0
 16 23  1  0  0  0  0
 17 18  1  1  0  0  0
 17 19  1  0  0  0  0
 19  2  1  1  0  0  0
 19 20  1  0  0  0  0
 20 21  1  1  0  0  0
 20 22  1  0  0  0  0
 23 24  1  0  0  0  0
 24 25  1  0  0  0  0
 25 26  1  0  0  0  0
 26 27  1  0  0  0  0
 27 28  1  0  0  0  0
 28 29  1  0  0  0  0
 29 30  1  0  0  0  0
 31 37  1  0  0  0  0
 32 33  2  0  0  0  0
 34 32  1  1  0  0  0
 34 35  1  0  0  0  0
 34 36  1  0  0  0  0
 36 37  1  0  0  0  0
M  END
>  <CHROM.1>
-165.06958621,175.48038534,-61.89159530,-53.34287578,176.45682406,-53.52873585
74.69507371,-95.83402557,-126.50415548,-63.08168053,-176.15602741,66.09520975
-146.48678461,166.73762416,66.79961963,-6.17207542,15.42253365,6.55652820
-1.51412756,0.52315261,-1.93934955

>  <Name>
1o9m_lig

>  <RI>
0

>  <Rbt.Current_Directory>
/home/itssahil/PROJECTS/Mol_Feturizer/New_Systems/rnas/1o9m

>  <Rbt.Executable>
rbdock ($Id: //depot/dev/client3/rdock/2013.1/src/exe/rbdock.cxx#4 $)

>  <Rbt.Library>
libRbt.so (2013.1, Build901 2013/11/27)

>  <Rbt.Parameter_File>
/export/apps/rDock/src/rDock_2013.1_src/data/scripts/dock_solv.prm

>  <Rbt.Receptor>
prm/pocket_docking_5.prm

>  <SCORE>
-18.8379

>  <SCORE.INTER>
-13.9668

>  <SCORE.INTER.CONST>
1

>  <SCORE.INTER.POLAR>
-1.7075

>  <SCORE.INTER.ROT>
15

>  <SCORE.INTER.SOLV>
19.6757

>  <SCORE.INTER.VDW>
-23.7781

>  <SCORE.INTER.norm>
-0.377481

>  <SCORE.INTRA>
-4.87112

>  <SCORE.INTRA.DIHEDRAL>
-14.2937

>  <SCORE.INTRA.DIHEDRAL.0>
21.5987

>  <SCORE.INTRA.POLAR>
0

>  <SCORE.INTRA.POLAR.0>
0

>  <SCORE.INTRA.REPUL>
0

>  <SCORE.INTRA.REPUL.0>
0

>  <SCORE.INTRA.SOLV>
4.8543

>  <SCORE.INTRA.SOLV.lig_0>
-108.715

>  <SCORE.INTRA.VDW>
-0.151452

>  <SCORE.INTRA.VDW.0>
-3.9485

>  <SCORE.INTRA.norm>
-0.131652

>  <SCORE.RESTR>
0

>  <SCORE.RESTR.CAVITY>
0

>  <SCORE.RESTR.norm>
0

>  <SCORE.SYSTEM>
0

>  <SCORE.SYSTEM.CONST>
0

>  <SCORE.SYSTEM.DIHEDRAL>
0

>  <SCORE.SYSTEM.SOLV>
0

>  <SCORE.SYSTEM.norm>
0

>  <SCORE.heavy>
37

>  <SCORE.norm>
-0.509133

>  <RMSD>
9.255

$$$$
1o9m_lig
 OpenBabel11021811403D
libRbt.so/2013.1/901 2013/11/27
 37 38  0  0  0  0  0  0  0  0999 V2000
   -2.2192   16.2493    8.1524 C   0  0  2  0  0  0  0  0  0  0  0  0
   -1.7494   16.3395    6.7728 O   0  0  0  0  0  0  0  0  0  0  0  0
   -1.3140   17.2220    8.9944 C   0  0  2  0  0  0  0  0  0  0  0  0
   -1.3883   18.6112    8.5092 N   0  0  0  0  0  0  0  0  0  0  0  0
    0.1722   16.6986    8.9628 C   0  0  1  0  0  0  0  0  0  0  0  0
    1.0161   17.5667    9.7241 O   0  0  0  0  0  0  0  0  0  0  0  0
    0.1831   15.2331    9.5102 C   0  0  2  0  0  0  0  0  0  0  0  0
    1.4953   14.6475    9.5100 O   0  0  0  0  0  0  0  0  0  0  0  0
   -0.7661   14.3333    8.6808 C   0  0  2  0  0  0  0  0  0  0  0  0
   -2.0941   14.8768    8.6557 O   0  0  0  0  0  0  0  0  0  0  0  0
   -0.8169   12.9282    9.2228 C   0  0  0  0  0  0  0  0  0  0  0  0
   -1.3354   12.9276   10.4958 N   0  0  0  0  0  0  0  0  0  0  0  0
   -3.2972   14.7934    3.0266 C   0  0  1  0  0  0  0  0  0  0  0  0
   -3.7358   13.8194    1.9880 N   0  0  0  0  0  0  0  0  0  0  0  0
   -4.1340   14.5844    4.2814 C   0  0  2  0  0  0  0  0  0  0  0  0
   -5.4773   14.7385    3.9322 O   0  0  0  0  0  0  0  0  0  0  0  0
   -3.7207   15.5987    5.3940 C   0  0  1  0  0  0  0  0  0  0  0  0
   -4.5147   15.3742    6.5989 O   0  0  0  0  0  0  0  0  0  0  0  0
   -2.1908   15.4018    5.7497 C   0  0  1  0  0  0  0  0  0  0  0  0
   -1.3426   15.6268    4.5072 C   0  0  1  0  0  0  0  0  0  0  0  0
    0.0590   15.4559    4.8592 N   0  0  0  0  0  0  0  0  0  0  0  0
   -1.7667   14.6315    3.3942 C   0  0  0  0  0  0  0  0  0  0  0  0
   -6.9143   14.7473    4.0787 C   0  0  0  0  0  0  0  0  0  0  0  0
   -7.3035   15.7892    5.1022 C   0  0  0  0  0  0  0  0  0  0  0  0
   -8.7582   15.8887    5.3410 N   0  0  0  0  0  0  0  0  0  0  0  0
  -10.2053   16.1317    5.1430 C   0  0  0  0  0  0  0  0  0  0  0  0
  -10.0782   17.3165    4.1771 C   0  0  0  0  0  0  0  0  0  0  0  0
  -11.4492   17.8754    3.7527 C   0  0  0  0  0  0  0  0  0  0  0  0
  -11.2897   19.1093    2.8698 C   0  0  0  0  0  0  0  0  0  0  0  0
  -10.6676   18.7425    1.6054 N   0  0  0  0  0  0  0  0  0  0  0  0
   -1.8738   11.9550   -1.8363 N   0  0  0  0  0  0  0  0  0  0  0  0
   -3.7512   12.1611    2.6178 C   0  0  0  0  0  0  0  0  0  0  0  0
   -3.5292   11.7052    3.5701 O   0  0  0  0  0  0  0  0  0  0  0  0
   -4.1841   11.7517    1.2312 C   0  0  2  0  0  0  0  0  0  0  0  0
   -4.6246   10.4526    1.2113 O   0  0  0  0  0  0  0  0  0  0  0  0
   -2.9442   11.8096    0.3459 C   0  0  0  0  0  0  0  0  0  0  0  0
   -3.1718   11.7553   -1.1757 C   0  0  0  0  0  0  0  0  0  0  0  0
  1  2  1  6  0  0  0
  1  3  1  0  0  0  0
  3  4  1  6  0  0  0
  3  5  1  0  0  0  0
  5  6  1  1  0  0  0
  5  7  1  0  0  0  0
  7  8  1  6  0  0  0
  9  7  1  0  0  0  0
  9 10  1  0  0  0  0
  9 11  1  1  0  0  0
 10  1  1  0  0  0  0
 11 12  1  0  0  0  0
 13 14  1  6  0  0  0
 13 15  1  0  0  0  0
 13 22  1  0  0  0  0
 14 32  1  0  0  0  0
 15 16  1  6  0  0  0
 15 17  1  0  0  0  0
 16 23  1  0  0  0  0
 17 18  1  1  0  0  0
 17 19  1  0  0  0  0
 19  2  1  1  0  0  0
 19 20  1  0  0  0  0
 20 21  1  1  0  0  0
 20 22  1  0  0  0  0
 23 24  1  0  0  0  0
 24 25  1  0  0  0  0
 25 26  1  0  0  0  0
 26 27  1  0  0  0  0
 27 28  1  0  0  0  0
 28 29  1  0  0  0  0
 29 30  1  0  0  0  0
 31 37  1  0  0  0  0
 32 33  2  0  0  0  0
 34 32  1  1  0  0  0
 34 35  1  0  0  0  0
 34 36  1  0  0  0  0
 36 37  1  0  0  0  0
M  END
>  <CHROM.1>
168.75554770,63.23628323,-51.85894690,174.81069993,63.52861487,68.75145907
-179.85361823,-65.68832377,-33.10994261,-179.03038607,176.13567504,66.02393515
-167.64695973,-166.20513981,174.59179135,-3.77084871,14.98575143,5.12743849
0.55797488,-0.41238577,1.00894404

>  <Name>
1o9m_lig

>  <RI>
0

>  <Rbt.Current_Directory>
/home/itssahil/PROJECTS/Mol_Feturizer/New_Systems/rnas/1o9m

>  <Rbt.Executable>
rbdock ($Id: //depot/dev/client3/rdock/2013.1/src/exe/rbdock.cxx#4 $)

>  <Rbt.Library>
libRbt.so (2013.1, Build901 2013/11/27)

>  <Rbt.Parameter_File>
/export/apps/rDock/src/rDock_2013.1_src/data/scripts/dock_solv.prm

>  <Rbt.Receptor>
prm/pocket_docking_8.prm

>  <SCORE>
-14.9236

>  <SCORE.INTER>
-6.82223

>  <SCORE.INTER.CONST>
1

>  <SCORE.INTER.POLAR>
-0.355858

>  <SCORE.INTER.ROT>
15

>  <SCORE.INTER.SOLV>
22.6915

>  <SCORE.INTER.VDW>
-24.5258

>  <SCORE.INTER.norm>
-0.184385

>  <SCORE.INTRA>
-8.10135

>  <SCORE.INTRA.DIHEDRAL>
-17.7374

>  <SCORE.INTRA.DIHEDRAL.0>
21.5987

>  <SCORE.INTRA.POLAR>
0

>  <SCORE.INTRA.POLAR.0>
0

>  <SCORE.INTRA.REPUL>
0

>  <SCORE.INTRA.REPUL.0>
0

>  <SCORE.INTRA.SOLV>
0.787657

>  <SCORE.INTRA.SOLV.lig_0>
-108.715

>  <SCORE.INTRA.VDW>
0.373529

>  <SCORE.INTRA.VDW.0>
-3.9485

>  <SCORE.INTRA.norm>
-0.218955

>  <SCORE.RESTR>
0

>  <SCORE.RESTR.CAVITY>
0

>  <SCORE.RESTR.norm>
0

>  <SCORE.SYSTEM>
0

>  <SCORE.SYSTEM.CONST>
0

>  <SCORE.SYSTEM.DIHEDRAL>
0

>  <SCORE.SYSTEM.SOLV>
0

>  <SCORE.SYSTEM.norm>
0

>  <SCORE.heavy>
37

>  <SCORE.norm>
-0.40334

>  <RMSD>
9.269

$$$$
1o9m_lig
 OpenBabel11021811403D
libRbt.so/2013.1/901 2013/11/27
 37 38  0  0  0  0  0  0  0  0999 V2000
  -11.4670   17.9855    6.5048 C   0  0  2  0  0  0  0  0  0  0  0  0
  -10.4065   18.9350    6.8306 O   0  0  0  0  0  0  0  0  0  0  0  0
  -11.8111   18.2080    4.9860 C   0  0  2  0  0  0  0  0  0  0  0  0
  -10.6414   18.0010    4.1142 N   0  0  0  0  0  0  0  0  0  0  0  0
  -12.3972   19.6588    4.7983 C   0  0  1  0  0  0  0  0  0  0  0  0
  -12.7202   19.8851    3.4235 O   0  0  0  0  0  0  0  0  0  0  0  0
  -13.6451   19.8032    5.7307 C   0  0  2  0  0  0  0  0  0  0  0  0
  -14.2527   21.1030    5.6517 O   0  0  0  0  0  0  0  0  0  0  0  0
  -13.2616   19.5192    7.2040 C   0  0  2  0  0  0  0  0  0  0  0  0
  -12.6532   18.2260    7.3341 O   0  0  0  0  0  0  0  0  0  0  0  0
  -14.4585   19.5967    8.1162 C   0  0  0  0  0  0  0  0  0  0  0  0
  -15.4146   18.6901    7.7250 N   0  0  0  0  0  0  0  0  0  0  0  0
   -6.1305   18.4695    7.3959 C   0  0  1  0  0  0  0  0  0  0  0  0
   -4.8359   18.0223    7.9820 N   0  0  0  0  0  0  0  0  0  0  0  0
   -6.9291   17.2435    6.9745 C   0  0  2  0  0  0  0  0  0  0  0  0
   -6.1525   16.5150    6.0710 O   0  0  0  0  0  0  0  0  0  0  0  0
   -8.2899   17.6656    6.3359 C   0  0  1  0  0  0  0  0  0  0  0  0
   -9.0556   16.4816    5.9560 O   0  0  0  0  0  0  0  0  0  0  0  0
   -9.1319   18.5002    7.3849 C   0  0  1  0  0  0  0  0  0  0  0  0
   -8.3518   19.7384    7.7996 C   0  0  1  0  0  0  0  0  0  0  0  0
   -9.1490   20.4978    8.7512 N   0  0  0  0  0  0  0  0  0  0  0  0
   -6.9904   19.3196    8.4165 C   0  0  0  0  0  0  0  0  0  0  0  0
   -5.7394   15.4134    5.2328 C   0  0  0  0  0  0  0  0  0  0  0  0
   -4.5240   15.8249    4.4341 C   0  0  0  0  0  0  0  0  0  0  0  0
   -3.5422   14.7407    4.2249 N   0  0  0  0  0  0  0  0  0  0  0  0
   -2.5349   13.8529    3.6008 C   0  0  0  0  0  0  0  0  0  0  0  0
   -3.4686   13.1685    2.5945 C   0  0  0  0  0  0  0  0  0  0  0  0
   -4.4748   12.2240    3.2782 C   0  0  0  0  0  0  0  0  0  0  0  0
   -5.3633   11.5307    2.2499 C   0  0  0  0  0  0  0  0  0  0  0  0
   -6.3955   10.7548    2.9228 N   0  0  0  0  0  0  0  0  0  0  0  0
   -2.0152   18.3363   12.4127 N   0  0  0  0  0  0  0  0  0  0  0  0
   -5.0536   16.6164    9.0416 C   0  0  0  0  0  0  0  0  0  0  0  0
   -5.8954   16.0138    9.3453 O   0  0  0  0  0  0  0  0  0  0  0  0
   -3.5680   16.7080    9.2914 C   0  0  2  0  0  0  0  0  0  0  0  0
   -2.9956   15.4625    9.3469 O   0  0  0  0  0  0  0  0  0  0  0  0
   -3.3894   17.3364   10.6690 C   0  0  0  0  0  0  0  0  0  0  0  0
   -1.9618   17.7569   11.0627 C   0  0  0  0  0  0  0  0  0  0  0  0
  1  2  1  1  0  0  0
  1  3  1  0  0  0  0
  3  4  1  6  0  0  0
  3  5  1  0  0  0  0
  5  6  1  6  0  0  0
  5  7  1  0  0  0  0
  7  8  1  1  0  0  0
  9  7  1  0  0  0  0
  9 10  1  0  0  0  0
  9 11  1  1  0  0  0
 10  1  1  0  0  0  0
 11 12  1  0  0  0  0
 13 14  1  1  0  0  0
 13 15  1  0  0  0  0
 13 22  1  0  0  0  0
 14 32  1  0  0  0  0
 15 16  1  6  0  0  0
 15 17  1  0  0  0  0
 16 23  1  0  0  0  0
 17 18  1  1  0  0  0
 17 19  1  0  0  0  0
 19  2  1  6  0  0  0
 19 20  1  0  0  0  0
 20 21  1  1  0  0  0
 20 22  1  0  0  0  0
 23 24  1  0  0  0  0
 24 25  1  0  0  0  0
 25 26  1  0  0  0  0
 26 27  1  0  0  0  0
 27 28  1  0  0  0  0
 28 29  1  0  0  0  0
 29 30  1  0  0  0  0
 31 37  1  0  0  0  0
 32 33  2  0  0  0  0
 34 32  1  1  0  0  0
 34 35  1  0  0  0  0
 34 36  1  0  0  0  0
 36 37  1  0  0  0  0
M  END
>  <CHROM.1>
-123.69822265,58.91182660,-41.90659413,169.06236707,175.07265305,67.71293651
144.00739802,140.76906385,-69.26297352,-70.02368952,-178.46939720,-174.00934876
-140.54160910,-170.00780489,179.86405531,-7.83058564,17.23146757,6.61812522
2.90570927,-0.38206571,0.94066230

>  <Name>
1o9m_lig

>  <RI>
0

>  <Rbt.Current_Directory>
/home/itssahil/PROJECTS/Mol_Feturizer/New_Systems/rnas/1o9m

>  <Rbt.Executable>
rbdock ($Id: //depot/dev/client3/rdock/2013.1/src/exe/rbdock.cxx#4 $)

>  <Rbt.Library>
libRbt.so (2013.1, Build901 2013/11/27)

>  <Rbt.Parameter_File>
/export/apps/rDock/src/rDock_2013.1_src/data/scripts/dock_solv.prm

>  <Rbt.Receptor>
prm/pocket_docking_5.prm

>  <SCORE>
-5.83636

>  <SCORE.INTER>
-3.97316

>  <SCORE.INTER.CONST>
1

>  <SCORE.INTER.POLAR>
-1.29451

>  <SCORE.INTER.ROT>
15

>  <SCORE.INTER.SOLV>
13.372

>  <SCORE.INTER.VDW>
-16.3911

>  <SCORE.INTER.norm>
-0.107383

>  <SCORE.INTRA>
-1.8632

>  <SCORE.INTRA.DIHEDRAL>
-5.62483

>  <SCORE.INTRA.DIHEDRAL.0>
21.5987

>  <SCORE.INTRA.POLAR>
0

>  <SCORE.INTRA.POLAR.0>
0

>  <SCORE.INTRA.REPUL>
0

>  <SCORE.INTRA.REPUL.0>
0

>  <SCORE.INTRA.SOLV>
1.99193

>  <SCORE.INTRA.SOLV.lig_0>
-108.715

>  <SCORE.INTRA.VDW>
-0.0467548

>  <SCORE.INTRA.VDW.0>
-3.9485

>  <SCORE.INTRA.norm>
-0.0503569

>  <SCORE.RESTR>
0

>  <SCORE.RESTR.CAVITY>
0

>  <SCORE.RESTR.norm>
0

>  <SCORE.SYSTEM>
0

>  <SCORE.SYSTEM.CONST>
0

>  <SCORE.SYSTEM.DIHEDRAL>
0

>  <SCORE.SYSTEM.SOLV>
0

>  <SCORE.SYSTEM.norm>
0

>  <SCORE.heavy>
37

>  <SCORE.norm>
-0.15774

>  <RMSD>
9.276

$$$$
1o9m_lig
 OpenBabel11021811403D
libRbt.so/2013.1/901 2013/11/27
 37 38  0  0  0  0  0  0  0  0999 V2000
  -13.8621   20.3291    6.8380 C   0  0  2  0  0  0  0  0  0  0  0  0
  -13.3869   19.2681    5.9545 O   0  0  0  0  0  0  0  0  0  0  0  0
  -15.4327   20.3078    6.7529 C   0  0  2  0  0  0  0  0  0  0  0  0
  -15.9942   19.0060    7.1542 N   0  0  0  0  0  0  0  0  0  0  0  0
  -15.8737   20.6773    5.2857 C   0  0  1  0  0  0  0  0  0  0  0  0
  -17.3002   20.6664    5.1829 O   0  0  0  0  0  0  0  0  0  0  0  0
  -15.2657   22.0750    4.9329 C   0  0  2  0  0  0  0  0  0  0  0  0
  -15.5930   22.5054    3.6016 O   0  0  0  0  0  0  0  0  0  0  0  0
  -13.7249   22.0549    5.0874 C   0  0  2  0  0  0  0  0  0  0  0  0
  -13.3484   21.6340    6.4067 O   0  0  0  0  0  0  0  0  0  0  0  0
  -13.1192   23.4060    4.8075 C   0  0  0  0  0  0  0  0  0  0  0  0
  -13.4183   24.2814    5.8241 N   0  0  0  0  0  0  0  0  0  0  0  0
   -9.6052   17.1424    5.9291 C   0  0  1  0  0  0  0  0  0  0  0  0
   -8.1521   16.8716    5.7423 N   0  0  0  0  0  0  0  0  0  0  0  0
   -9.7685   18.2902    6.9162 C   0  0  2  0  0  0  0  0  0  0  0  0
   -9.1314   17.9281    8.1050 O   0  0  0  0  0  0  0  0  0  0  0  0
  -11.2800   18.5979    7.1577 C   0  0  1  0  0  0  0  0  0  0  0  0
  -11.4233   19.7139    8.0887 O   0  0  0  0  0  0  0  0  0  0  0  0
  -11.9675   18.9886    5.7865 C   0  0  1  0  0  0  0  0  0  0  0  0
  -11.8273   17.8415    4.7974 C   0  0  1  0  0  0  0  0  0  0  0  0
  -12.4782   18.2152    3.5507 N   0  0  0  0  0  0  0  0  0  0  0  0
  -10.3250   17.5225    4.5723 C   0  0  0  0  0  0  0  0  0  0  0  0
   -8.0535   17.6073    9.0116 C   0  0  0  0  0  0  0  0  0  0  0  0
   -8.6323   17.1025   10.3134 C   0  0  0  0  0  0  0  0  0  0  0  0
   -7.6349   16.9185   11.3878 N   0  0  0  0  0  0  0  0  0  0  0  0
   -6.6909   17.1900   12.4957 C   0  0  0  0  0  0  0  0  0  0  0  0
   -5.8123   15.9451   12.3185 C   0  0  0  0  0  0  0  0  0  0  0  0
   -4.7979   15.7766   13.4651 C   0  0  0  0  0  0  0  0  0  0  0  0
   -3.9678   14.5098   13.2820 C   0  0  0  0  0  0  0  0  0  0  0  0
   -3.1481   14.6178   12.0833 N   0  0  0  0  0  0  0  0  0  0  0  0
   -4.1951   12.8677    5.3662 N   0  0  0  0  0  0  0  0  0  0  0  0
   -7.8573   15.8680    4.3097 C   0  0  0  0  0  0  0  0  0  0  0  0
   -8.4798   15.4248    3.5481 O   0  0  0  0  0  0  0  0  0  0  0  0
   -6.3991   15.9366    4.6926 C   0  0  2  0  0  0  0  0  0  0  0  0
   -5.6654   16.5967    3.7397 O   0  0  0  0  0  0  0  0  0  0  0  0
   -5.8838   14.5022    4.7295 C   0  0  0  0  0  0  0  0  0  0  0  0
   -4.4094   14.3018    5.1244 C   0  0  0  0  0  0  0  0  0  0  0  0
  1  2  1  6  0  0  0
  1  3  1  0  0  0  0
  3  4  1  6  0  0  0
  3  5  1  0  0  0  0
  5  6  1  1  0  0  0
  5  7  1  0  0  0  0
  7  8  1  6  0  0  0
  9  7  1  0  0  0  0
  9 10  1  0  0  0  0
  9 11  1  1  0  0  0
 10  1  1  0  0  0  0
 11 12  1  0  0  0  0
 13 14  1  6  0  0  0
 13 15  1  0  0  0  0
 13 22  1  0  0  0  0
 14 32  1  0  0  0  0
 15 16  1  1  0  0  0
 15 17  1  0  0  0  0
 16 23  1  0  0  0  0
 17 18  1  1  0  0  0
 17 19  1  0  0  0  0
 19  2  1  1  0  0  0
 19 20  1  0  0  0  0
 20 21  1  6  0  0  0
 20 22  1  0  0  0  0
 23 24  1  0  0  0  0
 24 25  1  0  0  0  0
 25 26  1  0  0  0  0
 26 27  1  0  0  0  0
 27 28  1  0  0  0  0
 28 29  1  0  0  0  0
 29 30  1  0  0  0  0
 31 37  1  0  0  0  0
 32 33  2  0  0  0  0
 34 32  1  6  0  0  0
 34 35  1  0  0  0  0
 34 36  1  0  0  0  0
 36 37  1  0  0  0  0
M  END
>  <CHROM.1>
-179.66457470,71.33086945,-164.73891919,68.30845684,-172.05392930,59.68392512
-171.94315348,79.62147673,-156.89353796,-171.70789516,178.33909713,64.74622199
-115.69086019,-178.95267747,168.56176301,-10.11938026,18.19219714,6.86680018
2.88554924,0.60948401,-1.74381431

>  <Name>
1o9m_lig

>  <RI>
0

>  <Rbt.Current_Directory>
/home/itssahil/PROJECTS/Mol_Feturizer/New_Systems/rnas/1o9m

>  <Rbt.Executable>
rbdock ($Id: //depot/dev/client3/rdock/2013.1/src/exe/rbdock.cxx#4 $)

>  <Rbt.Library>
libRbt.so (2013.1, Build901 2013/11/27)

>  <Rbt.Parameter_File>
/export/apps/rDock/src/rDock_2013.1_src/data/scripts/dock_solv.prm

>  <Rbt.Receptor>
prm/pocket_docking_5.prm

>  <SCORE>
-11.2536

>  <SCORE.INTER>
-3.79142

>  <SCORE.INTER.CONST>
1

>  <SCORE.INTER.POLAR>
-0.959166

>  <SCORE.INTER.ROT>
15

>  <SCORE.INTER.SOLV>
15.0679

>  <SCORE.INTER.VDW>
-17.953

>  <SCORE.INTER.norm>
-0.102471

>  <SCORE.INTRA>
-7.46219

>  <SCORE.INTRA.DIHEDRAL>
-16.1722

>  <SCORE.INTRA.DIHEDRAL.0>
21.5987

>  <SCORE.INTRA.POLAR>
0

>  <SCORE.INTRA.POLAR.0>
0

>  <SCORE.INTRA.REPUL>
0

>  <SCORE.INTRA.REPUL.0>
0

>  <SCORE.INTRA.SOLV>
-0.418484

>  <SCORE.INTRA.SOLV.lig_0>
-108.715

>  <SCORE.INTRA.VDW>
0.833137

>  <SCORE.INTRA.VDW.0>
-3.9485

>  <SCORE.INTRA.norm>
-0.201681

>  <SCORE.RESTR>
0

>  <SCORE.RESTR.CAVITY>
0

>  <SCORE.RESTR.norm>
0

>  <SCORE.SYSTEM>
0

>  <SCORE.SYSTEM.CONST>
0

>  <SCORE.SYSTEM.DIHEDRAL>
0

>  <SCORE.SYSTEM.SOLV>
0

>  <SCORE.SYSTEM.norm>
0

>  <SCORE.heavy>
37

>  <SCORE.norm>
-0.304152

>  <RMSD>
9.284

$$$$
1o9m_lig
 OpenBabel11021811403D
libRbt.so/2013.1/901 2013/11/27
 37 38  0  0  0  0  0  0  0  0999 V2000
   -5.1593   18.8395    9.7435 C   0  0  2  0  0  0  0  0  0  0  0  0
   -4.6059   18.6077    8.4122 O   0  0  0  0  0  0  0  0  0  0  0  0
   -5.7795   20.2849    9.7211 C   0  0  2  0  0  0  0  0  0  0  0  0
   -6.8240   20.4265    8.6916 N   0  0  0  0  0  0  0  0  0  0  0  0
   -4.6272   21.3360    9.4952 C   0  0  1  0  0  0  0  0  0  0  0  0
   -5.1664   22.6605    9.4727 O   0  0  0  0  0  0  0  0  0  0  0  0
   -3.5680   21.1476   10.6310 C   0  0  2  0  0  0  0  0  0  0  0  0
   -2.4564   22.0505   10.5121 O   0  0  0  0  0  0  0  0  0  0  0  0
   -3.0329   19.6944   10.6431 C   0  0  2  0  0  0  0  0  0  0  0  0
   -4.1097   18.7537   10.7651 O   0  0  0  0  0  0  0  0  0  0  0  0
   -2.0516   19.4712   11.7646 C   0  0  0  0  0  0  0  0  0  0  0  0
   -2.6936   19.5348   12.9784 N   0  0  0  0  0  0  0  0  0  0  0  0
   -5.3463   15.6745    5.3027 C   0  0  1  0  0  0  0  0  0  0  0  0
   -5.4752   14.3539    4.6253 N   0  0  0  0  0  0  0  0  0  0  0  0
   -6.3088   15.7184    6.4818 C   0  0  2  0  0  0  0  0  0  0  0  0
   -7.5966   15.4873    5.9937 O   0  0  0  0  0  0  0  0  0  0  0  0
   -6.2215   17.0952    7.2129 C   0  0  1  0  0  0  0  0  0  0  0  0
   -7.1326   17.1170    8.3539 O   0  0  0  0  0  0  0  0  0  0  0  0
   -4.7455   17.3250    7.7367 C   0  0  1  0  0  0  0  0  0  0  0  0
   -3.7761   17.3022    6.5647 C   0  0  1  0  0  0  0  0  0  0  0  0
   -2.4291   17.5299    7.0659 N   0  0  0  0  0  0  0  0  0  0  0  0
   -3.8770   15.9408    5.8260 C   0  0  0  0  0  0  0  0  0  0  0  0
   -8.8784   15.7683    5.3898 C   0  0  0  0  0  0  0  0  0  0  0  0
   -8.6773   16.6681    4.1921 C   0  0  0  0  0  0  0  0  0  0  0  0
   -9.8332   17.5364    3.8870 N   0  0  0  0  0  0  0  0  0  0  0  0
  -11.1420   18.0167    3.3882 C   0  0  0  0  0  0  0  0  0  0  0  0
  -11.9956   17.5276    4.5651 C   0  0  0  0  0  0  0  0  0  0  0  0
  -11.7896   18.3798    5.8315 C   0  0  0  0  0  0  0  0  0  0  0  0
  -12.3927   19.7707    5.6614 C   0  0  0  0  0  0  0  0  0  0  0  0
  -12.1014   20.5885    6.8304 N   0  0  0  0  0  0  0  0  0  0  0  0
   -4.0939   10.9797    0.1075 N   0  0  0  0  0  0  0  0  0  0  0  0
   -4.0675   14.0080    3.6028 C   0  0  0  0  0  0  0  0  0  0  0  0
   -3.1482   14.5233    3.3716 O   0  0  0  0  0  0  0  0  0  0  0  0
   -4.7792   12.7277    3.2395 C   0  0  2  0  0  0  0  0  0  0  0  0
   -4.9984   11.9492    4.3476 O   0  0  0  0  0  0  0  0  0  0  0  0
   -3.8407   11.9434    2.3291 C   0  0  0  0  0  0  0  0  0  0  0  0
   -4.4595   10.7901    1.5187 C   0  0  0  0  0  0  0  0  0  0  0  0
  1  2  1  6  0  0  0
  1  3  1  0  0  0  0
  3  4  1  6  0  0  0
  3  5  1  0  0  0  0
  5  6  1  1  0  0  0
  5  7  1  0  0  0  0
  7  8  1  6  0  0  0
  9  7  1  0  0  0  0
  9 10  1  0  0  0  0
  9 11  1  1  0  0  0
 10  1  1  0  0  0  0
 11 12  1  0  0  0  0
 13 14  1  1  0  0  0
 13 15  1  0  0  0  0
 13 22  1  0  0  0  0
 14 32  1  0  0  0  0
 15 16  1  6  0  0  0
 15 17  1  0  0  0  0
 16 23  1  0  0  0  0
 17 18  1  1  0  0  0
 17 19  1  0  0  0  0
 19  2  1  6  0  0  0
 19 20  1  0  0  0  0
 20 21  1  1  0  0  0
 20 22  1  0  0  0  0
 23 24  1  0  0  0  0
 24 25  1  0  0  0  0
 25 26  1  0  0  0  0
 26 27  1  0  0  0  0
 27 28  1  0  0  0  0
 28 29  1  0  0  0  0
 29 30  1  0  0  0  0
 31 37  1  0  0  0  0
 32 33  2  0  0  0  0
 34 32  1  1  0  0  0
 34 35  1  0  0  0  0
 34 36  1  0  0  0  0
 36 37  1  0  0  0  0
M  END
>  <CHROM.1>
-139.07528660,68.04151415,-161.52816824,-82.68010302,42.74121796,73.54423034
-151.91857508,-80.32052898,83.56944323,73.19831092,70.15050246,-175.87715399
-60.60287584,-164.05777214,127.82981612,-5.92281633,17.24075426,6.67147528
-1.40657233,0.33034323,-2.38813481

>  <Name>
1o9m_lig

>  <RI>
0

>  <Rbt.Current_Directory>
/home/itssahil/PROJECTS/Mol_Feturizer/New_Systems/rnas/1o9m

>  <Rbt.Executable>
rbdock ($Id: //depot/dev/client3/rdock/2013.1/src/exe/rbdock.cxx#4 $)

>  <Rbt.Library>
libRbt.so (2013.1, Build901 2013/11/27)

>  <Rbt.Parameter_File>
/export/apps/rDock/src/rDock_2013.1_src/data/scripts/dock_solv.prm

>  <Rbt.Receptor>
prm/pocket_docking_3.prm

>  <SCORE>
-3.4687

>  <SCORE.INTER>
-6.10437

>  <SCORE.INTER.CONST>
1

>  <SCORE.INTER.POLAR>
-0.959166

>  <SCORE.INTER.ROT>
15

>  <SCORE.INTER.SOLV>
10.7718

>  <SCORE.INTER.VDW>
-18.063

>  <SCORE.INTER.norm>
-0.164983

>  <SCORE.INTRA>
2.48788

>  <SCORE.INTRA.DIHEDRAL>
0.218116

>  <SCORE.INTRA.DIHEDRAL.0>
21.5987

>  <SCORE.INTRA.POLAR>
0

>  <SCORE.INTRA.POLAR.0>
0

>  <SCORE.INTRA.REPUL>
0

>  <SCORE.INTRA.REPUL.0>
0

>  <SCORE.INTRA.SOLV>
1.46891

>  <SCORE.INTRA.SOLV.lig_0>
-108.715

>  <SCORE.INTRA.VDW>
1.64436

>  <SCORE.INTRA.VDW.0>
-3.9485

>  <SCORE.INTRA.norm>
0.0672399

>  <SCORE.RESTR>
0.147791

>  <SCORE.RESTR.CAVITY>
0.147791

>  <SCORE.RESTR.norm>
0.00399434

>  <SCORE.SYSTEM>
0

>  <SCORE.SYSTEM.CONST>
0

>  <SCORE.SYSTEM.DIHEDRAL>
0

>  <SCORE.SYSTEM.SOLV>
0

>  <SCORE.SYSTEM.norm>
0

>  <SCORE.heavy>
37

>  <SCORE.norm>
-0.0937488

>  <RMSD>
9.296

$$$$
1o9m_lig
 OpenBabel11021811403D
libRbt.so/2013.1/901 2013/11/27
 37 38  0  0  0  0  0  0  0  0999 V2000
   -5.2682   17.7044   10.5450 C   0  0  2  0  0  0  0  0  0  0  0  0
   -4.3266   17.0533    9.6386 O   0  0  0  0  0  0  0  0  0  0  0  0
   -4.4867   18.8913   11.2196 C   0  0  2  0  0  0  0  0  0  0  0  0
   -3.9695   19.8515   10.2289 N   0  0  0  0  0  0  0  0  0  0  0  0
   -3.3136   18.3045   12.0932 C   0  0  1  0  0  0  0  0  0  0  0  0
   -2.5878   19.3658   12.7196 O   0  0  0  0  0  0  0  0  0  0  0  0
   -3.9319   17.3150   13.1354 C   0  0  2  0  0  0  0  0  0  0  0  0
   -2.9423   16.7044   13.9796 O   0  0  0  0  0  0  0  0  0  0  0  0
   -4.7355   16.2008   12.4204 C   0  0  2  0  0  0  0  0  0  0  0  0
   -5.7421   16.7637   11.5664 O   0  0  0  0  0  0  0  0  0  0  0  0
   -5.3886   15.2655   13.4049 C   0  0  0  0  0  0  0  0  0  0  0  0
   -6.3991   15.9115   14.0766 N   0  0  0  0  0  0  0  0  0  0  0  0
   -4.8423   14.6927    6.0355 C   0  0  1  0  0  0  0  0  0  0  0  0
   -5.2658   13.5816    5.1379 N   0  0  0  0  0  0  0  0  0  0  0  0
   -6.0818   15.3242    6.6546 C   0  0  2  0  0  0  0  0  0  0  0  0
   -6.9078   15.7572    5.6152 O   0  0  0  0  0  0  0  0  0  0  0  0
   -5.6865   16.5090    7.5915 C   0  0  1  0  0  0  0  0  0  0  0  0
   -6.8813   17.0921    8.1957 O   0  0  0  0  0  0  0  0  0  0  0  0
   -4.7402   15.9802    8.7450 C   0  0  1  0  0  0  0  0  0  0  0  0
   -3.4886   15.3635    8.1390 C   0  0  1  0  0  0  0  0  0  0  0  0
   -2.6270   14.8981    9.2154 N   0  0  0  0  0  0  0  0  0  0  0  0
   -3.8826   14.1983    7.1923 C   0  0  0  0  0  0  0  0  0  0  0  0
   -7.7764   15.6792    4.4636 C   0  0  0  0  0  0  0  0  0  0  0  0
   -8.1469   17.0771    4.0245 C   0  0  0  0  0  0  0  0  0  0  0  0
   -7.0775   17.7837    3.2896 N   0  0  0  0  0  0  0  0  0  0  0  0
   -6.2883   18.8474    2.6276 C   0  0  0  0  0  0  0  0  0  0  0  0
   -6.8903   18.6984    1.2247 C   0  0  0  0  0  0  0  0  0  0  0  0
   -6.1153   19.5057    0.1664 C   0  0  0  0  0  0  0  0  0  0  0  0
   -4.7533   18.8782   -0.1140 C   0  0  0  0  0  0  0  0  0  0  0  0
   -3.8594   19.0981    1.0142 N   0  0  0  0  0  0  0  0  0  0  0  0
   -3.1054   11.0853    0.2539 N   0  0  0  0  0  0  0  0  0  0  0  0
   -3.9765   13.1348    4.0043 C   0  0  0  0  0  0  0  0  0  0  0  0
   -2.9671   13.4718    3.8266 O   0  0  0  0  0  0  0  0  0  0  0  0
   -4.9573   12.1306    3.4501 C   0  0  2  0  0  0  0  0  0  0  0  0
   -5.3815   11.2610    4.4227 O   0  0  0  0  0  0  0  0  0  0  0  0
   -4.2038   11.3011    2.4162 C   0  0  0  0  0  0  0  0  0  0  0  0
   -3.5417   12.0676    1.2569 C   0  0  0  0  0  0  0  0  0  0  0  0
  1  2  1  6  0  0  0
  1  3  1  0  0  0  0
  3  4  1  6  0  0  0
  3  5  1  0  0  0  0
  5  6  1  1  0  0  0
  5  7  1  0  0  0  0
  7  8  1  6  0  0  0
  9  7  1  0  0  0  0
  9 10  1  0  0  0  0
  9 11  1  1  0  0  0
 10  1  1  0  0  0  0
 11 12  1  0  0  0  0
 13 14  1  6  0  0  0
 13 15  1  0  0  0  0
 13 22  1  0  0  0  0
 14 32  1  0  0  0  0
 15 16  1  6  0  0  0
 15 17  1  0  0  0  0
 16 23  1  0  0  0  0
 17 18  1  1  0  0  0
 17 19  1  0  0  0  0
 19  2  1  1  0  0  0
 19 20  1  0  0  0  0
 20 21  1  1  0  0  0
 20 22  1  0  0  0  0
 23 24  1  0  0  0  0
 24 25  1  0  0  0  0
 25 26  1  0  0  0  0
 26 27  1  0  0  0  0
 27 28  1  0  0  0  0
 28 29  1  0  0  0  0
 29 30  1  0  0  0  0
 31 37  1  0  0  0  0
 32 33  2  0  0  0  0
 34 32  1  1  0  0  0
 34 35  1  0  0  0  0
 34 36  1  0  0  0  0
 36 37  1  0  0  0  0
M  END
>  <CHROM.1>
-174.21779110,69.15003125,162.01912003,65.32226243,-177.45192325,69.44570767
76.63099350,-168.02492711,-90.14877044,-169.75752167,71.13622015,-72.19466286
-57.99403682,-56.96022953,-169.15649780,-4.93594195,16.02452357,6.88235532
1.29005093,-1.31338597,1.10138220

>  <Name>
1o9m_lig

>  <RI>
0

>  <Rbt.Current_Directory>
/home/itssahil/PROJECTS/Mol_Feturizer/New_Systems/rnas/1o9m

>  <Rbt.Executable>
rbdock ($Id: //depot/dev/client3/rdock/2013.1/src/exe/rbdock.cxx#4 $)

>  <Rbt.Library>
libRbt.so (2013.1, Build901 2013/11/27)

>  <Rbt.Parameter_File>
/export/apps/rDock/src/rDock_2013.1_src/data/scripts/dock_solv.prm

>  <Rbt.Receptor>
prm/pocket_docking_7.prm

>  <SCORE>
-17.9541

>  <SCORE.INTER>
-12.9253

>  <SCORE.INTER.CONST>
1

>  <SCORE.INTER.POLAR>
-1.48533

>  <SCORE.INTER.ROT>
15

>  <SCORE.INTER.SOLV>
16.5958

>  <SCORE.INTER.VDW>
-22.7977

>  <SCORE.INTER.norm>
-0.349333

>  <SCORE.INTRA>
-5.02881

>  <SCORE.INTRA.DIHEDRAL>
-15.8114

>  <SCORE.INTRA.DIHEDRAL.0>
21.5987

>  <SCORE.INTRA.POLAR>
0

>  <SCORE.INTRA.POLAR.0>
0

>  <SCORE.INTRA.REPUL>
0

>  <SCORE.INTRA.REPUL.0>
0

>  <SCORE.INTRA.SOLV>
2.05915

>  <SCORE.INTRA.SOLV.lig_0>
-108.715

>  <SCORE.INTRA.VDW>
1.84731

>  <SCORE.INTRA.VDW.0>
-3.9485

>  <SCORE.INTRA.norm>
-0.135914

>  <SCORE.RESTR>
0

>  <SCORE.RESTR.CAVITY>
0

>  <SCORE.RESTR.norm>
0

>  <SCORE.SYSTEM>
0

>  <SCORE.SYSTEM.CONST>
0

>  <SCORE.SYSTEM.DIHEDRAL>
0

>  <SCORE.SYSTEM.SOLV>
0

>  <SCORE.SYSTEM.norm>
0

>  <SCORE.heavy>
37

>  <SCORE.norm>
-0.485247

>  <RMSD>
9.311

$$$$
1o9m_lig
 OpenBabel11021811403D
libRbt.so/2013.1/901 2013/11/27
 37 38  0  0  0  0  0  0  0  0999 V2000
   -5.1617   20.2891    7.2069 C   0  0  2  0  0  0  0  0  0  0  0  0
   -5.2018   19.7787    8.5744 O   0  0  0  0  0  0  0  0  0  0  0  0
   -4.9622   21.8454    7.3193 C   0  0  2  0  0  0  0  0  0  0  0  0
   -3.7277   22.1975    8.0425 N   0  0  0  0  0  0  0  0  0  0  0  0
   -6.2220   22.4760    8.0257 C   0  0  1  0  0  0  0  0  0  0  0  0
   -6.0652   23.8932    8.1383 O   0  0  0  0  0  0  0  0  0  0  0  0
   -7.4902   22.0850    7.1973 C   0  0  2  0  0  0  0  0  0  0  0  0
   -8.7068   22.5971    7.7652 O   0  0  0  0  0  0  0  0  0  0  0  0
   -7.6065   20.5459    7.0707 C   0  0  2  0  0  0  0  0  0  0  0  0
   -6.4129   19.9877    6.5024 O   0  0  0  0  0  0  0  0  0  0  0  0
   -8.7899   20.1439    6.2290 C   0  0  0  0  0  0  0  0  0  0  0  0
   -8.5802   20.4919    4.9159 N   0  0  0  0  0  0  0  0  0  0  0  0
   -4.3145   15.8750   10.2459 C   0  0  1  0  0  0  0  0  0  0  0  0
   -4.4218   14.4169   10.5321 N   0  0  0  0  0  0  0  0  0  0  0  0
   -4.1153   16.0689    8.7489 C   0  0  2  0  0  0  0  0  0  0  0  0
   -2.9717   15.3611    8.3728 O   0  0  0  0  0  0  0  0  0  0  0  0
   -3.9787   17.5854    8.4034 C   0  0  1  0  0  0  0  0  0  0  0  0
   -3.8100   17.7596    6.9634 O   0  0  0  0  0  0  0  0  0  0  0  0
   -5.2864   18.3528    8.8584 C   0  0  1  0  0  0  0  0  0  0  0  0
   -5.4859   18.1821   10.3567 C   0  0  1  0  0  0  0  0  0  0  0  0
   -6.6832   18.9068   10.7557 N   0  0  0  0  0  0  0  0  0  0  0  0
   -5.6020   16.6735   10.7027 C   0  0  0  0  0  0  0  0  0  0  0  0
   -2.1015   14.2307    8.1458 C   0  0  0  0  0  0  0  0  0  0  0  0
   -0.8405   14.7037    7.4599 C   0  0  0  0  0  0  0  0  0  0  0  0
   -1.0392   15.1390    6.0620 N   0  0  0  0  0  0  0  0  0  0  0  0
   -0.7786   15.5923    4.6767 C   0  0  0  0  0  0  0  0  0  0  0  0
   -0.1791   16.9608    5.0242 C   0  0  0  0  0  0  0  0  0  0  0  0
    0.3700   17.6912    3.7844 C   0  0  0  0  0  0  0  0  0  0  0  0
    0.8681   19.0872    4.1453 C   0  0  0  0  0  0  0  0  0  0  0  0
    1.3373   19.7753    2.9509 N   0  0  0  0  0  0  0  0  0  0  0  0
   -1.4408   10.3136   11.0912 N   0  0  0  0  0  0  0  0  0  0  0  0
   -4.2720   14.0827   12.2678 C   0  0  0  0  0  0  0  0  0  0  0  0
   -4.1340   14.6865   13.1513 O   0  0  0  0  0  0  0  0  0  0  0  0
   -4.4086   12.6276   11.8915 C   0  0  2  0  0  0  0  0  0  0  0  0
   -4.9516   11.8975   12.9181 O   0  0  0  0  0  0  0  0  0  0  0  0
   -2.9976   12.0940   11.6700 C   0  0  0  0  0  0  0  0  0  0  0  0
   -2.8715   10.6358   11.1930 C   0  0  0  0  0  0  0  0  0  0  0  0
  1  2  1  1  0  0  0
  1  3  1  0  0  0  0
  3  4  1  1  0  0  0
  3  5  1  0  0  0  0
  5  6  1  6  0  0  0
  5  7  1  0  0  0  0
  7  8  1  1  0  0  0
  9  7  1  0  0  0  0
  9 10  1  0  0  0  0
  9 11  1  6  0  0  0
 10  1  1  0  0  0  0
 11 12  1  0  0  0  0
 13 14  1  6  0  0  0
 13 15  1  0  0  0  0
 13 22  1  0  0  0  0
 14 32  1  0  0  0  0
 15 16  1  1  0  0  0
 15 17  1  0  0  0  0
 16 23  1  0  0  0  0
 17 18  1  6  0  0  0
 17 19  1  0  0  0  0
 19  2  1  1  0  0  0
 19 20  1  0  0  0  0
 20 21  1  6  0  0  0
 20 22  1  0  0  0  0
 23 24  1  0  0  0  0
 24 25  1  0  0  0  0
 25 26  1  0  0  0  0
 26 27  1  0  0  0  0
 27 28  1  0  0  0  0
 28 29  1  0  0  0  0
 29 30  1  0  0  0  0
 31 37  1  0  0  0  0
 32 33  2  0  0  0  0
 34 32  1  1  0  0  0
 34 35  1  0  0  0  0
 34 36  1  0  0  0  0
 36 37  1  0  0  0  0
M  END
>  <CHROM.1>
-175.80788495,68.95668072,166.59679485,63.61682614,174.57325817,66.28983545
-69.79032685,-172.29254111,-65.19462577,173.74406768,175.95751164,-177.96184107
-152.46971922,-176.58353433,-177.98143389,-4.14427519,17.44345378,8.30665799
1.96590031,0.62399547,-0.66028693

>  <Name>
1o9m_lig

>  <RI>
0

>  <Rbt.Current_Directory>
/home/itssahil/PROJECTS/Mol_Feturizer/New_Systems/rnas/1o9m

>  <Rbt.Executable>
rbdock ($Id: //depot/dev/client3/rdock/2013.1/src/exe/rbdock.cxx#4 $)

>  <Rbt.Library>
libRbt.so (2013.1, Build901 2013/11/27)

>  <Rbt.Parameter_File>
/export/apps/rDock/src/rDock_2013.1_src/data/scripts/dock_solv.prm

>  <Rbt.Receptor>
prm/pocket_docking_8.prm

>  <SCORE>
-12.8603

>  <SCORE.INTER>
-2.92427

>  <SCORE.INTER.CONST>
1

>  <SCORE.INTER.POLAR>
-1.51483

>  <SCORE.INTER.ROT>
15

>  <SCORE.INTER.SOLV>
13.6583

>  <SCORE.INTER.VDW>
-15.0528

>  <SCORE.INTER.norm>
-0.0790343

>  <SCORE.INTRA>
-9.93603

>  <SCORE.INTRA.DIHEDRAL>
-18.2398

>  <SCORE.INTRA.DIHEDRAL.0>
21.5987

>  <SCORE.INTRA.POLAR>
0

>  <SCORE.INTRA.POLAR.0>
0

>  <SCORE.INTRA.REPUL>
0

>  <SCORE.INTRA.REPUL.0>
0

>  <SCORE.INTRA.SOLV>
-0.494491

>  <SCORE.INTRA.SOLV.lig_0>
-108.715

>  <SCORE.INTRA.VDW>
-0.568906

>  <SCORE.INTRA.VDW.0>
-3.9485

>  <SCORE.INTRA.norm>
-0.268541

>  <SCORE.RESTR>
0

>  <SCORE.RESTR.CAVITY>
0

>  <SCORE.RESTR.norm>
0

>  <SCORE.SYSTEM>
0

>  <SCORE.SYSTEM.CONST>
0

>  <SCORE.SYSTEM.DIHEDRAL>
0

>  <SCORE.SYSTEM.SOLV>
0

>  <SCORE.SYSTEM.norm>
0

>  <SCORE.heavy>
37

>  <SCORE.norm>
-0.347576

>  <RMSD>
9.311

$$$$
1o9m_lig
 OpenBabel11021811403D
libRbt.so/2013.1/901 2013/11/27
 37 38  0  0  0  0  0  0  0  0999 V2000
   -4.2194   17.4325   11.5374 C   0  0  2  0  0  0  0  0  0  0  0  0
   -3.5813   17.7525   10.2636 O   0  0  0  0  0  0  0  0  0  0  0  0
   -3.8980   18.6281   12.5079 C   0  0  2  0  0  0  0  0  0  0  0  0
   -4.3912   19.9153   11.9877 N   0  0  0  0  0  0  0  0  0  0  0  0
   -2.3427   18.6855   12.7562 C   0  0  1  0  0  0  0  0  0  0  0  0
   -2.0246   19.7652   13.6385 O   0  0  0  0  0  0  0  0  0  0  0  0
   -1.8903   17.3013   13.3279 C   0  0  2  0  0  0  0  0  0  0  0  0
   -0.4766   17.2360   13.5769 O   0  0  0  0  0  0  0  0  0  0  0  0
   -2.2810   16.1569   12.3603 C   0  0  2  0  0  0  0  0  0  0  0  0
   -3.6891   16.1786   12.0844 O   0  0  0  0  0  0  0  0  0  0  0  0
   -1.9062   14.8066   12.9142 C   0  0  0  0  0  0  0  0  0  0  0  0
   -2.7383   14.4718   13.9558 N   0  0  0  0  0  0  0  0  0  0  0  0
   -4.6022   16.4675    6.2478 C   0  0  1  0  0  0  0  0  0  0  0  0
   -4.7522   15.5885    5.0543 N   0  0  0  0  0  0  0  0  0  0  0  0
   -5.3787   15.8589    7.4075 C   0  0  2  0  0  0  0  0  0  0  0  0
   -6.7090   15.7182    7.0066 O   0  0  0  0  0  0  0  0  0  0  0  0
   -5.2651   16.7584    8.6786 C   0  0  1  0  0  0  0  0  0  0  0  0
   -5.9954   16.1537    9.7892 O   0  0  0  0  0  0  0  0  0  0  0  0
   -3.7437   16.9049    9.0906 C   0  0  1  0  0  0  0  0  0  0  0  0
   -2.9605   17.5297    7.9460 C   0  0  1  0  0  0  0  0  0  0  0  0
   -1.5697   17.6689    8.3508 N   0  0  0  0  0  0  0  0  0  0  0  0
   -3.0896   16.6457    6.6768 C   0  0  0  0  0  0  0  0  0  0  0  0
   -8.0212   16.0975    6.5367 C   0  0  0  0  0  0  0  0  0  0  0  0
   -7.9531   16.3930    5.0560 C   0  0  0  0  0  0  0  0  0  0  0  0
   -9.2441   16.7925    4.4589 N   0  0  0  0  0  0  0  0  0  0  0  0
  -10.6706   16.8008    4.0619 C   0  0  0  0  0  0  0  0  0  0  0  0
  -11.2197   17.5095    5.3065 C   0  0  0  0  0  0  0  0  0  0  0  0
  -12.7414   17.7341    5.2286 C   0  0  0  0  0  0  0  0  0  0  0  0
  -13.2705   18.3609    6.5149 C   0  0  0  0  0  0  0  0  0  0  0  0
  -14.6773   18.7043    6.3621 N   0  0  0  0  0  0  0  0  0  0  0  0
   -4.5725   11.6413    1.5910 N   0  0  0  0  0  0  0  0  0  0  0  0
   -4.0093   13.9997    5.3202 C   0  0  0  0  0  0  0  0  0  0  0  0
   -3.4910   13.5282    6.1406 O   0  0  0  0  0  0  0  0  0  0  0  0
   -4.4305   13.6841    3.9058 C   0  0  2  0  0  0  0  0  0  0  0  0
   -5.5609   12.9070    3.8854 O   0  0  0  0  0  0  0  0  0  0  0  0
   -3.3129   12.8517    3.2871 C   0  0  0  0  0  0  0  0  0  0  0  0
   -3.4264   12.5416    1.7835 C   0  0  0  0  0  0  0  0  0  0  0  0
  1  2  1  6  0  0  0
  1  3  1  0  0  0  0
  3  4  1  6  0  0  0
  3  5  1  0  0  0  0
  5  6  1  1  0  0  0
  5  7  1  0  0  0  0
  7  8  1  6  0  0  0
  9  7  1  0  0  0  0
  9 10  1  0  0  0  0
  9 11  1  1  0  0  0
 10  1  1  0  0  0  0
 11 12  1  0  0  0  0
 13 14  1  6  0  0  0
 13 15  1  0  0  0  0
 13 22  1  0  0  0  0
 14 32  1  0  0  0  0
 15 16  1  6  0  0  0
 15 17  1  0  0  0  0
 16 23  1  0  0  0  0
 17 18  1  1  0  0  0
 17 19  1  0  0  0  0
 19  2  1  1  0  0  0
 19 20  1  0  0  0  0
 20 21  1  1  0  0  0
 20 22  1  0  0  0  0
 23 24  1  0  0  0  0
 24 25  1  0  0  0  0
 25 26  1  0  0  0  0
 26 27  1  0  0  0  0
 27 28  1  0  0  0  0
 28 29  1  0  0  0  0
 29 30  1  0  0  0  0
 31 37  1  0  0  0  0
 32 33  2  0  0  0  0
 34 32  1  1  0  0  0
 34 35  1  0  0  0  0
 34 36  1  0  0  0  0
 36 37  1  0  0  0  0
M  END
>  <CHROM.1>
-175.79088521,72.04236535,-64.66604042,-59.24784164,75.04893720,58.85538441
179.91768623,-52.81815140,87.39165281,178.53158163,176.46350531,173.50940214
-101.50104945,-172.87635044,-67.56647917,-5.24346135,16.29458121,8.03912777
0.84069817,-0.36746540,1.06847498

>  <Name>
1o9m_lig

>  <RI>
0

>  <Rbt.Current_Directory>
/home/itssahil/PROJECTS/Mol_Feturizer/New_Systems/rnas/1o9m

>  <Rbt.Executable>
rbdock ($Id: //depot/dev/client3/rdock/2013.1/src/exe/rbdock.cxx#4 $)

>  <Rbt.Library>
libRbt.so (2013.1, Build901 2013/11/27)

>  <Rbt.Parameter_File>
/export/apps/rDock/src/rDock_2013.1_src/data/scripts/dock_solv.prm

>  <Rbt.Receptor>
prm/pocket_docking_7.prm

>  <SCORE>
-12.961

>  <SCORE.INTER>
-4.80176

>  <SCORE.INTER.CONST>
1

>  <SCORE.INTER.POLAR>
-0.467176

>  <SCORE.INTER.ROT>
15

>  <SCORE.INTER.SOLV>
14.5834

>  <SCORE.INTER.VDW>
-20.1051

>  <SCORE.INTER.norm>
-0.129777

>  <SCORE.INTRA>
-8.1592

>  <SCORE.INTRA.DIHEDRAL>
-16.792

>  <SCORE.INTRA.DIHEDRAL.0>
21.5987

>  <SCORE.INTRA.POLAR>
0

>  <SCORE.INTRA.POLAR.0>
0

>  <SCORE.INTRA.REPUL>
0

>  <SCORE.INTRA.REPUL.0>
0

>  <SCORE.INTRA.SOLV>
1.15727

>  <SCORE.INTRA.SOLV.lig_0>
-108.715

>  <SCORE.INTRA.VDW>
-0.341845

>  <SCORE.INTRA.VDW.0>
-3.9485

>  <SCORE.INTRA.norm>
-0.220519

>  <SCORE.RESTR>
0

>  <SCORE.RESTR.CAVITY>
0

>  <SCORE.RESTR.norm>
0

>  <SCORE.SYSTEM>
0

>  <SCORE.SYSTEM.CONST>
0

>  <SCORE.SYSTEM.DIHEDRAL>
0

>  <SCORE.SYSTEM.SOLV>
0

>  <SCORE.SYSTEM.norm>
0

>  <SCORE.heavy>
37

>  <SCORE.norm>
-0.350296

>  <RMSD>
9.331

$$$$
1o9m_lig
 OpenBabel11021811403D
libRbt.so/2013.1/901 2013/11/27
 37 38  0  0  0  0  0  0  0  0999 V2000
   -5.9919   17.7081   10.5031 C   0  0  2  0  0  0  0  0  0  0  0  0
   -5.0341   17.2469    9.5020 O   0  0  0  0  0  0  0  0  0  0  0  0
   -5.4256   19.0622   11.0689 C   0  0  2  0  0  0  0  0  0  0  0  0
   -5.2473   20.0751   10.0139 N   0  0  0  0  0  0  0  0  0  0  0  0
   -4.0626   18.7810   11.8086 C   0  0  1  0  0  0  0  0  0  0  0  0
   -3.5276   19.9986   12.3345 O   0  0  0  0  0  0  0  0  0  0  0  0
   -4.3266   17.7191   12.9267 C   0  0  2  0  0  0  0  0  0  0  0  0
   -3.1393   17.3732   13.6586 O   0  0  0  0  0  0  0  0  0  0  0  0
   -4.9350   16.4295   12.3224 C   0  0  2  0  0  0  0  0  0  0  0  0
   -6.1291   16.7248   11.5834 O   0  0  0  0  0  0  0  0  0  0  0  0
   -5.2511   15.4107   13.3866 C   0  0  0  0  0  0  0  0  0  0  0  0
   -4.0920   14.8516   13.8695 N   0  0  0  0  0  0  0  0  0  0  0  0
   -5.1311   14.7416    5.9616 C   0  0  1  0  0  0  0  0  0  0  0  0
   -5.4354   13.5865    5.0714 N   0  0  0  0  0  0  0  0  0  0  0  0
   -6.4414   15.3589    6.4313 C   0  0  2  0  0  0  0  0  0  0  0  0
   -7.1715   15.7291    5.3000 O   0  0  0  0  0  0  0  0  0  0  0  0
   -6.1709   16.5883    7.3549 C   0  0  1  0  0  0  0  0  0  0  0  0
   -7.4339   17.1580    7.8162 O   0  0  0  0  0  0  0  0  0  0  0  0
   -5.3298   16.1302    8.6153 C   0  0  1  0  0  0  0  0  0  0  0  0
   -4.0093   15.5285    8.1592 C   0  0  1  0  0  0  0  0  0  0  0  0
   -3.2465   15.1284    9.3321 N   0  0  0  0  0  0  0  0  0  0  0  0
   -4.2780   14.3183    7.2252 C   0  0  0  0  0  0  0  0  0  0  0  0
   -7.8456   15.5963    4.0293 C   0  0  0  0  0  0  0  0  0  0  0  0
   -8.4770   16.9191    3.6607 C   0  0  0  0  0  0  0  0  0  0  0  0
   -9.5530   17.3518    4.5761 N   0  0  0  0  0  0  0  0  0  0  0  0
  -10.7324   17.3369    5.4712 C   0  0  0  0  0  0  0  0  0  0  0  0
  -11.7757   16.9386    4.4197 C   0  0  0  0  0  0  0  0  0  0  0  0
  -12.3344   18.1558    3.6591 C   0  0  0  0  0  0  0  0  0  0  0  0
  -11.2733   18.7706    2.7518 C   0  0  0  0  0  0  0  0  0  0  0  0
  -11.8549   19.8439    1.9579 N   0  0  0  0  0  0  0  0  0  0  0  0
   -5.7639    9.6392    2.0394 N   0  0  0  0  0  0  0  0  0  0  0  0
   -4.1165   13.2853    3.9240 C   0  0  0  0  0  0  0  0  0  0  0  0
   -3.1540   13.7343    3.7340 O   0  0  0  0  0  0  0  0  0  0  0  0
   -4.9827   12.1740    3.3834 C   0  0  2  0  0  0  0  0  0  0  0  0
   -5.2716   11.2508    4.3561 O   0  0  0  0  0  0  0  0  0  0  0  0
   -4.1624   11.4515    2.3204 C   0  0  0  0  0  0  0  0  0  0  0  0
   -4.9403   10.6044    1.2971 C   0  0  0  0  0  0  0  0  0  0  0  0
  1  2  1  6  0  0  0
  1  3  1  0  0  0  0
  3  4  1  6  0  0  0
  3  5  1  0  0  0  0
  5  6  1  1  0  0  0
  5  7  1  0  0  0  0
  7  8  1  6  0  0  0
  9  7  1  0  0  0  0
  9 10  1  0  0  0  0
  9 11  1  1  0  0  0
 10  1  1  0  0  0  0
 11 12  1  0  0  0  0
 13 14  1  6  0  0  0
 13 15  1  0  0  0  0
 13 22  1  0  0  0  0
 14 32  1  0  0  0  0
 15 16  1  6  0  0  0
 15 17  1  0  0  0  0
 16 23  1  0  0  0  0
 17 18  1  1  0  0  0
 17 19  1  0  0  0  0
 19  2  1  1  0  0  0
 19 20  1  0  0  0  0
 20 21  1  1  0  0  0
 20 22  1  0  0  0  0
 23 24  1  0  0  0  0
 24 25  1  0  0  0  0
 25 26  1  0  0  0  0
 26 27  1  0  0  0  0
 27 28  1  0  0  0  0
 28 29  1  0  0  0  0
 29 30  1  0  0  0  0
 31 37  1  0  0  0  0
 32 33  2  0  0  0  0
 34 32  1  1  0  0  0
 34 35  1  0  0  0  0
 34 36  1  0  0  0  0
 36 37  1  0  0  0  0
M  END
>  <CHROM.1>
-170.14569265,-72.80563256,153.76054558,55.75627035,177.48723149,83.51024813
-64.80556556,-40.46219682,-64.91432289,-85.81479468,69.17198528,175.06111903
-59.23555859,-160.03179092,-55.37648736,-6.16058189,15.91826605,7.20040797
1.14321340,-0.70063124,0.96274031

>  <Name>
1o9m_lig

>  <RI>
0

>  <Rbt.Current_Directory>
/home/itssahil/PROJECTS/Mol_Feturizer/New_Systems/rnas/1o9m

>  <Rbt.Executable>
rbdock ($Id: //depot/dev/client3/rdock/2013.1/src/exe/rbdock.cxx#4 $)

>  <Rbt.Library>
libRbt.so (2013.1, Build901 2013/11/27)

>  <Rbt.Parameter_File>
/export/apps/rDock/src/rDock_2013.1_src/data/scripts/dock_solv.prm

>  <Rbt.Receptor>
prm/pocket_docking_5.prm

>  <SCORE>
-18.0822

>  <SCORE.INTER>
-14.4005

>  <SCORE.INTER.CONST>
1

>  <SCORE.INTER.POLAR>
-1.40195

>  <SCORE.INTER.ROT>
15

>  <SCORE.INTER.SOLV>
15.7277

>  <SCORE.INTER.VDW>
-23.7697

>  <SCORE.INTER.norm>
-0.389202

>  <SCORE.INTRA>
-3.68175

>  <SCORE.INTRA.DIHEDRAL>
-12.3742

>  <SCORE.INTRA.DIHEDRAL.0>
21.5987

>  <SCORE.INTRA.POLAR>
0

>  <SCORE.INTRA.POLAR.0>
0

>  <SCORE.INTRA.REPUL>
0

>  <SCORE.INTRA.REPUL.0>
0

>  <SCORE.INTRA.SOLV>
3.26516

>  <SCORE.INTRA.SOLV.lig_0>
-108.715

>  <SCORE.INTRA.VDW>
0.872788

>  <SCORE.INTRA.VDW.0>
-3.9485

>  <SCORE.INTRA.norm>
-0.0995068

>  <SCORE.RESTR>
0

>  <SCORE.RESTR.CAVITY>
0

>  <SCORE.RESTR.norm>
0

>  <SCORE.SYSTEM>
0

>  <SCORE.SYSTEM.CONST>
0

>  <SCORE.SYSTEM.DIHEDRAL>
0

>  <SCORE.SYSTEM.SOLV>
0

>  <SCORE.SYSTEM.norm>
0

>  <SCORE.heavy>
37

>  <SCORE.norm>
-0.488709

>  <RMSD>
9.373

$$$$
1o9m_lig
 OpenBabel11021811403D
libRbt.so/2013.1/901 2013/11/27
 37 38  0  0  0  0  0  0  0  0999 V2000
   -3.4661   16.2772   11.2541 C   0  0  2  0  0  0  0  0  0  0  0  0
   -4.1553   16.4692    9.9812 O   0  0  0  0  0  0  0  0  0  0  0  0
   -4.1811   17.2180   12.2925 C   0  0  2  0  0  0  0  0  0  0  0  0
   -5.6159   16.9108   12.4261 N   0  0  0  0  0  0  0  0  0  0  0  0
   -3.9697   18.7183   11.8585 C   0  0  1  0  0  0  0  0  0  0  0  0
   -4.6102   19.5950   12.7895 O   0  0  0  0  0  0  0  0  0  0  0  0
   -2.4311   18.9831   11.7586 C   0  0  2  0  0  0  0  0  0  0  0  0
   -2.1218   20.3258   11.3504 O   0  0  0  0  0  0  0  0  0  0  0  0
   -1.7701   17.9942   10.7670 C   0  0  2  0  0  0  0  0  0  0  0  0
   -2.0482   16.6359   11.1372 O   0  0  0  0  0  0  0  0  0  0  0  0
   -0.2779   18.1915   10.6947 C   0  0  0  0  0  0  0  0  0  0  0  0
    0.2589   17.4033    9.7048 N   0  0  0  0  0  0  0  0  0  0  0  0
   -4.0453   14.2454    6.2578 C   0  0  1  0  0  0  0  0  0  0  0  0
   -4.2027   13.1213    5.2928 N   0  0  0  0  0  0  0  0  0  0  0  0
   -5.4096   14.5873    6.8412 C   0  0  2  0  0  0  0  0  0  0  0  0
   -6.2627   14.9031    5.7816 O   0  0  0  0  0  0  0  0  0  0  0  0
   -5.2961   15.7760    7.8471 C   0  0  1  0  0  0  0  0  0  0  0  0
   -6.6063   16.0801    8.4158 O   0  0  0  0  0  0  0  0  0  0  0  0
   -4.3107   15.3840    9.0224 C   0  0  1  0  0  0  0  0  0  0  0  0
   -2.9381   15.0583    8.4534 C   0  0  1  0  0  0  0  0  0  0  0  0
   -2.0452   14.7157    9.5502 N   0  0  0  0  0  0  0  0  0  0  0  0
   -3.0539   13.8895    7.4386 C   0  0  0  0  0  0  0  0  0  0  0  0
   -7.0358   14.7214    4.5750 C   0  0  0  0  0  0  0  0  0  0  0  0
   -7.7282   16.0193    4.2279 C   0  0  0  0  0  0  0  0  0  0  0  0
   -6.8208   17.0760    3.7350 N   0  0  0  0  0  0  0  0  0  0  0  0
   -6.3056   18.3726    3.2390 C   0  0  0  0  0  0  0  0  0  0  0  0
   -7.2177   18.4931    2.0117 C   0  0  0  0  0  0  0  0  0  0  0  0
   -8.6705   18.8338    2.3932 C   0  0  0  0  0  0  0  0  0  0  0  0
   -9.5509   18.9512    1.1528 C   0  0  0  0  0  0  0  0  0  0  0  0
  -10.9212   19.2566    1.5391 N   0  0  0  0  0  0  0  0  0  0  0  0
   -5.6345   10.4325    1.3540 N   0  0  0  0  0  0  0  0  0  0  0  0
   -3.4973   13.5168    3.7140 C   0  0  0  0  0  0  0  0  0  0  0  0
   -2.9785   14.3686    3.3027 O   0  0  0  0  0  0  0  0  0  0  0  0
   -3.9802   12.1556    3.2761 C   0  0  2  0  0  0  0  0  0  0  0  0
   -3.3201   11.7325    2.1504 O   0  0  0  0  0  0  0  0  0  0  0  0
   -5.4482   12.3093    2.8940 C   0  0  0  0  0  0  0  0  0  0  0  0
   -6.2215   11.0188    2.5676 C   0  0  0  0  0  0  0  0  0  0  0  0
  1  2  1  6  0  0  0
  1  3  1  0  0  0  0
  3  4  1  6  0  0  0
  3  5  1  0  0  0  0
  5  6  1  1  0  0  0
  5  7  1  0  0  0  0
  7  8  1  6  0  0  0
  9  7  1  0  0  0  0
  9 10  1  0  0  0  0
  9 11  1  1  0  0  0
 10  1  1  0  0  0  0
 11 12  1  0  0  0  0
 13 14  1  6  0  0  0
 13 15  1  0  0  0  0
 13 22  1  0  0  0  0
 14 32  1  0  0  0  0
 15 16  1  6  0  0  0
 15 17  1  0  0  0  0
 16 23  1  0  0  0  0
 17 18  1  1  0  0  0
 17 19  1  0  0  0  0
 19  2  1  1  0  0  0
 19 20  1  0  0  0  0
 20 21  1  1  0  0  0
 20 22  1  0  0  0  0
 23 24  1  0  0  0  0
 24 25  1  0  0  0  0
 25 26  1  0  0  0  0
 26 27  1  0  0  0  0
 27 28  1  0  0  0  0
 28 29  1  0  0  0  0
 29 30  1  0  0  0  0
 31 37  1  0  0  0  0
 32 33  2  0  0  0  0
 34 32  1  6  0  0  0
 34 35  1  0  0  0  0
 34 36  1  0  0  0  0
 36 37  1  0  0  0  0
M  END
>  <CHROM.1>
-146.87265741,-173.47180607,126.91468331,63.16991043,-179.21895913,170.31797783
71.40673728,-177.25338574,-57.01429622,73.08201478,179.81650556,179.28389503
-160.84889560,-172.98428162,-65.07868966,-4.70263633,15.95617969,6.84279489
-0.99618292,0.80665403,-2.33436516

>  <Name>
1o9m_lig

>  <RI>
0

>  <Rbt.Current_Directory>
/home/itssahil/PROJECTS/Mol_Feturizer/New_Systems/rnas/1o9m

>  <Rbt.Executable>
rbdock ($Id: //depot/dev/client3/rdock/2013.1/src/exe/rbdock.cxx#4 $)

>  <Rbt.Library>
libRbt.so (2013.1, Build901 2013/11/27)

>  <Rbt.Parameter_File>
/export/apps/rDock/src/rDock_2013.1_src/data/scripts/dock_solv.prm

>  <Rbt.Receptor>
prm/pocket_docking_7.prm

>  <SCORE>
-12.8246

>  <SCORE.INTER>
-9.34602

>  <SCORE.INTER.CONST>
1

>  <SCORE.INTER.POLAR>
-0.947773

>  <SCORE.INTER.ROT>
15

>  <SCORE.INTER.SOLV>
11.2734

>  <SCORE.INTER.VDW>
-20.4292

>  <SCORE.INTER.norm>
-0.252595

>  <SCORE.INTRA>
-3.4786

>  <SCORE.INTRA.DIHEDRAL>
-12.8356

>  <SCORE.INTRA.DIHEDRAL.0>
21.5987

>  <SCORE.INTRA.POLAR>
0

>  <SCORE.INTRA.POLAR.0>
0

>  <SCORE.INTRA.REPUL>
0.00298588

>  <SCORE.INTRA.REPUL.0>
0

>  <SCORE.INTRA.SOLV>
4.61466

>  <SCORE.INTRA.SOLV.lig_0>
-108.715

>  <SCORE.INTRA.VDW>
0.616931

>  <SCORE.INTRA.VDW.0>
-3.9485

>  <SCORE.INTRA.norm>
-0.0940161

>  <SCORE.RESTR>
0

>  <SCORE.RESTR.CAVITY>
0

>  <SCORE.RESTR.norm>
0

>  <SCORE.SYSTEM>
0

>  <SCORE.SYSTEM.CONST>
0

>  <SCORE.SYSTEM.DIHEDRAL>
0

>  <SCORE.SYSTEM.SOLV>
0

>  <SCORE.SYSTEM.norm>
0

>  <SCORE.heavy>
37

>  <SCORE.norm>
-0.346611

>  <RMSD>
9.385

$$$$
1o9m_lig
 OpenBabel11021811403D
libRbt.so/2013.1/901 2013/11/27
 37 38  0  0  0  0  0  0  0  0999 V2000
   -2.7244   15.8393   10.1231 C   0  0  2  0  0  0  0  0  0  0  0  0
   -3.4931   16.3805    9.0058 O   0  0  0  0  0  0  0  0  0  0  0  0
   -3.7466   15.0580   11.0283 C   0  0  2  0  0  0  0  0  0  0  0  0
   -4.4278   13.9776   10.2937 N   0  0  0  0  0  0  0  0  0  0  0  0
   -4.7934   16.0767   11.6200 C   0  0  1  0  0  0  0  0  0  0  0  0
   -5.7343   15.3896   12.4496 O   0  0  0  0  0  0  0  0  0  0  0  0
   -4.0084   17.1798   12.4040 C   0  0  2  0  0  0  0  0  0  0  0  0
   -4.8701   18.1777   12.9753 O   0  0  0  0  0  0  0  0  0  0  0  0
   -2.9786   17.8772   11.4812 C   0  0  2  0  0  0  0  0  0  0  0  0
   -2.0903   16.9182   10.8891 O   0  0  0  0  0  0  0  0  0  0  0  0
   -2.1694   18.9065   12.2270 C   0  0  0  0  0  0  0  0  0  0  0  0
   -1.2688   19.5083   11.3808 N   0  0  0  0  0  0  0  0  0  0  0  0
   -4.0587   15.3302    4.8347 C   0  0  1  0  0  0  0  0  0  0  0  0
   -4.3299   14.5087    3.6218 N   0  0  0  0  0  0  0  0  0  0  0  0
   -5.2700   15.2631    5.7549 C   0  0  2  0  0  0  0  0  0  0  0  0
   -6.3800   15.7135    5.0370 O   0  0  0  0  0  0  0  0  0  0  0  0
   -5.0379   16.1269    7.0346 C   0  0  1  0  0  0  0  0  0  0  0  0
   -6.1967   16.0372    7.9186 O   0  0  0  0  0  0  0  0  0  0  0  0
   -3.7648   15.5945    7.8102 C   0  0  1  0  0  0  0  0  0  0  0  0
   -2.5436   15.6742    6.9068 C   0  0  1  0  0  0  0  0  0  0  0  0
   -1.3836   15.1949    7.6432 N   0  0  0  0  0  0  0  0  0  0  0  0
   -2.7821   14.8314    5.6254 C   0  0  0  0  0  0  0  0  0  0  0  0
   -7.2190   16.6117    4.2780 C   0  0  0  0  0  0  0  0  0  0  0  0
   -8.4636   15.8762    3.8371 C   0  0  0  0  0  0  0  0  0  0  0  0
   -9.7258   16.5627    4.1813 N   0  0  0  0  0  0  0  0  0  0  0  0
  -11.1479   16.9749    4.1930 C   0  0  0  0  0  0  0  0  0  0  0  0
  -11.1377   17.6872    5.5515 C   0  0  0  0  0  0  0  0  0  0  0  0
  -12.5065   18.3010    5.9007 C   0  0  0  0  0  0  0  0  0  0  0  0
  -12.6459   19.7021    5.3135 C   0  0  0  0  0  0  0  0  0  0  0  0
  -12.8198   19.6243    3.8699 N   0  0  0  0  0  0  0  0  0  0  0  0
   -3.4711    9.4605    0.8131 N   0  0  0  0  0  0  0  0  0  0  0  0
   -4.7669   12.8435    4.0493 C   0  0  0  0  0  0  0  0  0  0  0  0
   -4.8899   12.3010    4.9737 O   0  0  0  0  0  0  0  0  0  0  0  0
   -4.8515   12.5967    2.5628 C   0  0  2  0  0  0  0  0  0  0  0  0
   -6.1560   12.5191    2.1452 O   0  0  0  0  0  0  0  0  0  0  0  0
   -4.2248   11.2309    2.3051 C   0  0  0  0  0  0  0  0  0  0  0  0
   -4.0397   10.8160    0.8343 C   0  0  0  0  0  0  0  0  0  0  0  0
  1  2  1  6  0  0  0
  1  3  1  0  0  0  0
  3  4  1  6  0  0  0
  3  5  1  0  0  0  0
  5  6  1  1  0  0  0
  5  7  1  0  0  0  0
  7  8  1  6  0  0  0
  9  7  1  0  0  0  0
  9 10  1  0  0  0  0
  9 11  1  1  0  0  0
 10  1  1  0  0  0  0
 11 12  1  0  0  0  0
 13 14  1  6  0  0  0
 13 15  1  0  0  0  0
 13 22  1  0  0  0  0
 14 32  1  0  0  0  0
 15 16  1  6  0  0  0
 15 17  1  0  0  0  0
 16 23  1  0  0  0  0
 17 18  1  1  0  0  0
 17 19  1  0  0  0  0
 19  2  1  1  0  0  0
 19 20  1  0  0  0  0
 20 21  1  1  0  0  0
 20 22  1  0  0  0  0
 23 24  1  0  0  0  0
 24 25  1  0  0  0  0
 25 26  1  0  0  0  0
 26 27  1  0  0  0  0
 27 28  1  0  0  0  0
 28 29  1  0  0  0  0
 29 30  1  0  0  0  0
 31 37  1  0  0  0  0
 32 33  2  0  0  0  0
 34 32  1  1  0  0  0
 34 35  1  0  0  0  0
 34 36  1  0  0  0  0
 36 37  1  0  0  0  0
M  END
>  <CHROM.1>
-85.39444877,-179.85182148,-55.30852035,-60.51236433,176.00610823,157.16909677
127.79394725,160.14143098,164.09670184,178.64990550,-86.55727589,72.49242926
-104.92310646,-173.04800244,-177.97470200,-5.48218563,15.64313034,6.85429779
-1.05559355,0.47755655,-2.13307512

>  <Name>
1o9m_lig

>  <RI>
0

>  <Rbt.Current_Directory>
/home/itssahil/PROJECTS/Mol_Feturizer/New_Systems/rnas/1o9m

>  <Rbt.Executable>
rbdock ($Id: //depot/dev/client3/rdock/2013.1/src/exe/rbdock.cxx#4 $)

>  <Rbt.Library>
libRbt.so (2013.1, Build901 2013/11/27)

>  <Rbt.Parameter_File>
/export/apps/rDock/src/rDock_2013.1_src/data/scripts/dock_solv.prm

>  <Rbt.Receptor>
prm/pocket_docking_5.prm

>  <SCORE>
-11.2281

>  <SCORE.INTER>
-9.8021

>  <SCORE.INTER.CONST>
1

>  <SCORE.INTER.POLAR>
-2.09279

>  <SCORE.INTER.ROT>
15

>  <SCORE.INTER.SOLV>
14.6384

>  <SCORE.INTER.VDW>
-18.0382

>  <SCORE.INTER.norm>
-0.264922

>  <SCORE.INTRA>
-1.43055

>  <SCORE.INTRA.DIHEDRAL>
-5.34434

>  <SCORE.INTRA.DIHEDRAL.0>
21.5987

>  <SCORE.INTRA.POLAR>
0

>  <SCORE.INTRA.POLAR.0>
0

>  <SCORE.INTRA.REPUL>
0

>  <SCORE.INTRA.REPUL.0>
0

>  <SCORE.INTRA.SOLV>
3.08115

>  <SCORE.INTRA.SOLV.lig_0>
-108.715

>  <SCORE.INTRA.VDW>
-0.298951

>  <SCORE.INTRA.VDW.0>
-3.9485

>  <SCORE.INTRA.norm>
-0.0386634

>  <SCORE.RESTR>
0.00451115

>  <SCORE.RESTR.CAVITY>
0.00451115

>  <SCORE.RESTR.norm>
0.000121923

>  <SCORE.SYSTEM>
0

>  <SCORE.SYSTEM.CONST>
0

>  <SCORE.SYSTEM.DIHEDRAL>
0

>  <SCORE.SYSTEM.SOLV>
0

>  <SCORE.SYSTEM.norm>
0

>  <SCORE.heavy>
37

>  <SCORE.norm>
-0.303463

>  <RMSD>
9.399

$$$$
1o9m_lig
 OpenBabel11021811403D
libRbt.so/2013.1/901 2013/11/27
 37 38  0  0  0  0  0  0  0  0999 V2000
   -4.5249   16.3387   11.6856 C   0  0  2  0  0  0  0  0  0  0  0  0
   -4.4803   16.7109   10.2744 O   0  0  0  0  0  0  0  0  0  0  0  0
   -5.0294   17.6090   12.4643 C   0  0  2  0  0  0  0  0  0  0  0  0
   -6.3552   18.0553   12.0017 N   0  0  0  0  0  0  0  0  0  0  0  0
   -3.9670   18.7628   12.3099 C   0  0  1  0  0  0  0  0  0  0  0  0
   -4.4027   19.9303   13.0119 O   0  0  0  0  0  0  0  0  0  0  0  0
   -2.5934   18.2327   12.8388 C   0  0  2  0  0  0  0  0  0  0  0  0
   -1.5408   19.2047   12.7288 O   0  0  0  0  0  0  0  0  0  0  0  0
   -2.1727   16.9516   12.0770 C   0  0  2  0  0  0  0  0  0  0  0  0
   -3.1938   15.9469   12.1625 O   0  0  0  0  0  0  0  0  0  0  0  0
   -0.8790   16.3883   12.6059 C   0  0  0  0  0  0  0  0  0  0  0  0
   -1.0684   15.8573   13.8595 N   0  0  0  0  0  0  0  0  0  0  0  0
   -4.5993   14.6701    6.4480 C   0  0  1  0  0  0  0  0  0  0  0  0
   -5.0033   13.7045    5.3878 N   0  0  0  0  0  0  0  0  0  0  0  0
   -5.8146   15.4935    6.8522 C   0  0  2  0  0  0  0  0  0  0  0  0
   -6.3051   16.1254    5.7074 O   0  0  0  0  0  0  0  0  0  0  0  0
   -5.4334   16.5348    7.9513 C   0  0  1  0  0  0  0  0  0  0  0  0
   -6.6110   17.3030    8.3459 O   0  0  0  0  0  0  0  0  0  0  0  0
   -4.8690   15.7806    9.2235 C   0  0  1  0  0  0  0  0  0  0  0  0
   -3.6424   14.9688    8.8360 C   0  0  1  0  0  0  0  0  0  0  0  0
   -3.1315   14.2966   10.0212 N   0  0  0  0  0  0  0  0  0  0  0  0
   -4.0168   13.9469    7.7292 C   0  0  0  0  0  0  0  0  0  0  0  0
   -6.3218   16.9826    4.5449 C   0  0  0  0  0  0  0  0  0  0  0  0
   -7.5844   16.7249    3.7551 C   0  0  0  0  0  0  0  0  0  0  0  0
   -8.8304   17.0104    4.4962 N   0  0  0  0  0  0  0  0  0  0  0  0
   -9.9893   16.8780    5.4082 C   0  0  0  0  0  0  0  0  0  0  0  0
  -10.4461   18.3417    5.3637 C   0  0  0  0  0  0  0  0  0  0  0  0
  -11.3323   18.7151    6.5668 C   0  0  0  0  0  0  0  0  0  0  0  0
  -12.7735   18.2653    6.3477 C   0  0  0  0  0  0  0  0  0  0  0  0
  -13.5381   18.4197    7.5773 N   0  0  0  0  0  0  0  0  0  0  0  0
   -3.8028   10.5910    0.3026 N   0  0  0  0  0  0  0  0  0  0  0  0
   -3.6461   13.3123    4.3149 C   0  0  0  0  0  0  0  0  0  0  0  0
   -2.6078   13.6006    4.2624 O   0  0  0  0  0  0  0  0  0  0  0  0
   -4.6287   12.4483    3.5627 C   0  0  2  0  0  0  0  0  0  0  0  0
   -5.0930   11.4240    4.3484 O   0  0  0  0  0  0  0  0  0  0  0  0
   -3.8622   11.8072    2.4111 C   0  0  0  0  0  0  0  0  0  0  0  0
   -4.6714   10.9294    1.4393 C   0  0  0  0  0  0  0  0  0  0  0  0
  1  2  1  6  0  0  0
  1  3  1  0  0  0  0
  3  4  1  6  0  0  0
  3  5  1  0  0  0  0
  5  6  1  1  0  0  0
  5  7  1  0  0  0  0
  7  8  1  6  0  0  0
  9  7  1  0  0  0  0
  9 10  1  0  0  0  0
  9 11  1  1  0  0  0
 10  1  1  0  0  0  0
 11 12  1  0  0  0  0
 13 14  1  6  0  0  0
 13 15  1  0  0  0  0
 13 22  1  0  0  0  0
 14 32  1  0  0  0  0
 15 16  1  6  0  0  0
 15 17  1  0  0  0  0
 16 23  1  0  0  0  0
 17 18  1  1  0  0  0
 17 19  1  0  0  0  0
 19  2  1  1  0  0  0
 19 20  1  0  0  0  0
 20 21  1  1  0  0  0
 20 22  1  0  0  0  0
 23 24  1  0  0  0  0
 24 25  1  0  0  0  0
 25 26  1  0  0  0  0
 26 27  1  0  0  0  0
 27 28  1  0  0  0  0
 28 29  1  0  0  0  0
 29 30  1  0  0  0  0
 31 37  1  0  0  0  0
 32 33  2  0  0  0  0
 34 32  1  1  0  0  0
 34 35  1  0  0  0  0
 34 36  1  0  0  0  0
 36 37  1  0  0  0  0
M  END
>  <CHROM.1>
-141.55612861,70.25113296,151.30524488,-60.40169731,171.49145319,151.22465156
61.28913955,-81.30538246,167.55345582,-159.74563361,-81.16078084,170.34372328
-63.50473781,-176.75056572,171.15299794,-5.36822202,15.91507303,7.82657805
-1.21196129,0.46971118,-2.12643969

>  <Name>
1o9m_lig

>  <RI>
0

>  <Rbt.Current_Directory>
/home/itssahil/PROJECTS/Mol_Feturizer/New_Systems/rnas/1o9m

>  <Rbt.Executable>
rbdock ($Id: //depot/dev/client3/rdock/2013.1/src/exe/rbdock.cxx#4 $)

>  <Rbt.Library>
libRbt.so (2013.1, Build901 2013/11/27)

>  <Rbt.Parameter_File>
/export/apps/rDock/src/rDock_2013.1_src/data/scripts/dock_solv.prm

>  <Rbt.Receptor>
prm/pocket_docking_5.prm

>  <SCORE>
-15.1507

>  <SCORE.INTER>
-13.2736

>  <SCORE.INTER.CONST>
1

>  <SCORE.INTER.POLAR>
-2.18604

>  <SCORE.INTER.ROT>
15

>  <SCORE.INTER.SOLV>
19.2882

>  <SCORE.INTER.VDW>
-21.5917

>  <SCORE.INTER.norm>
-0.358747

>  <SCORE.INTRA>
-1.87702

>  <SCORE.INTRA.DIHEDRAL>
-6.73327

>  <SCORE.INTRA.DIHEDRAL.0>
21.5987

>  <SCORE.INTRA.POLAR>
0

>  <SCORE.INTRA.POLAR.0>
0

>  <SCORE.INTRA.REPUL>
0

>  <SCORE.INTRA.REPUL.0>
0

>  <SCORE.INTRA.SOLV>
2.58129

>  <SCORE.INTRA.SOLV.lig_0>
-108.715

>  <SCORE.INTRA.VDW>
0.198969

>  <SCORE.INTRA.VDW.0>
-3.9485

>  <SCORE.INTRA.norm>
-0.0507302

>  <SCORE.RESTR>
0

>  <SCORE.RESTR.CAVITY>
0

>  <SCORE.RESTR.norm>
0

>  <SCORE.SYSTEM>
0

>  <SCORE.SYSTEM.CONST>
0

>  <SCORE.SYSTEM.DIHEDRAL>
0

>  <SCORE.SYSTEM.SOLV>
0

>  <SCORE.SYSTEM.norm>
0

>  <SCORE.heavy>
37

>  <SCORE.norm>
-0.409477

>  <RMSD>
9.421

$$$$
1o9m_lig
 OpenBabel11021811403D
libRbt.so/2013.1/901 2013/11/27
 37 38  0  0  0  0  0  0  0  0999 V2000
   -2.9598   15.8615   11.3398 C   0  0  2  0  0  0  0  0  0  0  0  0
   -3.7177   16.3185   10.1784 O   0  0  0  0  0  0  0  0  0  0  0  0
   -3.9802   15.7865   12.5346 C   0  0  2  0  0  0  0  0  0  0  0  0
   -5.1013   14.8729   12.2526 N   0  0  0  0  0  0  0  0  0  0  0  0
   -4.5087   17.2370   12.8519 C   0  0  1  0  0  0  0  0  0  0  0  0
   -5.4384   17.1955   13.9379 O   0  0  0  0  0  0  0  0  0  0  0  0
   -3.2745   18.1464   13.1641 C   0  0  2  0  0  0  0  0  0  0  0  0
   -3.6421   19.5052   13.4528 O   0  0  0  0  0  0  0  0  0  0  0  0
   -2.2773   18.1391   11.9792 C   0  0  2  0  0  0  0  0  0  0  0  0
   -1.8767   16.7995   11.6559 O   0  0  0  0  0  0  0  0  0  0  0  0
   -1.0518   18.9635   12.2773 C   0  0  0  0  0  0  0  0  0  0  0  0
   -1.3574   20.3030   12.2348 N   0  0  0  0  0  0  0  0  0  0  0  0
   -4.6063   14.5938    6.2981 C   0  0  1  0  0  0  0  0  0  0  0  0
   -5.0943   13.6294    5.2728 N   0  0  0  0  0  0  0  0  0  0  0  0
   -5.7785   15.0163    7.1731 C   0  0  2  0  0  0  0  0  0  0  0  0
   -6.7588   15.5638    6.3427 O   0  0  0  0  0  0  0  0  0  0  0  0
   -5.3167   16.0442    8.2537 C   0  0  1  0  0  0  0  0  0  0  0  0
   -6.4444   16.4249    9.0998 O   0  0  0  0  0  0  0  0  0  0  0  0
   -4.1971   15.3913    9.1627 C   0  0  1  0  0  0  0  0  0  0  0  0
   -3.0118   14.9820    8.3017 C   0  0  1  0  0  0  0  0  0  0  0  0
   -1.9898   14.3988    9.1578 N   0  0  0  0  0  0  0  0  0  0  0  0
   -3.4748   13.9751    7.2149 C   0  0  0  0  0  0  0  0  0  0  0  0
   -8.0099   16.1744    5.9575 C   0  0  0  0  0  0  0  0  0  0  0  0
   -8.1135   16.1872    4.4496 C   0  0  0  0  0  0  0  0  0  0  0  0
   -7.0224   16.9199    3.7746 N   0  0  0  0  0  0  0  0  0  0  0  0
   -5.9498   17.8993    3.4871 C   0  0  0  0  0  0  0  0  0  0  0  0
   -6.8449   19.1353    3.3317 C   0  0  0  0  0  0  0  0  0  0  0  0
   -6.0308   20.4226    3.1031 C   0  0  0  0  0  0  0  0  0  0  0  0
   -6.9418   21.6447    3.0415 C   0  0  0  0  0  0  0  0  0  0  0  0
   -7.7983   21.5713    1.8662 N   0  0  0  0  0  0  0  0  0  0  0  0
   -4.1518   10.0843    0.4181 N   0  0  0  0  0  0  0  0  0  0  0  0
   -3.8323   13.2496    4.0854 C   0  0  0  0  0  0  0  0  0  0  0  0
   -2.8042   13.5449    3.9447 O   0  0  0  0  0  0  0  0  0  0  0  0
   -4.8707   12.3819    3.4172 C   0  0  2  0  0  0  0  0  0  0  0  0
   -5.4010   11.4736    4.2981 O   0  0  0  0  0  0  0  0  0  0  0  0
   -4.1496   11.5803    2.3392 C   0  0  0  0  0  0  0  0  0  0  0  0
   -5.0158   10.6625    1.4575 C   0  0  0  0  0  0  0  0  0  0  0  0
  1  2  1  6  0  0  0
  1  3  1  0  0  0  0
  3  4  1  6  0  0  0
  3  5  1  0  0  0  0
  5  6  1  1  0  0  0
  5  7  1  0  0  0  0
  7  8  1  6  0  0  0
  9  7  1  0  0  0  0
  9 10  1  0  0  0  0
  9 11  1  1  0  0  0
 10  1  1  0  0  0  0
 11 12  1  0  0  0  0
 13 14  1  6  0  0  0
 13 15  1  0  0  0  0
 13 22  1  0  0  0  0
 14 32  1  0  0  0  0
 15 16  1  6  0  0  0
 15 17  1  0  0  0  0
 16 23  1  0  0  0  0
 17 18  1  1  0  0  0
 17 19  1  0  0  0  0
 19  2  1  1  0  0  0
 19 20  1  0  0  0  0
 20 21  1  1  0  0  0
 20 22  1  0  0  0  0
 23 24  1  0  0  0  0
 24 25  1  0  0  0  0
 25 26  1  0  0  0  0
 26 27  1  0  0  0  0
 27 28  1  0  0  0  0
 28 29  1  0  0  0  0
 29 30  1  0  0  0  0
 31 37  1  0  0  0  0
 32 33  2  0  0  0  0
 34 32  1  1  0  0  0
 34 35  1  0  0  0  0
 34 36  1  0  0  0  0
 36 37  1  0  0  0  0
M  END
>  <CHROM.1>
-99.68150969,-73.18568473,172.70003575,179.57122035,-171.57857598,163.65523805
-59.06659518,-31.09340060,-69.06943099,176.28441934,-176.37991326,-65.96153021
-54.66965807,-176.92162389,174.94818091,-4.68128292,16.01302904,7.40173796
-1.01750536,1.13592213,-2.41440729

>  <Name>
1o9m_lig

>  <RI>
0

>  <Rbt.Current_Directory>
/home/itssahil/PROJECTS/Mol_Feturizer/New_Systems/rnas/1o9m

>  <Rbt.Executable>
rbdock ($Id: //depot/dev/client3/rdock/2013.1/src/exe/rbdock.cxx#4 $)

>  <Rbt.Library>
libRbt.so (2013.1, Build901 2013/11/27)

>  <Rbt.Parameter_File>
/export/apps/rDock/src/rDock_2013.1_src/data/scripts/dock_solv.prm

>  <Rbt.Receptor>
prm/pocket_docking_6.prm

>  <SCORE>
-12.764

>  <SCORE.INTER>
-9.41411

>  <SCORE.INTER.CONST>
1

>  <SCORE.INTER.POLAR>
-1.65423

>  <SCORE.INTER.ROT>
15

>  <SCORE.INTER.SOLV>
16.2657

>  <SCORE.INTER.VDW>
-19.7839

>  <SCORE.INTER.norm>
-0.254435

>  <SCORE.INTRA>
-3.34984

>  <SCORE.INTRA.DIHEDRAL>
-12.1044

>  <SCORE.INTRA.DIHEDRAL.0>
21.5987

>  <SCORE.INTRA.POLAR>
0

>  <SCORE.INTRA.POLAR.0>
0

>  <SCORE.INTRA.REPUL>
0

>  <SCORE.INTRA.REPUL.0>
0

>  <SCORE.INTRA.SOLV>
2.62663

>  <SCORE.INTRA.SOLV.lig_0>
-108.715

>  <SCORE.INTRA.VDW>
1.38902

>  <SCORE.INTRA.VDW.0>
-3.9485

>  <SCORE.INTRA.norm>
-0.0905363

>  <SCORE.RESTR>
0

>  <SCORE.RESTR.CAVITY>
0

>  <SCORE.RESTR.norm>
0

>  <SCORE.SYSTEM>
0

>  <SCORE.SYSTEM.CONST>
0

>  <SCORE.SYSTEM.DIHEDRAL>
0

>  <SCORE.SYSTEM.SOLV>
0

>  <SCORE.SYSTEM.norm>
0

>  <SCORE.heavy>
37

>  <SCORE.norm>
-0.344972

>  <RMSD>
9.421

$$$$
1o9m_lig
 OpenBabel11021811403D
libRbt.so/2013.1/901 2013/11/27
 37 38  0  0  0  0  0  0  0  0999 V2000
   -8.7516   18.8318    5.2347 C   0  0  2  0  0  0  0  0  0  0  0  0
   -9.2293   17.4871    5.5442 O   0  0  0  0  0  0  0  0  0  0  0  0
  -10.0265   19.6895    4.8980 C   0  0  2  0  0  0  0  0  0  0  0  0
  -10.9862   19.7226    6.0155 N   0  0  0  0  0  0  0  0  0  0  0  0
  -10.7049   19.1143    3.5968 C   0  0  1  0  0  0  0  0  0  0  0  0
  -11.8675   19.8797    3.2683 O   0  0  0  0  0  0  0  0  0  0  0  0
   -9.6429   19.1288    2.4481 C   0  0  2  0  0  0  0  0  0  0  0  0
  -10.1529   18.6057    1.2107 O   0  0  0  0  0  0  0  0  0  0  0  0
   -8.3878   18.3177    2.8546 C   0  0  2  0  0  0  0  0  0  0  0  0
   -7.8386   18.8079    4.0864 O   0  0  0  0  0  0  0  0  0  0  0  0
   -7.3255   18.3626    1.7868 C   0  0  0  0  0  0  0  0  0  0  0  0
   -6.9112   19.6571    1.5818 N   0  0  0  0  0  0  0  0  0  0  0  0
   -5.6121   15.4449    6.7955 C   0  0  1  0  0  0  0  0  0  0  0  0
   -4.7226   14.3919    7.3608 N   0  0  0  0  0  0  0  0  0  0  0  0
   -6.3951   14.8540    5.6309 C   0  0  2  0  0  0  0  0  0  0  0  0
   -5.4761   14.3682    4.6983 O   0  0  0  0  0  0  0  0  0  0  0  0
   -7.3299   15.9299    4.9936 C   0  0  1  0  0  0  0  0  0  0  0  0
   -8.0909   15.3458    3.8926 O   0  0  0  0  0  0  0  0  0  0  0  0
   -8.3443   16.4647    6.0849 C   0  0  1  0  0  0  0  0  0  0  0  0
   -7.5737   17.0749    7.2458 C   0  0  1  0  0  0  0  0  0  0  0  0
   -8.5239   17.5730    8.2289 N   0  0  0  0  0  0  0  0  0  0  0  0
   -6.6297   16.0108    7.8670 C   0  0  0  0  0  0  0  0  0  0  0  0
   -4.4108   14.3848    3.7229 C   0  0  0  0  0  0  0  0  0  0  0  0
   -4.1525   12.9744    3.2446 C   0  0  0  0  0  0  0  0  0  0  0  0
   -5.3381   12.3026    2.6737 N   0  0  0  0  0  0  0  0  0  0  0  0
   -6.7389   11.9680    2.3296 C   0  0  0  0  0  0  0  0  0  0  0  0
   -6.5965   10.4414    2.3769 C   0  0  0  0  0  0  0  0  0  0  0  0
   -5.6480    9.9079    1.2871 C   0  0  0  0  0  0  0  0  0  0  0  0
   -5.6587    8.3829    1.2483 C   0  0  0  0  0  0  0  0  0  0  0  0
   -4.3555    7.8839    0.8327 N   0  0  0  0  0  0  0  0  0  0  0  0
   -2.4678   11.0500   10.5810 N   0  0  0  0  0  0  0  0  0  0  0  0
   -4.0145   14.9003    8.9057 C   0  0  0  0  0  0  0  0  0  0  0  0
   -4.0885   15.7804    9.5254 O   0  0  0  0  0  0  0  0  0  0  0  0
   -3.2970   13.5727    8.8924 C   0  0  2  0  0  0  0  0  0  0  0  0
   -4.1849   12.5282    8.8405 O   0  0  0  0  0  0  0  0  0  0  0  0
   -2.5577   13.4564   10.2208 C   0  0  0  0  0  0  0  0  0  0  0  0
   -1.6277   12.2422   10.3961 C   0  0  0  0  0  0  0  0  0  0  0  0
  1  2  1  6  0  0  0
  1  3  1  0  0  0  0
  3  4  1  1  0  0  0
  3  5  1  0  0  0  0
  5  6  1  6  0  0  0
  5  7  1  0  0  0  0
  7  8  1  6  0  0  0
  9  7  1  0  0  0  0
  9 10  1  0  0  0  0
  9 11  1  6  0  0  0
 10  1  1  0  0  0  0
 11 12  1  0  0  0  0
 13 14  1  1  0  0  0
 13 15  1  0  0  0  0
 13 22  1  0  0  0  0
 14 32  1  0  0  0  0
 15 16  1  6  0  0  0
 15 17  1  0  0  0  0
 16 23  1  0  0  0  0
 17 18  1  6  0  0  0
 17 19  1  0  0  0  0
 19  2  1  6  0  0  0
 19 20  1  0  0  0  0
 20 21  1  1  0  0  0
 20 22  1  0  0  0  0
 23 24  1  0  0  0  0
 24 25  1  0  0  0  0
 25 26  1  0  0  0  0
 26 27  1  0  0  0  0
 27 28  1  0  0  0  0
 28 29  1  0  0  0  0
 29 30  1  0  0  0  0
 31 37  1  0  0  0  0
 32 33  2  0  0  0  0
 34 32  1  1  0  0  0
 34 35  1  0  0  0  0
 34 36  1  0  0  0  0
 36 37  1  0  0  0  0
M  END
>  <CHROM.1>
-171.26030096,61.48110807,-168.95111319,-63.46693691,179.52396116,-72.32343457
56.87729666,-17.70550924,-142.78092430,-64.88629651,-173.04891560,-148.64512636
-58.62042933,-174.02714381,-73.18769348,-6.65410758,15.32205264,5.12703728
-2.94846753,0.91882609,-2.19245920

>  <Name>
1o9m_lig

>  <RI>
0

>  <Rbt.Current_Directory>
/home/itssahil/PROJECTS/Mol_Feturizer/New_Systems/rnas/1o9m

>  <Rbt.Executable>
rbdock ($Id: //depot/dev/client3/rdock/2013.1/src/exe/rbdock.cxx#4 $)

>  <Rbt.Library>
libRbt.so (2013.1, Build901 2013/11/27)

>  <Rbt.Parameter_File>
/export/apps/rDock/src/rDock_2013.1_src/data/scripts/dock_solv.prm

>  <Rbt.Receptor>
prm/pocket_docking_8.prm

>  <SCORE>
-9.67688

>  <SCORE.INTER>
-5.85761

>  <SCORE.INTER.CONST>
1

>  <SCORE.INTER.POLAR>
-1.13835

>  <SCORE.INTER.ROT>
15

>  <SCORE.INTER.SOLV>
15.7992

>  <SCORE.INTER.VDW>
-18.977

>  <SCORE.INTER.norm>
-0.158314

>  <SCORE.INTRA>
-3.81926

>  <SCORE.INTRA.DIHEDRAL>
-13.6574

>  <SCORE.INTRA.DIHEDRAL.0>
21.5987

>  <SCORE.INTRA.POLAR>
0

>  <SCORE.INTRA.POLAR.0>
0

>  <SCORE.INTRA.REPUL>
0

>  <SCORE.INTRA.REPUL.0>
0

>  <SCORE.INTRA.SOLV>
3.55399

>  <SCORE.INTRA.SOLV.lig_0>
-108.715

>  <SCORE.INTRA.VDW>
1.23245

>  <SCORE.INTRA.VDW.0>
-3.9485

>  <SCORE.INTRA.norm>
-0.103223

>  <SCORE.RESTR>
0

>  <SCORE.RESTR.CAVITY>
0

>  <SCORE.RESTR.norm>
0

>  <SCORE.SYSTEM>
0

>  <SCORE.SYSTEM.CONST>
0

>  <SCORE.SYSTEM.DIHEDRAL>
0

>  <SCORE.SYSTEM.SOLV>
0

>  <SCORE.SYSTEM.norm>
0

>  <SCORE.heavy>
37

>  <SCORE.norm>
-0.261537

>  <RMSD>
9.451

$$$$
1o9m_lig
 OpenBabel11021811403D
libRbt.so/2013.1/901 2013/11/27
 37 38  0  0  0  0  0  0  0  0999 V2000
   -5.5198   16.9803   10.8226 C   0  0  2  0  0  0  0  0  0  0  0  0
   -4.5419   16.7582    9.7612 O   0  0  0  0  0  0  0  0  0  0  0  0
   -5.1602   18.3657   11.4750 C   0  0  2  0  0  0  0  0  0  0  0  0
   -5.1946   19.4672   10.4970 N   0  0  0  0  0  0  0  0  0  0  0  0
   -3.7400   18.2634   12.1504 C   0  0  1  0  0  0  0  0  0  0  0  0
   -3.3904   19.5124   12.7533 O   0  0  0  0  0  0  0  0  0  0  0  0
   -3.7793   17.0950   13.1900 C   0  0  2  0  0  0  0  0  0  0  0  0
   -2.5219   16.9003   13.8578 O   0  0  0  0  0  0  0  0  0  0  0  0
   -4.1926   15.7687   12.5055 C   0  0  2  0  0  0  0  0  0  0  0  0
   -5.4488   15.9130   11.8269 O   0  0  0  0  0  0  0  0  0  0  0  0
   -4.2926   14.6379   13.4963 C   0  0  0  0  0  0  0  0  0  0  0  0
   -4.3971   13.4360   12.8378 N   0  0  0  0  0  0  0  0  0  0  0  0
   -4.6528   14.8634    5.8601 C   0  0  1  0  0  0  0  0  0  0  0  0
   -4.8635   13.8244    4.8134 N   0  0  0  0  0  0  0  0  0  0  0  0
   -5.9797   15.1377    6.5548 C   0  0  2  0  0  0  0  0  0  0  0  0
   -6.9001   15.5331    5.5817 O   0  0  0  0  0  0  0  0  0  0  0  0
   -5.8107   16.2370    7.6506 C   0  0  1  0  0  0  0  0  0  0  0  0
   -7.0843   16.4755    8.3239 O   0  0  0  0  0  0  0  0  0  0  0  0
   -4.7505   15.7575    8.7238 C   0  0  1  0  0  0  0  0  0  0  0  0
   -3.4145   15.4982    8.0444 C   0  0  1  0  0  0  0  0  0  0  0  0
   -2.4519   15.0735    9.0497 N   0  0  0  0  0  0  0  0  0  0  0  0
   -3.5865   14.4195    6.9416 C   0  0  0  0  0  0  0  0  0  0  0  0
   -7.6943   15.4747    4.3766 C   0  0  0  0  0  0  0  0  0  0  0  0
   -8.5168   16.7375    4.2615 C   0  0  0  0  0  0  0  0  0  0  0  0
   -8.4319   17.3966    2.9419 N   0  0  0  0  0  0  0  0  0  0  0  0
   -8.4778   18.4189    1.8718 C   0  0  0  0  0  0  0  0  0  0  0  0
   -6.9643   18.6167    1.7199 C   0  0  0  0  0  0  0  0  0  0  0  0
   -6.5995   19.3741    0.4294 C   0  0  0  0  0  0  0  0  0  0  0  0
   -5.0884   19.4109    0.2229 C   0  0  0  0  0  0  0  0  0  0  0  0
   -4.7645   20.1930   -0.9619 N   0  0  0  0  0  0  0  0  0  0  0  0
   -3.1029   10.9892   -0.2553 N   0  0  0  0  0  0  0  0  0  0  0  0
   -3.3980   13.5693    3.8470 C   0  0  0  0  0  0  0  0  0  0  0  0
   -2.4007   13.9809    3.8513 O   0  0  0  0  0  0  0  0  0  0  0  0
   -4.2152   12.5695    3.0658 C   0  0  2  0  0  0  0  0  0  0  0  0
   -4.4597   11.4406    3.8060 O   0  0  0  0  0  0  0  0  0  0  0  0
   -3.3664   12.1394    1.8745 C   0  0  0  0  0  0  0  0  0  0  0  0
   -3.9869   11.1095    0.9131 C   0  0  0  0  0  0  0  0  0  0  0  0
  1  2  1  6  0  0  0
  1  3  1  0  0  0  0
  3  4  1  6  0  0  0
  3  5  1  0  0  0  0
  5  6  1  1  0  0  0
  5  7  1  0  0  0  0
  7  8  1  6  0  0  0
  9  7  1  0  0  0  0
  9 10  1  0  0  0  0
  9 11  1  1  0  0  0
 10  1  1  0  0  0  0
 11 12  1  0  0  0  0
 13 14  1  6  0  0  0
 13 15  1  0  0  0  0
 13 22  1  0  0  0  0
 14 32  1  0  0  0  0
 15 16  1  6  0  0  0
 15 17  1  0  0  0  0
 16 23  1  0  0  0  0
 17 18  1  1  0  0  0
 17 19  1  0  0  0  0
 19  2  1  1  0  0  0
 19 20  1  0  0  0  0
 20 21  1  1  0  0  0
 20 22  1  0  0  0  0
 23 24  1  0  0  0  0
 24 25  1  0  0  0  0
 25 26  1  0  0  0  0
 26 27  1  0  0  0  0
 27 28  1  0  0  0  0
 28 29  1  0  0  0  0
 29 30  1  0  0  0  0
 31 37  1  0  0  0  0
 32 33  2  0  0  0  0
 34 32  1  1  0  0  0
 34 35  1  0  0  0  0
 34 36  1  0  0  0  0
 36 37  1  0  0  0  0
M  END
>  <CHROM.1>
-164.16764740,-168.09660899,174.17449478,55.42566712,-178.43621655,75.56119089
130.61369501,-157.68535888,105.03676884,165.61200593,-173.28263811,-176.91192750
-71.33866624,179.97773563,171.61087881,-4.95127828,15.87744064,6.74259579
1.31187358,-1.13715523,1.21596580

>  <Name>
1o9m_lig

>  <RI>
0

>  <Rbt.Current_Directory>
/home/itssahil/PROJECTS/Mol_Feturizer/New_Systems/rnas/1o9m

>  <Rbt.Executable>
rbdock ($Id: //depot/dev/client3/rdock/2013.1/src/exe/rbdock.cxx#4 $)

>  <Rbt.Library>
libRbt.so (2013.1, Build901 2013/11/27)

>  <Rbt.Parameter_File>
/export/apps/rDock/src/rDock_2013.1_src/data/scripts/dock_solv.prm

>  <Rbt.Receptor>
prm/pocket_docking_8.prm

>  <SCORE>
-13.9797

>  <SCORE.INTER>
-8.12085

>  <SCORE.INTER.CONST>
1

>  <SCORE.INTER.POLAR>
0

>  <SCORE.INTER.ROT>
15

>  <SCORE.INTER.SOLV>
16.5574

>  <SCORE.INTER.VDW>
-24.533

>  <SCORE.INTER.norm>
-0.219483

>  <SCORE.INTRA>
-5.85888

>  <SCORE.INTRA.DIHEDRAL>
-10.0486

>  <SCORE.INTRA.DIHEDRAL.0>
21.5987

>  <SCORE.INTRA.POLAR>
0

>  <SCORE.INTRA.POLAR.0>
0

>  <SCORE.INTRA.REPUL>
0

>  <SCORE.INTRA.REPUL.0>
0

>  <SCORE.INTRA.SOLV>
-1.87068

>  <SCORE.INTRA.SOLV.lig_0>
-108.715

>  <SCORE.INTRA.VDW>
0.100788

>  <SCORE.INTRA.VDW.0>
-3.9485

>  <SCORE.INTRA.norm>
-0.158348

>  <SCORE.RESTR>
0

>  <SCORE.RESTR.CAVITY>
0

>  <SCORE.RESTR.norm>
0

>  <SCORE.SYSTEM>
0

>  <SCORE.SYSTEM.CONST>
0

>  <SCORE.SYSTEM.DIHEDRAL>
0

>  <SCORE.SYSTEM.SOLV>
0

>  <SCORE.SYSTEM.norm>
0

>  <SCORE.heavy>
37

>  <SCORE.norm>
-0.377831

>  <RMSD>
9.460

$$$$
1o9m_lig
 OpenBabel11021811403D
libRbt.so/2013.1/901 2013/11/27
 37 38  0  0  0  0  0  0  0  0999 V2000
  -11.2723   24.1275    6.2206 C   0  0  2  0  0  0  0  0  0  0  0  0
  -11.1162   23.0600    5.2366 O   0  0  0  0  0  0  0  0  0  0  0  0
  -12.7387   24.6724    6.0559 C   0  0  2  0  0  0  0  0  0  0  0  0
  -13.7498   23.6210    6.2640 N   0  0  0  0  0  0  0  0  0  0  0  0
  -12.8906   25.3174    4.6260 C   0  0  1  0  0  0  0  0  0  0  0  0
  -14.2173   25.8227    4.4523 O   0  0  0  0  0  0  0  0  0  0  0  0
  -11.8074   26.4367    4.4803 C   0  0  2  0  0  0  0  0  0  0  0  0
  -11.8442   27.0847    3.1982 O   0  0  0  0  0  0  0  0  0  0  0  0
  -10.3893   25.8571    4.7071 C   0  0  2  0  0  0  0  0  0  0  0  0
  -10.3021   25.2018    5.9808 O   0  0  0  0  0  0  0  0  0  0  0  0
   -9.3308   26.9267    4.6277 C   0  0  0  0  0  0  0  0  0  0  0  0
   -8.0794   26.3581    4.6194 N   0  0  0  0  0  0  0  0  0  0  0  0
   -8.5443   19.5681    5.1267 C   0  0  1  0  0  0  0  0  0  0  0  0
   -7.3060   18.7424    5.0605 N   0  0  0  0  0  0  0  0  0  0  0  0
   -8.4717   20.4656    6.3546 C   0  0  2  0  0  0  0  0  0  0  0  0
   -8.3095   19.6480    7.4750 O   0  0  0  0  0  0  0  0  0  0  0  0
   -9.7605   21.3385    6.4755 C   0  0  1  0  0  0  0  0  0  0  0  0
   -9.6695   22.2100    7.6437 O   0  0  0  0  0  0  0  0  0  0  0  0
   -9.9156   22.2375    5.1818 C   0  0  1  0  0  0  0  0  0  0  0  0
  -10.0082   21.3508    3.9493 C   0  0  1  0  0  0  0  0  0  0  0  0
  -10.1651   22.1955    2.7748 N   0  0  0  0  0  0  0  0  0  0  0  0
   -8.7357   20.4687    3.8399 C   0  0  0  0  0  0  0  0  0  0  0  0
   -8.5863   18.5973    8.4268 C   0  0  0  0  0  0  0  0  0  0  0  0
   -7.6277   18.7143    9.5895 C   0  0  0  0  0  0  0  0  0  0  0  0
   -7.8889   17.7606   10.6872 N   0  0  0  0  0  0  0  0  0  0  0  0
   -7.9381   16.5203   11.4946 C   0  0  0  0  0  0  0  0  0  0  0  0
   -6.4609   16.4924   11.9072 C   0  0  0  0  0  0  0  0  0  0  0  0
   -6.1058   17.6252   12.8883 C   0  0  0  0  0  0  0  0  0  0  0  0
   -4.5997   17.6987   13.1203 C   0  0  0  0  0  0  0  0  0  0  0  0
   -4.2581   18.9410   13.7985 N   0  0  0  0  0  0  0  0  0  0  0  0
   -8.5187   15.7065    4.7531 N   0  0  0  0  0  0  0  0  0  0  0  0
   -7.2041   17.8455    3.5334 C   0  0  0  0  0  0  0  0  0  0  0  0
   -7.8196   17.7711    2.6504 O   0  0  0  0  0  0  0  0  0  0  0  0
   -5.9190   17.2720    4.0788 C   0  0  2  0  0  0  0  0  0  0  0  0
   -4.8880   17.4261    3.1870 O   0  0  0  0  0  0  0  0  0  0  0  0
   -6.1388   15.7722    4.2427 C   0  0  0  0  0  0  0  0  0  0  0  0
   -7.1953   15.3317    5.2720 C   0  0  0  0  0  0  0  0  0  0  0  0
  1  2  1  6  0  0  0
  1  3  1  0  0  0  0
  3  4  1  6  0  0  0
  3  5  1  0  0  0  0
  5  6  1  1  0  0  0
  5  7  1  0  0  0  0
  7  8  1  6  0  0  0
  9  7  1  0  0  0  0
  9 10  1  0  0  0  0
  9 11  1  1  0  0  0
 10  1  1  0  0  0  0
 11 12  1  0  0  0  0
 13 14  1  6  0  0  0
 13 15  1  0  0  0  0
 13 22  1  0  0  0  0
 14 32  1  0  0  0  0
 15 16  1  1  0  0  0
 15 17  1  0  0  0  0
 16 23  1  0  0  0  0
 17 18  1  1  0  0  0
 17 19  1  0  0  0  0
 19  2  1  1  0  0  0
 19 20  1  0  0  0  0
 20 21  1  6  0  0  0
 20 22  1  0  0  0  0
 23 24  1  0  0  0  0
 24 25  1  0  0  0  0
 25 26  1  0  0  0  0
 26 27  1  0  0  0  0
 27 28  1  0  0  0  0
 28 29  1  0  0  0  0
 29 30  1  0  0  0  0
 31 37  1  0  0  0  0
 32 33  2  0  0  0  0
 34 32  1  6  0  0  0
 34 35  1  0  0  0  0
 34 36  1  0  0  0  0
 36 37  1  0  0  0  0
M  END
>  <CHROM.1>
-174.27767861,-170.44616471,-171.59464874,-55.86314081,-172.65940720,66.07933882
175.02241498,78.44577358,74.31011957,69.19093968,-171.67174288,167.29913795
-127.91619453,-64.67343740,69.38345292,-8.91901109,20.88744457,6.31750167
2.87124413,1.04854470,-1.77848594

>  <Name>
1o9m_lig

>  <RI>
0

>  <Rbt.Current_Directory>
/home/itssahil/PROJECTS/Mol_Feturizer/New_Systems/rnas/1o9m

>  <Rbt.Executable>
rbdock ($Id: //depot/dev/client3/rdock/2013.1/src/exe/rbdock.cxx#4 $)

>  <Rbt.Library>
libRbt.so (2013.1, Build901 2013/11/27)

>  <Rbt.Parameter_File>
/export/apps/rDock/src/rDock_2013.1_src/data/scripts/dock_solv.prm

>  <Rbt.Receptor>
prm/pocket_docking_8.prm

>  <SCORE>
-5.16497

>  <SCORE.INTER>
1.51151

>  <SCORE.INTER.CONST>
1

>  <SCORE.INTER.POLAR>
-0.848528

>  <SCORE.INTER.ROT>
15

>  <SCORE.INTER.SOLV>
17.5783

>  <SCORE.INTER.VDW>
-15.6233

>  <SCORE.INTER.norm>
0.0408516

>  <SCORE.INTRA>
-6.67647

>  <SCORE.INTRA.DIHEDRAL>
-15.9634

>  <SCORE.INTRA.DIHEDRAL.0>
21.5987

>  <SCORE.INTRA.POLAR>
0

>  <SCORE.INTRA.POLAR.0>
0

>  <SCORE.INTRA.REPUL>
0

>  <SCORE.INTRA.REPUL.0>
0

>  <SCORE.INTRA.SOLV>
2.46091

>  <SCORE.INTRA.SOLV.lig_0>
-108.715

>  <SCORE.INTRA.VDW>
0.0747957

>  <SCORE.INTRA.VDW.0>
-3.9485

>  <SCORE.INTRA.norm>
-0.180445

>  <SCORE.RESTR>
0

>  <SCORE.RESTR.CAVITY>
0

>  <SCORE.RESTR.norm>
0

>  <SCORE.SYSTEM>
0

>  <SCORE.SYSTEM.CONST>
0

>  <SCORE.SYSTEM.DIHEDRAL>
0

>  <SCORE.SYSTEM.SOLV>
0

>  <SCORE.SYSTEM.norm>
0

>  <SCORE.heavy>
37

>  <SCORE.norm>
-0.139594

>  <RMSD>
9.462

$$$$
1o9m_lig
 OpenBabel11021811403D
libRbt.so/2013.1/901 2013/11/27
 37 38  0  0  0  0  0  0  0  0999 V2000
   -3.1649   16.2986   11.3582 C   0  0  2  0  0  0  0  0  0  0  0  0
   -3.2940   16.7244    9.9674 O   0  0  0  0  0  0  0  0  0  0  0  0
   -4.6158   16.3190   11.9654 C   0  0  2  0  0  0  0  0  0  0  0  0
   -5.5380   15.4331   11.2335 N   0  0  0  0  0  0  0  0  0  0  0  0
   -5.1513   17.8012   11.9694 C   0  0  1  0  0  0  0  0  0  0  0  0
   -6.4707   17.8465   12.5196 O   0  0  0  0  0  0  0  0  0  0  0  0
   -4.1421   18.6804   12.7794 C   0  0  2  0  0  0  0  0  0  0  0  0
   -4.5262   20.0640   12.8331 O   0  0  0  0  0  0  0  0  0  0  0  0
   -2.7207   18.5791   12.1728 C   0  0  2  0  0  0  0  0  0  0  0  0
   -2.2906   17.2119   12.1027 O   0  0  0  0  0  0  0  0  0  0  0  0
   -1.7174   19.3731   12.9688 C   0  0  0  0  0  0  0  0  0  0  0  0
   -0.4822   19.3171   12.3685 N   0  0  0  0  0  0  0  0  0  0  0  0
   -4.0949   14.4380    6.3687 C   0  0  1  0  0  0  0  0  0  0  0  0
   -4.8236   13.6022    5.3737 N   0  0  0  0  0  0  0  0  0  0  0  0
   -4.8546   15.7428    6.5652 C   0  0  2  0  0  0  0  0  0  0  0  0
   -4.9685   16.3650    5.3202 O   0  0  0  0  0  0  0  0  0  0  0  0
   -4.1157   16.6613    7.5890 C   0  0  1  0  0  0  0  0  0  0  0  0
   -4.8648   17.8994    7.7854 O   0  0  0  0  0  0  0  0  0  0  0  0
   -3.9942   15.9150    8.9797 C   0  0  1  0  0  0  0  0  0  0  0  0
   -3.2201   14.6180    8.7997 C   0  0  1  0  0  0  0  0  0  0  0  0
   -3.1072   13.9563   10.0908 N   0  0  0  0  0  0  0  0  0  0  0  0
   -3.9441   13.7131    7.7671 C   0  0  0  0  0  0  0  0  0  0  0  0
   -5.3062   17.3770    4.3464 C   0  0  0  0  0  0  0  0  0  0  0  0
   -4.4134   18.5797    4.5488 C   0  0  0  0  0  0  0  0  0  0  0  0
   -4.5950   19.6444    3.5407 N   0  0  0  0  0  0  0  0  0  0  0  0
   -5.2111   20.6798    2.6800 C   0  0  0  0  0  0  0  0  0  0  0  0
   -6.2307   19.7744    1.9776 C   0  0  0  0  0  0  0  0  0  0  0  0
   -7.4630   19.4888    2.8564 C   0  0  0  0  0  0  0  0  0  0  0  0
   -8.4738   18.6169    2.1179 C   0  0  0  0  0  0  0  0  0  0  0  0
   -9.5715   18.2618    3.0063 N   0  0  0  0  0  0  0  0  0  0  0  0
   -4.8867    9.9389    0.5235 N   0  0  0  0  0  0  0  0  0  0  0  0
   -3.7483   13.0544    4.0735 C   0  0  0  0  0  0  0  0  0  0  0  0
   -2.7004   13.1775    3.8482 O   0  0  0  0  0  0  0  0  0  0  0  0
   -4.9711   12.3948    3.4843 C   0  0  2  0  0  0  0  0  0  0  0  0
   -5.5831   11.5752    4.3985 O   0  0  0  0  0  0  0  0  0  0  0  0
   -4.4871   11.5018    2.3472 C   0  0  0  0  0  0  0  0  0  0  0  0
   -5.5641   10.7427    1.5512 C   0  0  0  0  0  0  0  0  0  0  0  0
  1  2  1  6  0  0  0
  1  3  1  0  0  0  0
  3  4  1  6  0  0  0
  3  5  1  0  0  0  0
  5  6  1  1  0  0  0
  5  7  1  0  0  0  0
  7  8  1  6  0  0  0
  9  7  1  0  0  0  0
  9 10  1  0  0  0  0
  9 11  1  1  0  0  0
 10  1  1  0  0  0  0
 11 12  1  0  0  0  0
 13 14  1  6  0  0  0
 13 15  1  0  0  0  0
 13 22  1  0  0  0  0
 14 32  1  0  0  0  0
 15 16  1  6  0  0  0
 15 17  1  0  0  0  0
 16 23  1  0  0  0  0
 17 18  1  1  0  0  0
 17 19  1  0  0  0  0
 19  2  1  1  0  0  0
 19 20  1  0  0  0  0
 20 21  1  1  0  0  0
 20 22  1  0  0  0  0
 23 24  1  0  0  0  0
 24 25  1  0  0  0  0
 25 26  1  0  0  0  0
 26 27  1  0  0  0  0
 27 28  1  0  0  0  0
 28 29  1  0  0  0  0
 29 30  1  0  0  0  0
 31 37  1  0  0  0  0
 32 33  2  0  0  0  0
 34 32  1  1  0  0  0
 34 35  1  0  0  0  0
 34 36  1  0  0  0  0
 36 37  1  0  0  0  0
M  END
>  <CHROM.1>
-66.66422293,-177.01473870,128.10172054,-175.97637816,69.46955794,174.39694466
175.50949941,55.95816538,-59.41434168,78.82243789,178.52544691,174.94426415
-53.81068685,-178.24690758,-179.38685498,-4.58203343,16.27143991,7.15065666
-1.01270672,1.18450262,-2.46281178

>  <Name>
1o9m_lig

>  <RI>
0

>  <Rbt.Current_Directory>
/home/itssahil/PROJECTS/Mol_Feturizer/New_Systems/rnas/1o9m

>  <Rbt.Executable>
rbdock ($Id: //depot/dev/client3/rdock/2013.1/src/exe/rbdock.cxx#4 $)

>  <Rbt.Library>
libRbt.so (2013.1, Build901 2013/11/27)

>  <Rbt.Parameter_File>
/export/apps/rDock/src/rDock_2013.1_src/data/scripts/dock_solv.prm

>  <Rbt.Receptor>
prm/pocket_docking_7.prm

>  <SCORE>
-14.2345

>  <SCORE.INTER>
-9.88144

>  <SCORE.INTER.CONST>
1

>  <SCORE.INTER.POLAR>
-2.26947

>  <SCORE.INTER.ROT>
15

>  <SCORE.INTER.SOLV>
13.923

>  <SCORE.INTER.VDW>
-17.2637

>  <SCORE.INTER.norm>
-0.267066

>  <SCORE.INTRA>
-4.35305

>  <SCORE.INTRA.DIHEDRAL>
-17.1461

>  <SCORE.INTRA.DIHEDRAL.0>
21.5987

>  <SCORE.INTRA.POLAR>
0

>  <SCORE.INTRA.POLAR.0>
0

>  <SCORE.INTRA.REPUL>
0

>  <SCORE.INTRA.REPUL.0>
0

>  <SCORE.INTRA.SOLV>
3.42942

>  <SCORE.INTRA.SOLV.lig_0>
-108.715

>  <SCORE.INTRA.VDW>
2.50527

>  <SCORE.INTRA.VDW.0>
-3.9485

>  <SCORE.INTRA.norm>
-0.11765

>  <SCORE.RESTR>
0

>  <SCORE.RESTR.CAVITY>
0

>  <SCORE.RESTR.norm>
0

>  <SCORE.SYSTEM>
0

>  <SCORE.SYSTEM.CONST>
0

>  <SCORE.SYSTEM.DIHEDRAL>
0

>  <SCORE.SYSTEM.SOLV>
0

>  <SCORE.SYSTEM.norm>
0

>  <SCORE.heavy>
37

>  <SCORE.norm>
-0.384716

>  <RMSD>
9.463

$$$$
1o9m_lig
 OpenBabel11021811403D
libRbt.so/2013.1/901 2013/11/27
 37 38  0  0  0  0  0  0  0  0999 V2000
   -0.9877   17.0389    8.9535 C   0  0  2  0  0  0  0  0  0  0  0  0
   -2.0989   17.1796    8.0167 O   0  0  0  0  0  0  0  0  0  0  0  0
   -1.6273   16.7458   10.3604 C   0  0  2  0  0  0  0  0  0  0  0  0
   -2.4577   15.5287   10.3517 N   0  0  0  0  0  0  0  0  0  0  0  0
   -2.4742   17.9960   10.8113 C   0  0  1  0  0  0  0  0  0  0  0  0
   -3.0656   17.7545   12.0909 O   0  0  0  0  0  0  0  0  0  0  0  0
   -1.5308   19.2440   10.8216 C   0  0  2  0  0  0  0  0  0  0  0  0
   -2.2083   20.4520   11.2046 O   0  0  0  0  0  0  0  0  0  0  0  0
   -0.8858   19.4524    9.4292 C   0  0  2  0  0  0  0  0  0  0  0  0
   -0.1916   18.2703    9.0048 O   0  0  0  0  0  0  0  0  0  0  0  0
    0.0717   20.6159    9.4271 C   0  0  0  0  0  0  0  0  0  0  0  0
   -0.6202   21.8018    9.4926 N   0  0  0  0  0  0  0  0  0  0  0  0
   -4.2018   14.4684    5.3619 C   0  0  1  0  0  0  0  0  0  0  0  0
   -4.9661   13.2780    4.8945 N   0  0  0  0  0  0  0  0  0  0  0  0
   -5.0118   15.1822    6.4356 C   0  0  2  0  0  0  0  0  0  0  0  0
   -6.2503   15.5198    5.8857 O   0  0  0  0  0  0  0  0  0  0  0  0
   -4.2559   16.4505    6.9435 C   0  0  1  0  0  0  0  0  0  0  0  0
   -5.0322   17.1138    7.9875 O   0  0  0  0  0  0  0  0  0  0  0  0
   -2.8538   16.0273    7.5442 C   0  0  1  0  0  0  0  0  0  0  0  0
   -2.0275   15.3293    6.4748 C   0  0  1  0  0  0  0  0  0  0  0  0
   -0.7389   14.9627    7.0429 N   0  0  0  0  0  0  0  0  0  0  0  0
   -2.7877   14.0795    5.9557 C   0  0  0  0  0  0  0  0  0  0  0  0
   -7.5878   16.0601    5.8098 C   0  0  0  0  0  0  0  0  0  0  0  0
   -8.1385   15.8311    4.4210 C   0  0  0  0  0  0  0  0  0  0  0  0
   -9.5300   16.2931    4.2383 N   0  0  0  0  0  0  0  0  0  0  0  0
  -11.0056   16.3862    4.3170 C   0  0  0  0  0  0  0  0  0  0  0  0
  -11.1575   17.7420    3.6158 C   0  0  0  0  0  0  0  0  0  0  0  0
  -12.6213   18.2193    3.5750 C   0  0  0  0  0  0  0  0  0  0  0  0
  -13.0289   18.8543    4.9009 C   0  0  0  0  0  0  0  0  0  0  0  0
  -12.9869   17.8612    5.9649 N   0  0  0  0  0  0  0  0  0  0  0  0
   -6.1650    9.1792    0.6252 N   0  0  0  0  0  0  0  0  0  0  0  0
   -4.1057   12.4200    3.6021 C   0  0  0  0  0  0  0  0  0  0  0  0
   -3.1644   12.5553    3.0926 O   0  0  0  0  0  0  0  0  0  0  0  0
   -5.2921   11.4876    3.5765 C   0  0  2  0  0  0  0  0  0  0  0  0
   -5.1939   10.5311    4.5550 O   0  0  0  0  0  0  0  0  0  0  0  0
   -5.2502   10.7556    2.2396 C   0  0  0  0  0  0  0  0  0  0  0  0
   -6.3509    9.7104    1.9832 C   0  0  0  0  0  0  0  0  0  0  0  0
  1  2  1  6  0  0  0
  1  3  1  0  0  0  0
  3  4  1  6  0  0  0
  3  5  1  0  0  0  0
  5  6  1  1  0  0  0
  5  7  1  0  0  0  0
  7  8  1  6  0  0  0
  9  7  1  0  0  0  0
  9 10  1  0  0  0  0
  9 11  1  1  0  0  0
 10  1  1  0  0  0  0
 11 12  1  0  0  0  0
 13 14  1  1  0  0  0
 13 15  1  0  0  0  0
 13 22  1  0  0  0  0
 14 32  1  0  0  0  0
 15 16  1  6  0  0  0
 15 17  1  0  0  0  0
 16 23  1  0  0  0  0
 17 18  1  1  0  0  0
 17 19  1  0  0  0  0
 19  2  1  6  0  0  0
 19 20  1  0  0  0  0
 20 21  1  1  0  0  0
 20 22  1  0  0  0  0
 23 24  1  0  0  0  0
 24 25  1  0  0  0  0
 25 26  1  0  0  0  0
 26 27  1  0  0  0  0
 27 28  1  0  0  0  0
 28 29  1  0  0  0  0
 29 30  1  0  0  0  0
 31 37  1  0  0  0  0
 32 33  2  0  0  0  0
 34 32  1  6  0  0  0
 34 35  1  0  0  0  0
 34 36  1  0  0  0  0
 36 37  1  0  0  0  0
M  END
>  <CHROM.1>
-74.59771421,-72.34013402,178.22358946,179.76773223,179.67585613,161.33552398
177.53865740,-72.37977551,173.33332706,-177.01997121,80.68683926,-64.17542822
-82.43764317,178.58718671,177.23093259,-4.80691127,15.91512826,6.53277043
-0.77898208,0.34616580,-2.52345870

>  <Name>
1o9m_lig

>  <RI>
0

>  <Rbt.Current_Directory>
/home/itssahil/PROJECTS/Mol_Feturizer/New_Systems/rnas/1o9m

>  <Rbt.Executable>
rbdock ($Id: //depot/dev/client3/rdock/2013.1/src/exe/rbdock.cxx#4 $)

>  <Rbt.Library>
libRbt.so (2013.1, Build901 2013/11/27)

>  <Rbt.Parameter_File>
/export/apps/rDock/src/rDock_2013.1_src/data/scripts/dock_solv.prm

>  <Rbt.Receptor>
prm/pocket_docking_7.prm

>  <SCORE>
-10.3866

>  <SCORE.INTER>
-6.20015

>  <SCORE.INTER.CONST>
1

>  <SCORE.INTER.POLAR>
-0.956242

>  <SCORE.INTER.ROT>
15

>  <SCORE.INTER.SOLV>
13.3241

>  <SCORE.INTER.VDW>
-18.9873

>  <SCORE.INTER.norm>
-0.167572

>  <SCORE.INTRA>
-4.18648

>  <SCORE.INTRA.DIHEDRAL>
-15.3803

>  <SCORE.INTRA.DIHEDRAL.0>
21.5987

>  <SCORE.INTRA.POLAR>
0

>  <SCORE.INTRA.POLAR.0>
0

>  <SCORE.INTRA.REPUL>
0

>  <SCORE.INTRA.REPUL.0>
0

>  <SCORE.INTRA.SOLV>
4.56172

>  <SCORE.INTRA.SOLV.lig_0>
-108.715

>  <SCORE.INTRA.VDW>
1.22283

>  <SCORE.INTRA.VDW.0>
-3.9485

>  <SCORE.INTRA.norm>
-0.113148

>  <SCORE.RESTR>
0

>  <SCORE.RESTR.CAVITY>
0

>  <SCORE.RESTR.norm>
0

>  <SCORE.SYSTEM>
0

>  <SCORE.SYSTEM.CONST>
0

>  <SCORE.SYSTEM.DIHEDRAL>
0

>  <SCORE.SYSTEM.SOLV>
0

>  <SCORE.SYSTEM.norm>
0

>  <SCORE.heavy>
37

>  <SCORE.norm>
-0.28072

>  <RMSD>
9.479

$$$$
1o9m_lig
 OpenBabel11021811403D
libRbt.so/2013.1/901 2013/11/27
 37 38  0  0  0  0  0  0  0  0999 V2000
  -12.3099   22.2454    7.8762 C   0  0  2  0  0  0  0  0  0  0  0  0
  -12.1487   22.1031    6.4319 O   0  0  0  0  0  0  0  0  0  0  0  0
  -13.3043   21.1125    8.3258 C   0  0  2  0  0  0  0  0  0  0  0  0
  -12.8057   19.7678    7.9879 N   0  0  0  0  0  0  0  0  0  0  0  0
  -14.7107   21.3690    7.6625 C   0  0  1  0  0  0  0  0  0  0  0  0
  -15.6346   20.3514    8.0581 O   0  0  0  0  0  0  0  0  0  0  0  0
  -15.1910   22.7985    8.0790 C   0  0  2  0  0  0  0  0  0  0  0  0
  -16.4648   23.1460    7.5120 O   0  0  0  0  0  0  0  0  0  0  0  0
  -14.1502   23.8671    7.6628 C   0  0  2  0  0  0  0  0  0  0  0  0
  -12.8589   23.5643    8.2108 O   0  0  0  0  0  0  0  0  0  0  0  0
  -14.5628   25.2479    8.1027 C   0  0  0  0  0  0  0  0  0  0  0  0
  -15.6191   25.6932    7.3442 N   0  0  0  0  0  0  0  0  0  0  0  0
   -9.8616   18.5863    5.3264 C   0  0  1  0  0  0  0  0  0  0  0  0
   -8.7906   17.7452    4.7222 N   0  0  0  0  0  0  0  0  0  0  0  0
   -9.2242   19.5727    6.2956 C   0  0  2  0  0  0  0  0  0  0  0  0
   -8.5135   18.8400    7.2485 O   0  0  0  0  0  0  0  0  0  0  0  0
  -10.3139   20.4656    6.9686 C   0  0  1  0  0  0  0  0  0  0  0  0
   -9.6888   21.4213    7.8788 O   0  0  0  0  0  0  0  0  0  0  0  0
  -11.1051   21.2665    5.8558 C   0  0  1  0  0  0  0  0  0  0  0  0
  -11.7626   20.2907    4.8917 C   0  0  1  0  0  0  0  0  0  0  0  0
  -12.4958   21.0464    3.8872 N   0  0  0  0  0  0  0  0  0  0  0  0
  -10.6812   19.3898    4.2372 C   0  0  0  0  0  0  0  0  0  0  0  0
   -7.6967   18.5769    8.4105 C   0  0  0  0  0  0  0  0  0  0  0  0
   -7.5214   17.0839    8.5674 C   0  0  0  0  0  0  0  0  0  0  0  0
   -6.9605   16.6745    9.8715 N   0  0  0  0  0  0  0  0  0  0  0  0
   -6.0712   16.5614   11.0500 C   0  0  0  0  0  0  0  0  0  0  0  0
   -6.4831   17.8697   11.7368 C   0  0  0  0  0  0  0  0  0  0  0  0
   -5.8522   19.1056   11.0682 C   0  0  0  0  0  0  0  0  0  0  0  0
   -4.3402   19.1272   11.2699 C   0  0  0  0  0  0  0  0  0  0  0  0
   -3.7764   20.3411   10.6965 N   0  0  0  0  0  0  0  0  0  0  0  0
   -4.5822   15.4297    4.6904 N   0  0  0  0  0  0  0  0  0  0  0  0
   -8.8347   16.0869    5.3506 C   0  0  0  0  0  0  0  0  0  0  0  0
   -9.4577   15.5537    6.0518 O   0  0  0  0  0  0  0  0  0  0  0  0
   -7.6303   15.8367    4.4763 C   0  0  2  0  0  0  0  0  0  0  0  0
   -8.0036   15.4295    3.2206 O   0  0  0  0  0  0  0  0  0  0  0  0
   -6.8614   14.6794    5.1040 C   0  0  0  0  0  0  0  0  0  0  0  0
   -5.5104   14.3124    4.4637 C   0  0  0  0  0  0  0  0  0  0  0  0
  1  2  1  6  0  0  0
  1  3  1  0  0  0  0
  3  4  1  6  0  0  0
  3  5  1  0  0  0  0
  5  6  1  1  0  0  0
  5  7  1  0  0  0  0
  7  8  1  6  0  0  0
  9  7  1  0  0  0  0
  9 10  1  0  0  0  0
  9 11  1  1  0  0  0
 10  1  1  0  0  0  0
 11 12  1  0  0  0  0
 13 14  1  6  0  0  0
 13 15  1  0  0  0  0
 13 22  1  0  0  0  0
 14 32  1  0  0  0  0
 15 16  1  1  0  0  0
 15 17  1  0  0  0  0
 16 23  1  0  0  0  0
 17 18  1  1  0  0  0
 17 19  1  0  0  0  0
 19  2  1  1  0  0  0
 19 20  1  0  0  0  0
 20 21  1  6  0  0  0
 20 22  1  0  0  0  0
 23 24  1  0  0  0  0
 24 25  1  0  0  0  0
 25 26  1  0  0  0  0
 26 27  1  0  0  0  0
 27 28  1  0  0  0  0
 28 29  1  0  0  0  0
 29 30  1  0  0  0  0
 31 37  1  0  0  0  0
 32 33  2  0  0  0  0
 34 32  1  1  0  0  0
 34 35  1  0  0  0  0
 34 36  1  0  0  0  0
 36 37  1  0  0  0  0
M  END
>  <CHROM.1>
-90.25852610,-71.77213721,108.00955478,-178.32462012,178.34132404,5.54106186
-167.29828410,-54.69715429,77.32966797,-76.75372852,-67.40096611,-176.76346235
-89.09909713,-174.57559094,66.76676452,-10.06306834,19.53339653,7.21228746
-2.76388144,0.57136878,-2.18133797

>  <Name>
1o9m_lig

>  <RI>
0

>  <Rbt.Current_Directory>
/home/itssahil/PROJECTS/Mol_Feturizer/New_Systems/rnas/1o9m

>  <Rbt.Executable>
rbdock ($Id: //depot/dev/client3/rdock/2013.1/src/exe/rbdock.cxx#4 $)

>  <Rbt.Library>
libRbt.so (2013.1, Build901 2013/11/27)

>  <Rbt.Parameter_File>
/export/apps/rDock/src/rDock_2013.1_src/data/scripts/dock_solv.prm

>  <Rbt.Receptor>
prm/pocket_docking_7.prm

>  <SCORE>
-2.62112

>  <SCORE.INTER>
-3.64043

>  <SCORE.INTER.CONST>
1

>  <SCORE.INTER.POLAR>
-1.2308

>  <SCORE.INTER.ROT>
15

>  <SCORE.INTER.SOLV>
10.7064

>  <SCORE.INTER.VDW>
-15.4931

>  <SCORE.INTER.norm>
-0.0983899

>  <SCORE.INTRA>
1.01931

>  <SCORE.INTRA.DIHEDRAL>
-5.51849

>  <SCORE.INTRA.DIHEDRAL.0>
21.5987

>  <SCORE.INTRA.POLAR>
0

>  <SCORE.INTRA.POLAR.0>
0

>  <SCORE.INTRA.REPUL>
0

>  <SCORE.INTRA.REPUL.0>
0

>  <SCORE.INTRA.SOLV>
4.83301

>  <SCORE.INTRA.SOLV.lig_0>
-108.715

>  <SCORE.INTRA.VDW>
1.36205

>  <SCORE.INTRA.VDW.0>
-3.9485

>  <SCORE.INTRA.norm>
0.0275489

>  <SCORE.RESTR>
0

>  <SCORE.RESTR.CAVITY>
0

>  <SCORE.RESTR.norm>
0

>  <SCORE.SYSTEM>
0

>  <SCORE.SYSTEM.CONST>
0

>  <SCORE.SYSTEM.DIHEDRAL>
0

>  <SCORE.SYSTEM.SOLV>
0

>  <SCORE.SYSTEM.norm>
0

>  <SCORE.heavy>
37

>  <SCORE.norm>
-0.070841

>  <RMSD>
9.501

$$$$
1o9m_lig
 OpenBabel11021811403D
libRbt.so/2013.1/901 2013/11/27
 37 38  0  0  0  0  0  0  0  0999 V2000
  -13.2186   22.2173    8.2468 C   0  0  2  0  0  0  0  0  0  0  0  0
  -13.2656   20.8570    7.7179 O   0  0  0  0  0  0  0  0  0  0  0  0
  -14.6853   22.5720    8.6912 C   0  0  2  0  0  0  0  0  0  0  0  0
  -15.2010   21.6365    9.7061 N   0  0  0  0  0  0  0  0  0  0  0  0
  -15.6183   22.5873    7.4211 C   0  0  1  0  0  0  0  0  0  0  0  0
  -16.9594   22.9097    7.7994 O   0  0  0  0  0  0  0  0  0  0  0  0
  -15.0293   23.6136    6.3978 C   0  0  2  0  0  0  0  0  0  0  0  0
  -15.7977   23.6966    5.1863 O   0  0  0  0  0  0  0  0  0  0  0  0
  -13.5676   23.2491    6.0388 C   0  0  2  0  0  0  0  0  0  0  0  0
  -12.7579   23.1589    7.2202 O   0  0  0  0  0  0  0  0  0  0  0  0
  -12.9577   24.2548    5.0969 C   0  0  0  0  0  0  0  0  0  0  0  0
  -13.5788   24.1972    3.8720 N   0  0  0  0  0  0  0  0  0  0  0  0
   -9.9975   18.2774    6.4989 C   0  0  1  0  0  0  0  0  0  0  0  0
   -8.8869   17.7165    5.6795 N   0  0  0  0  0  0  0  0  0  0  0  0
   -9.6697   19.7228    6.8479 C   0  0  2  0  0  0  0  0  0  0  0  0
   -8.4457   19.7351    7.5201 O   0  0  0  0  0  0  0  0  0  0  0  0
  -10.8005   20.3477    7.7245 C   0  0  1  0  0  0  0  0  0  0  0  0
  -10.4853   21.7396    8.0342 O   0  0  0  0  0  0  0  0  0  0  0  0
  -12.1713   20.3010    6.9341 C   0  0  1  0  0  0  0  0  0  0  0  0
  -12.5193   18.8594    6.5960 C   0  0  1  0  0  0  0  0  0  0  0  0
  -13.7883   18.8380    5.8840 N   0  0  0  0  0  0  0  0  0  0  0  0
  -11.3859   18.2319    5.7411 C   0  0  0  0  0  0  0  0  0  0  0  0
   -7.3124   20.2618    8.2446 C   0  0  0  0  0  0  0  0  0  0  0  0
   -7.7465   20.6363    9.6430 C   0  0  0  0  0  0  0  0  0  0  0  0
   -6.6393   21.0493   10.5299 N   0  0  0  0  0  0  0  0  0  0  0  0
   -5.4420   21.7396   11.0613 C   0  0  0  0  0  0  0  0  0  0  0  0
   -4.5621   21.6026    9.8124 C   0  0  0  0  0  0  0  0  0  0  0  0
   -3.1610   22.2097   10.0139 C   0  0  0  0  0  0  0  0  0  0  0  0
   -2.1651   21.1508   10.4765 C   0  0  0  0  0  0  0  0  0  0  0  0
   -0.9215   21.7824   10.8946 N   0  0  0  0  0  0  0  0  0  0  0  0
   -5.4050   13.2171    4.7462 N   0  0  0  0  0  0  0  0  0  0  0  0
   -9.2953   16.1119    5.0432 C   0  0  0  0  0  0  0  0  0  0  0  0
  -10.1557   15.4639    5.1043 O   0  0  0  0  0  0  0  0  0  0  0  0
   -7.9136   16.1178    4.4361 C   0  0  2  0  0  0  0  0  0  0  0  0
   -7.9728   16.1455    3.0658 O   0  0  0  0  0  0  0  0  0  0  0  0
   -7.2557   14.7975    4.8217 C   0  0  0  0  0  0  0  0  0  0  0  0
   -5.8283   14.5523    4.2999 C   0  0  0  0  0  0  0  0  0  0  0  0
  1  2  1  6  0  0  0
  1  3  1  0  0  0  0
  3  4  1  1  0  0  0
  3  5  1  0  0  0  0
  5  6  1  1  0  0  0
  5  7  1  0  0  0  0
  7  8  1  6  0  0  0
  9  7  1  0  0  0  0
  9 10  1  0  0  0  0
  9 11  1  6  0  0  0
 10  1  1  0  0  0  0
 11 12  1  0  0  0  0
 13 14  1  6  0  0  0
 13 15  1  0  0  0  0
 13 22  1  0  0  0  0
 14 32  1  0  0  0  0
 15 16  1  1  0  0  0
 15 17  1  0  0  0  0
 16 23  1  0  0  0  0
 17 18  1  6  0  0  0
 17 19  1  0  0  0  0
 19  2  1  1  0  0  0
 19 20  1  0  0  0  0
 20 21  1  6  0  0  0
 20 22  1  0  0  0  0
 23 24  1  0  0  0  0
 24 25  1  0  0  0  0
 25 26  1  0  0  0  0
 26 27  1  0  0  0  0
 27 28  1  0  0  0  0
 28 29  1  0  0  0  0
 29 30  1  0  0  0  0
 31 37  1  0  0  0  0
 32 33  2  0  0  0  0
 34 32  1  1  0  0  0
 34 35  1  0  0  0  0
 34 36  1  0  0  0  0
 36 37  1  0  0  0  0
M  END
>  <CHROM.1>
165.62037282,-67.17627815,-172.06947225,-176.01351939,71.05310273,56.88960888
173.59665278,51.53766636,-47.03861331,-178.75539156,93.51318477,-169.60008566
-113.80826480,179.21367818,-178.19168543,-10.08312688,20.16339978,7.10215076
-2.85890934,0.31341116,-2.54556383

>  <Name>
1o9m_lig

>  <RI>
0

>  <Rbt.Current_Directory>
/home/itssahil/PROJECTS/Mol_Feturizer/New_Systems/rnas/1o9m

>  <Rbt.Executable>
rbdock ($Id: //depot/dev/client3/rdock/2013.1/src/exe/rbdock.cxx#4 $)

>  <Rbt.Library>
libRbt.so (2013.1, Build901 2013/11/27)

>  <Rbt.Parameter_File>
/export/apps/rDock/src/rDock_2013.1_src/data/scripts/dock_solv.prm

>  <Rbt.Receptor>
prm/pocket_docking_6.prm

>  <SCORE>
-11.137

>  <SCORE.INTER>
-4.90112

>  <SCORE.INTER.CONST>
1

>  <SCORE.INTER.POLAR>
-1.21295

>  <SCORE.INTER.ROT>
15

>  <SCORE.INTER.SOLV>
17.7491

>  <SCORE.INTER.VDW>
-18.7406

>  <SCORE.INTER.norm>
-0.132463

>  <SCORE.INTRA>
-6.23588

>  <SCORE.INTRA.DIHEDRAL>
-12.9536

>  <SCORE.INTRA.DIHEDRAL.0>
21.5987

>  <SCORE.INTRA.POLAR>
0

>  <SCORE.INTRA.POLAR.0>
0

>  <SCORE.INTRA.REPUL>
0

>  <SCORE.INTRA.REPUL.0>
0

>  <SCORE.INTRA.SOLV>
-1.04065

>  <SCORE.INTRA.SOLV.lig_0>
-108.715

>  <SCORE.INTRA.VDW>
0.761267

>  <SCORE.INTRA.VDW.0>
-3.9485

>  <SCORE.INTRA.norm>
-0.168537

>  <SCORE.RESTR>
0

>  <SCORE.RESTR.CAVITY>
0

>  <SCORE.RESTR.norm>
0

>  <SCORE.SYSTEM>
0

>  <SCORE.SYSTEM.CONST>
0

>  <SCORE.SYSTEM.DIHEDRAL>
0

>  <SCORE.SYSTEM.SOLV>
0

>  <SCORE.SYSTEM.norm>
0

>  <SCORE.heavy>
37

>  <SCORE.norm>
-0.301

>  <RMSD>
9.506

$$$$
1o9m_lig
 OpenBabel11021811403D
libRbt.so/2013.1/901 2013/11/27
 37 38  0  0  0  0  0  0  0  0999 V2000
   -4.8778   17.3567   11.1698 C   0  0  2  0  0  0  0  0  0  0  0  0
   -4.0384   16.9603   10.0426 O   0  0  0  0  0  0  0  0  0  0  0  0
   -4.1945   18.6210   11.8093 C   0  0  2  0  0  0  0  0  0  0  0  0
   -4.0599   19.7280   10.8463 N   0  0  0  0  0  0  0  0  0  0  0  0
   -2.7869   18.2089   12.3860 C   0  0  1  0  0  0  0  0  0  0  0  0
   -2.1452   19.3430   12.9756 O   0  0  0  0  0  0  0  0  0  0  0  0
   -3.0034   17.0504   13.4149 C   0  0  2  0  0  0  0  0  0  0  0  0
   -1.7746   16.5822   13.9942 O   0  0  0  0  0  0  0  0  0  0  0  0
   -3.7288   15.8559   12.7475 C   0  0  2  0  0  0  0  0  0  0  0  0
   -4.9677   16.2749   12.1569 O   0  0  0  0  0  0  0  0  0  0  0  0
   -3.9999   14.7480   13.7322 C   0  0  0  0  0  0  0  0  0  0  0  0
   -4.4969   13.6440   13.0814 N   0  0  0  0  0  0  0  0  0  0  0  0
   -4.9061   14.9083    6.3201 C   0  0  1  0  0  0  0  0  0  0  0  0
   -5.3218   13.8309    5.3788 N   0  0  0  0  0  0  0  0  0  0  0  0
   -6.0743   15.2350    7.2404 C   0  0  2  0  0  0  0  0  0  0  0  0
   -7.1586   15.6063    6.4424 O   0  0  0  0  0  0  0  0  0  0  0  0
   -5.6896   16.3754    8.2349 C   0  0  1  0  0  0  0  0  0  0  0  0
   -6.8100   16.6644    9.1259 O   0  0  0  0  0  0  0  0  0  0  0  0
   -4.4499   15.9216    9.1084 C   0  0  1  0  0  0  0  0  0  0  0  0
   -3.2696   15.6103    8.2006 C   0  0  1  0  0  0  0  0  0  0  0  0
   -2.1380   15.2103    9.0235 N   0  0  0  0  0  0  0  0  0  0  0  0
   -3.6584   14.4903    7.1988 C   0  0  0  0  0  0  0  0  0  0  0  0
   -7.9332   16.3744    5.4956 C   0  0  0  0  0  0  0  0  0  0  0  0
   -9.3713   15.9110    5.5374 C   0  0  0  0  0  0  0  0  0  0  0  0
  -10.3009   16.7524    4.7558 N   0  0  0  0  0  0  0  0  0  0  0  0
  -10.8983   17.5485    3.6596 C   0  0  0  0  0  0  0  0  0  0  0  0
  -11.8366   18.4024    4.5219 C   0  0  0  0  0  0  0  0  0  0  0  0
  -12.7169   19.3411    3.6757 C   0  0  0  0  0  0  0  0  0  0  0  0
  -13.7047   18.5488    2.8249 C   0  0  0  0  0  0  0  0  0  0  0  0
  -14.5318   19.4567    2.0427 N   0  0  0  0  0  0  0  0  0  0  0  0
   -5.9130    9.8932    2.3282 N   0  0  0  0  0  0  0  0  0  0  0  0
   -4.0103   13.3997    4.2649 C   0  0  0  0  0  0  0  0  0  0  0  0
   -2.9922   13.7271    4.1229 O   0  0  0  0  0  0  0  0  0  0  0  0
   -4.9904   12.4268    3.6560 C   0  0  2  0  0  0  0  0  0  0  0  0
   -5.4442   11.5291    4.5888 O   0  0  0  0  0  0  0  0  0  0  0  0
   -4.2247   11.6250    2.6094 C   0  0  0  0  0  0  0  0  0  0  0  0
   -5.0624   10.8356    1.5871 C   0  0  0  0  0  0  0  0  0  0  0  0
  1  2  1  6  0  0  0
  1  3  1  0  0  0  0
  3  4  1  6  0  0  0
  3  5  1  0  0  0  0
  5  6  1  1  0  0  0
  5  7  1  0  0  0  0
  7  8  1  6  0  0  0
  9  7  1  0  0  0  0
  9 10  1  0  0  0  0
  9 11  1  1  0  0  0
 10  1  1  0  0  0  0
 11 12  1  0  0  0  0
 13 14  1  6  0  0  0
 13 15  1  0  0  0  0
 13 22  1  0  0  0  0
 14 32  1  0  0  0  0
 15 16  1  6  0  0  0
 15 17  1  0  0  0  0
 16 23  1  0  0  0  0
 17 18  1  1  0  0  0
 17 19  1  0  0  0  0
 19  2  1  1  0  0  0
 19 20  1  0  0  0  0
 20 21  1  1  0  0  0
 20 22  1  0  0  0  0
 23 24  1  0  0  0  0
 24 25  1  0  0  0  0
 25 26  1  0  0  0  0
 26 27  1  0  0  0  0
 27 28  1  0  0  0  0
 28 29  1  0  0  0  0
 29 30  1  0  0  0  0
 31 37  1  0  0  0  0
 32 33  2  0  0  0  0
 34 32  1  1  0  0  0
 34 35  1  0  0  0  0
 34 36  1  0  0  0  0
 36 37  1  0  0  0  0
M  END
>  <CHROM.1>
-172.23359373,-172.84276183,179.72260659,-62.81586913,-168.41216985,67.89364327
171.57812954,46.99819366,-157.28312193,-176.79298111,66.55978645,179.55567180
-58.40526665,-164.04450902,-58.81975012,-5.87289144,15.78696678,7.59680675
0.77200718,-0.61043023,0.94324552

>  <Name>
1o9m_lig

>  <RI>
0

>  <Rbt.Current_Directory>
/home/itssahil/PROJECTS/Mol_Feturizer/New_Systems/rnas/1o9m

>  <Rbt.Executable>
rbdock ($Id: //depot/dev/client3/rdock/2013.1/src/exe/rbdock.cxx#4 $)

>  <Rbt.Library>
libRbt.so (2013.1, Build901 2013/11/27)

>  <Rbt.Parameter_File>
/export/apps/rDock/src/rDock_2013.1_src/data/scripts/dock_solv.prm

>  <Rbt.Receptor>
prm/pocket_docking_7.prm

>  <SCORE>
-18.1552

>  <SCORE.INTER>
-10.9638

>  <SCORE.INTER.CONST>
1

>  <SCORE.INTER.POLAR>
-1.33163

>  <SCORE.INTER.ROT>
15

>  <SCORE.INTER.SOLV>
16.7285

>  <SCORE.INTER.VDW>
-22.0466

>  <SCORE.INTER.norm>
-0.296318

>  <SCORE.INTRA>
-7.19149

>  <SCORE.INTRA.DIHEDRAL>
-17.4301

>  <SCORE.INTRA.DIHEDRAL.0>
21.5987

>  <SCORE.INTRA.POLAR>
0

>  <SCORE.INTRA.POLAR.0>
0

>  <SCORE.INTRA.REPUL>
0

>  <SCORE.INTRA.REPUL.0>
0

>  <SCORE.INTRA.SOLV>
0.0405334

>  <SCORE.INTRA.SOLV.lig_0>
-108.715

>  <SCORE.INTRA.VDW>
1.50328

>  <SCORE.INTRA.VDW.0>
-3.9485

>  <SCORE.INTRA.norm>
-0.194364

>  <SCORE.RESTR>
0

>  <SCORE.RESTR.CAVITY>
0

>  <SCORE.RESTR.norm>
0

>  <SCORE.SYSTEM>
0

>  <SCORE.SYSTEM.CONST>
0

>  <SCORE.SYSTEM.DIHEDRAL>
0

>  <SCORE.SYSTEM.SOLV>
0

>  <SCORE.SYSTEM.norm>
0

>  <SCORE.heavy>
37

>  <SCORE.norm>
-0.490682

>  <RMSD>
9.511

$$$$
1o9m_lig
 OpenBabel11021811403D
libRbt.so/2013.1/901 2013/11/27
 37 38  0  0  0  0  0  0  0  0999 V2000
   -2.1636   16.9870   12.0271 C   0  0  2  0  0  0  0  0  0  0  0  0
   -1.1302   16.5843   11.0773 O   0  0  0  0  0  0  0  0  0  0  0  0
   -1.5079   18.0654   12.9660 C   0  0  2  0  0  0  0  0  0  0  0  0
   -1.0106   19.2303   12.2133 N   0  0  0  0  0  0  0  0  0  0  0  0
   -0.3429   17.3929   13.7872 C   0  0  1  0  0  0  0  0  0  0  0  0
    0.2691   18.3544   14.6512 O   0  0  0  0  0  0  0  0  0  0  0  0
   -0.9413   16.1830   14.5781 C   0  0  2  0  0  0  0  0  0  0  0  0
    0.0443   15.4817   15.3538 O   0  0  0  0  0  0  0  0  0  0  0  0
   -1.6222   15.1823   13.6120 C   0  0  2  0  0  0  0  0  0  0  0  0
   -2.6207   15.8378   12.8166 O   0  0  0  0  0  0  0  0  0  0  0  0
   -2.2562   14.0346   14.3545 C   0  0  0  0  0  0  0  0  0  0  0  0
   -1.2867   13.2152   14.8816 N   0  0  0  0  0  0  0  0  0  0  0  0
   -1.5017   15.2241    6.9746 C   0  0  1  0  0  0  0  0  0  0  0  0
   -1.8063   14.3408    5.8142 N   0  0  0  0  0  0  0  0  0  0  0  0
   -2.7823   15.4574    7.7645 C   0  0  2  0  0  0  0  0  0  0  0  0
   -3.7260   16.0133    6.8981 O   0  0  0  0  0  0  0  0  0  0  0  0
   -2.5143   16.3956    8.9833 C   0  0  1  0  0  0  0  0  0  0  0  0
   -3.7444   16.5941    9.7449 O   0  0  0  0  0  0  0  0  0  0  0  0
   -1.4305   15.7376    9.9311 C   0  0  1  0  0  0  0  0  0  0  0  0
   -0.1394   15.5168    9.1576 C   0  0  1  0  0  0  0  0  0  0  0  0
    0.8465   14.9259   10.0501 N   0  0  0  0  0  0  0  0  0  0  0  0
   -0.4097   14.6000    7.9347 C   0  0  0  0  0  0  0  0  0  0  0  0
   -4.6599   16.0986    5.7994 C   0  0  0  0  0  0  0  0  0  0  0  0
   -5.8245   15.1722    6.0636 C   0  0  0  0  0  0  0  0  0  0  0  0
   -6.7134   15.6149    7.1577 N   0  0  0  0  0  0  0  0  0  0  0  0
   -7.3979   16.4597    8.1627 C   0  0  0  0  0  0  0  0  0  0  0  0
   -8.2057   17.3202    7.1830 C   0  0  0  0  0  0  0  0  0  0  0  0
   -7.3271   18.3471    6.4441 C   0  0  0  0  0  0  0  0  0  0  0  0
   -8.1285   19.0909    5.3803 C   0  0  0  0  0  0  0  0  0  0  0  0
   -7.2712   20.0347    4.6770 N   0  0  0  0  0  0  0  0  0  0  0  0
   -5.4969   11.8876    4.2449 N   0  0  0  0  0  0  0  0  0  0  0  0
   -2.0364   15.2789    4.3263 C   0  0  0  0  0  0  0  0  0  0  0  0
   -1.9958   16.3265    4.0717 O   0  0  0  0  0  0  0  0  0  0  0  0
   -2.3148   13.9538    3.6599 C   0  0  2  0  0  0  0  0  0  0  0  0
   -2.2878   14.0693    2.2932 O   0  0  0  0  0  0  0  0  0  0  0  0
   -3.7373   13.5581    4.0402 C   0  0  0  0  0  0  0  0  0  0  0  0
   -4.2277   12.1791    3.5628 C   0  0  0  0  0  0  0  0  0  0  0  0
  1  2  1  6  0  0  0
  1  3  1  0  0  0  0
  3  4  1  6  0  0  0
  3  5  1  0  0  0  0
  5  6  1  1  0  0  0
  5  7  1  0  0  0  0
  7  8  1  6  0  0  0
  9  7  1  0  0  0  0
  9 10  1  0  0  0  0
  9 11  1  1  0  0  0
 10  1  1  0  0  0  0
 11 12  1  0  0  0  0
 13 14  1  6  0  0  0
 13 15  1  0  0  0  0
 13 22  1  0  0  0  0
 14 32  1  0  0  0  0
 15 16  1  6  0  0  0
 15 17  1  0  0  0  0
 16 23  1  0  0  0  0
 17 18  1  1  0  0  0
 17 19  1  0  0  0  0
 19  2  1  1  0  0  0
 19 20  1  0  0  0  0
 20 21  1  1  0  0  0
 20 22  1  0  0  0  0
 23 24  1  0  0  0  0
 24 25  1  0  0  0  0
 25 26  1  0  0  0  0
 26 27  1  0  0  0  0
 27 28  1  0  0  0  0
 28 29  1  0  0  0  0
 29 30  1  0  0  0  0
 31 37  1  0  0  0  0
 32 33  2  0  0  0  0
 34 32  1  1  0  0  0
 34 35  1  0  0  0  0
 34 36  1  0  0  0  0
 36 37  1  0  0  0  0
M  END
>  <CHROM.1>
-171.03184364,-70.41783539,98.27784831,68.09732759,66.08116211,59.15788894
70.24224313,19.28660922,68.46996058,-73.63859882,174.35966961,-178.80287922
-166.21185679,-175.64241832,169.11757283,-2.95776995,15.86617349,8.73019555
1.06320982,-0.57777742,1.18966715

>  <Name>
1o9m_lig

>  <RI>
0

>  <Rbt.Current_Directory>
/home/itssahil/PROJECTS/Mol_Feturizer/New_Systems/rnas/1o9m

>  <Rbt.Executable>
rbdock ($Id: //depot/dev/client3/rdock/2013.1/src/exe/rbdock.cxx#4 $)

>  <Rbt.Library>
libRbt.so (2013.1, Build901 2013/11/27)

>  <Rbt.Parameter_File>
/export/apps/rDock/src/rDock_2013.1_src/data/scripts/dock_solv.prm

>  <Rbt.Receptor>
prm/pocket_docking_8.prm

>  <SCORE>
-11.9323

>  <SCORE.INTER>
-4.69213

>  <SCORE.INTER.CONST>
1

>  <SCORE.INTER.POLAR>
-0.945821

>  <SCORE.INTER.ROT>
15

>  <SCORE.INTER.SOLV>
13.803

>  <SCORE.INTER.VDW>
-18.1763

>  <SCORE.INTER.norm>
-0.126814

>  <SCORE.INTRA>
-7.24013

>  <SCORE.INTRA.DIHEDRAL>
-15.6392

>  <SCORE.INTRA.DIHEDRAL.0>
21.5987

>  <SCORE.INTRA.POLAR>
0

>  <SCORE.INTRA.POLAR.0>
0

>  <SCORE.INTRA.REPUL>
0

>  <SCORE.INTRA.REPUL.0>
0

>  <SCORE.INTRA.SOLV>
1.22439

>  <SCORE.INTRA.SOLV.lig_0>
-108.715

>  <SCORE.INTRA.VDW>
-0.0327132

>  <SCORE.INTRA.VDW.0>
-3.9485

>  <SCORE.INTRA.norm>
-0.195679

>  <SCORE.RESTR>
0

>  <SCORE.RESTR.CAVITY>
0

>  <SCORE.RESTR.norm>
0

>  <SCORE.SYSTEM>
0

>  <SCORE.SYSTEM.CONST>
0

>  <SCORE.SYSTEM.DIHEDRAL>
0

>  <SCORE.SYSTEM.SOLV>
0

>  <SCORE.SYSTEM.norm>
0

>  <SCORE.heavy>
37

>  <SCORE.norm>
-0.322494

>  <RMSD>
9.559

$$$$
1o9m_lig
 OpenBabel11021811403D
libRbt.so/2013.1/901 2013/11/27
 37 38  0  0  0  0  0  0  0  0999 V2000
   -3.1570   15.1804   12.4321 C   0  0  2  0  0  0  0  0  0  0  0  0
   -2.2704   15.2849   11.2767 O   0  0  0  0  0  0  0  0  0  0  0  0
   -2.6282   16.2147   13.4928 C   0  0  2  0  0  0  0  0  0  0  0  0
   -2.6159   17.5919   12.9692 N   0  0  0  0  0  0  0  0  0  0  0  0
   -1.1861   15.7820   13.9589 C   0  0  1  0  0  0  0  0  0  0  0  0
   -0.6833   16.7074   14.9266 O   0  0  0  0  0  0  0  0  0  0  0  0
   -1.2744   14.3256   14.5232 C   0  0  2  0  0  0  0  0  0  0  0  0
   -0.0035   13.8207   14.9646 O   0  0  0  0  0  0  0  0  0  0  0  0
   -1.8529   13.3615   13.4581 C   0  0  2  0  0  0  0  0  0  0  0  0
   -3.1280   13.8232   12.9889 O   0  0  0  0  0  0  0  0  0  0  0  0
   -2.0008   11.9615   13.9955 C   0  0  0  0  0  0  0  0  0  0  0  0
   -0.7647   11.3892   14.1793 N   0  0  0  0  0  0  0  0  0  0  0  0
   -2.9620   14.4151    7.0831 C   0  0  1  0  0  0  0  0  0  0  0  0
   -3.2079   13.6378    5.8362 N   0  0  0  0  0  0  0  0  0  0  0  0
   -4.0983   14.1482    8.0610 C   0  0  2  0  0  0  0  0  0  0  0  0
   -5.2956   14.5006    7.4344 O   0  0  0  0  0  0  0  0  0  0  0  0
   -3.8920   14.9588    9.3793 C   0  0  1  0  0  0  0  0  0  0  0  0
   -4.9758   14.6779   10.3168 O   0  0  0  0  0  0  0  0  0  0  0  0
   -2.5198   14.5417   10.0493 C   0  0  1  0  0  0  0  0  0  0  0  0
   -1.3742   14.8215    9.0884 C   0  0  1  0  0  0  0  0  0  0  0  0
   -0.1228   14.4455    9.7288 N   0  0  0  0  0  0  0  0  0  0  0  0
   -1.5893   14.0309    7.7701 C   0  0  0  0  0  0  0  0  0  0  0  0
   -6.2706   15.3261    6.7603 C   0  0  0  0  0  0  0  0  0  0  0  0
   -5.7188   15.7531    5.4195 C   0  0  0  0  0  0  0  0  0  0  0  0
   -6.7450   16.2165    4.4629 N   0  0  0  0  0  0  0  0  0  0  0  0
   -7.8840   16.2344    3.5171 C   0  0  0  0  0  0  0  0  0  0  0  0
   -8.5913   17.4736    4.0802 C   0  0  0  0  0  0  0  0  0  0  0  0
   -9.9405   17.7427    3.3878 C   0  0  0  0  0  0  0  0  0  0  0  0
  -10.5961   19.0068    3.9352 C   0  0  0  0  0  0  0  0  0  0  0  0
  -10.8484   18.8618    5.3620 N   0  0  0  0  0  0  0  0  0  0  0  0
   -5.7057   11.9654    4.2229 N   0  0  0  0  0  0  0  0  0  0  0  0
   -2.3822   14.3643    4.4444 C   0  0  0  0  0  0  0  0  0  0  0  0
   -1.7433   15.2216    4.2992 O   0  0  0  0  0  0  0  0  0  0  0  0
   -3.0056   13.2565    3.6309 C   0  0  2  0  0  0  0  0  0  0  0  0
   -2.2968   13.0260    2.4792 O   0  0  0  0  0  0  0  0  0  0  0  0
   -4.3873   13.7428    3.2076 C   0  0  0  0  0  0  0  0  0  0  0  0
   -5.4573   12.6654    2.9543 C   0  0  0  0  0  0  0  0  0  0  0  0
  1  2  1  6  0  0  0
  1  3  1  0  0  0  0
  3  4  1  6  0  0  0
  3  5  1  0  0  0  0
  5  6  1  1  0  0  0
  5  7  1  0  0  0  0
  7  8  1  6  0  0  0
  9  7  1  0  0  0  0
  9 10  1  0  0  0  0
  9 11  1  1  0  0  0
 10  1  1  0  0  0  0
 11 12  1  0  0  0  0
 13 14  1  6  0  0  0
 13 15  1  0  0  0  0
 13 22  1  0  0  0  0
 14 32  1  0  0  0  0
 15 16  1  6  0  0  0
 15 17  1  0  0  0  0
 16 23  1  0  0  0  0
 17 18  1  1  0  0  0
 17 19  1  0  0  0  0
 19  2  1  1  0  0  0
 19 20  1  0  0  0  0
 20 21  1  1  0  0  0
 20 22  1  0  0  0  0
 23 24  1  0  0  0  0
 24 25  1  0  0  0  0
 25 26  1  0  0  0  0
 26 27  1  0  0  0  0
 27 28  1  0  0  0  0
 28 29  1  0  0  0  0
 29 30  1  0  0  0  0
 31 37  1  0  0  0  0
 32 33  2  0  0  0  0
 34 32  1  1  0  0  0
 34 35  1  0  0  0  0
 34 36  1  0  0  0  0
 36 37  1  0  0  0  0
M  END
>  <CHROM.1>
-175.15520434,-70.09383165,156.03269709,-57.92749213,63.87092007,62.24521779
161.18673731,-69.00746051,134.21366030,-175.10205328,-178.03499126,-60.63302195
-156.98736433,-152.69110368,63.53645948,-3.86355739,14.87747567,8.39539172
0.92951460,-0.61165961,1.30724439

>  <Name>
1o9m_lig

>  <RI>
0

>  <Rbt.Current_Directory>
/home/itssahil/PROJECTS/Mol_Feturizer/New_Systems/rnas/1o9m

>  <Rbt.Executable>
rbdock ($Id: //depot/dev/client3/rdock/2013.1/src/exe/rbdock.cxx#4 $)

>  <Rbt.Library>
libRbt.so (2013.1, Build901 2013/11/27)

>  <Rbt.Parameter_File>
/export/apps/rDock/src/rDock_2013.1_src/data/scripts/dock_solv.prm

>  <Rbt.Receptor>
prm/pocket_docking_8.prm

>  <SCORE>
-18.843

>  <SCORE.INTER>
-12.2884

>  <SCORE.INTER.CONST>
1

>  <SCORE.INTER.POLAR>
-1.6577

>  <SCORE.INTER.ROT>
15

>  <SCORE.INTER.SOLV>
14.6164

>  <SCORE.INTER.VDW>
-21.1387

>  <SCORE.INTER.norm>
-0.332118

>  <SCORE.INTRA>
-6.55468

>  <SCORE.INTRA.DIHEDRAL>
-14.3753

>  <SCORE.INTRA.DIHEDRAL.0>
21.5987

>  <SCORE.INTRA.POLAR>
0

>  <SCORE.INTRA.POLAR.0>
0

>  <SCORE.INTRA.REPUL>
0

>  <SCORE.INTRA.REPUL.0>
0

>  <SCORE.INTRA.SOLV>
3.29658

>  <SCORE.INTRA.SOLV.lig_0>
-108.715

>  <SCORE.INTRA.VDW>
-1.01534

>  <SCORE.INTRA.VDW.0>
-3.9485

>  <SCORE.INTRA.norm>
-0.177154

>  <SCORE.RESTR>
0

>  <SCORE.RESTR.CAVITY>
0

>  <SCORE.RESTR.norm>
0

>  <SCORE.SYSTEM>
0

>  <SCORE.SYSTEM.CONST>
0

>  <SCORE.SYSTEM.DIHEDRAL>
0

>  <SCORE.SYSTEM.SOLV>
0

>  <SCORE.SYSTEM.norm>
0

>  <SCORE.heavy>
37

>  <SCORE.norm>
-0.509271

>  <RMSD>
9.587

$$$$
1o9m_lig
 OpenBabel11021811403D
libRbt.so/2013.1/901 2013/11/27
 37 38  0  0  0  0  0  0  0  0999 V2000
  -12.1316   17.6233    4.3337 C   0  0  2  0  0  0  0  0  0  0  0  0
  -11.1260   18.3937    5.0600 O   0  0  0  0  0  0  0  0  0  0  0  0
  -12.7774   18.6080    3.2907 C   0  0  2  0  0  0  0  0  0  0  0  0
  -11.7798   19.1677    2.3620 N   0  0  0  0  0  0  0  0  0  0  0  0
  -13.5268   19.7584    4.0644 C   0  0  1  0  0  0  0  0  0  0  0  0
  -14.1250   20.6674    3.1363 O   0  0  0  0  0  0  0  0  0  0  0  0
  -14.5832   19.0991    5.0114 C   0  0  2  0  0  0  0  0  0  0  0  0
  -15.3182   20.0628    5.7835 O   0  0  0  0  0  0  0  0  0  0  0  0
  -13.9016   18.0991    5.9777 C   0  0  2  0  0  0  0  0  0  0  0  0
  -13.1567   17.1115    5.2502 O   0  0  0  0  0  0  0  0  0  0  0  0
  -14.9055   17.4080    6.8637 C   0  0  0  0  0  0  0  0  0  0  0  0
  -15.4930   18.3141    7.7141 N   0  0  0  0  0  0  0  0  0  0  0  0
   -7.3319   17.2437    6.8215 C   0  0  1  0  0  0  0  0  0  0  0  0
   -6.3523   16.5871    7.7318 N   0  0  0  0  0  0  0  0  0  0  0  0
   -8.1404   16.1672    6.1103 C   0  0  2  0  0  0  0  0  0  0  0  0
   -7.2462   15.3376    5.4303 O   0  0  0  0  0  0  0  0  0  0  0  0
   -9.1704   16.8103    5.1289 C   0  0  1  0  0  0  0  0  0  0  0  0
   -9.9541   15.7694    4.4695 O   0  0  0  0  0  0  0  0  0  0  0  0
  -10.1540   17.7529    5.9350 C   0  0  1  0  0  0  0  0  0  0  0  0
   -9.3592   18.8446    6.6352 C   0  0  1  0  0  0  0  0  0  0  0  0
  -10.2825   19.7073    7.3569 N   0  0  0  0  0  0  0  0  0  0  0  0
   -8.3216   18.2049    7.5962 C   0  0  0  0  0  0  0  0  0  0  0  0
   -6.7763   14.2148    4.6523 C   0  0  0  0  0  0  0  0  0  0  0  0
   -5.2835   14.3392    4.4513 C   0  0  0  0  0  0  0  0  0  0  0  0
   -4.6930   13.2659    3.6252 N   0  0  0  0  0  0  0  0  0  0  0  0
   -4.2258   11.9392    3.1624 C   0  0  0  0  0  0  0  0  0  0  0  0
   -5.4326   11.1239    3.6439 C   0  0  0  0  0  0  0  0  0  0  0  0
   -6.7244   11.4887    2.8886 C   0  0  0  0  0  0  0  0  0  0  0  0
   -6.6225   11.1139    1.4134 C   0  0  0  0  0  0  0  0  0  0  0  0
   -6.6620    9.6663    1.2612 N   0  0  0  0  0  0  0  0  0  0  0  0
   -4.4321   13.5046   10.0906 N   0  0  0  0  0  0  0  0  0  0  0  0
   -4.7151   16.6093    7.0493 C   0  0  0  0  0  0  0  0  0  0  0  0
   -4.2717   16.9937    6.1440 O   0  0  0  0  0  0  0  0  0  0  0  0
   -4.3027   15.8533    8.2887 C   0  0  2  0  0  0  0  0  0  0  0  0
   -3.1189   16.3307    8.7913 O   0  0  0  0  0  0  0  0  0  0  0  0
   -4.0506   14.4110    7.8632 C   0  0  0  0  0  0  0  0  0  0  0  0
   -3.5172   13.4502    8.9412 C   0  0  0  0  0  0  0  0  0  0  0  0
  1  2  1  1  0  0  0
  1  3  1  0  0  0  0
  3  4  1  6  0  0  0
  3  5  1  0  0  0  0
  5  6  1  6  0  0  0
  5  7  1  0  0  0  0
  7  8  1  1  0  0  0
  9  7  1  0  0  0  0
  9 10  1  0  0  0  0
  9 11  1  6  0  0  0
 10  1  1  0  0  0  0
 11 12  1  0  0  0  0
 13 14  1  1  0  0  0
 13 15  1  0  0  0  0
 13 22  1  0  0  0  0
 14 32  1  0  0  0  0
 15 16  1  6  0  0  0
 15 17  1  0  0  0  0
 16 23  1  0  0  0  0
 17 18  1  1  0  0  0
 17 19  1  0  0  0  0
 19  2  1  6  0  0  0
 19 20  1  0  0  0  0
 20 21  1  1  0  0  0
 20 22  1  0  0  0  0
 23 24  1  0  0  0  0
 24 25  1  0  0  0  0
 25 26  1  0  0  0  0
 26 27  1  0  0  0  0
 27 28  1  0  0  0  0
 28 29  1  0  0  0  0
 29 30  1  0  0  0  0
 31 37  1  0  0  0  0
 32 33  2  0  0  0  0
 34 32  1  6  0  0  0
 34 35  1  0  0  0  0
 34 36  1  0  0  0  0
 36 37  1  0  0  0  0
M  END
>  <CHROM.1>
-168.45632477,-65.90742337,103.19019923,173.08992805,-179.67579675,64.92446223
-177.99416522,-66.85195415,41.65564730,66.00554269,65.17708909,71.01159387
-137.47296854,175.81894081,54.23397273,-8.76595937,16.25045994,5.51439520
2.82476686,-0.46486731,0.85502082

>  <Name>
1o9m_lig

>  <RI>
0

>  <Rbt.Current_Directory>
/home/itssahil/PROJECTS/Mol_Feturizer/New_Systems/rnas/1o9m

>  <Rbt.Executable>
rbdock ($Id: //depot/dev/client3/rdock/2013.1/src/exe/rbdock.cxx#4 $)

>  <Rbt.Library>
libRbt.so (2013.1, Build901 2013/11/27)

>  <Rbt.Parameter_File>
/export/apps/rDock/src/rDock_2013.1_src/data/scripts/dock_solv.prm

>  <Rbt.Receptor>
prm/pocket_docking_5.prm

>  <SCORE>
-14.2797

>  <SCORE.INTER>
-8.36331

>  <SCORE.INTER.CONST>
1

>  <SCORE.INTER.POLAR>
-0.549457

>  <SCORE.INTER.ROT>
15

>  <SCORE.INTER.SOLV>
15.0545

>  <SCORE.INTER.VDW>
-22.3622

>  <SCORE.INTER.norm>
-0.226035

>  <SCORE.INTRA>
-5.91641

>  <SCORE.INTRA.DIHEDRAL>
-16.0361

>  <SCORE.INTRA.DIHEDRAL.0>
21.5987

>  <SCORE.INTRA.POLAR>
0

>  <SCORE.INTRA.POLAR.0>
0

>  <SCORE.INTRA.REPUL>
0

>  <SCORE.INTRA.REPUL.0>
0

>  <SCORE.INTRA.SOLV>
2.97044

>  <SCORE.INTRA.SOLV.lig_0>
-108.715

>  <SCORE.INTRA.VDW>
0.616443

>  <SCORE.INTRA.VDW.0>
-3.9485

>  <SCORE.INTRA.norm>
-0.159903

>  <SCORE.RESTR>
0

>  <SCORE.RESTR.CAVITY>
0

>  <SCORE.RESTR.norm>
0

>  <SCORE.SYSTEM>
0

>  <SCORE.SYSTEM.CONST>
0

>  <SCORE.SYSTEM.DIHEDRAL>
0

>  <SCORE.SYSTEM.SOLV>
0

>  <SCORE.SYSTEM.norm>
0

>  <SCORE.heavy>
37

>  <SCORE.norm>
-0.385938

>  <RMSD>
9.598

$$$$
1o9m_lig
 OpenBabel11021811403D
libRbt.so/2013.1/901 2013/11/27
 37 38  0  0  0  0  0  0  0  0999 V2000
  -11.7170   18.1129    4.2702 C   0  0  2  0  0  0  0  0  0  0  0  0
  -10.7149   18.4694    5.2706 O   0  0  0  0  0  0  0  0  0  0  0  0
  -12.1777   19.4609    3.6031 C   0  0  2  0  0  0  0  0  0  0  0  0
  -11.0561   20.1857    2.9807 N   0  0  0  0  0  0  0  0  0  0  0  0
  -12.8870   20.3564    4.6889 C   0  0  1  0  0  0  0  0  0  0  0  0
  -13.3174   21.5892    4.1054 O   0  0  0  0  0  0  0  0  0  0  0  0
  -14.0775   19.5392    5.2907 C   0  0  2  0  0  0  0  0  0  0  0  0
  -14.7890   20.2593    6.3106 O   0  0  0  0  0  0  0  0  0  0  0  0
  -13.5758   18.1988    5.8825 C   0  0  2  0  0  0  0  0  0  0  0  0
  -12.8607   17.4400    4.8965 O   0  0  0  0  0  0  0  0  0  0  0  0
  -14.7117   17.3667    6.4189 C   0  0  0  0  0  0  0  0  0  0  0  0
  -15.3265   18.0167    7.4624 N   0  0  0  0  0  0  0  0  0  0  0  0
   -7.0715   16.3278    6.2506 C   0  0  1  0  0  0  0  0  0  0  0  0
   -6.1634   15.3099    6.8495 N   0  0  0  0  0  0  0  0  0  0  0  0
   -8.1013   15.6179    5.3822 C   0  0  2  0  0  0  0  0  0  0  0  0
   -7.4132   14.8773    4.4188 O   0  0  0  0  0  0  0  0  0  0  0  0
   -9.0660   16.6498    4.7172 C   0  0  1  0  0  0  0  0  0  0  0  0
  -10.0617   15.9559    3.9049 O   0  0  0  0  0  0  0  0  0  0  0  0
   -9.8138   17.4772    5.8405 C   0  0  1  0  0  0  0  0  0  0  0  0
   -8.7956   18.2066    6.7036 C   0  0  1  0  0  0  0  0  0  0  0  0
   -9.5038   18.9718    7.7188 N   0  0  0  0  0  0  0  0  0  0  0  0
   -7.8242   17.1824    7.3492 C   0  0  0  0  0  0  0  0  0  0  0  0
   -7.2019   14.0497    3.2539 C   0  0  0  0  0  0  0  0  0  0  0  0
   -6.3943   12.8341    3.6474 C   0  0  0  0  0  0  0  0  0  0  0  0
   -4.9327   13.0494    3.6360 N   0  0  0  0  0  0  0  0  0  0  0  0
   -3.5731   13.5089    4.0004 C   0  0  0  0  0  0  0  0  0  0  0  0
   -2.8184   12.8303    2.8502 C   0  0  0  0  0  0  0  0  0  0  0  0
   -3.2125   13.4003    1.4747 C   0  0  0  0  0  0  0  0  0  0  0  0
   -2.9487   12.3876    0.3646 C   0  0  0  0  0  0  0  0  0  0  0  0
   -3.9032   11.2914    0.4504 N   0  0  0  0  0  0  0  0  0  0  0  0
   -0.3828   14.9809    7.5257 N   0  0  0  0  0  0  0  0  0  0  0  0
   -4.5880   16.0102    7.2670 C   0  0  0  0  0  0  0  0  0  0  0  0
   -4.1479   16.9927    7.1972 O   0  0  0  0  0  0  0  0  0  0  0  0
   -4.2087   14.6205    7.7172 C   0  0  2  0  0  0  0  0  0  0  0  0
   -4.8914   14.2618    8.8518 O   0  0  0  0  0  0  0  0  0  0  0  0
   -2.7305   14.6642    8.0883 C   0  0  0  0  0  0  0  0  0  0  0  0
   -1.7347   14.9484    6.9492 C   0  0  0  0  0  0  0  0  0  0  0  0
  1  2  1  1  0  0  0
  1  3  1  0  0  0  0
  3  4  1  1  0  0  0
  3  5  1  0  0  0  0
  5  6  1  6  0  0  0
  5  7  1  0  0  0  0
  7  8  1  1  0  0  0
  9  7  1  0  0  0  0
  9 10  1  0  0  0  0
  9 11  1  6  0  0  0
 10  1  1  0  0  0  0
 11 12  1  0  0  0  0
 13 14  1  1  0  0  0
 13 15  1  0  0  0  0
 13 22  1  0  0  0  0
 14 32  1  0  0  0  0
 15 16  1  6  0  0  0
 15 17  1  0  0  0  0
 16 23  1  0  0  0  0
 17 18  1  1  0  0  0
 17 19  1  0  0  0  0
 19  2  1  6  0  0  0
 19 20  1  0  0  0  0
 20 21  1  1  0  0  0
 20 22  1  0  0  0  0
 23 24  1  0  0  0  0
 24 25  1  0  0  0  0
 25 26  1  0  0  0  0
 26 27  1  0  0  0  0
 27 28  1  0  0  0  0
 28 29  1  0  0  0  0
 29 30  1  0  0  0  0
 31 37  1  0  0  0  0
 32 33  2  0  0  0  0
 34 32  1  1  0  0  0
 34 35  1  0  0  0  0
 34 36  1  0  0  0  0
 36 37  1  0  0  0  0
M  END
>  <CHROM.1>
-163.56436907,-63.26643993,155.38697730,-172.77042993,-126.54745565,52.13418926
-85.52615462,72.43387843,-179.95513838,64.88329420,-155.86583555,70.87464356
-69.52611504,-65.11013236,178.55479977,-8.09413543,16.36935458,5.23061357
2.88253140,-0.43912466,1.14400572

>  <Name>
1o9m_lig

>  <RI>
0

>  <Rbt.Current_Directory>
/home/itssahil/PROJECTS/Mol_Feturizer/New_Systems/rnas/1o9m

>  <Rbt.Executable>
rbdock ($Id: //depot/dev/client3/rdock/2013.1/src/exe/rbdock.cxx#4 $)

>  <Rbt.Library>
libRbt.so (2013.1, Build901 2013/11/27)

>  <Rbt.Parameter_File>
/export/apps/rDock/src/rDock_2013.1_src/data/scripts/dock_solv.prm

>  <Rbt.Receptor>
prm/pocket_docking_4.prm

>  <SCORE>
-10.0824

>  <SCORE.INTER>
-8.61443

>  <SCORE.INTER.CONST>
1

>  <SCORE.INTER.POLAR>
-0.493975

>  <SCORE.INTER.ROT>
15

>  <SCORE.INTER.SOLV>
15.8352

>  <SCORE.INTER.VDW>
-22.9748

>  <SCORE.INTER.norm>
-0.232822

>  <SCORE.INTRA>
-1.46798

>  <SCORE.INTRA.DIHEDRAL>
-6.47416

>  <SCORE.INTRA.DIHEDRAL.0>
21.5987

>  <SCORE.INTRA.POLAR>
0

>  <SCORE.INTRA.POLAR.0>
0

>  <SCORE.INTRA.REPUL>
0

>  <SCORE.INTRA.REPUL.0>
0

>  <SCORE.INTRA.SOLV>
1.95773

>  <SCORE.INTRA.SOLV.lig_0>
-108.715

>  <SCORE.INTRA.VDW>
0.790237

>  <SCORE.INTRA.VDW.0>
-3.9485

>  <SCORE.INTRA.norm>
-0.0396751

>  <SCORE.RESTR>
0

>  <SCORE.RESTR.CAVITY>
0

>  <SCORE.RESTR.norm>
0

>  <SCORE.SYSTEM>
0

>  <SCORE.SYSTEM.CONST>
0

>  <SCORE.SYSTEM.DIHEDRAL>
0

>  <SCORE.SYSTEM.SOLV>
0

>  <SCORE.SYSTEM.norm>
0

>  <SCORE.heavy>
37

>  <SCORE.norm>
-0.272498

>  <RMSD>
9.605

$$$$
1o9m_lig
 OpenBabel11021811403D
libRbt.so/2013.1/901 2013/11/27
 37 38  0  0  0  0  0  0  0  0999 V2000
  -14.6892   19.1980    7.6237 C   0  0  2  0  0  0  0  0  0  0  0  0
  -14.1479   19.8615    6.4409 O   0  0  0  0  0  0  0  0  0  0  0  0
  -15.7576   18.1667    7.1046 C   0  0  2  0  0  0  0  0  0  0  0  0
  -15.1752   17.1818    6.1762 N   0  0  0  0  0  0  0  0  0  0  0  0
  -16.9387   18.9514    6.4168 C   0  0  1  0  0  0  0  0  0  0  0  0
  -17.9257   18.0341    5.9372 O   0  0  0  0  0  0  0  0  0  0  0  0
  -17.5249   19.9592    7.4599 C   0  0  2  0  0  0  0  0  0  0  0  0
  -18.6048   20.7453    6.9298 O   0  0  0  0  0  0  0  0  0  0  0  0
  -16.4202   20.9125    7.9787 C   0  0  2  0  0  0  0  0  0  0  0  0
  -15.3189   20.1710    8.5234 O   0  0  0  0  0  0  0  0  0  0  0  0
  -16.9471   21.8577    9.0273 C   0  0  0  0  0  0  0  0  0  0  0  0
  -15.9296   22.6428    9.5148 N   0  0  0  0  0  0  0  0  0  0  0  0
  -10.3986   21.9911    5.9631 C   0  0  1  0  0  0  0  0  0  0  0  0
   -9.3785   23.0716    6.0689 N   0  0  0  0  0  0  0  0  0  0  0  0
  -10.7875   21.5429    7.3654 C   0  0  2  0  0  0  0  0  0  0  0  0
   -9.6269   21.1250    8.0199 O   0  0  0  0  0  0  0  0  0  0  0  0
  -11.8442   20.3952    7.3034 C   0  0  1  0  0  0  0  0  0  0  0  0
  -12.2250   19.9892    8.6535 O   0  0  0  0  0  0  0  0  0  0  0  0
  -13.1357   20.9036    6.5424 C   0  0  1  0  0  0  0  0  0  0  0  0
  -12.7629   21.3368    5.1327 C   0  0  1  0  0  0  0  0  0  0  0  0
  -13.9653   21.7857    4.4468 N   0  0  0  0  0  0  0  0  0  0  0  0
  -11.6979   22.4643    5.1938 C   0  0  0  0  0  0  0  0  0  0  0  0
   -8.4833   20.3027    8.3402 C   0  0  0  0  0  0  0  0  0  0  0  0
   -8.9556   18.9138    8.7036 C   0  0  0  0  0  0  0  0  0  0  0  0
   -7.8987   18.0399    9.2532 N   0  0  0  0  0  0  0  0  0  0  0  0
   -7.1602   17.1007   10.1279 C   0  0  0  0  0  0  0  0  0  0  0  0
   -6.5095   18.1480   11.0404 C   0  0  0  0  0  0  0  0  0  0  0  0
   -5.4901   17.5250   12.0125 C   0  0  0  0  0  0  0  0  0  0  0  0
   -4.8186   18.5969   12.8653 C   0  0  0  0  0  0  0  0  0  0  0  0
   -3.7473   18.0082   13.6565 N   0  0  0  0  0  0  0  0  0  0  0  0
   -6.3885   24.1122    7.9827 N   0  0  0  0  0  0  0  0  0  0  0  0
   -8.5636   23.3499    4.5180 C   0  0  0  0  0  0  0  0  0  0  0  0
   -8.6447   22.9290    3.5279 O   0  0  0  0  0  0  0  0  0  0  0  0
   -7.7497   24.3869    5.2527 C   0  0  2  0  0  0  0  0  0  0  0  0
   -7.4897   25.4719    4.4544 O   0  0  0  0  0  0  0  0  0  0  0  0
   -6.4047   23.7456    5.5757 C   0  0  0  0  0  0  0  0  0  0  0  0
   -5.6141   24.3418    6.7544 C   0  0  0  0  0  0  0  0  0  0  0  0
  1  2  1  6  0  0  0
  1  3  1  0  0  0  0
  3  4  1  6  0  0  0
  3  5  1  0  0  0  0
  5  6  1  1  0  0  0
  5  7  1  0  0  0  0
  7  8  1  6  0  0  0
  9  7  1  0  0  0  0
  9 10  1  0  0  0  0
  9 11  1  1  0  0  0
 10  1  1  0  0  0  0
 11 12  1  0  0  0  0
 13 14  1  1  0  0  0
 13 15  1  0  0  0  0
 13 22  1  0  0  0  0
 14 32  1  0  0  0  0
 15 16  1  6  0  0  0
 15 17  1  0  0  0  0
 16 23  1  0  0  0  0
 17 18  1  1  0  0  0
 17 19  1  0  0  0  0
 19  2  1  6  0  0  0
 19 20  1  0  0  0  0
 20 21  1  1  0  0  0
 20 22  1  0  0  0  0
 23 24  1  0  0  0  0
 24 25  1  0  0  0  0
 25 26  1  0  0  0  0
 26 27  1  0  0  0  0
 27 28  1  0  0  0  0
 28 29  1  0  0  0  0
 29 30  1  0  0  0  0
 31 37  1  0  0  0  0
 32 33  2  0  0  0  0
 34 32  1  6  0  0  0
 34 35  1  0  0  0  0
 34 36  1  0  0  0  0
 36 37  1  0  0  0  0
M  END
>  <CHROM.1>
179.12741963,176.96544818,164.93433786,-70.11597625,-58.43957678,57.17567900
-170.95546138,129.83109931,-89.49758717,-172.90211405,177.63582142,-173.05830820
-143.27972946,-156.82708912,64.76295202,-11.23625997,20.73657050,7.50953628
3.04328858,-0.19500269,-0.77788351

>  <Name>
1o9m_lig

>  <RI>
0

>  <Rbt.Current_Directory>
/home/itssahil/PROJECTS/Mol_Feturizer/New_Systems/rnas/1o9m

>  <Rbt.Executable>
rbdock ($Id: //depot/dev/client3/rdock/2013.1/src/exe/rbdock.cxx#4 $)

>  <Rbt.Library>
libRbt.so (2013.1, Build901 2013/11/27)

>  <Rbt.Parameter_File>
/export/apps/rDock/src/rDock_2013.1_src/data/scripts/dock_solv.prm

>  <Rbt.Receptor>
prm/pocket_docking_8.prm

>  <SCORE>
-9.70154

>  <SCORE.INTER>
-1.65431

>  <SCORE.INTER.CONST>
1

>  <SCORE.INTER.POLAR>
-1.39269

>  <SCORE.INTER.ROT>
15

>  <SCORE.INTER.SOLV>
22.0285

>  <SCORE.INTER.VDW>
-17.4034

>  <SCORE.INTER.norm>
-0.044711

>  <SCORE.INTRA>
-8.04723

>  <SCORE.INTRA.DIHEDRAL>
-14.5979

>  <SCORE.INTRA.DIHEDRAL.0>
21.5987

>  <SCORE.INTRA.POLAR>
0

>  <SCORE.INTRA.POLAR.0>
0

>  <SCORE.INTRA.REPUL>
1.42147e-06

>  <SCORE.INTRA.REPUL.0>
0

>  <SCORE.INTRA.SOLV>
-0.365233

>  <SCORE.INTRA.SOLV.lig_0>
-108.715

>  <SCORE.INTRA.VDW>
-0.56565

>  <SCORE.INTRA.VDW.0>
-3.9485

>  <SCORE.INTRA.norm>
-0.217493

>  <SCORE.RESTR>
0

>  <SCORE.RESTR.CAVITY>
0

>  <SCORE.RESTR.norm>
0

>  <SCORE.SYSTEM>
0

>  <SCORE.SYSTEM.CONST>
0

>  <SCORE.SYSTEM.DIHEDRAL>
0

>  <SCORE.SYSTEM.SOLV>
0

>  <SCORE.SYSTEM.norm>
0

>  <SCORE.heavy>
37

>  <SCORE.norm>
-0.262204

>  <RMSD>
9.606

$$$$
1o9m_lig
 OpenBabel11021811403D
libRbt.so/2013.1/901 2013/11/27
 37 38  0  0  0  0  0  0  0  0999 V2000
   -2.3691   15.8124   11.3271 C   0  0  2  0  0  0  0  0  0  0  0  0
   -2.3089   14.4532   10.7970 O   0  0  0  0  0  0  0  0  0  0  0  0
   -1.8725   15.7303   12.8174 C   0  0  2  0  0  0  0  0  0  0  0  0
   -0.5047   15.1921   12.9195 N   0  0  0  0  0  0  0  0  0  0  0  0
   -2.8819   14.8504   13.6486 C   0  0  1  0  0  0  0  0  0  0  0  0
   -2.4525   14.7619   15.0099 O   0  0  0  0  0  0  0  0  0  0  0  0
   -4.3045   15.4878   13.5172 C   0  0  2  0  0  0  0  0  0  0  0  0
   -5.3133   14.7512   14.2275 O   0  0  0  0  0  0  0  0  0  0  0  0
   -4.7191   15.5960   12.0289 C   0  0  2  0  0  0  0  0  0  0  0  0
   -3.7412   16.3298   11.2775 O   0  0  0  0  0  0  0  0  0  0  0  0
   -6.0632   16.2587   11.8716 C   0  0  0  0  0  0  0  0  0  0  0  0
   -6.4767   16.1913   10.5625 N   0  0  0  0  0  0  0  0  0  0  0  0
   -2.4500   15.0967    6.5091 C   0  0  1  0  0  0  0  0  0  0  0  0
   -2.5164   14.8020    5.0502 N   0  0  0  0  0  0  0  0  0  0  0  0
   -3.6902   14.5257    7.1830 C   0  0  2  0  0  0  0  0  0  0  0  0
   -4.8105   15.0911    6.5704 O   0  0  0  0  0  0  0  0  0  0  0  0
   -3.6728   14.8276    8.7148 C   0  0  1  0  0  0  0  0  0  0  0  0
   -4.8556   14.2566    9.3531 O   0  0  0  0  0  0  0  0  0  0  0  0
   -2.3824   14.1838    9.3677 C   0  0  1  0  0  0  0  0  0  0  0  0
   -1.1354   14.7608    8.7151 C   0  0  1  0  0  0  0  0  0  0  0  0
    0.0376   14.1676    9.3394 N   0  0  0  0  0  0  0  0  0  0  0  0
   -1.1622   14.4779    7.1891 C   0  0  0  0  0  0  0  0  0  0  0  0
   -5.7829   15.3745    5.5404 C   0  0  0  0  0  0  0  0  0  0  0  0
   -6.9024   16.2028    6.1278 C   0  0  0  0  0  0  0  0  0  0  0  0
   -8.1030   16.2912    5.2712 N   0  0  0  0  0  0  0  0  0  0  0  0
   -8.9903   16.5169    4.1076 C   0  0  0  0  0  0  0  0  0  0  0  0
  -10.2334   16.9622    4.8882 C   0  0  0  0  0  0  0  0  0  0  0  0
  -11.3836   17.3953    3.9598 C   0  0  0  0  0  0  0  0  0  0  0  0
  -12.5165   18.0393    4.7530 C   0  0  0  0  0  0  0  0  0  0  0  0
  -13.5966   18.4276    3.8569 N   0  0  0  0  0  0  0  0  0  0  0  0
   -3.9563   11.1405    0.4244 N   0  0  0  0  0  0  0  0  0  0  0  0
   -3.5065   13.3673    4.7216 C   0  0  0  0  0  0  0  0  0  0  0  0
   -4.0720   12.6762    5.3272 O   0  0  0  0  0  0  0  0  0  0  0  0
   -3.1573   13.5893    3.2703 C   0  0  2  0  0  0  0  0  0  0  0  0
   -3.8466   14.6556    2.7506 O   0  0  0  0  0  0  0  0  0  0  0  0
   -3.6215   12.3521    2.5097 C   0  0  0  0  0  0  0  0  0  0  0  0
   -3.1973   12.2421    1.0340 C   0  0  0  0  0  0  0  0  0  0  0  0
  1  2  1  1  0  0  0
  1  3  1  0  0  0  0
  3  4  1  6  0  0  0
  3  5  1  0  0  0  0
  5  6  1  1  0  0  0
  5  7  1  0  0  0  0
  7  8  1  1  0  0  0
  9  7  1  0  0  0  0
  9 10  1  0  0  0  0
  9 11  1  1  0  0  0
 10  1  1  0  0  0  0
 11 12  1  0  0  0  0
 13 14  1  6  0  0  0
 13 15  1  0  0  0  0
 13 22  1  0  0  0  0
 14 32  1  0  0  0  0
 15 16  1  6  0  0  0
 15 17  1  0  0  0  0
 16 23  1  0  0  0  0
 17 18  1  1  0  0  0
 17 19  1  0  0  0  0
 19  2  1  1  0  0  0
 19 20  1  0  0  0  0
 20 21  1  1  0  0  0
 20 22  1  0  0  0  0
 23 24  1  0  0  0  0
 24 25  1  0  0  0  0
 25 26  1  0  0  0  0
 26 27  1  0  0  0  0
 27 28  1  0  0  0  0
 28 29  1  0  0  0  0
 29 30  1  0  0  0  0
 31 37  1  0  0  0  0
 32 33  2  0  0  0  0
 34 32  1  1  0  0  0
 34 35  1  0  0  0  0
 34 36  1  0  0  0  0
 36 37  1  0  0  0  0
M  END
>  <CHROM.1>
-164.90367064,-172.56233202,-25.60168429,68.26200509,172.73722093,-54.58681649
-166.39625445,-53.25549397,-147.65512605,175.81247423,-170.91700085,-179.41904589
-74.23383757,-171.42132095,-168.90753564,-4.68058446,15.04529899,7.76444032
1.00245656,-0.40679514,1.35984404

>  <Name>
1o9m_lig

>  <RI>
0

>  <Rbt.Current_Directory>
/home/itssahil/PROJECTS/Mol_Feturizer/New_Systems/rnas/1o9m

>  <Rbt.Executable>
rbdock ($Id: //depot/dev/client3/rdock/2013.1/src/exe/rbdock.cxx#4 $)

>  <Rbt.Library>
libRbt.so (2013.1, Build901 2013/11/27)

>  <Rbt.Parameter_File>
/export/apps/rDock/src/rDock_2013.1_src/data/scripts/dock_solv.prm

>  <Rbt.Receptor>
prm/pocket_docking_7.prm

>  <SCORE>
-21.6993

>  <SCORE.INTER>
-16.4156

>  <SCORE.INTER.CONST>
1

>  <SCORE.INTER.POLAR>
-1.86683

>  <SCORE.INTER.ROT>
15

>  <SCORE.INTER.SOLV>
17.7284

>  <SCORE.INTER.VDW>
-24.2305

>  <SCORE.INTER.norm>
-0.443666

>  <SCORE.INTRA>
-5.28368

>  <SCORE.INTRA.DIHEDRAL>
-15.4333

>  <SCORE.INTRA.DIHEDRAL.0>
21.5987

>  <SCORE.INTRA.POLAR>
0

>  <SCORE.INTRA.POLAR.0>
0

>  <SCORE.INTRA.REPUL>
0

>  <SCORE.INTRA.REPUL.0>
0

>  <SCORE.INTRA.SOLV>
2.6511

>  <SCORE.INTRA.SOLV.lig_0>
-108.715

>  <SCORE.INTRA.VDW>
1.10742

>  <SCORE.INTRA.VDW.0>
-3.9485

>  <SCORE.INTRA.norm>
-0.142802

>  <SCORE.RESTR>
0

>  <SCORE.RESTR.CAVITY>
0

>  <SCORE.RESTR.norm>
0

>  <SCORE.SYSTEM>
0

>  <SCORE.SYSTEM.CONST>
0

>  <SCORE.SYSTEM.DIHEDRAL>
0

>  <SCORE.SYSTEM.SOLV>
0

>  <SCORE.SYSTEM.norm>
0

>  <SCORE.heavy>
37

>  <SCORE.norm>
-0.586468

>  <RMSD>
9.616

$$$$
1o9m_lig
 OpenBabel11021811403D
libRbt.so/2013.1/901 2013/11/27
 37 38  0  0  0  0  0  0  0  0999 V2000
   -1.9783   15.2639   13.8342 C   0  0  2  0  0  0  0  0  0  0  0  0
   -1.3468   15.1881   12.5199 O   0  0  0  0  0  0  0  0  0  0  0  0
   -0.9971   16.0821   14.7519 C   0  0  2  0  0  0  0  0  0  0  0  0
   -0.7347   17.4317   14.2222 N   0  0  0  0  0  0  0  0  0  0  0  0
    0.3471   15.2759   14.9157 C   0  0  1  0  0  0  0  0  0  0  0  0
    1.2568   15.9996   15.7490 O   0  0  0  0  0  0  0  0  0  0  0  0
    0.0007   13.8673   15.5018 C   0  0  2  0  0  0  0  0  0  0  0  0
    1.1596   13.0361   15.6774 O   0  0  0  0  0  0  0  0  0  0  0  0
   -1.0101   13.1298   14.5892 C   0  0  2  0  0  0  0  0  0  0  0  0
   -2.1898   13.9216   14.3878 O   0  0  0  0  0  0  0  0  0  0  0  0
   -1.4038   11.7922   15.1607 C   0  0  0  0  0  0  0  0  0  0  0  0
   -2.0194   11.9576   16.3785 N   0  0  0  0  0  0  0  0  0  0  0  0
   -3.0824   15.1866    8.5439 C   0  0  1  0  0  0  0  0  0  0  0  0
   -3.8304   14.7210    7.3426 N   0  0  0  0  0  0  0  0  0  0  0  0
   -4.0321   15.2158    9.7337 C   0  0  2  0  0  0  0  0  0  0  0  0
   -5.1022   16.0521    9.4085 O   0  0  0  0  0  0  0  0  0  0  0  0
   -3.2941   15.7170   11.0151 C   0  0  1  0  0  0  0  0  0  0  0  0
   -4.2090   15.7198   12.1533 O   0  0  0  0  0  0  0  0  0  0  0  0
   -2.0816   14.7527   11.3403 C   0  0  1  0  0  0  0  0  0  0  0  0
   -1.1154   14.7298   10.1656 C   0  0  1  0  0  0  0  0  0  0  0  0
   -0.0025   13.8505   10.4910 N   0  0  0  0  0  0  0  0  0  0  0  0
   -1.8539   14.2504    8.8872 C   0  0  0  0  0  0  0  0  0  0  0  0
   -6.3414   16.7771    9.5677 C   0  0  0  0  0  0  0  0  0  0  0  0
   -6.6222   17.5642    8.3083 C   0  0  0  0  0  0  0  0  0  0  0  0
   -7.8328   18.4082    8.3799 N   0  0  0  0  0  0  0  0  0  0  0  0
   -9.2333   18.8503    8.5688 C   0  0  0  0  0  0  0  0  0  0  0  0
   -9.0401   20.3115    8.1438 C   0  0  0  0  0  0  0  0  0  0  0  0
   -8.8242   20.4559    6.6257 C   0  0  0  0  0  0  0  0  0  0  0  0
  -10.1051   20.1465    5.8570 C   0  0  0  0  0  0  0  0  0  0  0  0
   -9.8569   20.2138    4.4238 N   0  0  0  0  0  0  0  0  0  0  0  0
   -3.8740   16.1878    3.0974 N   0  0  0  0  0  0  0  0  0  0  0  0
   -2.7435   14.4390    5.9694 C   0  0  0  0  0  0  0  0  0  0  0  0
   -1.6790   14.5162    5.8113 O   0  0  0  0  0  0  0  0  0  0  0  0
   -3.9880   14.0817    5.1942 C   0  0  2  0  0  0  0  0  0  0  0  0
   -4.5238   12.8973    5.6325 O   0  0  0  0  0  0  0  0  0  0  0  0
   -3.5599   13.8624    3.7474 C   0  0  0  0  0  0  0  0  0  0  0  0
   -2.9307   15.0631    3.0178 C   0  0  0  0  0  0  0  0  0  0  0  0
  1  2  1  6  0  0  0
  1  3  1  0  0  0  0
  3  4  1  6  0  0  0
  3  5  1  0  0  0  0
  5  6  1  1  0  0  0
  5  7  1  0  0  0  0
  7  8  1  6  0  0  0
  9  7  1  0  0  0  0
  9 10  1  0  0  0  0
  9 11  1  1  0  0  0
 10  1  1  0  0  0  0
 11 12  1  0  0  0  0
 13 14  1  6  0  0  0
 13 15  1  0  0  0  0
 13 22  1  0  0  0  0
 14 32  1  0  0  0  0
 15 16  1  6  0  0  0
 15 17  1  0  0  0  0
 16 23  1  0  0  0  0
 17 18  1  1  0  0  0
 17 19  1  0  0  0  0
 19  2  1  1  0  0  0
 19 20  1  0  0  0  0
 20 21  1  1  0  0  0
 20 22  1  0  0  0  0
 23 24  1  0  0  0  0
 24 25  1  0  0  0  0
 25 26  1  0  0  0  0
 26 27  1  0  0  0  0
 27 28  1  0  0  0  0
 28 29  1  0  0  0  0
 29 30  1  0  0  0  0
 31 37  1  0  0  0  0
 32 33  2  0  0  0  0
 34 32  1  1  0  0  0
 34 35  1  0  0  0  0
 34 36  1  0  0  0  0
 36 37  1  0  0  0  0
M  END
>  <CHROM.1>
-166.81253742,61.56509302,-171.89703327,-178.72223441,178.92221944,61.80265288
-176.83963724,-54.00273903,-176.48864380,72.24201698,69.93211280,-176.71653138
-69.60148961,-61.33523794,-55.43283862,-3.47095732,15.58451021,9.99702388
0.76589203,-0.67971196,1.37184496

>  <Name>
1o9m_lig

>  <RI>
0

>  <Rbt.Current_Directory>
/home/itssahil/PROJECTS/Mol_Feturizer/New_Systems/rnas/1o9m

>  <Rbt.Executable>
rbdock ($Id: //depot/dev/client3/rdock/2013.1/src/exe/rbdock.cxx#4 $)

>  <Rbt.Library>
libRbt.so (2013.1, Build901 2013/11/27)

>  <Rbt.Parameter_File>
/export/apps/rDock/src/rDock_2013.1_src/data/scripts/dock_solv.prm

>  <Rbt.Receptor>
prm/pocket_docking_8.prm

>  <SCORE>
-7.26131

>  <SCORE.INTER>
-0.623255

>  <SCORE.INTER.CONST>
1

>  <SCORE.INTER.POLAR>
-0.959166

>  <SCORE.INTER.ROT>
15

>  <SCORE.INTER.SOLV>
15.1904

>  <SCORE.INTER.VDW>
-15.8817

>  <SCORE.INTER.norm>
-0.0168447

>  <SCORE.INTRA>
-6.63805

>  <SCORE.INTRA.DIHEDRAL>
-18.6689

>  <SCORE.INTRA.DIHEDRAL.0>
21.5987

>  <SCORE.INTRA.POLAR>
0

>  <SCORE.INTRA.POLAR.0>
0

>  <SCORE.INTRA.REPUL>
0

>  <SCORE.INTRA.REPUL.0>
0

>  <SCORE.INTRA.SOLV>
1.94877

>  <SCORE.INTRA.SOLV.lig_0>
-108.715

>  <SCORE.INTRA.VDW>
1.72201

>  <SCORE.INTRA.VDW.0>
-3.9485

>  <SCORE.INTRA.norm>
-0.179407

>  <SCORE.RESTR>
0

>  <SCORE.RESTR.CAVITY>
0

>  <SCORE.RESTR.norm>
0

>  <SCORE.SYSTEM>
0

>  <SCORE.SYSTEM.CONST>
0

>  <SCORE.SYSTEM.DIHEDRAL>
0

>  <SCORE.SYSTEM.SOLV>
0

>  <SCORE.SYSTEM.norm>
0

>  <SCORE.heavy>
37

>  <SCORE.norm>
-0.196251

>  <RMSD>
9.635

$$$$
1o9m_lig
 OpenBabel11021811403D
libRbt.so/2013.1/901 2013/11/27
 37 38  0  0  0  0  0  0  0  0999 V2000
   -2.0478   15.9792   11.3426 C   0  0  2  0  0  0  0  0  0  0  0  0
   -2.9072   16.1782   10.1790 O   0  0  0  0  0  0  0  0  0  0  0  0
   -2.9214   15.2336   12.4176 C   0  0  2  0  0  0  0  0  0  0  0  0
   -3.4329   13.9438   11.9219 N   0  0  0  0  0  0  0  0  0  0  0  0
   -4.1082   16.1726   12.8576 C   0  0  1  0  0  0  0  0  0  0  0  0
   -4.9174   15.5168   13.8377 O   0  0  0  0  0  0  0  0  0  0  0  0
   -3.4972   17.5095   13.3933 C   0  0  2  0  0  0  0  0  0  0  0  0
   -4.4982   18.4528   13.8092 O   0  0  0  0  0  0  0  0  0  0  0  0
   -2.6031   18.1715   12.3160 C   0  0  2  0  0  0  0  0  0  0  0  0
   -1.5822   17.2662   11.8714 O   0  0  0  0  0  0  0  0  0  0  0  0
   -1.9570   19.4334   12.8266 C   0  0  0  0  0  0  0  0  0  0  0  0
   -1.2519   20.0482   11.8195 N   0  0  0  0  0  0  0  0  0  0  0  0
   -2.6281   14.9597    6.0247 C   0  0  1  0  0  0  0  0  0  0  0  0
   -2.5151   14.0795    4.8280 N   0  0  0  0  0  0  0  0  0  0  0  0
   -3.8905   14.5884    6.7908 C   0  0  2  0  0  0  0  0  0  0  0  0
   -4.9750   14.7207    5.9211 O   0  0  0  0  0  0  0  0  0  0  0  0
   -4.0606   15.5000    8.0469 C   0  0  1  0  0  0  0  0  0  0  0  0
   -5.2621   15.1201    8.7847 O   0  0  0  0  0  0  0  0  0  0  0  0
   -2.8062   15.3323    8.9978 C   0  0  1  0  0  0  0  0  0  0  0  0
   -1.5398   15.7188    8.2489 C   0  0  1  0  0  0  0  0  0  0  0  0
   -0.4023   15.5719    9.1445 N   0  0  0  0  0  0  0  0  0  0  0  0
   -1.3810   14.8256    6.9894 C   0  0  0  0  0  0  0  0  0  0  0  0
   -6.3501   14.7811    5.4827 C   0  0  0  0  0  0  0  0  0  0  0  0
   -7.0144   15.9929    6.0946 C   0  0  0  0  0  0  0  0  0  0  0  0
   -8.4851   16.0122    5.9539 N   0  0  0  0  0  0  0  0  0  0  0  0
   -9.8449   15.9992    5.3682 C   0  0  0  0  0  0  0  0  0  0  0  0
   -9.6499   17.1612    4.3860 C   0  0  0  0  0  0  0  0  0  0  0  0
  -10.9477   17.5194    3.6380 C   0  0  0  0  0  0  0  0  0  0  0  0
  -10.7113   18.6457    2.6365 C   0  0  0  0  0  0  0  0  0  0  0  0
  -11.9679   19.0284    2.0082 N   0  0  0  0  0  0  0  0  0  0  0  0
   -5.8531   11.3147    3.6543 N   0  0  0  0  0  0  0  0  0  0  0  0
   -3.2688   14.8202    3.4033 C   0  0  0  0  0  0  0  0  0  0  0  0
   -3.7731   15.7534    3.2060 O   0  0  0  0  0  0  0  0  0  0  0  0
   -2.8837   13.5563    2.6741 C   0  0  2  0  0  0  0  0  0  0  0  0
   -2.5178   13.8215    1.3787 O   0  0  0  0  0  0  0  0  0  0  0  0
   -4.1333   12.6853    2.6090 C   0  0  0  0  0  0  0  0  0  0  0  0
   -4.6228   12.0698    3.9325 C   0  0  0  0  0  0  0  0  0  0  0  0
  1  2  1  6  0  0  0
  1  3  1  0  0  0  0
  3  4  1  6  0  0  0
  3  5  1  0  0  0  0
  5  6  1  1  0  0  0
  5  7  1  0  0  0  0
  7  8  1  6  0  0  0
  9  7  1  0  0  0  0
  9 10  1  0  0  0  0
  9 11  1  1  0  0  0
 10  1  1  0  0  0  0
 11 12  1  0  0  0  0
 13 14  1  6  0  0  0
 13 15  1  0  0  0  0
 13 22  1  0  0  0  0
 14 32  1  0  0  0  0
 15 16  1  6  0  0  0
 15 17  1  0  0  0  0
 16 23  1  0  0  0  0
 17 18  1  1  0  0  0
 17 19  1  0  0  0  0
 19  2  1  1  0  0  0
 19 20  1  0  0  0  0
 20 21  1  1  0  0  0
 20 22  1  0  0  0  0
 23 24  1  0  0  0  0
 24 25  1  0  0  0  0
 25 26  1  0  0  0  0
 26 27  1  0  0  0  0
 27 28  1  0  0  0  0
 28 29  1  0  0  0  0
 29 30  1  0  0  0  0
 31 37  1  0  0  0  0
 32 33  2  0  0  0  0
 34 32  1  1  0  0  0
 34 35  1  0  0  0  0
 34 36  1  0  0  0  0
 36 37  1  0  0  0  0
M  END
>  <CHROM.1>
-101.95005560,-175.54003419,92.30407747,-170.67826444,65.52311376,165.45964658
-167.84598273,-56.86888005,-53.90406288,-175.72358628,-178.11027425,-176.15010001
-143.89559394,-69.93560457,178.05588975,-4.53459495,15.77750412,7.54495673
-1.05547372,0.43369720,-1.97307761

>  <Name>
1o9m_lig

>  <RI>
0

>  <Rbt.Current_Directory>
/home/itssahil/PROJECTS/Mol_Feturizer/New_Systems/rnas/1o9m

>  <Rbt.Executable>
rbdock ($Id: //depot/dev/client3/rdock/2013.1/src/exe/rbdock.cxx#4 $)

>  <Rbt.Library>
libRbt.so (2013.1, Build901 2013/11/27)

>  <Rbt.Parameter_File>
/export/apps/rDock/src/rDock_2013.1_src/data/scripts/dock_solv.prm

>  <Rbt.Receptor>
prm/pocket_docking_5.prm

>  <SCORE>
-15.6413

>  <SCORE.INTER>
-10.0991

>  <SCORE.INTER.CONST>
1

>  <SCORE.INTER.POLAR>
-0.555147

>  <SCORE.INTER.ROT>
15

>  <SCORE.INTER.SOLV>
19.3761

>  <SCORE.INTER.VDW>
-24.9409

>  <SCORE.INTER.norm>
-0.272948

>  <SCORE.INTRA>
-5.54223

>  <SCORE.INTRA.DIHEDRAL>
-10.4321

>  <SCORE.INTRA.DIHEDRAL.0>
21.5987

>  <SCORE.INTRA.POLAR>
0

>  <SCORE.INTRA.POLAR.0>
0

>  <SCORE.INTRA.REPUL>
0

>  <SCORE.INTRA.REPUL.0>
0

>  <SCORE.INTRA.SOLV>
1.67947

>  <SCORE.INTRA.SOLV.lig_0>
-108.715

>  <SCORE.INTRA.VDW>
-1.16591

>  <SCORE.INTRA.VDW.0>
-3.9485

>  <SCORE.INTRA.norm>
-0.14979

>  <SCORE.RESTR>
0

>  <SCORE.RESTR.CAVITY>
0

>  <SCORE.RESTR.norm>
0

>  <SCORE.SYSTEM>
0

>  <SCORE.SYSTEM.CONST>
0

>  <SCORE.SYSTEM.DIHEDRAL>
0

>  <SCORE.SYSTEM.SOLV>
0

>  <SCORE.SYSTEM.norm>
0

>  <SCORE.heavy>
37

>  <SCORE.norm>
-0.422738

>  <RMSD>
9.654

$$$$
1o9m_lig
 OpenBabel11021811403D
libRbt.so/2013.1/901 2013/11/27
 37 38  0  0  0  0  0  0  0  0999 V2000
   -3.1727   15.9901   10.7891 C   0  0  2  0  0  0  0  0  0  0  0  0
   -3.9053   16.3153    9.5686 O   0  0  0  0  0  0  0  0  0  0  0  0
   -4.1788   15.2159   11.7181 C   0  0  2  0  0  0  0  0  0  0  0  0
   -4.6966   13.9927   11.0804 N   0  0  0  0  0  0  0  0  0  0  0  0
   -5.3597   16.1811   12.1149 C   0  0  1  0  0  0  0  0  0  0  0  0
   -6.2887   15.4998   12.9625 O   0  0  0  0  0  0  0  0  0  0  0  0
   -4.7448   17.4433   12.8051 C   0  0  2  0  0  0  0  0  0  0  0  0
   -5.7385   18.4050   13.1957 O   0  0  0  0  0  0  0  0  0  0  0  0
   -3.7217   18.1333   11.8694 C   0  0  2  0  0  0  0  0  0  0  0  0
   -2.7038   17.2105   11.4551 O   0  0  0  0  0  0  0  0  0  0  0  0
   -3.0727   19.3207   12.5323 C   0  0  0  0  0  0  0  0  0  0  0  0
   -2.2005   19.9327   11.6639 N   0  0  0  0  0  0  0  0  0  0  0  0
   -4.6767   14.3232    5.7927 C   0  0  1  0  0  0  0  0  0  0  0  0
   -5.0626   13.2593    4.8239 N   0  0  0  0  0  0  0  0  0  0  0  0
   -5.8666   14.6222    6.6944 C   0  0  2  0  0  0  0  0  0  0  0  0
   -6.9379   14.9979    5.8811 O   0  0  0  0  0  0  0  0  0  0  0  0
   -5.5134   15.7479    7.7170 C   0  0  1  0  0  0  0  0  0  0  0  0
   -6.6545   16.0103    8.5897 O   0  0  0  0  0  0  0  0  0  0  0  0
   -4.2875   15.2899    8.6076 C   0  0  1  0  0  0  0  0  0  0  0  0
   -3.0859   15.0062    7.7190 C   0  0  1  0  0  0  0  0  0  0  0  0
   -1.9676   14.6018    8.5577 N   0  0  0  0  0  0  0  0  0  0  0  0
   -3.4432   13.9009    6.6894 C   0  0  0  0  0  0  0  0  0  0  0  0
   -7.6870   15.7547    4.9050 C   0  0  0  0  0  0  0  0  0  0  0  0
   -7.9715   17.1330    5.4562 C   0  0  0  0  0  0  0  0  0  0  0  0
   -8.8920   17.9379    4.6269 N   0  0  0  0  0  0  0  0  0  0  0  0
  -10.0130   18.3326    3.7437 C   0  0  0  0  0  0  0  0  0  0  0  0
  -11.1533   17.7890    4.6139 C   0  0  0  0  0  0  0  0  0  0  0  0
  -12.5313   17.9618    3.9480 C   0  0  0  0  0  0  0  0  0  0  0  0
  -12.9128   19.4357    3.8501 C   0  0  0  0  0  0  0  0  0  0  0  0
  -14.2216   19.5732    3.2268 N   0  0  0  0  0  0  0  0  0  0  0  0
   -4.0353   10.0921   -0.2637 N   0  0  0  0  0  0  0  0  0  0  0  0
   -3.7505   12.9145    3.6809 C   0  0  0  0  0  0  0  0  0  0  0  0
   -2.7480   13.2862    3.5364 O   0  0  0  0  0  0  0  0  0  0  0  0
   -4.6998   11.9224    3.0545 C   0  0  2  0  0  0  0  0  0  0  0  0
   -4.8628   10.8184    3.8524 O   0  0  0  0  0  0  0  0  0  0  0  0
   -4.0469   11.4403    1.7638 C   0  0  0  0  0  0  0  0  0  0  0  0
   -4.8060   10.3717    0.9565 C   0  0  0  0  0  0  0  0  0  0  0  0
  1  2  1  6  0  0  0
  1  3  1  0  0  0  0
  3  4  1  6  0  0  0
  3  5  1  0  0  0  0
  5  6  1  1  0  0  0
  5  7  1  0  0  0  0
  7  8  1  6  0  0  0
  9  7  1  0  0  0  0
  9 10  1  0  0  0  0
  9 11  1  1  0  0  0
 10  1  1  0  0  0  0
 11 12  1  0  0  0  0
 13 14  1  6  0  0  0
 13 15  1  0  0  0  0
 13 22  1  0  0  0  0
 14 32  1  0  0  0  0
 15 16  1  6  0  0  0
 15 17  1  0  0  0  0
 16 23  1  0  0  0  0
 17 18  1  1  0  0  0
 17 19  1  0  0  0  0
 19  2  1  1  0  0  0
 19 20  1  0  0  0  0
 20 21  1  1  0  0  0
 20 22  1  0  0  0  0
 23 24  1  0  0  0  0
 24 25  1  0  0  0  0
 25 26  1  0  0  0  0
 26 27  1  0  0  0  0
 27 28  1  0  0  0  0
 28 29  1  0  0  0  0
 29 30  1  0  0  0  0
 31 37  1  0  0  0  0
 32 33  2  0  0  0  0
 34 32  1  1  0  0  0
 34 35  1  0  0  0  0
 34 36  1  0  0  0  0
 36 37  1  0  0  0  0
M  END
>  <CHROM.1>
-70.42617199,-178.26382257,177.04171197,-58.75500610,-67.73899375,157.22853961
-171.95974161,37.74503339,55.59607572,-176.87993698,-67.54427200,-179.59707894
-72.41916201,177.89491651,177.77738663,-5.73072434,15.57728629,7.14860706
-1.16873895,0.57857487,-2.11570886

>  <Name>
1o9m_lig

>  <RI>
0

>  <Rbt.Current_Directory>
/home/itssahil/PROJECTS/Mol_Feturizer/New_Systems/rnas/1o9m

>  <Rbt.Executable>
rbdock ($Id: //depot/dev/client3/rdock/2013.1/src/exe/rbdock.cxx#4 $)

>  <Rbt.Library>
libRbt.so (2013.1, Build901 2013/11/27)

>  <Rbt.Parameter_File>
/export/apps/rDock/src/rDock_2013.1_src/data/scripts/dock_solv.prm

>  <Rbt.Receptor>
prm/pocket_docking_6.prm

>  <SCORE>
-17.3192

>  <SCORE.INTER>
-11.056

>  <SCORE.INTER.CONST>
1

>  <SCORE.INTER.POLAR>
-1.53167

>  <SCORE.INTER.ROT>
15

>  <SCORE.INTER.SOLV>
15.1576

>  <SCORE.INTER.VDW>
-20.9176

>  <SCORE.INTER.norm>
-0.29881

>  <SCORE.INTRA>
-6.2632

>  <SCORE.INTRA.DIHEDRAL>
-16.6619

>  <SCORE.INTRA.DIHEDRAL.0>
21.5987

>  <SCORE.INTRA.POLAR>
0

>  <SCORE.INTRA.POLAR.0>
0

>  <SCORE.INTRA.REPUL>
0

>  <SCORE.INTRA.REPUL.0>
0

>  <SCORE.INTRA.SOLV>
1.97559

>  <SCORE.INTRA.SOLV.lig_0>
-108.715

>  <SCORE.INTRA.VDW>
1.07993

>  <SCORE.INTRA.VDW.0>
-3.9485

>  <SCORE.INTRA.norm>
-0.169276

>  <SCORE.RESTR>
0

>  <SCORE.RESTR.CAVITY>
0

>  <SCORE.RESTR.norm>
0

>  <SCORE.SYSTEM>
0

>  <SCORE.SYSTEM.CONST>
0

>  <SCORE.SYSTEM.DIHEDRAL>
0

>  <SCORE.SYSTEM.SOLV>
0

>  <SCORE.SYSTEM.norm>
0

>  <SCORE.heavy>
37

>  <SCORE.norm>
-0.468085

>  <RMSD>
9.672

$$$$
1o9m_lig
 OpenBabel11021811403D
libRbt.so/2013.1/901 2013/11/27
 37 38  0  0  0  0  0  0  0  0999 V2000
  -10.9674   20.0320    6.4795 C   0  0  2  0  0  0  0  0  0  0  0  0
  -10.3909   19.4041    7.6651 O   0  0  0  0  0  0  0  0  0  0  0  0
  -11.3114   21.5127    6.8840 C   0  0  2  0  0  0  0  0  0  0  0  0
  -10.1234   22.2553    7.3405 N   0  0  0  0  0  0  0  0  0  0  0  0
  -12.4225   21.4961    8.0016 C   0  0  1  0  0  0  0  0  0  0  0  0
  -12.7544   22.8331    8.3857 O   0  0  0  0  0  0  0  0  0  0  0  0
  -13.6593   20.7159    7.4456 C   0  0  2  0  0  0  0  0  0  0  0  0
  -14.7338   20.6243    8.3954 O   0  0  0  0  0  0  0  0  0  0  0  0
  -13.2528   19.2861    7.0110 C   0  0  2  0  0  0  0  0  0  0  0  0
  -12.1823   19.3266    6.0562 O   0  0  0  0  0  0  0  0  0  0  0  0
  -14.4153   18.5319    6.4191 C   0  0  0  0  0  0  0  0  0  0  0  0
  -14.0044   17.2990    5.9716 N   0  0  0  0  0  0  0  0  0  0  0  0
   -7.1363   16.8138    6.4327 C   0  0  1  0  0  0  0  0  0  0  0  0
   -6.2503   15.6186    6.3548 N   0  0  0  0  0  0  0  0  0  0  0  0
   -8.5535   16.4005    6.0599 C   0  0  2  0  0  0  0  0  0  0  0  0
   -8.5152   15.8414    4.7807 O   0  0  0  0  0  0  0  0  0  0  0  0
   -9.5164   17.6285    6.1099 C   0  0  1  0  0  0  0  0  0  0  0  0
  -10.8757   17.2155    5.7718 O   0  0  0  0  0  0  0  0  0  0  0  0
   -9.5196   18.2410    7.5695 C   0  0  1  0  0  0  0  0  0  0  0  0
   -8.1114   18.6753    7.9464 C   0  0  1  0  0  0  0  0  0  0  0  0
   -8.1396   19.2483    9.2838 N   0  0  0  0  0  0  0  0  0  0  0  0
   -7.1502   17.4585    7.8777 C   0  0  0  0  0  0  0  0  0  0  0  0
   -7.9885   15.4739    3.4869 C   0  0  0  0  0  0  0  0  0  0  0  0
   -6.7511   14.6268    3.6761 C   0  0  0  0  0  0  0  0  0  0  0  0
   -6.9664   13.1826    3.4503 N   0  0  0  0  0  0  0  0  0  0  0  0
   -6.7570   11.7177    3.3992 C   0  0  0  0  0  0  0  0  0  0  0  0
   -5.5201   11.7248    2.4919 C   0  0  0  0  0  0  0  0  0  0  0  0
   -4.2832   12.3168    3.1932 C   0  0  0  0  0  0  0  0  0  0  0  0
   -3.0589   12.2636    2.2845 C   0  0  0  0  0  0  0  0  0  0  0  0
   -3.1989   13.2248    1.1998 N   0  0  0  0  0  0  0  0  0  0  0  0
   -2.4264   16.2329    4.3907 N   0  0  0  0  0  0  0  0  0  0  0  0
   -4.5380   16.0716    6.4524 C   0  0  0  0  0  0  0  0  0  0  0  0
   -4.0004   17.0003    6.5645 O   0  0  0  0  0  0  0  0  0  0  0  0
   -4.2487   14.5993    6.2904 C   0  0  2  0  0  0  0  0  0  0  0  0
   -4.5166   13.9100    7.4459 O   0  0  0  0  0  0  0  0  0  0  0  0
   -2.7510   14.4685    6.0368 C   0  0  0  0  0  0  0  0  0  0  0  0
   -2.2547   14.7904    4.6156 C   0  0  0  0  0  0  0  0  0  0  0  0
  1  2  1  1  0  0  0
  1  3  1  0  0  0  0
  3  4  1  1  0  0  0
  3  5  1  0  0  0  0
  5  6  1  6  0  0  0
  5  7  1  0  0  0  0
  7  8  1  1  0  0  0
  9  7  1  0  0  0  0
  9 10  1  0  0  0  0
  9 11  1  6  0  0  0
 10  1  1  0  0  0  0
 11 12  1  0  0  0  0
 13 14  1  1  0  0  0
 13 15  1  0  0  0  0
 13 22  1  0  0  0  0
 14 32  1  0  0  0  0
 15 16  1  6  0  0  0
 15 17  1  0  0  0  0
 16 23  1  0  0  0  0
 17 18  1  1  0  0  0
 17 19  1  0  0  0  0
 19  2  1  6  0  0  0
 19 20  1  0  0  0  0
 20 21  1  1  0  0  0
 20 22  1  0  0  0  0
 23 24  1  0  0  0  0
 24 25  1  0  0  0  0
 25 26  1  0  0  0  0
 26 27  1  0  0  0  0
 27 28  1  0  0  0  0
 28 29  1  0  0  0  0
 29 30  1  0  0  0  0
 31 37  1  0  0  0  0
 32 33  2  0  0  0  0
 34 32  1  1  0  0  0
 34 35  1  0  0  0  0
 34 36  1  0  0  0  0
 36 37  1  0  0  0  0
M  END
>  <CHROM.1>
-157.00087678,176.41938433,168.49859064,-11.20292414,59.26691453,-10.43269108
103.26469370,-170.58481838,-59.32925181,68.79070528,177.93464316,70.92970805
-74.71643019,-78.22147405,68.33073869,-8.22129263,16.98130665,5.93061195
-2.42941002,0.17653116,-2.47075243

>  <Name>
1o9m_lig

>  <RI>
0

>  <Rbt.Current_Directory>
/home/itssahil/PROJECTS/Mol_Feturizer/New_Systems/rnas/1o9m

>  <Rbt.Executable>
rbdock ($Id: //depot/dev/client3/rdock/2013.1/src/exe/rbdock.cxx#4 $)

>  <Rbt.Library>
libRbt.so (2013.1, Build901 2013/11/27)

>  <Rbt.Parameter_File>
/export/apps/rDock/src/rDock_2013.1_src/data/scripts/dock_solv.prm

>  <Rbt.Receptor>
prm/pocket_docking_2.prm

>  <SCORE>
1.29193

>  <SCORE.INTER>
-6.55411

>  <SCORE.INTER.CONST>
1

>  <SCORE.INTER.POLAR>
-0.831921

>  <SCORE.INTER.ROT>
15

>  <SCORE.INTER.SOLV>
23.5159

>  <SCORE.INTER.VDW>
-23.035

>  <SCORE.INTER.norm>
-0.177138

>  <SCORE.INTRA>
4.10939

>  <SCORE.INTRA.DIHEDRAL>
1.75009

>  <SCORE.INTRA.DIHEDRAL.0>
21.5987

>  <SCORE.INTRA.POLAR>
0

>  <SCORE.INTRA.POLAR.0>
0

>  <SCORE.INTRA.REPUL>
0

>  <SCORE.INTRA.REPUL.0>
0

>  <SCORE.INTRA.SOLV>
5.8816

>  <SCORE.INTRA.SOLV.lig_0>
-108.715

>  <SCORE.INTRA.VDW>
0.293545

>  <SCORE.INTRA.VDW.0>
-3.9485

>  <SCORE.INTRA.norm>
0.111065

>  <SCORE.RESTR>
3.73665

>  <SCORE.RESTR.CAVITY>
3.73665

>  <SCORE.RESTR.norm>
0.100991

>  <SCORE.SYSTEM>
0

>  <SCORE.SYSTEM.CONST>
0

>  <SCORE.SYSTEM.DIHEDRAL>
0

>  <SCORE.SYSTEM.SOLV>
0

>  <SCORE.SYSTEM.norm>
0

>  <SCORE.heavy>
37

>  <SCORE.norm>
0.0349171

>  <RMSD>
9.686

$$$$
1o9m_lig
 OpenBabel11021811403D
libRbt.so/2013.1/901 2013/11/27
 37 38  0  0  0  0  0  0  0  0999 V2000
   -4.4531   15.8039   11.5148 C   0  0  2  0  0  0  0  0  0  0  0  0
   -5.0038   16.4959   10.3529 O   0  0  0  0  0  0  0  0  0  0  0  0
   -5.3679   16.1882   12.7354 C   0  0  2  0  0  0  0  0  0  0  0  0
   -6.7740   15.8047   12.5197 N   0  0  0  0  0  0  0  0  0  0  0  0
   -5.2465   17.7367   13.0021 C   0  0  1  0  0  0  0  0  0  0  0  0
   -6.0692   18.1113   14.1105 O   0  0  0  0  0  0  0  0  0  0  0  0
   -3.7377   18.0712   13.2455 C   0  0  2  0  0  0  0  0  0  0  0  0
   -3.5080   19.4695   13.4839 O   0  0  0  0  0  0  0  0  0  0  0  0
   -2.8773   17.6216   12.0389 C   0  0  2  0  0  0  0  0  0  0  0  0
   -3.0703   16.2263   11.7645 O   0  0  0  0  0  0  0  0  0  0  0  0
   -1.4115   17.8816   12.2722 C   0  0  0  0  0  0  0  0  0  0  0  0
   -1.1628   19.2335   12.2768 N   0  0  0  0  0  0  0  0  0  0  0  0
   -4.4228   16.1160    6.0705 C   0  0  1  0  0  0  0  0  0  0  0  0
   -4.3652   15.5027    4.7140 N   0  0  0  0  0  0  0  0  0  0  0  0
   -5.8409   15.9851    6.6095 C   0  0  2  0  0  0  0  0  0  0  0  0
   -6.7038   16.6034    5.7023 O   0  0  0  0  0  0  0  0  0  0  0  0
   -5.9535   16.6326    8.0258 C   0  0  1  0  0  0  0  0  0  0  0  0
   -7.3116   16.4815    8.5409 O   0  0  0  0  0  0  0  0  0  0  0  0
   -4.9508   15.9149    9.0185 C   0  0  1  0  0  0  0  0  0  0  0  0
   -3.5277   16.0553    8.5000 C   0  0  1  0  0  0  0  0  0  0  0  0
   -2.6221   15.4027    9.4336 N   0  0  0  0  0  0  0  0  0  0  0  0
   -3.4203   15.4291    7.0838 C   0  0  0  0  0  0  0  0  0  0  0  0
   -7.3748   16.8738    4.4520 C   0  0  0  0  0  0  0  0  0  0  0  0
   -8.2770   18.0746    4.6213 C   0  0  0  0  0  0  0  0  0  0  0  0
   -8.7925   18.6276    3.3520 N   0  0  0  0  0  0  0  0  0  0  0  0
   -9.4853   18.7578    2.0498 C   0  0  0  0  0  0  0  0  0  0  0  0
  -10.9116   18.8996    2.5962 C   0  0  0  0  0  0  0  0  0  0  0  0
  -11.9173   19.3152    1.5062 C   0  0  0  0  0  0  0  0  0  0  0  0
  -13.3392   19.3551    2.0575 C   0  0  0  0  0  0  0  0  0  0  0  0
  -13.4707   20.4360    3.0243 N   0  0  0  0  0  0  0  0  0  0  0  0
   -4.1336   11.5882    0.9810 N   0  0  0  0  0  0  0  0  0  0  0  0
   -4.6321   13.7502    4.7816 C   0  0  0  0  0  0  0  0  0  0  0  0
   -4.8343   13.0396    5.5678 O   0  0  0  0  0  0  0  0  0  0  0  0
   -4.4260   13.7683    3.2866 C   0  0  2  0  0  0  0  0  0  0  0  0
   -5.5578   13.3662    2.6239 O   0  0  0  0  0  0  0  0  0  0  0  0
   -3.3452   12.7383    2.9770 C   0  0  0  0  0  0  0  0  0  0  0  0
   -3.0602   12.4533    1.4913 C   0  0  0  0  0  0  0  0  0  0  0  0
  1  2  1  6  0  0  0
  1  3  1  0  0  0  0
  3  4  1  6  0  0  0
  3  5  1  0  0  0  0
  5  6  1  1  0  0  0
  5  7  1  0  0  0  0
  7  8  1  6  0  0  0
  9  7  1  0  0  0  0
  9 10  1  0  0  0  0
  9 11  1  1  0  0  0
 10  1  1  0  0  0  0
 11 12  1  0  0  0  0
 13 14  1  6  0  0  0
 13 15  1  0  0  0  0
 13 22  1  0  0  0  0
 14 32  1  0  0  0  0
 15 16  1  6  0  0  0
 15 17  1  0  0  0  0
 16 23  1  0  0  0  0
 17 18  1  1  0  0  0
 17 19  1  0  0  0  0
 19  2  1  1  0  0  0
 19 20  1  0  0  0  0
 20 21  1  1  0  0  0
 20 22  1  0  0  0  0
 23 24  1  0  0  0  0
 24 25  1  0  0  0  0
 25 26  1  0  0  0  0
 26 27  1  0  0  0  0
 27 28  1  0  0  0  0
 28 29  1  0  0  0  0
 29 30  1  0  0  0  0
 31 37  1  0  0  0  0
 32 33  2  0  0  0  0
 34 32  1  1  0  0  0
 34 35  1  0  0  0  0
 34 36  1  0  0  0  0
 36 37  1  0  0  0  0
M  END
>  <CHROM.1>
-146.60500421,-68.77053087,-66.10104637,59.14175637,-176.81590750,163.61726030
167.48679637,60.24264822,76.58273720,169.64414240,176.11899787,67.57852727
-116.89895121,173.42705293,-77.11293071,-5.72600552,16.48682552,7.26988231
0.98187542,-0.61727633,1.15229425

>  <Name>
1o9m_lig

>  <RI>
0

>  <Rbt.Current_Directory>
/home/itssahil/PROJECTS/Mol_Feturizer/New_Systems/rnas/1o9m

>  <Rbt.Executable>
rbdock ($Id: //depot/dev/client3/rdock/2013.1/src/exe/rbdock.cxx#4 $)

>  <Rbt.Library>
libRbt.so (2013.1, Build901 2013/11/27)

>  <Rbt.Parameter_File>
/export/apps/rDock/src/rDock_2013.1_src/data/scripts/dock_solv.prm

>  <Rbt.Receptor>
prm/pocket_docking_7.prm

>  <SCORE>
-8.1543

>  <SCORE.INTER>
-5.759

>  <SCORE.INTER.CONST>
1

>  <SCORE.INTER.POLAR>
-0.959166

>  <SCORE.INTER.ROT>
15

>  <SCORE.INTER.SOLV>
14.6185

>  <SCORE.INTER.VDW>
-19.1149

>  <SCORE.INTER.norm>
-0.155649

>  <SCORE.INTRA>
-2.3953

>  <SCORE.INTRA.DIHEDRAL>
-10.7163

>  <SCORE.INTRA.DIHEDRAL.0>
21.5987

>  <SCORE.INTRA.POLAR>
0

>  <SCORE.INTRA.POLAR.0>
0

>  <SCORE.INTRA.REPUL>
0

>  <SCORE.INTRA.REPUL.0>
0

>  <SCORE.INTRA.SOLV>
4.60395

>  <SCORE.INTRA.SOLV.lig_0>
-108.715

>  <SCORE.INTRA.VDW>
0.660886

>  <SCORE.INTRA.VDW.0>
-3.9485

>  <SCORE.INTRA.norm>
-0.0647379

>  <SCORE.RESTR>
0

>  <SCORE.RESTR.CAVITY>
0

>  <SCORE.RESTR.norm>
0

>  <SCORE.SYSTEM>
0

>  <SCORE.SYSTEM.CONST>
0

>  <SCORE.SYSTEM.DIHEDRAL>
0

>  <SCORE.SYSTEM.SOLV>
0

>  <SCORE.SYSTEM.norm>
0

>  <SCORE.heavy>
37

>  <SCORE.norm>
-0.220387

>  <RMSD>
9.703

$$$$
1o9m_lig
 OpenBabel11021811403D
libRbt.so/2013.1/901 2013/11/27
 37 38  0  0  0  0  0  0  0  0999 V2000
  -14.0700   18.1013    7.3020 C   0  0  2  0  0  0  0  0  0  0  0  0
  -13.7624   18.2614    5.8835 O   0  0  0  0  0  0  0  0  0  0  0  0
  -15.6156   17.8231    7.3925 C   0  0  2  0  0  0  0  0  0  0  0  0
  -16.0103   16.6220    6.6358 N   0  0  0  0  0  0  0  0  0  0  0  0
  -16.3978   19.0901    6.8760 C   0  0  1  0  0  0  0  0  0  0  0  0
  -17.8078   18.8622    6.9502 O   0  0  0  0  0  0  0  0  0  0  0  0
  -15.9513   20.3199    7.7337 C   0  0  2  0  0  0  0  0  0  0  0  0
  -16.5945   21.5412    7.3344 O   0  0  0  0  0  0  0  0  0  0  0  0
  -14.4168   20.5133    7.6535 C   0  0  2  0  0  0  0  0  0  0  0  0
  -13.7290   19.3175    8.0486 O   0  0  0  0  0  0  0  0  0  0  0  0
  -13.9537   21.6584    8.5165 C   0  0  0  0  0  0  0  0  0  0  0  0
  -14.3709   22.8549    7.9838 N   0  0  0  0  0  0  0  0  0  0  0  0
   -9.7838   18.0163    4.1715 C   0  0  1  0  0  0  0  0  0  0  0  0
   -8.4336   18.4345    3.7005 N   0  0  0  0  0  0  0  0  0  0  0  0
   -9.8995   18.3147    5.6601 C   0  0  2  0  0  0  0  0  0  0  0  0
   -8.8679   17.6387    6.3150 O   0  0  0  0  0  0  0  0  0  0  0  0
  -11.2957   17.8745    6.2029 C   0  0  1  0  0  0  0  0  0  0  0  0
  -11.4026   18.1855    7.6257 O   0  0  0  0  0  0  0  0  0  0  0  0
  -12.4357   18.6508    5.4261 C   0  0  1  0  0  0  0  0  0  0  0  0
  -12.3421   18.3455    3.9388 C   0  0  1  0  0  0  0  0  0  0  0  0
  -13.4066   19.0562    3.2464 N   0  0  0  0  0  0  0  0  0  0  0  0
  -10.9469   18.7650    3.4032 C   0  0  0  0  0  0  0  0  0  0  0  0
   -8.1259   16.5346    6.8780 C   0  0  0  0  0  0  0  0  0  0  0  0
   -6.7482   17.0127    7.2757 C   0  0  0  0  0  0  0  0  0  0  0  0
   -5.8272   17.2168    6.1386 N   0  0  0  0  0  0  0  0  0  0  0  0
   -5.1207   17.0440    4.8489 C   0  0  0  0  0  0  0  0  0  0  0  0
   -4.7521   15.5649    5.0201 C   0  0  0  0  0  0  0  0  0  0  0  0
   -4.1854   14.9493    3.7270 C   0  0  0  0  0  0  0  0  0  0  0  0
   -4.0089   13.4406    3.8686 C   0  0  0  0  0  0  0  0  0  0  0  0
   -3.5279   12.8737    2.6166 N   0  0  0  0  0  0  0  0  0  0  0  0
   -4.0429   18.1700    1.4200 N   0  0  0  0  0  0  0  0  0  0  0  0
   -8.3706   18.5537    1.9318 C   0  0  0  0  0  0  0  0  0  0  0  0
   -9.0793   18.4052    1.1319 O   0  0  0  0  0  0  0  0  0  0  0  0
   -6.9188   18.9233    2.1144 C   0  0  2  0  0  0  0  0  0  0  0  0
   -6.7868   20.2127    2.5639 O   0  0  0  0  0  0  0  0  0  0  0  0
   -6.2721   18.8696    0.7347 C   0  0  0  0  0  0  0  0  0  0  0  0
   -4.7695   19.1951    0.6569 C   0  0  0  0  0  0  0  0  0  0  0  0
  1  2  1  6  0  0  0
  1  3  1  0  0  0  0
  3  4  1  6  0  0  0
  3  5  1  0  0  0  0
  5  6  1  1  0  0  0
  5  7  1  0  0  0  0
  7  8  1  6  0  0  0
  9  7  1  0  0  0  0
  9 10  1  0  0  0  0
  9 11  1  1  0  0  0
 10  1  1  0  0  0  0
 11 12  1  0  0  0  0
 13 14  1  6  0  0  0
 13 15  1  0  0  0  0
 13 22  1  0  0  0  0
 14 32  1  0  0  0  0
 15 16  1  1  0  0  0
 15 17  1  0  0  0  0
 16 23  1  0  0  0  0
 17 18  1  1  0  0  0
 17 19  1  0  0  0  0
 19  2  1  1  0  0  0
 19 20  1  0  0  0  0
 20 21  1  6  0  0  0
 20 22  1  0  0  0  0
 23 24  1  0  0  0  0
 24 25  1  0  0  0  0
 25 26  1  0  0  0  0
 26 27  1  0  0  0  0
 27 28  1  0  0  0  0
 28 29  1  0  0  0  0
 29 30  1  0  0  0  0
 31 37  1  0  0  0  0
 32 33  2  0  0  0  0
 34 32  1  6  0  0  0
 34 35  1  0  0  0  0
 34 36  1  0  0  0  0
 36 37  1  0  0  0  0
M  END
>  <CHROM.1>
174.43420448,-69.87075754,-163.89287087,-74.08637149,170.44533639,43.38840880
-75.20214416,-37.99071537,-50.65787305,170.34039431,-172.18955968,177.53551411
-75.37704890,-179.31127805,63.74767329,-10.28815728,18.26214085,5.12146326
-3.01108233,0.44715499,-0.92042520

>  <Name>
1o9m_lig

>  <RI>
0

>  <Rbt.Current_Directory>
/home/itssahil/PROJECTS/Mol_Feturizer/New_Systems/rnas/1o9m

>  <Rbt.Executable>
rbdock ($Id: //depot/dev/client3/rdock/2013.1/src/exe/rbdock.cxx#4 $)

>  <Rbt.Library>
libRbt.so (2013.1, Build901 2013/11/27)

>  <Rbt.Parameter_File>
/export/apps/rDock/src/rDock_2013.1_src/data/scripts/dock_solv.prm

>  <Rbt.Receptor>
prm/pocket_docking_8.prm

>  <SCORE>
-12.0989

>  <SCORE.INTER>
-6.40622

>  <SCORE.INTER.CONST>
1

>  <SCORE.INTER.POLAR>
-1.42517

>  <SCORE.INTER.ROT>
15

>  <SCORE.INTER.SOLV>
20.6084

>  <SCORE.INTER.VDW>
-19.9897

>  <SCORE.INTER.norm>
-0.173141

>  <SCORE.INTRA>
-5.69267

>  <SCORE.INTRA.DIHEDRAL>
-15.3706

>  <SCORE.INTRA.DIHEDRAL.0>
21.5987

>  <SCORE.INTRA.POLAR>
0

>  <SCORE.INTRA.POLAR.0>
0

>  <SCORE.INTRA.REPUL>
0

>  <SCORE.INTRA.REPUL.0>
0

>  <SCORE.INTRA.SOLV>
2.16511

>  <SCORE.INTRA.SOLV.lig_0>
-108.715

>  <SCORE.INTRA.VDW>
0.910083

>  <SCORE.INTRA.VDW.0>
-3.9485

>  <SCORE.INTRA.norm>
-0.153856

>  <SCORE.RESTR>
0

>  <SCORE.RESTR.CAVITY>
0

>  <SCORE.RESTR.norm>
0

>  <SCORE.SYSTEM>
0

>  <SCORE.SYSTEM.CONST>
0

>  <SCORE.SYSTEM.DIHEDRAL>
0

>  <SCORE.SYSTEM.SOLV>
0

>  <SCORE.SYSTEM.norm>
0

>  <SCORE.heavy>
37

>  <SCORE.norm>
-0.326997

>  <RMSD>
9.708

$$$$
1o9m_lig
 OpenBabel11021811403D
libRbt.so/2013.1/901 2013/11/27
 37 38  0  0  0  0  0  0  0  0999 V2000
  -10.8159   18.0789    3.7288 C   0  0  2  0  0  0  0  0  0  0  0  0
   -9.5903   18.7567    4.1420 O   0  0  0  0  0  0  0  0  0  0  0  0
  -11.4030   18.9135    2.5316 C   0  0  2  0  0  0  0  0  0  0  0  0
  -10.4579   19.0120    1.4055 N   0  0  0  0  0  0  0  0  0  0  0  0
  -11.8037   20.3465    3.0508 C   0  0  1  0  0  0  0  0  0  0  0  0
  -12.3428   21.1254    1.9792 O   0  0  0  0  0  0  0  0  0  0  0  0
  -12.8223   20.1707    4.2251 C   0  0  2  0  0  0  0  0  0  0  0  0
  -13.2448   21.4231    4.7889 O   0  0  0  0  0  0  0  0  0  0  0  0
  -12.2142   19.2961    5.3491 C   0  0  2  0  0  0  0  0  0  0  0  0
  -11.7804   18.0291    4.8334 O   0  0  0  0  0  0  0  0  0  0  0  0
  -13.1964   19.0645    6.4681 C   0  0  0  0  0  0  0  0  0  0  0  0
  -12.6021   18.3540    7.4836 N   0  0  0  0  0  0  0  0  0  0  0  0
   -5.8358   17.0629    5.5041 C   0  0  1  0  0  0  0  0  0  0  0  0
   -4.8370   16.4036    6.3913 N   0  0  0  0  0  0  0  0  0  0  0  0
   -7.0083   16.1146    5.2936 C   0  0  2  0  0  0  0  0  0  0  0  0
   -6.5089   14.9278    4.7530 O   0  0  0  0  0  0  0  0  0  0  0  0
   -8.0748   16.7580    4.3522 C   0  0  1  0  0  0  0  0  0  0  0  0
   -9.2035   15.8484    4.1756 O   0  0  0  0  0  0  0  0  0  0  0  0
   -8.6036   18.1056    4.9925 C   0  0  1  0  0  0  0  0  0  0  0  0
   -7.4433   19.0692    5.1903 C   0  0  1  0  0  0  0  0  0  0  0  0
   -7.9531   20.3050    5.7652 N   0  0  0  0  0  0  0  0  0  0  0  0
   -6.3739   18.4218    6.1104 C   0  0  0  0  0  0  0  0  0  0  0  0
   -6.5068   13.5760    4.2437 C   0  0  0  0  0  0  0  0  0  0  0  0
   -5.2160   13.3277    3.4976 C   0  0  0  0  0  0  0  0  0  0  0  0
   -5.1319   11.9973    2.8606 N   0  0  0  0  0  0  0  0  0  0  0  0
   -4.6370   10.8296    2.0964 C   0  0  0  0  0  0  0  0  0  0  0  0
   -3.4619   11.5294    1.4019 C   0  0  0  0  0  0  0  0  0  0  0  0
   -2.7041   10.5902    0.4450 C   0  0  0  0  0  0  0  0  0  0  0  0
   -3.0265   10.9129   -1.0108 C   0  0  0  0  0  0  0  0  0  0  0  0
   -2.3145   12.1130   -1.4266 N   0  0  0  0  0  0  0  0  0  0  0  0
   -4.3439   14.3268    9.5389 N   0  0  0  0  0  0  0  0  0  0  0  0
   -3.5457   15.6294    5.4532 C   0  0  0  0  0  0  0  0  0  0  0  0
   -3.3163   15.5379    4.4030 O   0  0  0  0  0  0  0  0  0  0  0  0
   -2.9903   15.1851    6.7843 C   0  0  2  0  0  0  0  0  0  0  0  0
   -1.6784   14.8000    6.6720 O   0  0  0  0  0  0  0  0  0  0  0  0
   -3.7781   13.9481    7.2012 C   0  0  0  0  0  0  0  0  0  0  0  0
   -3.5776   13.4482    8.6433 C   0  0  0  0  0  0  0  0  0  0  0  0
  1  2  1  1  0  0  0
  1  3  1  0  0  0  0
  3  4  1  6  0  0  0
  3  5  1  0  0  0  0
  5  6  1  6  0  0  0
  5  7  1  0  0  0  0
  7  8  1  1  0  0  0
  9  7  1  0  0  0  0
  9 10  1  0  0  0  0
  9 11  1  1  0  0  0
 10  1  1  0  0  0  0
 11 12  1  0  0  0  0
 13 14  1  1  0  0  0
 13 15  1  0  0  0  0
 13 22  1  0  0  0  0
 14 32  1  0  0  0  0
 15 16  1  6  0  0  0
 15 17  1  0  0  0  0
 16 23  1  0  0  0  0
 17 18  1  1  0  0  0
 17 19  1  0  0  0  0
 19  2  1  6  0  0  0
 19 20  1  0  0  0  0
 20 21  1  1  0  0  0
 20 22  1  0  0  0  0
 23 24  1  0  0  0  0
 24 25  1  0  0  0  0
 25 26  1  0  0  0  0
 26 27  1  0  0  0  0
 27 28  1  0  0  0  0
 28 29  1  0  0  0  0
 29 30  1  0  0  0  0
 31 37  1  0  0  0  0
 32 33  2  0  0  0  0
 34 32  1  6  0  0  0
 34 35  1  0  0  0  0
 34 36  1  0  0  0  0
 36 37  1  0  0  0  0
M  END
>  <CHROM.1>
-164.48128593,-176.42353512,96.34626944,177.32653404,164.63171913,57.49297527
-176.61254101,-179.79851996,-13.80686826,-178.14141431,105.44225630,76.25449150
-162.62012550,-169.27225236,77.15065148,-7.32012483,16.30882515,4.40685159
2.80193163,-0.62105906,1.18335536

>  <Name>
1o9m_lig

>  <RI>
0

>  <Rbt.Current_Directory>
/home/itssahil/PROJECTS/Mol_Feturizer/New_Systems/rnas/1o9m

>  <Rbt.Executable>
rbdock ($Id: //depot/dev/client3/rdock/2013.1/src/exe/rbdock.cxx#4 $)

>  <Rbt.Library>
libRbt.so (2013.1, Build901 2013/11/27)

>  <Rbt.Parameter_File>
/export/apps/rDock/src/rDock_2013.1_src/data/scripts/dock_solv.prm

>  <Rbt.Receptor>
prm/pocket_docking_5.prm

>  <SCORE>
-11.0103

>  <SCORE.INTER>
-6.69658

>  <SCORE.INTER.CONST>
1

>  <SCORE.INTER.POLAR>
-1.92459

>  <SCORE.INTER.ROT>
15

>  <SCORE.INTER.SOLV>
21.1639

>  <SCORE.INTER.VDW>
-18.7037

>  <SCORE.INTER.norm>
-0.180989

>  <SCORE.INTRA>
-4.31796

>  <SCORE.INTRA.DIHEDRAL>
-8.40753

>  <SCORE.INTRA.DIHEDRAL.0>
21.5987

>  <SCORE.INTRA.POLAR>
0

>  <SCORE.INTRA.POLAR.0>
0

>  <SCORE.INTRA.REPUL>
0

>  <SCORE.INTRA.REPUL.0>
0

>  <SCORE.INTRA.SOLV>
0.623913

>  <SCORE.INTRA.SOLV.lig_0>
-108.715

>  <SCORE.INTRA.VDW>
-0.426153

>  <SCORE.INTRA.VDW.0>
-3.9485

>  <SCORE.INTRA.norm>
-0.116702

>  <SCORE.RESTR>
0.00427214

>  <SCORE.RESTR.CAVITY>
0.00427214

>  <SCORE.RESTR.norm>
0.000115463

>  <SCORE.SYSTEM>
0

>  <SCORE.SYSTEM.CONST>
0

>  <SCORE.SYSTEM.DIHEDRAL>
0

>  <SCORE.SYSTEM.SOLV>
0

>  <SCORE.SYSTEM.norm>
0

>  <SCORE.heavy>
37

>  <SCORE.norm>
-0.297575

>  <RMSD>
9.729

$$$$
1o9m_lig
 OpenBabel11021811403D
libRbt.so/2013.1/901 2013/11/27
 37 38  0  0  0  0  0  0  0  0999 V2000
  -14.6874   19.5527    7.0704 C   0  0  2  0  0  0  0  0  0  0  0  0
  -13.8922   20.5311    6.3338 O   0  0  0  0  0  0  0  0  0  0  0  0
  -15.7631   19.0049    6.0618 C   0  0  2  0  0  0  0  0  0  0  0  0
  -15.1486   18.3874    4.8736 N   0  0  0  0  0  0  0  0  0  0  0  0
  -16.7243   20.1822    5.6447 C   0  0  1  0  0  0  0  0  0  0  0  0
  -17.7142   19.7082    4.7277 O   0  0  0  0  0  0  0  0  0  0  0  0
  -17.3588   20.7756    6.9458 C   0  0  2  0  0  0  0  0  0  0  0  0
  -18.2461   21.8748    6.6822 O   0  0  0  0  0  0  0  0  0  0  0  0
  -16.2558   21.2471    7.9253 C   0  0  2  0  0  0  0  0  0  0  0  0
  -15.3451   20.1787    8.2229 O   0  0  0  0  0  0  0  0  0  0  0  0
  -16.8399   21.7719    9.2114 C   0  0  0  0  0  0  0  0  0  0  0  0
  -15.8463   22.2842   10.0111 N   0  0  0  0  0  0  0  0  0  0  0  0
   -9.8080   21.9167    6.8025 C   0  0  1  0  0  0  0  0  0  0  0  0
   -8.6085   22.5615    7.4068 N   0  0  0  0  0  0  0  0  0  0  0  0
  -10.2959   20.8154    7.7338 C   0  0  2  0  0  0  0  0  0  0  0  0
   -9.2429   19.9188    7.9271 O   0  0  0  0  0  0  0  0  0  0  0  0
  -11.5443   20.0973    7.1308 C   0  0  1  0  0  0  0  0  0  0  0  0
  -12.0157   19.0585    8.0425 O   0  0  0  0  0  0  0  0  0  0  0  0
  -12.7075   21.1487    6.9135 C   0  0  1  0  0  0  0  0  0  0  0  0
  -12.2380   22.2448    5.9690 C   0  0  1  0  0  0  0  0  0  0  0  0
  -13.3258   23.1911    5.7714 N   0  0  0  0  0  0  0  0  0  0  0  0
  -10.9851   22.9457    6.5591 C   0  0  0  0  0  0  0  0  0  0  0  0
   -7.9256   19.4453    8.2837 C   0  0  0  0  0  0  0  0  0  0  0  0
   -7.6237   19.8425    9.7104 C   0  0  0  0  0  0  0  0  0  0  0  0
   -6.6241   18.9839   10.3787 N   0  0  0  0  0  0  0  0  0  0  0  0
   -5.9689   17.8218   11.0210 C   0  0  0  0  0  0  0  0  0  0  0  0
   -7.0817   17.4953   12.0250 C   0  0  0  0  0  0  0  0  0  0  0  0
   -6.6582   16.4144   13.0372 C   0  0  0  0  0  0  0  0  0  0  0  0
   -7.8099   16.0554   13.9711 C   0  0  0  0  0  0  0  0  0  0  0  0
   -7.3759   15.0591   14.9403 N   0  0  0  0  0  0  0  0  0  0  0  0
   -5.6436   22.3277    4.9511 N   0  0  0  0  0  0  0  0  0  0  0  0
   -7.8562   23.7130    6.2866 C   0  0  0  0  0  0  0  0  0  0  0  0
   -8.0722   24.0558    5.2866 O   0  0  0  0  0  0  0  0  0  0  0  0
   -6.8276   23.9312    7.3692 C   0  0  2  0  0  0  0  0  0  0  0  0
   -7.0342   25.1218    8.0186 O   0  0  0  0  0  0  0  0  0  0  0  0
   -5.4731   24.0366    6.6771 C   0  0  0  0  0  0  0  0  0  0  0  0
   -4.8663   22.7311    6.1319 C   0  0  0  0  0  0  0  0  0  0  0  0
  1  2  1  6  0  0  0
  1  3  1  0  0  0  0
  3  4  1  6  0  0  0
  3  5  1  0  0  0  0
  5  6  1  6  0  0  0
  5  7  1  0  0  0  0
  7  8  1  6  0  0  0
  9  7  1  0  0  0  0
  9 10  1  0  0  0  0
  9 11  1  1  0  0  0
 10  1  1  0  0  0  0
 11 12  1  0  0  0  0
 13 14  1  1  0  0  0
 13 15  1  0  0  0  0
 13 22  1  0  0  0  0
 14 32  1  0  0  0  0
 15 16  1  6  0  0  0
 15 17  1  0  0  0  0
 16 23  1  0  0  0  0
 17 18  1  1  0  0  0
 17 19  1  0  0  0  0
 19  2  1  6  0  0  0
 19 20  1  0  0  0  0
 20 21  1  1  0  0  0
 20 22  1  0  0  0  0
 23 24  1  0  0  0  0
 24 25  1  0  0  0  0
 25 26  1  0  0  0  0
 26 27  1  0  0  0  0
 27 28  1  0  0  0  0
 28 29  1  0  0  0  0
 29 30  1  0  0  0  0
 31 37  1  0  0  0  0
 32 33  2  0  0  0  0
 34 32  1  6  0  0  0
 34 35  1  0  0  0  0
 34 36  1  0  0  0  0
 36 37  1  0  0  0  0
M  END
>  <CHROM.1>
-173.58924662,-174.97212429,172.63880768,56.33604780,55.36883853,66.94658483
155.56432644,-69.53316990,-50.22939961,-171.98556559,-176.79683793,-178.49465691
-104.06164902,-73.72980140,71.88300732,-11.03045364,20.71486480,7.89134105
2.86043703,-0.17090714,-0.76559897

>  <Name>
1o9m_lig

>  <RI>
0

>  <Rbt.Current_Directory>
/home/itssahil/PROJECTS/Mol_Feturizer/New_Systems/rnas/1o9m

>  <Rbt.Executable>
rbdock ($Id: //depot/dev/client3/rdock/2013.1/src/exe/rbdock.cxx#4 $)

>  <Rbt.Library>
libRbt.so (2013.1, Build901 2013/11/27)

>  <Rbt.Parameter_File>
/export/apps/rDock/src/rDock_2013.1_src/data/scripts/dock_solv.prm

>  <Rbt.Receptor>
prm/pocket_docking_7.prm

>  <SCORE>
-17.1243

>  <SCORE.INTER>
-9.42531

>  <SCORE.INTER.CONST>
1

>  <SCORE.INTER.POLAR>
-2.47395

>  <SCORE.INTER.ROT>
15

>  <SCORE.INTER.SOLV>
18.8338

>  <SCORE.INTER.VDW>
-17.915

>  <SCORE.INTER.norm>
-0.254738

>  <SCORE.INTRA>
-7.69897

>  <SCORE.INTRA.DIHEDRAL>
-15.2385

>  <SCORE.INTRA.DIHEDRAL.0>
21.5987

>  <SCORE.INTRA.POLAR>
0

>  <SCORE.INTRA.POLAR.0>
0

>  <SCORE.INTRA.REPUL>
0

>  <SCORE.INTRA.REPUL.0>
0

>  <SCORE.INTRA.SOLV>
0.995469

>  <SCORE.INTRA.SOLV.lig_0>
-108.715

>  <SCORE.INTRA.VDW>
-0.577447

>  <SCORE.INTRA.VDW.0>
-3.9485

>  <SCORE.INTRA.norm>
-0.20808

>  <SCORE.RESTR>
0

>  <SCORE.RESTR.CAVITY>
0

>  <SCORE.RESTR.norm>
0

>  <SCORE.SYSTEM>
0

>  <SCORE.SYSTEM.CONST>
0

>  <SCORE.SYSTEM.DIHEDRAL>
0

>  <SCORE.SYSTEM.SOLV>
0

>  <SCORE.SYSTEM.norm>
0

>  <SCORE.heavy>
37

>  <SCORE.norm>
-0.462818

>  <RMSD>
9.793

$$$$
1o9m_lig
 OpenBabel11021811403D
libRbt.so/2013.1/901 2013/11/27
 37 38  0  0  0  0  0  0  0  0999 V2000
  -12.1354   17.8551    4.5725 C   0  0  2  0  0  0  0  0  0  0  0  0
  -11.0079   18.3263    5.3720 O   0  0  0  0  0  0  0  0  0  0  0  0
  -12.6749   19.1055    3.7852 C   0  0  2  0  0  0  0  0  0  0  0  0
  -11.6427   19.7090    2.9242 N   0  0  0  0  0  0  0  0  0  0  0  0
  -13.2302   20.1617    4.8147 C   0  0  1  0  0  0  0  0  0  0  0  0
  -13.7290   21.3092    4.1220 O   0  0  0  0  0  0  0  0  0  0  0  0
  -14.3338   19.4654    5.6777 C   0  0  2  0  0  0  0  0  0  0  0  0
  -14.9007   20.3387    6.6680 O   0  0  0  0  0  0  0  0  0  0  0  0
  -13.7636   18.2110    6.3847 C   0  0  2  0  0  0  0  0  0  0  0  0
  -13.1886   17.3041    5.4327 O   0  0  0  0  0  0  0  0  0  0  0  0
  -14.8218   17.4895    7.1785 C   0  0  0  0  0  0  0  0  0  0  0  0
  -15.7945   16.9995    6.3400 N   0  0  0  0  0  0  0  0  0  0  0  0
   -7.1920   16.4956    6.3249 C   0  0  1  0  0  0  0  0  0  0  0  0
   -6.1990   15.5505    6.9082 N   0  0  0  0  0  0  0  0  0  0  0  0
   -8.1539   15.7141    5.4403 C   0  0  2  0  0  0  0  0  0  0  0  0
   -7.4016   15.0547    4.4658 O   0  0  0  0  0  0  0  0  0  0  0  0
   -9.2045   16.6692    4.7910 C   0  0  1  0  0  0  0  0  0  0  0  0
  -10.1339   15.9056    3.9629 O   0  0  0  0  0  0  0  0  0  0  0  0
  -10.0241   17.4069    5.9267 C   0  0  1  0  0  0  0  0  0  0  0  0
   -9.0754   18.2069    6.8063 C   0  0  1  0  0  0  0  0  0  0  0  0
   -9.8499   18.8880    7.8329 N   0  0  0  0  0  0  0  0  0  0  0  0
   -8.0189   17.2603    7.4363 C   0  0  0  0  0  0  0  0  0  0  0  0
   -6.3789   14.2063    3.8995 C   0  0  0  0  0  0  0  0  0  0  0  0
   -5.0189   14.7576    4.2615 C   0  0  0  0  0  0  0  0  0  0  0  0
   -3.8887   14.0332    3.6442 N   0  0  0  0  0  0  0  0  0  0  0  0
   -2.9405   13.4896    2.6453 C   0  0  0  0  0  0  0  0  0  0  0  0
   -3.7976   12.3054    2.1806 C   0  0  0  0  0  0  0  0  0  0  0  0
   -3.2026   11.6005    0.9472 C   0  0  0  0  0  0  0  0  0  0  0  0
   -4.1188   10.4831    0.4582 C   0  0  0  0  0  0  0  0  0  0  0  0
   -3.5264    9.8188   -0.6942 N   0  0  0  0  0  0  0  0  0  0  0  0
   -0.6881   14.3828    9.1930 N   0  0  0  0  0  0  0  0  0  0  0  0
   -4.7961   16.4100    7.5715 C   0  0  0  0  0  0  0  0  0  0  0  0
   -4.5074   17.4460    7.6574 O   0  0  0  0  0  0  0  0  0  0  0  0
   -4.2521   15.0433    7.9090 C   0  0  2  0  0  0  0  0  0  0  0  0
   -4.9294   14.4850    8.9633 O   0  0  0  0  0  0  0  0  0  0  0  0
   -2.8114   15.2417    8.3668 C   0  0  0  0  0  0  0  0  0  0  0  0
   -1.9856   13.9711    8.6379 C   0  0  0  0  0  0  0  0  0  0  0  0
  1  2  1  1  0  0  0
  1  3  1  0  0  0  0
  3  4  1  1  0  0  0
  3  5  1  0  0  0  0
  5  6  1  6  0  0  0
  5  7  1  0  0  0  0
  7  8  1  1  0  0  0
  9  7  1  0  0  0  0
  9 10  1  0  0  0  0
  9 11  1  6  0  0  0
 10  1  1  0  0  0  0
 11 12  1  0  0  0  0
 13 14  1  1  0  0  0
 13 15  1  0  0  0  0
 13 22  1  0  0  0  0
 14 32  1  0  0  0  0
 15 16  1  6  0  0  0
 15 17  1  0  0  0  0
 16 23  1  0  0  0  0
 17 18  1  6  0  0  0
 17 19  1  0  0  0  0
 19  2  1  6  0  0  0
 19 20  1  0  0  0  0
 20 21  1  1  0  0  0
 20 22  1  0  0  0  0
 23 24  1  0  0  0  0
 24 25  1  0  0  0  0
 25 26  1  0  0  0  0
 26 27  1  0  0  0  0
 27 28  1  0  0  0  0
 28 29  1  0  0  0  0
 29 30  1  0  0  0  0
 31 37  1  0  0  0  0
 32 33  2  0  0  0  0
 34 32  1  1  0  0  0
 34 35  1  0  0  0  0
 34 36  1  0  0  0  0
 36 37  1  0  0  0  0
M  END
>  <CHROM.1>
-161.95747776,64.27342343,164.16058306,53.51925061,-61.82149454,64.61427595
-175.28458362,67.14570398,-81.31085603,171.17718526,-176.53732215,-179.12407594
-72.80573347,-174.11084010,-174.36026931,-8.21883295,16.25389339,5.37217985
2.83135550,-0.42681068,1.08818043

>  <Name>
1o9m_lig

>  <RI>
0

>  <Rbt.Current_Directory>
/home/itssahil/PROJECTS/Mol_Feturizer/New_Systems/rnas/1o9m

>  <Rbt.Executable>
rbdock ($Id: //depot/dev/client3/rdock/2013.1/src/exe/rbdock.cxx#4 $)

>  <Rbt.Library>
libRbt.so (2013.1, Build901 2013/11/27)

>  <Rbt.Parameter_File>
/export/apps/rDock/src/rDock_2013.1_src/data/scripts/dock_solv.prm

>  <Rbt.Receptor>
prm/pocket_docking_5.prm

>  <SCORE>
-19.8331

>  <SCORE.INTER>
-10.7773

>  <SCORE.INTER.CONST>
1

>  <SCORE.INTER.POLAR>
-0.598275

>  <SCORE.INTER.ROT>
15

>  <SCORE.INTER.SOLV>
15.2065

>  <SCORE.INTER.VDW>
-23.8595

>  <SCORE.INTER.norm>
-0.291279

>  <SCORE.INTRA>
-9.05576

>  <SCORE.INTRA.DIHEDRAL>
-17.5706

>  <SCORE.INTRA.DIHEDRAL.0>
21.5987

>  <SCORE.INTRA.POLAR>
0

>  <SCORE.INTRA.POLAR.0>
0

>  <SCORE.INTRA.REPUL>
0

>  <SCORE.INTRA.REPUL.0>
0

>  <SCORE.INTRA.SOLV>
-0.390017

>  <SCORE.INTRA.SOLV.lig_0>
-108.715

>  <SCORE.INTRA.VDW>
-0.0754573

>  <SCORE.INTRA.VDW.0>
-3.9485

>  <SCORE.INTRA.norm>
-0.24475

>  <SCORE.RESTR>
0

>  <SCORE.RESTR.CAVITY>
0

>  <SCORE.RESTR.norm>
0

>  <SCORE.SYSTEM>
0

>  <SCORE.SYSTEM.CONST>
0

>  <SCORE.SYSTEM.DIHEDRAL>
0

>  <SCORE.SYSTEM.SOLV>
0

>  <SCORE.SYSTEM.norm>
0

>  <SCORE.heavy>
37

>  <SCORE.norm>
-0.53603

>  <RMSD>
9.806

$$$$
1o9m_lig
 OpenBabel11021811403D
libRbt.so/2013.1/901 2013/11/27
 37 38  0  0  0  0  0  0  0  0999 V2000
  -10.7277   20.4778    7.8216 C   0  0  2  0  0  0  0  0  0  0  0  0
   -9.9577   19.4584    7.1144 O   0  0  0  0  0  0  0  0  0  0  0  0
  -12.2277   20.2796    7.3912 C   0  0  2  0  0  0  0  0  0  0  0  0
  -12.7266   18.9318    7.7165 N   0  0  0  0  0  0  0  0  0  0  0  0
  -12.3626   20.5670    5.8476 C   0  0  1  0  0  0  0  0  0  0  0  0
  -13.7201   20.3949    5.4315 O   0  0  0  0  0  0  0  0  0  0  0  0
  -11.8397   22.0162    5.5756 C   0  0  2  0  0  0  0  0  0  0  0  0
  -11.9014   22.3798    4.1868 O   0  0  0  0  0  0  0  0  0  0  0  0
  -10.3798   22.1715    6.0688 C   0  0  2  0  0  0  0  0  0  0  0  0
  -10.2688   21.8227    7.4564 O   0  0  0  0  0  0  0  0  0  0  0  0
   -9.8707   23.5756    5.8694 C   0  0  0  0  0  0  0  0  0  0  0  0
   -8.5006   23.6045    5.9751 N   0  0  0  0  0  0  0  0  0  0  0  0
   -5.9218   18.0200    7.7951 C   0  0  1  0  0  0  0  0  0  0  0  0
   -4.7703   17.3361    8.4476 N   0  0  0  0  0  0  0  0  0  0  0  0
   -7.0033   16.9893    7.5007 C   0  0  2  0  0  0  0  0  0  0  0  0
   -6.4416   15.9954    6.6965 O   0  0  0  0  0  0  0  0  0  0  0  0
   -8.2258   17.6594    6.7978 C   0  0  1  0  0  0  0  0  0  0  0  0
   -9.2645   16.6656    6.5405 O   0  0  0  0  0  0  0  0  0  0  0  0
   -8.8229   18.7878    7.7337 C   0  0  1  0  0  0  0  0  0  0  0  0
   -7.7565   19.8341    8.0197 C   0  0  1  0  0  0  0  0  0  0  0  0
   -8.3299   20.8682    8.8680 N   0  0  0  0  0  0  0  0  0  0  0  0
   -6.5329   19.1646    8.7008 C   0  0  0  0  0  0  0  0  0  0  0  0
   -6.3633   14.7966    5.8944 C   0  0  0  0  0  0  0  0  0  0  0  0
   -4.9160   14.5138    5.5629 C   0  0  0  0  0  0  0  0  0  0  0  0
   -4.6850   13.1945    4.9393 N   0  0  0  0  0  0  0  0  0  0  0  0
   -4.5526   12.1141    3.9354 C   0  0  0  0  0  0  0  0  0  0  0  0
   -6.0485   11.9090    3.6648 C   0  0  0  0  0  0  0  0  0  0  0  0
   -6.3336   10.5904    2.9218 C   0  0  0  0  0  0  0  0  0  0  0  0
   -5.7692   10.6255    1.5049 C   0  0  0  0  0  0  0  0  0  0  0  0
   -6.1877    9.4400    0.7703 N   0  0  0  0  0  0  0  0  0  0  0  0
   -1.3978   17.7374   12.5965 N   0  0  0  0  0  0  0  0  0  0  0  0
   -5.2668   16.5008    9.9317 C   0  0  0  0  0  0  0  0  0  0  0  0
   -6.2005   16.3679   10.4558 O   0  0  0  0  0  0  0  0  0  0  0  0
   -3.8138   16.1194   10.0768 C   0  0  2  0  0  0  0  0  0  0  0  0
   -3.6799   14.8120   10.4702 O   0  0  0  0  0  0  0  0  0  0  0  0
   -3.2416   16.9778   11.1995 C   0  0  0  0  0  0  0  0  0  0  0  0
   -1.7444   16.8057   11.5135 C   0  0  0  0  0  0  0  0  0  0  0  0
  1  2  1  6  0  0  0
  1  3  1  0  0  0  0
  3  4  1  6  0  0  0
  3  5  1  0  0  0  0
  5  6  1  1  0  0  0
  5  7  1  0  0  0  0
  7  8  1  6  0  0  0
  9  7  1  0  0  0  0
  9 10  1  0  0  0  0
  9 11  1  1  0  0  0
 10  1  1  0  0  0  0
 11 12  1  0  0  0  0
 13 14  1  1  0  0  0
 13 15  1  0  0  0  0
 13 22  1  0  0  0  0
 14 32  1  0  0  0  0
 15 16  1  6  0  0  0
 15 17  1  0  0  0  0
 16 23  1  0  0  0  0
 17 18  1  1  0  0  0
 17 19  1  0  0  0  0
 19  2  1  6  0  0  0
 19 20  1  0  0  0  0
 20 21  1  1  0  0  0
 20 22  1  0  0  0  0
 23 24  1  0  0  0  0
 24 25  1  0  0  0  0
 25 26  1  0  0  0  0
 26 27  1  0  0  0  0
 27 28  1  0  0  0  0
 28 29  1  0  0  0  0
 29 30  1  0  0  0  0
 31 37  1  0  0  0  0
 32 33  2  0  0  0  0
 34 32  1  1  0  0  0
 34 35  1  0  0  0  0
 34 36  1  0  0  0  0
 36 37  1  0  0  0  0
M  END
>  <CHROM.1>
-143.14953454,-164.07248352,-57.43247937,-177.63495220,-171.51078275,176.03061083
170.29378188,86.15209129,-74.31017198,-164.98918435,-67.02917575,-173.17517360
-137.61388244,-178.08933632,178.81265805,-7.52687607,17.54825087,6.99034759
2.44845630,-0.66648145,0.71702108

>  <Name>
1o9m_lig

>  <RI>
0

>  <Rbt.Current_Directory>
/home/itssahil/PROJECTS/Mol_Feturizer/New_Systems/rnas/1o9m

>  <Rbt.Executable>
rbdock ($Id: //depot/dev/client3/rdock/2013.1/src/exe/rbdock.cxx#4 $)

>  <Rbt.Library>
libRbt.so (2013.1, Build901 2013/11/27)

>  <Rbt.Parameter_File>
/export/apps/rDock/src/rDock_2013.1_src/data/scripts/dock_solv.prm

>  <Rbt.Receptor>
prm/pocket_docking_4.prm

>  <SCORE>
-9.78558

>  <SCORE.INTER>
-6.17646

>  <SCORE.INTER.CONST>
1

>  <SCORE.INTER.POLAR>
-2.39183

>  <SCORE.INTER.ROT>
15

>  <SCORE.INTER.SOLV>
14.4325

>  <SCORE.INTER.VDW>
-14.5557

>  <SCORE.INTER.norm>
-0.166931

>  <SCORE.INTRA>
-3.62679

>  <SCORE.INTRA.DIHEDRAL>
-10.9277

>  <SCORE.INTRA.DIHEDRAL.0>
21.5987

>  <SCORE.INTRA.POLAR>
0

>  <SCORE.INTRA.POLAR.0>
0

>  <SCORE.INTRA.REPUL>
0

>  <SCORE.INTRA.REPUL.0>
0

>  <SCORE.INTRA.SOLV>
1.50613

>  <SCORE.INTRA.SOLV.lig_0>
-108.715

>  <SCORE.INTRA.VDW>
1.08401

>  <SCORE.INTRA.VDW.0>
-3.9485

>  <SCORE.INTRA.norm>
-0.0980214

>  <SCORE.RESTR>
0.0176742

>  <SCORE.RESTR.CAVITY>
0.0176742

>  <SCORE.RESTR.norm>
0.000477681

>  <SCORE.SYSTEM>
0

>  <SCORE.SYSTEM.CONST>
0

>  <SCORE.SYSTEM.DIHEDRAL>
0

>  <SCORE.SYSTEM.SOLV>
0

>  <SCORE.SYSTEM.norm>
0

>  <SCORE.heavy>
37

>  <SCORE.norm>
-0.264475

>  <RMSD>
9.835

$$$$
1o9m_lig
 OpenBabel11021811403D
libRbt.so/2013.1/901 2013/11/27
 37 38  0  0  0  0  0  0  0  0999 V2000
  -11.6024   18.0710    6.2968 C   0  0  2  0  0  0  0  0  0  0  0  0
  -10.5915   18.9253    5.6800 O   0  0  0  0  0  0  0  0  0  0  0  0
  -12.6451   17.7314    5.1690 C   0  0  2  0  0  0  0  0  0  0  0  0
  -12.0209   17.0525    4.0199 N   0  0  0  0  0  0  0  0  0  0  0  0
  -13.3595   19.0597    4.7116 C   0  0  1  0  0  0  0  0  0  0  0  0
  -14.3153   18.7766    3.6861 O   0  0  0  0  0  0  0  0  0  0  0  0
  -14.0185   19.7151    5.9700 C   0  0  2  0  0  0  0  0  0  0  0  0
  -14.6881   20.9504    5.6691 O   0  0  0  0  0  0  0  0  0  0  0  0
  -12.9583   19.9757    7.0684 C   0  0  2  0  0  0  0  0  0  0  0  0
  -12.2641   18.7661    7.4066 O   0  0  0  0  0  0  0  0  0  0  0  0
  -13.5772   20.5556    8.3139 C   0  0  0  0  0  0  0  0  0  0  0  0
  -13.9625   21.8563    8.0925 N   0  0  0  0  0  0  0  0  0  0  0  0
   -6.4097   18.1461    4.8280 C   0  0  1  0  0  0  0  0  0  0  0  0
   -4.9538   17.9207    5.0494 N   0  0  0  0  0  0  0  0  0  0  0  0
   -7.1926   17.0784    5.5800 C   0  0  2  0  0  0  0  0  0  0  0  0
   -6.7654   15.8303    5.1218 O   0  0  0  0  0  0  0  0  0  0  0  0
   -8.7273   17.2643    5.3613 C   0  0  1  0  0  0  0  0  0  0  0  0
   -9.4676   16.2484    6.1045 O   0  0  0  0  0  0  0  0  0  0  0  0
   -9.1675   18.6941    5.8788 C   0  0  1  0  0  0  0  0  0  0  0  0
   -8.4054   19.7706    5.1211 C   0  0  1  0  0  0  0  0  0  0  0  0
   -8.8355   21.0753    5.6011 N   0  0  0  0  0  0  0  0  0  0  0  0
   -6.8789   19.5741    5.3225 C   0  0  0  0  0  0  0  0  0  0  0  0
   -6.6257   14.6953    4.2392 C   0  0  0  0  0  0  0  0  0  0  0  0
   -5.4800   13.8326    4.7161 C   0  0  0  0  0  0  0  0  0  0  0  0
   -5.5897   12.4117    4.3262 N   0  0  0  0  0  0  0  0  0  0  0  0
   -5.3356   11.1044    3.6792 C   0  0  0  0  0  0  0  0  0  0  0  0
   -5.8505   11.4704    2.2813 C   0  0  0  0  0  0  0  0  0  0  0  0
   -7.3854   11.5887    2.2353 C   0  0  0  0  0  0  0  0  0  0  0  0
   -8.0479   10.2367    2.4815 C   0  0  0  0  0  0  0  0  0  0  0  0
   -7.7693    9.3341    1.3734 N   0  0  0  0  0  0  0  0  0  0  0  0
   -1.5469   15.7058    6.5282 N   0  0  0  0  0  0  0  0  0  0  0  0
   -4.1121   17.5690    3.5281 C   0  0  0  0  0  0  0  0  0  0  0  0
   -4.4076   17.4930    2.4932 O   0  0  0  0  0  0  0  0  0  0  0  0
   -2.8695   17.4244    4.3722 C   0  0  2  0  0  0  0  0  0  0  0  0
   -1.8375   18.1764    3.8706 O   0  0  0  0  0  0  0  0  0  0  0  0
   -2.4378   15.9653    4.2771 C   0  0  0  0  0  0  0  0  0  0  0  0
   -1.2100   15.5469    5.1061 C   0  0  0  0  0  0  0  0  0  0  0  0
  1  2  1  6  0  0  0
  1  3  1  0  0  0  0
  3  4  1  6  0  0  0
  3  5  1  0  0  0  0
  5  6  1  6  0  0  0
  5  7  1  0  0  0  0
  7  8  1  6  0  0  0
  9  7  1  0  0  0  0
  9 10  1  0  0  0  0
  9 11  1  1  0  0  0
 10  1  1  0  0  0  0
 11 12  1  0  0  0  0
 13 14  1  1  0  0  0
 13 15  1  0  0  0  0
 13 22  1  0  0  0  0
 14 32  1  0  0  0  0
 15 16  1  6  0  0  0
 15 17  1  0  0  0  0
 16 23  1  0  0  0  0
 17 18  1  1  0  0  0
 17 19  1  0  0  0  0
 19  2  1  6  0  0  0
 19 20  1  0  0  0  0
 20 21  1  1  0  0  0
 20 22  1  0  0  0  0
 23 24  1  0  0  0  0
 24 25  1  0  0  0  0
 25 26  1  0  0  0  0
 26 27  1  0  0  0  0
 27 28  1  0  0  0  0
 28 29  1  0  0  0  0
 29 30  1  0  0  0  0
 31 37  1  0  0  0  0
 32 33  2  0  0  0  0
 34 32  1  6  0  0  0
 34 35  1  0  0  0  0
 34 36  1  0  0  0  0
 36 37  1  0  0  0  0
M  END
>  <CHROM.1>
-133.66215497,-71.61363657,117.76277363,-75.33132141,166.20472301,60.15659119
154.08683995,112.35724570,-73.24235186,-72.54257989,-66.10703730,-67.22301570
-129.16827875,-177.64754928,64.25989057,-8.21344893,16.91017844,4.90292979
2.52391181,0.03143114,0.35771859

>  <Name>
1o9m_lig

>  <RI>
0

>  <Rbt.Current_Directory>
/home/itssahil/PROJECTS/Mol_Feturizer/New_Systems/rnas/1o9m

>  <Rbt.Executable>
rbdock ($Id: //depot/dev/client3/rdock/2013.1/src/exe/rbdock.cxx#4 $)

>  <Rbt.Library>
libRbt.so (2013.1, Build901 2013/11/27)

>  <Rbt.Parameter_File>
/export/apps/rDock/src/rDock_2013.1_src/data/scripts/dock_solv.prm

>  <Rbt.Receptor>
prm/pocket_docking_4.prm

>  <SCORE>
-11.0478

>  <SCORE.INTER>
-10.4839

>  <SCORE.INTER.CONST>
1

>  <SCORE.INTER.POLAR>
-1.83095

>  <SCORE.INTER.ROT>
15

>  <SCORE.INTER.SOLV>
10.8334

>  <SCORE.INTER.VDW>
-18.0973

>  <SCORE.INTER.norm>
-0.283349

>  <SCORE.INTRA>
-0.567994

>  <SCORE.INTRA.DIHEDRAL>
-4.71151

>  <SCORE.INTRA.DIHEDRAL.0>
21.5987

>  <SCORE.INTRA.POLAR>
0

>  <SCORE.INTRA.POLAR.0>
0

>  <SCORE.INTRA.REPUL>
0

>  <SCORE.INTRA.REPUL.0>
0

>  <SCORE.INTRA.SOLV>
3.31219

>  <SCORE.INTRA.SOLV.lig_0>
-108.715

>  <SCORE.INTRA.VDW>
0.131668

>  <SCORE.INTRA.VDW.0>
-3.9485

>  <SCORE.INTRA.norm>
-0.0153512

>  <SCORE.RESTR>
0.00405123

>  <SCORE.RESTR.CAVITY>
0.00405123

>  <SCORE.RESTR.norm>
0.000109493

>  <SCORE.SYSTEM>
0

>  <SCORE.SYSTEM.CONST>
0

>  <SCORE.SYSTEM.DIHEDRAL>
0

>  <SCORE.SYSTEM.SOLV>
0

>  <SCORE.SYSTEM.norm>
0

>  <SCORE.heavy>
37

>  <SCORE.norm>
-0.298591

>  <RMSD>
9.980

$$$$
1o9m_lig
 OpenBabel11021811403D
libRbt.so/2013.1/901 2013/11/27
 37 38  0  0  0  0  0  0  0  0999 V2000
  -10.0335   19.9425    5.8759 C   0  0  2  0  0  0  0  0  0  0  0  0
  -11.3207   20.5142    5.4905 O   0  0  0  0  0  0  0  0  0  0  0  0
   -9.0849   21.1569    6.1916 C   0  0  2  0  0  0  0  0  0  0  0  0
   -9.6163   22.0136    7.2661 N   0  0  0  0  0  0  0  0  0  0  0  0
   -8.8597   21.9905    4.8732 C   0  0  1  0  0  0  0  0  0  0  0  0
   -7.9974   23.1012    5.1343 O   0  0  0  0  0  0  0  0  0  0  0  0
   -8.2748   21.0304    3.7852 C   0  0  2  0  0  0  0  0  0  0  0  0
   -8.0450   21.6868    2.5278 O   0  0  0  0  0  0  0  0  0  0  0  0
   -9.2203   19.8256    3.5550 C   0  0  2  0  0  0  0  0  0  0  0  0
   -9.4764   19.1337    4.7858 O   0  0  0  0  0  0  0  0  0  0  0  0
   -8.6526   18.8557    2.5512 C   0  0  0  0  0  0  0  0  0  0  0  0
   -7.4588   18.3465    3.0039 N   0  0  0  0  0  0  0  0  0  0  0  0
  -14.9744   21.4512    7.6337 C   0  0  1  0  0  0  0  0  0  0  0  0
  -15.8888   22.0382    8.6529 N   0  0  0  0  0  0  0  0  0  0  0  0
  -14.2777   22.5818    6.8888 C   0  0  2  0  0  0  0  0  0  0  0  0
  -15.2626   23.3946    6.3237 O   0  0  0  0  0  0  0  0  0  0  0  0
  -13.3203   22.0126    5.7947 C   0  0  1  0  0  0  0  0  0  0  0  0
  -12.6421   23.1050    5.1026 O   0  0  0  0  0  0  0  0  0  0  0  0
  -12.2303   21.0867    6.4733 C   0  0  1  0  0  0  0  0  0  0  0  0
  -12.9139   19.9419    7.2053 C   0  0  1  0  0  0  0  0  0  0  0  0
  -11.8947   19.0960    7.8082 N   0  0  0  0  0  0  0  0  0  0  0  0
  -13.8805   20.5080    8.2798 C   0  0  0  0  0  0  0  0  0  0  0  0
  -16.4764   24.1721    6.2296 C   0  0  0  0  0  0  0  0  0  0  0  0
  -17.6662   23.2638    6.4388 C   0  0  0  0  0  0  0  0  0  0  0  0
  -18.9472   23.9772    6.6209 N   0  0  0  0  0  0  0  0  0  0  0  0
  -19.9997   25.0176    6.5744 C   0  0  0  0  0  0  0  0  0  0  0  0
  -20.3239   25.0403    8.0735 C   0  0  0  0  0  0  0  0  0  0  0  0
  -19.5202   26.1144    8.8301 C   0  0  0  0  0  0  0  0  0  0  0  0
  -18.0468   25.7309    8.9271 C   0  0  0  0  0  0  0  0  0  0  0  0
  -17.3273   26.7089    9.7309 N   0  0  0  0  0  0  0  0  0  0  0  0
  -18.5781   23.4621   12.5971 N   0  0  0  0  0  0  0  0  0  0  0  0
  -16.4889   20.8029    9.7756 C   0  0  0  0  0  0  0  0  0  0  0  0
  -16.3365   19.7413    9.8936 O   0  0  0  0  0  0  0  0  0  0  0  0
  -17.2760   21.9197   10.4167 C   0  0  2  0  0  0  0  0  0  0  0  0
  -16.4448   22.8842   10.9273 O   0  0  0  0  0  0  0  0  0  0  0  0
  -18.0233   21.3119   11.5985 C   0  0  0  0  0  0  0  0  0  0  0  0
  -19.1469   22.1594   12.2222 C   0  0  0  0  0  0  0  0  0  0  0  0
  1  2  1  6  0  0  0
  1  3  1  0  0  0  0
  3  4  1  1  0  0  0
  3  5  1  0  0  0  0
  5  6  1  1  0  0  0
  5  7  1  0  0  0  0
  7  8  1  6  0  0  0
  9  7  1  0  0  0  0
  9 10  1  0  0  0  0
  9 11  1  6  0  0  0
 10  1  1  0  0  0  0
 11 12  1  0  0  0  0
 13 14  1  1  0  0  0
 13 15  1  0  0  0  0
 13 22  1  0  0  0  0
 14 32  1  0  0  0  0
 15 16  1  6  0  0  0
 15 17  1  0  0  0  0
 16 23  1  0  0  0  0
 17 18  1  1  0  0  0
 17 19  1  0  0  0  0
 19  2  1  6  0  0  0
 19 20  1  0  0  0  0
 20 21  1  1  0  0  0
 20 22  1  0  0  0  0
 23 24  1  0  0  0  0
 24 25  1  0  0  0  0
 25 26  1  0  0  0  0
 26 27  1  0  0  0  0
 27 28  1  0  0  0  0
 28 29  1  0  0  0  0
 29 30  1  0  0  0  0
 31 37  1  0  0  0  0
 32 33  2  0  0  0  0
 34 32  1  1  0  0  0
 34 35  1  0  0  0  0
 34 36  1  0  0  0  0
 36 37  1  0  0  0  0
M  END
>  <CHROM.1>
-75.01175314,61.26979441,-168.57887063,45.89368291,-62.58251124,162.70954189
168.97797451,23.63477309,-127.93870033,93.39472001,-70.89376056,-175.74852663
-62.19597179,-166.23280599,-55.13772112,-13.92531674,22.04298263,7.11915614
-0.13796155,-0.55983894,2.31523482

>  <Name>
1o9m_lig

>  <RI>
0

>  <Rbt.Current_Directory>
/home/itssahil/PROJECTS/Mol_Feturizer/New_Systems/rnas/1o9m

>  <Rbt.Executable>
rbdock ($Id: //depot/dev/client3/rdock/2013.1/src/exe/rbdock.cxx#4 $)

>  <Rbt.Library>
libRbt.so (2013.1, Build901 2013/11/27)

>  <Rbt.Parameter_File>
/export/apps/rDock/src/rDock_2013.1_src/data/scripts/dock_solv.prm

>  <Rbt.Receptor>
prm/pocket_docking_7.prm

>  <SCORE>
-1.62811

>  <SCORE.INTER>
-0.74026

>  <SCORE.INTER.CONST>
1

>  <SCORE.INTER.POLAR>
-2.32907

>  <SCORE.INTER.ROT>
15

>  <SCORE.INTER.SOLV>
10.7498

>  <SCORE.INTER.VDW>
-9.9132

>  <SCORE.INTER.norm>
-0.020007

>  <SCORE.INTRA>
-0.887853

>  <SCORE.INTRA.DIHEDRAL>
-10.3401

>  <SCORE.INTRA.DIHEDRAL.0>
21.5987

>  <SCORE.INTRA.POLAR>
0

>  <SCORE.INTRA.POLAR.0>
0

>  <SCORE.INTRA.REPUL>
0

>  <SCORE.INTRA.REPUL.0>
0

>  <SCORE.INTRA.SOLV>
7.01609

>  <SCORE.INTRA.SOLV.lig_0>
-108.715

>  <SCORE.INTRA.VDW>
0.77414

>  <SCORE.INTRA.VDW.0>
-3.9485

>  <SCORE.INTRA.norm>
-0.023996

>  <SCORE.RESTR>
0

>  <SCORE.RESTR.CAVITY>
0

>  <SCORE.RESTR.norm>
0

>  <SCORE.SYSTEM>
0

>  <SCORE.SYSTEM.CONST>
0

>  <SCORE.SYSTEM.DIHEDRAL>
0

>  <SCORE.SYSTEM.SOLV>
0

>  <SCORE.SYSTEM.norm>
0

>  <SCORE.heavy>
37

>  <SCORE.norm>
-0.044003

>  <RMSD>
10.106

$$$$
1o9m_lig
 OpenBabel11021811403D
libRbt.so/2013.1/901 2013/11/27
 37 38  0  0  0  0  0  0  0  0999 V2000
  -15.7352   21.9733    8.1850 C   0  0  2  0  0  0  0  0  0  0  0  0
  -14.4634   21.9115    8.8997 O   0  0  0  0  0  0  0  0  0  0  0  0
  -16.8592   22.0388    9.2835 C   0  0  2  0  0  0  0  0  0  0  0  0
  -16.7035   23.2050   10.1704 N   0  0  0  0  0  0  0  0  0  0  0  0
  -16.8452   20.6998   10.1147 C   0  0  1  0  0  0  0  0  0  0  0  0
  -17.8613   20.7342   11.1206 O   0  0  0  0  0  0  0  0  0  0  0  0
  -17.0377   19.5081    9.1196 C   0  0  2  0  0  0  0  0  0  0  0  0
  -17.0236   18.2283    9.7730 O   0  0  0  0  0  0  0  0  0  0  0  0
  -15.9387   19.5247    8.0286 C   0  0  2  0  0  0  0  0  0  0  0  0
  -15.9171   20.7853    7.3433 O   0  0  0  0  0  0  0  0  0  0  0  0
  -16.1343   18.4188    7.0239 C   0  0  0  0  0  0  0  0  0  0  0  0
  -15.1349   18.4506    6.0807 N   0  0  0  0  0  0  0  0  0  0  0  0
  -11.5681   22.5517    5.7330 C   0  0  1  0  0  0  0  0  0  0  0  0
  -10.2582   22.7578    5.0537 N   0  0  0  0  0  0  0  0  0  0  0  0
  -11.5384   21.2161    6.4635 C   0  0  2  0  0  0  0  0  0  0  0  0
  -11.2558   20.2203    5.5261 O   0  0  0  0  0  0  0  0  0  0  0  0
  -12.9011   20.9483    7.1770 C   0  0  1  0  0  0  0  0  0  0  0  0
  -12.8528   19.6757    7.8915 O   0  0  0  0  0  0  0  0  0  0  0  0
  -13.1909   22.1049    8.2182 C   0  0  1  0  0  0  0  0  0  0  0  0
  -13.2417   23.4432    7.4970 C   0  0  1  0  0  0  0  0  0  0  0  0
  -13.5237   24.4891    8.4687 N   0  0  0  0  0  0  0  0  0  0  0  0
  -11.8939   23.7004    6.7713 C   0  0  0  0  0  0  0  0  0  0  0  0
  -10.9103   18.9164    5.0091 C   0  0  0  0  0  0  0  0  0  0  0  0
   -9.4445   18.6520    5.2661 C   0  0  0  0  0  0  0  0  0  0  0  0
   -8.9030   17.4872    4.5361 N   0  0  0  0  0  0  0  0  0  0  0  0
   -7.9680   16.5512    3.8711 C   0  0  0  0  0  0  0  0  0  0  0  0
   -7.8639   15.5300    5.0110 C   0  0  0  0  0  0  0  0  0  0  0  0
   -7.2182   16.1277    6.2751 C   0  0  0  0  0  0  0  0  0  0  0  0
   -5.7174   16.3241    6.0847 C   0  0  0  0  0  0  0  0  0  0  0  0
   -5.1289   16.8846    7.2929 N   0  0  0  0  0  0  0  0  0  0  0  0
   -6.7328   20.2787    3.7282 N   0  0  0  0  0  0  0  0  0  0  0  0
  -10.2297   21.9950    3.4525 C   0  0  0  0  0  0  0  0  0  0  0  0
  -10.9377   21.4337    2.8627 O   0  0  0  0  0  0  0  0  0  0  0  0
   -8.8055   22.4857    3.3611 C   0  0  2  0  0  0  0  0  0  0  0  0
   -8.7557   23.7935    2.9498 O   0  0  0  0  0  0  0  0  0  0  0  0
   -8.1212   21.6576    2.2792 C   0  0  0  0  0  0  0  0  0  0  0  0
   -7.7294   20.2156    2.6494 C   0  0  0  0  0  0  0  0  0  0  0  0
  1  2  1  1  0  0  0
  1  3  1  0  0  0  0
  3  4  1  1  0  0  0
  3  5  1  0  0  0  0
  5  6  1  1  0  0  0
  5  7  1  0  0  0  0
  7  8  1  1  0  0  0
  9  7  1  0  0  0  0
  9 10  1  0  0  0  0
  9 11  1  6  0  0  0
 10  1  1  0  0  0  0
 11 12  1  0  0  0  0
 13 14  1  1  0  0  0
 13 15  1  0  0  0  0
 13 22  1  0  0  0  0
 14 32  1  0  0  0  0
 15 16  1  6  0  0  0
 15 17  1  0  0  0  0
 16 23  1  0  0  0  0
 17 18  1  1  0  0  0
 17 19  1  0  0  0  0
 19  2  1  6  0  0  0
 19 20  1  0  0  0  0
 20 21  1  1  0  0  0
 20 22  1  0  0  0  0
 23 24  1  0  0  0  0
 24 25  1  0  0  0  0
 25 26  1  0  0  0  0
 26 27  1  0  0  0  0
 27 28  1  0  0  0  0
 28 29  1  0  0  0  0
 29 30  1  0  0  0  0
 31 37  1  0  0  0  0
 32 33  2  0  0  0  0
 34 32  1  6  0  0  0
 34 35  1  0  0  0  0
 34 36  1  0  0  0  0
 36 37  1  0  0  0  0
M  END
>  <CHROM.1>
-167.70658700,-179.23486337,85.91520439,169.17493552,-73.00796586,-65.56266978
-167.57739489,156.54677357,101.15157811,-64.24134935,-73.26416919,-179.78045789
-82.99871102,-75.75130771,-63.42714575,-11.97018210,20.38717890,6.45387600
-3.09349833,-0.54567036,2.82012879

>  <Name>
1o9m_lig

>  <RI>
0

>  <Rbt.Current_Directory>
/home/itssahil/PROJECTS/Mol_Feturizer/New_Systems/rnas/1o9m

>  <Rbt.Executable>
rbdock ($Id: //depot/dev/client3/rdock/2013.1/src/exe/rbdock.cxx#4 $)

>  <Rbt.Library>
libRbt.so (2013.1, Build901 2013/11/27)

>  <Rbt.Parameter_File>
/export/apps/rDock/src/rDock_2013.1_src/data/scripts/dock_solv.prm

>  <Rbt.Receptor>
prm/pocket_docking_7.prm

>  <SCORE>
-8.19419

>  <SCORE.INTER>
-3.07679

>  <SCORE.INTER.CONST>
1

>  <SCORE.INTER.POLAR>
-1.82089

>  <SCORE.INTER.ROT>
15

>  <SCORE.INTER.SOLV>
11.6456

>  <SCORE.INTER.VDW>
-13.4634

>  <SCORE.INTER.norm>
-0.0831566

>  <SCORE.INTRA>
-5.1174

>  <SCORE.INTRA.DIHEDRAL>
-14.1564

>  <SCORE.INTRA.DIHEDRAL.0>
21.5987

>  <SCORE.INTRA.POLAR>
0

>  <SCORE.INTRA.POLAR.0>
0

>  <SCORE.INTRA.REPUL>
0

>  <SCORE.INTRA.REPUL.0>
0

>  <SCORE.INTRA.SOLV>
6.81833

>  <SCORE.INTRA.SOLV.lig_0>
-108.715

>  <SCORE.INTRA.VDW>
-1.44836

>  <SCORE.INTRA.VDW.0>
-3.9485

>  <SCORE.INTRA.norm>
-0.138308

>  <SCORE.RESTR>
0

>  <SCORE.RESTR.CAVITY>
0

>  <SCORE.RESTR.norm>
0

>  <SCORE.SYSTEM>
0

>  <SCORE.SYSTEM.CONST>
0

>  <SCORE.SYSTEM.DIHEDRAL>
0

>  <SCORE.SYSTEM.SOLV>
0

>  <SCORE.SYSTEM.norm>
0

>  <SCORE.heavy>
37

>  <SCORE.norm>
-0.221465

>  <RMSD>
10.446

$$$$
1o9m_lig
 OpenBabel11021811403D
libRbt.so/2013.1/901 2013/11/27
 37 38  0  0  0  0  0  0  0  0999 V2000
  -15.2307   19.7366    8.4730 C   0  0  2  0  0  0  0  0  0  0  0  0
  -14.8356   20.6371    7.3935 O   0  0  0  0  0  0  0  0  0  0  0  0
  -16.4546   18.9080    7.9345 C   0  0  2  0  0  0  0  0  0  0  0  0
  -16.1197   18.1469    6.7182 N   0  0  0  0  0  0  0  0  0  0  0  0
  -17.6605   19.8867    7.6660 C   0  0  1  0  0  0  0  0  0  0  0  0
  -18.7881   19.1557    7.1765 O   0  0  0  0  0  0  0  0  0  0  0  0
  -17.9784   20.6430    8.9980 C   0  0  2  0  0  0  0  0  0  0  0  0
  -19.0587   21.5808    8.8625 O   0  0  0  0  0  0  0  0  0  0  0  0
  -16.7255   21.3942    9.5119 C   0  0  2  0  0  0  0  0  0  0  0  0
  -15.6179   20.4952    9.6677 O   0  0  0  0  0  0  0  0  0  0  0  0
  -16.9896   22.0857   10.8244 C   0  0  0  0  0  0  0  0  0  0  0  0
  -17.8361   23.1526   10.6383 N   0  0  0  0  0  0  0  0  0  0  0  0
  -11.0033   21.2514    5.4553 C   0  0  1  0  0  0  0  0  0  0  0  0
   -9.5838   21.6574    5.2562 N   0  0  0  0  0  0  0  0  0  0  0  0
  -11.0708   20.2402    6.5917 C   0  0  2  0  0  0  0  0  0  0  0  0
  -10.2451   19.1644    6.2587 O   0  0  0  0  0  0  0  0  0  0  0  0
  -12.5416   19.7710    6.8246 C   0  0  1  0  0  0  0  0  0  0  0  0
  -12.5963   18.8187    7.9303 O   0  0  0  0  0  0  0  0  0  0  0  0
  -13.4460   21.0195    7.1841 C   0  0  1  0  0  0  0  0  0  0  0  0
  -13.4017   22.0291    6.0472 C   0  0  1  0  0  0  0  0  0  0  0  0
  -14.2503   23.1601    6.3913 N   0  0  0  0  0  0  0  0  0  0  0  0
  -11.9370   22.4808    5.8025 C   0  0  0  0  0  0  0  0  0  0  0  0
   -9.0332   18.4437    5.9446 C   0  0  0  0  0  0  0  0  0  0  0  0
   -9.3805   17.0141    5.5980 C   0  0  0  0  0  0  0  0  0  0  0  0
   -8.2083   16.1303    5.4309 N   0  0  0  0  0  0  0  0  0  0  0  0
   -6.9996   15.4835    4.8714 C   0  0  0  0  0  0  0  0  0  0  0  0
   -5.9811   16.5357    5.3278 C   0  0  0  0  0  0  0  0  0  0  0  0
   -5.7793   16.5312    6.8548 C   0  0  0  0  0  0  0  0  0  0  0  0
   -5.0057   15.2950    7.3028 C   0  0  0  0  0  0  0  0  0  0  0  0
   -4.9712   15.2263    8.7568 N   0  0  0  0  0  0  0  0  0  0  0  0
   -4.7283   22.8580    5.4934 N   0  0  0  0  0  0  0  0  0  0  0  0
   -8.9633   22.5572    6.6533 C   0  0  0  0  0  0  0  0  0  0  0  0
   -9.3699   22.8635    7.6046 O   0  0  0  0  0  0  0  0  0  0  0  0
   -7.6783   22.6774    5.8711 C   0  0  2  0  0  0  0  0  0  0  0  0
   -7.0772   21.4546    5.7115 O   0  0  0  0  0  0  0  0  0  0  0  0
   -6.7295   23.5285    6.7077 C   0  0  0  0  0  0  0  0  0  0  0  0
   -5.4486   24.0285    6.0154 C   0  0  0  0  0  0  0  0  0  0  0  0
  1  2  1  6  0  0  0
  1  3  1  0  0  0  0
  3  4  1  6  0  0  0
  3  5  1  0  0  0  0
  5  6  1  1  0  0  0
  5  7  1  0  0  0  0
  7  8  1  6  0  0  0
  9  7  1  0  0  0  0
  9 10  1  0  0  0  0
  9 11  1  1  0  0  0
 10  1  1  0  0  0  0
 11 12  1  0  0  0  0
 13 14  1  1  0  0  0
 13 15  1  0  0  0  0
 13 22  1  0  0  0  0
 14 32  1  0  0  0  0
 15 16  1  6  0  0  0
 15 17  1  0  0  0  0
 16 23  1  0  0  0  0
 17 18  1  1  0  0  0
 17 19  1  0  0  0  0
 19  2  1  6  0  0  0
 19 20  1  0  0  0  0
 20 21  1  1  0  0  0
 20 22  1  0  0  0  0
 23 24  1  0  0  0  0
 24 25  1  0  0  0  0
 25 26  1  0  0  0  0
 26 27  1  0  0  0  0
 27 28  1  0  0  0  0
 28 29  1  0  0  0  0
 29 30  1  0  0  0  0
 31 37  1  0  0  0  0
 32 33  2  0  0  0  0
 34 32  1  1  0  0  0
 34 35  1  0  0  0  0
 34 36  1  0  0  0  0
 36 37  1  0  0  0  0
M  END
>  <CHROM.1>
-146.84454949,-70.24080567,-66.31911228,63.29152466,-175.95822964,62.95698226
-172.35674715,-73.97893253,82.29911708,69.86100859,71.87249004,-172.95487146
-66.87950784,-168.45472734,-56.02417287,-11.60411920,20.15378736,7.08587448
2.96506344,0.22495246,-0.01538514

>  <Name>
1o9m_lig

>  <RI>
0

>  <Rbt.Current_Directory>
/home/itssahil/PROJECTS/Mol_Feturizer/New_Systems/rnas/1o9m

>  <Rbt.Executable>
rbdock ($Id: //depot/dev/client3/rdock/2013.1/src/exe/rbdock.cxx#4 $)

>  <Rbt.Library>
libRbt.so (2013.1, Build901 2013/11/27)

>  <Rbt.Parameter_File>
/export/apps/rDock/src/rDock_2013.1_src/data/scripts/dock_solv.prm

>  <Rbt.Receptor>
prm/pocket_docking_6.prm

>  <SCORE>
-10.0728

>  <SCORE.INTER>
-5.7976

>  <SCORE.INTER.CONST>
1

>  <SCORE.INTER.POLAR>
-2.30299

>  <SCORE.INTER.ROT>
15

>  <SCORE.INTER.SOLV>
10.4297

>  <SCORE.INTER.VDW>
-13.265

>  <SCORE.INTER.norm>
-0.156692

>  <SCORE.INTRA>
-4.30325

>  <SCORE.INTRA.DIHEDRAL>
-13.6421

>  <SCORE.INTRA.DIHEDRAL.0>
21.5987

>  <SCORE.INTRA.POLAR>
0

>  <SCORE.INTRA.POLAR.0>
0

>  <SCORE.INTRA.REPUL>
0

>  <SCORE.INTRA.REPUL.0>
0

>  <SCORE.INTRA.SOLV>
2.93688

>  <SCORE.INTRA.SOLV.lig_0>
-108.715

>  <SCORE.INTRA.VDW>
1.04938

>  <SCORE.INTRA.VDW.0>
-3.9485

>  <SCORE.INTRA.norm>
-0.116304

>  <SCORE.RESTR>
0.0280932

>  <SCORE.RESTR.CAVITY>
0.0280932

>  <SCORE.RESTR.norm>
0.000759276

>  <SCORE.SYSTEM>
0

>  <SCORE.SYSTEM.CONST>
0

>  <SCORE.SYSTEM.DIHEDRAL>
0

>  <SCORE.SYSTEM.SOLV>
0

>  <SCORE.SYSTEM.norm>
0

>  <SCORE.heavy>
37

>  <SCORE.norm>
-0.272237

>  <RMSD>
10.496

$$$$
1o9m_lig
 OpenBabel11021811403D
libRbt.so/2013.1/901 2013/11/27
 37 38  0  0  0  0  0  0  0  0999 V2000
  -13.3548   18.4404    4.5697 C   0  0  2  0  0  0  0  0  0  0  0  0
  -13.1698   19.7503    5.1878 O   0  0  0  0  0  0  0  0  0  0  0  0
  -12.0013   18.0956    3.8461 C   0  0  2  0  0  0  0  0  0  0  0  0
  -10.8610   18.0744    4.7790 N   0  0  0  0  0  0  0  0  0  0  0  0
  -11.7563   19.1373    2.6891 C   0  0  1  0  0  0  0  0  0  0  0  0
  -10.5304   18.8435    2.0136 O   0  0  0  0  0  0  0  0  0  0  0  0
  -12.9882   19.0922    1.7257 C   0  0  2  0  0  0  0  0  0  0  0  0
  -12.8776   20.0216    0.6354 O   0  0  0  0  0  0  0  0  0  0  0  0
  -14.2976   19.3828    2.4998 C   0  0  2  0  0  0  0  0  0  0  0  0
  -14.4546   18.4739    3.5991 O   0  0  0  0  0  0  0  0  0  0  0  0
  -15.5063   19.2900    1.6048 C   0  0  0  0  0  0  0  0  0  0  0  0
  -16.6465   19.5876    2.3125 N   0  0  0  0  0  0  0  0  0  0  0  0
  -16.5374   19.9934    7.9118 C   0  0  1  0  0  0  0  0  0  0  0  0
  -17.4505   20.5161    8.9667 N   0  0  0  0  0  0  0  0  0  0  0  0
  -16.4674   21.0056    6.7765 C   0  0  2  0  0  0  0  0  0  0  0  0
  -17.7661   21.2160    6.3082 O   0  0  0  0  0  0  0  0  0  0  0  0
  -15.5335   20.4904    5.6363 C   0  0  1  0  0  0  0  0  0  0  0  0
  -15.4573   21.4786    4.5639 O   0  0  0  0  0  0  0  0  0  0  0  0
  -14.0780   20.2505    6.2105 C   0  0  1  0  0  0  0  0  0  0  0  0
  -14.1323   19.2262    7.3338 C   0  0  1  0  0  0  0  0  0  0  0  0
  -12.7839   19.0098    7.8364 N   0  0  0  0  0  0  0  0  0  0  0  0
  -15.0762   19.7295    8.4585 C   0  0  0  0  0  0  0  0  0  0  0  0
  -19.1229   21.7108    6.2773 C   0  0  0  0  0  0  0  0  0  0  0  0
  -19.1191   23.1430    5.7944 C   0  0  0  0  0  0  0  0  0  0  0  0
  -18.4199   24.0830    6.6946 N   0  0  0  0  0  0  0  0  0  0  0  0
  -17.9383   25.3302    7.3310 C   0  0  0  0  0  0  0  0  0  0  0  0
  -16.7560   24.7206    8.0948 C   0  0  0  0  0  0  0  0  0  0  0  0
  -15.8421   25.7952    8.7132 C   0  0  0  0  0  0  0  0  0  0  0  0
  -16.4615   26.3810    9.9783 C   0  0  0  0  0  0  0  0  0  0  0  0
  -17.6370   27.1710    9.6401 N   0  0  0  0  0  0  0  0  0  0  0  0
  -19.4373   21.8389   13.2864 N   0  0  0  0  0  0  0  0  0  0  0  0
  -16.7167   21.8687    9.8492 C   0  0  0  0  0  0  0  0  0  0  0  0
  -15.7786   22.3983    9.7899 O   0  0  0  0  0  0  0  0  0  0  0  0
  -17.9813   21.8786   10.6728 C   0  0  2  0  0  0  0  0  0  0  0  0
  -19.0338   22.3967    9.9616 O   0  0  0  0  0  0  0  0  0  0  0  0
  -17.7369   22.8207   11.8465 C   0  0  0  0  0  0  0  0  0  0  0  0
  -18.9380   23.1184   12.7622 C   0  0  0  0  0  0  0  0  0  0  0  0
  1  2  1  6  0  0  0
  1  3  1  0  0  0  0
  3  4  1  1  0  0  0
  3  5  1  0  0  0  0
  5  6  1  6  0  0  0
  5  7  1  0  0  0  0
  7  8  1  6  0  0  0
  9  7  1  0  0  0  0
  9 10  1  0  0  0  0
  9 11  1  6  0  0  0
 10  1  1  0  0  0  0
 11 12  1  0  0  0  0
 13 14  1  1  0  0  0
 13 15  1  0  0  0  0
 13 22  1  0  0  0  0
 14 32  1  0  0  0  0
 15 16  1  6  0  0  0
 15 17  1  0  0  0  0
 16 23  1  0  0  0  0
 17 18  1  6  0  0  0
 17 19  1  0  0  0  0
 19  2  1  6  0  0  0
 19 20  1  0  0  0  0
 20 21  1  1  0  0  0
 20 22  1  0  0  0  0
 23 24  1  0  0  0  0
 24 25  1  0  0  0  0
 25 26  1  0  0  0  0
 26 27  1  0  0  0  0
 27 28  1  0  0  0  0
 28 29  1  0  0  0  0
 29 30  1  0  0  0  0
 31 37  1  0  0  0  0
 32 33  2  0  0  0  0
 34 32  1  6  0  0  0
 34 35  1  0  0  0  0
 34 36  1  0  0  0  0
 36 37  1  0  0  0  0
M  END
>  <CHROM.1>
-164.57504329,-178.40353012,-71.92438106,75.50214361,80.02651065,-65.35792198
-64.25208499,-166.21952902,-163.32205506,170.21906184,77.32487528,-68.76089338
-73.63920597,173.79502714,57.37447773,-15.69063709,21.24627786,6.62377557
-0.68731999,-0.85774119,1.74631884

>  <Name>
1o9m_lig

>  <RI>
0

>  <Rbt.Current_Directory>
/home/itssahil/PROJECTS/Mol_Feturizer/New_Systems/rnas/1o9m

>  <Rbt.Executable>
rbdock ($Id: //depot/dev/client3/rdock/2013.1/src/exe/rbdock.cxx#4 $)

>  <Rbt.Library>
libRbt.so (2013.1, Build901 2013/11/27)

>  <Rbt.Parameter_File>
/export/apps/rDock/src/rDock_2013.1_src/data/scripts/dock_solv.prm

>  <Rbt.Receptor>
prm/pocket_docking_8.prm

>  <SCORE>
-7.28333

>  <SCORE.INTER>
-1.92135

>  <SCORE.INTER.CONST>
1

>  <SCORE.INTER.POLAR>
-1.64037

>  <SCORE.INTER.ROT>
15

>  <SCORE.INTER.SOLV>
11.7365

>  <SCORE.INTER.VDW>
-13.3252

>  <SCORE.INTER.norm>
-0.0519283

>  <SCORE.INTRA>
-5.36198

>  <SCORE.INTRA.DIHEDRAL>
-13.9683

>  <SCORE.INTRA.DIHEDRAL.0>
21.5987

>  <SCORE.INTRA.POLAR>
0

>  <SCORE.INTRA.POLAR.0>
0

>  <SCORE.INTRA.REPUL>
0

>  <SCORE.INTRA.REPUL.0>
0

>  <SCORE.INTRA.SOLV>
7.14894

>  <SCORE.INTRA.SOLV.lig_0>
-108.715

>  <SCORE.INTRA.VDW>
-1.95229

>  <SCORE.INTRA.VDW.0>
-3.9485

>  <SCORE.INTRA.norm>
-0.144918

>  <SCORE.RESTR>
0

>  <SCORE.RESTR.CAVITY>
0

>  <SCORE.RESTR.norm>
0

>  <SCORE.SYSTEM>
0

>  <SCORE.SYSTEM.CONST>
0

>  <SCORE.SYSTEM.DIHEDRAL>
0

>  <SCORE.SYSTEM.SOLV>
0

>  <SCORE.SYSTEM.norm>
0

>  <SCORE.heavy>
37

>  <SCORE.norm>
-0.196847

>  <RMSD>
10.630

$$$$
1o9m_lig
 OpenBabel11021811403D
libRbt.so/2013.1/901 2013/11/27
 37 38  0  0  0  0  0  0  0  0999 V2000
   -3.9503   17.4495    4.2098 C   0  0  2  0  0  0  0  0  0  0  0  0
   -3.9228   16.2639    5.0618 O   0  0  0  0  0  0  0  0  0  0  0  0
   -3.8472   18.6900    5.1715 C   0  0  2  0  0  0  0  0  0  0  0  0
   -2.6195   18.6627    5.9857 N   0  0  0  0  0  0  0  0  0  0  0  0
   -5.1260   18.7356    6.0916 C   0  0  1  0  0  0  0  0  0  0  0  0
   -5.0567   19.8578    6.9755 O   0  0  0  0  0  0  0  0  0  0  0  0
   -6.3876   18.7869    5.1680 C   0  0  2  0  0  0  0  0  0  0  0  0
   -7.6194   18.8141    5.9076 O   0  0  0  0  0  0  0  0  0  0  0  0
   -6.4092   17.5741    4.2052 C   0  0  2  0  0  0  0  0  0  0  0  0
   -5.1975   17.5073    3.4392 O   0  0  0  0  0  0  0  0  0  0  0  0
   -7.5859   17.6293    3.2656 C   0  0  0  0  0  0  0  0  0  0  0  0
   -7.4698   18.7070    2.4203 N   0  0  0  0  0  0  0  0  0  0  0  0
   -3.9290   13.0265    2.1739 C   0  0  1  0  0  0  0  0  0  0  0  0
   -3.8918   11.6441    1.6199 N   0  0  0  0  0  0  0  0  0  0  0  0
   -5.1282   13.1515    3.1038 C   0  0  2  0  0  0  0  0  0  0  0  0
   -6.2742   12.8342    2.3716 O   0  0  0  0  0  0  0  0  0  0  0  0
   -5.2185   14.5936    3.6953 C   0  0  1  0  0  0  0  0  0  0  0  0
   -6.3590   14.6946    4.6017 O   0  0  0  0  0  0  0  0  0  0  0  0
   -3.8968   14.9191    4.5035 C   0  0  1  0  0  0  0  0  0  0  0  0
   -2.6926   14.8159    3.5799 C   0  0  1  0  0  0  0  0  0  0  0  0
   -1.4917   15.1331    4.3381 N   0  0  0  0  0  0  0  0  0  0  0  0
   -2.6141   13.3880    2.9764 C   0  0  0  0  0  0  0  0  0  0  0  0
   -7.6739   12.7756    2.0191 C   0  0  0  0  0  0  0  0  0  0  0  0
   -7.8783   11.7065    0.9704 C   0  0  0  0  0  0  0  0  0  0  0  0
   -7.8732   10.3283    1.5027 N   0  0  0  0  0  0  0  0  0  0  0  0
   -7.6820    8.8650    1.6233 C   0  0  0  0  0  0  0  0  0  0  0  0
   -6.1490    8.8592    1.5692 C   0  0  0  0  0  0  0  0  0  0  0  0
   -5.5669    7.4341    1.6196 C   0  0  0  0  0  0  0  0  0  0  0  0
   -5.9280    6.6487    0.3626 C   0  0  0  0  0  0  0  0  0  0  0  0
   -5.3727    5.3046    0.4359 N   0  0  0  0  0  0  0  0  0  0  0  0
   -3.0277    7.8135   -3.0195 N   0  0  0  0  0  0  0  0  0  0  0  0
   -3.1434   11.6085    0.0120 C   0  0  0  0  0  0  0  0  0  0  0  0
   -2.7057   12.3469   -0.6417 O   0  0  0  0  0  0  0  0  0  0  0  0
   -3.4326   10.1274    0.0267 C   0  0  2  0  0  0  0  0  0  0  0  0
   -2.6002    9.4669    0.8944 O   0  0  0  0  0  0  0  0  0  0  0  0
   -3.1193    9.6019   -1.3698 C   0  0  0  0  0  0  0  0  0  0  0  0
   -3.4884    8.1361   -1.6613 C   0  0  0  0  0  0  0  0  0  0  0  0
  1  2  1  1  0  0  0
  1  3  1  0  0  0  0
  3  4  1  1  0  0  0
  3  5  1  0  0  0  0
  5  6  1  1  0  0  0
  5  7  1  0  0  0  0
  7  8  1  1  0  0  0
  9  7  1  0  0  0  0
  9 10  1  0  0  0  0
  9 11  1  6  0  0  0
 10  1  1  0  0  0  0
 11 12  1  0  0  0  0
 13 14  1  1  0  0  0
 13 15  1  0  0  0  0
 13 22  1  0  0  0  0
 14 32  1  0  0  0  0
 15 16  1  6  0  0  0
 15 17  1  0  0  0  0
 16 23  1  0  0  0  0
 17 18  1  1  0  0  0
 17 19  1  0  0  0  0
 19  2  1  6  0  0  0
 19 20  1  0  0  0  0
 20 21  1  1  0  0  0
 20 22  1  0  0  0  0
 23 24  1  0  0  0  0
 24 25  1  0  0  0  0
 25 26  1  0  0  0  0
 26 27  1  0  0  0  0
 27 28  1  0  0  0  0
 28 29  1  0  0  0  0
 29 30  1  0  0  0  0
 31 37  1  0  0  0  0
 32 33  2  0  0  0  0
 34 32  1  6  0  0  0
 34 35  1  0  0  0  0
 34 36  1  0  0  0  0
 36 37  1  0  0  0  0
M  END
>  <CHROM.1>
-175.23012536,65.54579141,150.86306469,-160.34690090,-164.25251002,-64.35481039
77.39122831,-147.17506927,64.83945053,-177.88211385,66.62752043,-179.74419030
-72.32821063,-173.15416755,-176.45367933,-4.94409212,13.47157381,2.58733138
-1.62198647,-0.14033320,-2.66152432

>  <Name>
1o9m_lig

>  <RI>
0

>  <Rbt.Current_Directory>
/home/itssahil/PROJECTS/Mol_Feturizer/New_Systems/rnas/1o9m

>  <Rbt.Executable>
rbdock ($Id: //depot/dev/client3/rdock/2013.1/src/exe/rbdock.cxx#4 $)

>  <Rbt.Library>
libRbt.so (2013.1, Build901 2013/11/27)

>  <Rbt.Parameter_File>
/export/apps/rDock/src/rDock_2013.1_src/data/scripts/dock_solv.prm

>  <Rbt.Receptor>
prm/pocket_docking_7.prm

>  <SCORE>
-12.2807

>  <SCORE.INTER>
-4.93577

>  <SCORE.INTER.CONST>
1

>  <SCORE.INTER.POLAR>
-0.245616

>  <SCORE.INTER.ROT>
15

>  <SCORE.INTER.SOLV>
12.5143

>  <SCORE.INTER.VDW>
-20.2432

>  <SCORE.INTER.norm>
-0.133399

>  <SCORE.INTRA>
-7.34498

>  <SCORE.INTRA.DIHEDRAL>
-14.7307

>  <SCORE.INTRA.DIHEDRAL.0>
21.5987

>  <SCORE.INTRA.POLAR>
0

>  <SCORE.INTRA.POLAR.0>
0

>  <SCORE.INTRA.REPUL>
0

>  <SCORE.INTRA.REPUL.0>
0

>  <SCORE.INTRA.SOLV>
2.21717

>  <SCORE.INTRA.SOLV.lig_0>
-108.715

>  <SCORE.INTRA.VDW>
-1.08824

>  <SCORE.INTRA.VDW.0>
-3.9485

>  <SCORE.INTRA.norm>
-0.198513

>  <SCORE.RESTR>
0

>  <SCORE.RESTR.CAVITY>
0

>  <SCORE.RESTR.norm>
0

>  <SCORE.SYSTEM>
0

>  <SCORE.SYSTEM.CONST>
0

>  <SCORE.SYSTEM.DIHEDRAL>
0

>  <SCORE.SYSTEM.SOLV>
0

>  <SCORE.SYSTEM.norm>
0

>  <SCORE.heavy>
37

>  <SCORE.norm>
-0.331912

>  <RMSD>
10.977

$$$$
1o9m_lig
 OpenBabel11021811403D
libRbt.so/2013.1/901 2013/11/27
 37 38  0  0  0  0  0  0  0  0999 V2000
   -4.5447   16.9810    4.5718 C   0  0  2  0  0  0  0  0  0  0  0  0
   -3.9516   15.8901    5.3402 O   0  0  0  0  0  0  0  0  0  0  0  0
   -4.7741   18.1634    5.5836 C   0  0  2  0  0  0  0  0  0  0  0  0
   -3.5206   18.5993    6.2238 N   0  0  0  0  0  0  0  0  0  0  0  0
   -5.8279   17.7166    6.6669 C   0  0  1  0  0  0  0  0  0  0  0  0
   -6.0554   18.7771    7.5992 O   0  0  0  0  0  0  0  0  0  0  0  0
   -7.1374   17.2906    5.9244 C   0  0  2  0  0  0  0  0  0  0  0  0
   -8.1676   16.8455    6.8219 O   0  0  0  0  0  0  0  0  0  0  0  0
   -6.8439   16.1647    4.9023 C   0  0  2  0  0  0  0  0  0  0  0  0
   -5.8210   16.5658    3.9791 O   0  0  0  0  0  0  0  0  0  0  0  0
   -8.0794   15.7746    4.1329 C   0  0  0  0  0  0  0  0  0  0  0  0
   -8.5505   16.8471    3.4138 N   0  0  0  0  0  0  0  0  0  0  0  0
   -3.6104   12.7248    2.3931 C   0  0  1  0  0  0  0  0  0  0  0  0
   -3.2377   11.4219    1.7741 N   0  0  0  0  0  0  0  0  0  0  0  0
   -4.4603   12.4574    3.6279 C   0  0  2  0  0  0  0  0  0  0  0  0
   -5.5727   11.7127    3.2303 O   0  0  0  0  0  0  0  0  0  0  0  0
   -4.8909   13.7987    4.3009 C   0  0  1  0  0  0  0  0  0  0  0  0
   -5.6866   13.5289    5.4953 O   0  0  0  0  0  0  0  0  0  0  0  0
   -3.6036   14.6180    4.7224 C   0  0  1  0  0  0  0  0  0  0  0  0
   -2.7553   14.9078    3.4935 C   0  0  1  0  0  0  0  0  0  0  0  0
   -1.5867   15.6734    3.9005 N   0  0  0  0  0  0  0  0  0  0  0  0
   -2.3436   13.5749    2.8130 C   0  0  0  0  0  0  0  0  0  0  0  0
   -6.3300   10.6172    2.6709 C   0  0  0  0  0  0  0  0  0  0  0  0
   -7.7970   10.9809    2.6604 C   0  0  0  0  0  0  0  0  0  0  0  0
   -8.6225   10.1390    1.7700 N   0  0  0  0  0  0  0  0  0  0  0  0
   -9.7770    9.5814    1.0293 C   0  0  0  0  0  0  0  0  0  0  0  0
  -10.2104   10.8767    0.3313 C   0  0  0  0  0  0  0  0  0  0  0  0
   -9.2487   11.2812   -0.8017 C   0  0  0  0  0  0  0  0  0  0  0  0
   -9.5389   10.4936   -2.0756 C   0  0  0  0  0  0  0  0  0  0  0  0
   -9.2337    9.0844   -1.8728 N   0  0  0  0  0  0  0  0  0  0  0  0
   -2.9262    7.8600   -3.0810 N   0  0  0  0  0  0  0  0  0  0  0  0
   -2.9529   11.5885    0.0312 C   0  0  0  0  0  0  0  0  0  0  0  0
   -2.9769   12.4079   -0.6703 O   0  0  0  0  0  0  0  0  0  0  0  0
   -2.6983   10.1010    0.0382 C   0  0  2  0  0  0  0  0  0  0  0  0
   -1.4123    9.8185    0.4235 O   0  0  0  0  0  0  0  0  0  0  0  0
   -2.8417    9.6212   -1.4019 C   0  0  0  0  0  0  0  0  0  0  0  0
   -2.8163    8.0997   -1.6348 C   0  0  0  0  0  0  0  0  0  0  0  0
  1  2  1  1  0  0  0
  1  3  1  0  0  0  0
  3  4  1  1  0  0  0
  3  5  1  0  0  0  0
  5  6  1  1  0  0  0
  5  7  1  0  0  0  0
  7  8  1  1  0  0  0
  9  7  1  0  0  0  0
  9 10  1  0  0  0  0
  9 11  1  6  0  0  0
 10  1  1  0  0  0  0
 11 12  1  0  0  0  0
 13 14  1  1  0  0  0
 13 15  1  0  0  0  0
 13 22  1  0  0  0  0
 14 32  1  0  0  0  0
 15 16  1  6  0  0  0
 15 17  1  0  0  0  0
 16 23  1  0  0  0  0
 17 18  1  1  0  0  0
 17 19  1  0  0  0  0
 19  2  1  6  0  0  0
 19 20  1  0  0  0  0
 20 21  1  1  0  0  0
 20 22  1  0  0  0  0
 23 24  1  0  0  0  0
 24 25  1  0  0  0  0
 25 26  1  0  0  0  0
 26 27  1  0  0  0  0
 27 28  1  0  0  0  0
 28 29  1  0  0  0  0
 29 30  1  0  0  0  0
 31 37  1  0  0  0  0
 32 33  2  0  0  0  0
 34 32  1  6  0  0  0
 34 35  1  0  0  0  0
 34 36  1  0  0  0  0
 36 37  1  0  0  0  0
M  END
>  <CHROM.1>
179.81628858,61.57514612,152.99372320,59.46862041,-174.71924179,-69.32130710
162.95861019,-178.16141521,55.43295099,73.06660190,80.72941658,-66.50403241
-82.62152766,-171.94704996,-178.27737940,-5.42822138,13.31841486,2.67652062
-1.58184615,-0.02097879,-2.42398306

>  <Name>
1o9m_lig

>  <RI>
0

>  <Rbt.Current_Directory>
/home/itssahil/PROJECTS/Mol_Feturizer/New_Systems/rnas/1o9m

>  <Rbt.Executable>
rbdock ($Id: //depot/dev/client3/rdock/2013.1/src/exe/rbdock.cxx#4 $)

>  <Rbt.Library>
libRbt.so (2013.1, Build901 2013/11/27)

>  <Rbt.Parameter_File>
/export/apps/rDock/src/rDock_2013.1_src/data/scripts/dock_solv.prm

>  <Rbt.Receptor>
prm/pocket_docking_7.prm

>  <SCORE>
-18.9919

>  <SCORE.INTER>
-13.3535

>  <SCORE.INTER.CONST>
1

>  <SCORE.INTER.POLAR>
-0.770578

>  <SCORE.INTER.ROT>
15

>  <SCORE.INTER.SOLV>
13.9914

>  <SCORE.INTER.VDW>
-24.5975

>  <SCORE.INTER.norm>
-0.360906

>  <SCORE.INTRA>
-5.63835

>  <SCORE.INTRA.DIHEDRAL>
-15.6554

>  <SCORE.INTRA.DIHEDRAL.0>
21.5987

>  <SCORE.INTRA.POLAR>
0

>  <SCORE.INTRA.POLAR.0>
0

>  <SCORE.INTRA.REPUL>
0

>  <SCORE.INTRA.REPUL.0>
0

>  <SCORE.INTRA.SOLV>
3.1175

>  <SCORE.INTRA.SOLV.lig_0>
-108.715

>  <SCORE.INTRA.VDW>
0.630607

>  <SCORE.INTRA.VDW.0>
-3.9485

>  <SCORE.INTRA.norm>
-0.152388

>  <SCORE.RESTR>
0

>  <SCORE.RESTR.CAVITY>
0

>  <SCORE.RESTR.norm>
0

>  <SCORE.SYSTEM>
0

>  <SCORE.SYSTEM.CONST>
0

>  <SCORE.SYSTEM.DIHEDRAL>
0

>  <SCORE.SYSTEM.SOLV>
0

>  <SCORE.SYSTEM.norm>
0

>  <SCORE.heavy>
37

>  <SCORE.norm>
-0.513294

>  <RMSD>
11.076

$$$$
1o9m_lig
 OpenBabel11021811403D
libRbt.so/2013.1/901 2013/11/27
 37 38  0  0  0  0  0  0  0  0999 V2000
   -5.5236   15.8863    6.0484 C   0  0  2  0  0  0  0  0  0  0  0  0
   -4.7429   15.9035    4.8145 O   0  0  0  0  0  0  0  0  0  0  0  0
   -6.0751   17.3463    6.2454 C   0  0  2  0  0  0  0  0  0  0  0  0
   -6.9056   17.7854    5.1103 N   0  0  0  0  0  0  0  0  0  0  0  0
   -4.8628   18.3295    6.4631 C   0  0  1  0  0  0  0  0  0  0  0  0
   -5.3392   19.6654    6.6467 O   0  0  0  0  0  0  0  0  0  0  0  0
   -4.0392   17.8208    7.6921 C   0  0  2  0  0  0  0  0  0  0  0  0
   -2.8922   18.6398    7.9722 O   0  0  0  0  0  0  0  0  0  0  0  0
   -3.5697   16.3621    7.4689 C   0  0  2  0  0  0  0  0  0  0  0  0
   -4.6846   15.5028    7.1893 O   0  0  0  0  0  0  0  0  0  0  0  0
   -2.8213   15.8286    8.6630 C   0  0  0  0  0  0  0  0  0  0  0  0
   -2.2907   14.5929    8.3790 N   0  0  0  0  0  0  0  0  0  0  0  0
   -3.6976   12.6805    2.1053 C   0  0  1  0  0  0  0  0  0  0  0  0
   -3.0405   11.4517    1.5781 N   0  0  0  0  0  0  0  0  0  0  0  0
   -4.4633   12.3237    3.3721 C   0  0  2  0  0  0  0  0  0  0  0  0
   -5.3788   11.3189    3.0519 O   0  0  0  0  0  0  0  0  0  0  0  0
   -5.1856   13.5808    3.9515 C   0  0  1  0  0  0  0  0  0  0  0  0
   -5.8979   13.2308    5.1773 O   0  0  0  0  0  0  0  0  0  0  0  0
   -4.1167   14.6993    4.2867 C   0  0  1  0  0  0  0  0  0  0  0  0
   -3.3577   15.0779    3.0240 C   0  0  1  0  0  0  0  0  0  0  0  0
   -2.3922   16.1164    3.3510 N   0  0  0  0  0  0  0  0  0  0  0  0
   -2.6557   13.8242    2.4371 C   0  0  0  0  0  0  0  0  0  0  0  0
   -5.8687   10.0102    2.6863 C   0  0  0  0  0  0  0  0  0  0  0  0
   -7.3359   10.1083    2.3367 C   0  0  0  0  0  0  0  0  0  0  0  0
   -7.6010   10.6356    0.9822 N   0  0  0  0  0  0  0  0  0  0  0  0
   -8.0350   11.5139   -0.1281 C   0  0  0  0  0  0  0  0  0  0  0  0
   -9.5475   11.3575    0.0736 C   0  0  0  0  0  0  0  0  0  0  0  0
  -10.3566   11.9078   -1.1158 C   0  0  0  0  0  0  0  0  0  0  0  0
  -10.4656   10.8730   -2.2314 C   0  0  0  0  0  0  0  0  0  0  0  0
   -9.1374   10.4564   -2.6587 N   0  0  0  0  0  0  0  0  0  0  0  0
   -4.2099    6.8417   -0.5053 N   0  0  0  0  0  0  0  0  0  0  0  0
   -2.8842   11.5053   -0.1881 C   0  0  0  0  0  0  0  0  0  0  0  0
   -3.1428   12.2188   -0.9550 O   0  0  0  0  0  0  0  0  0  0  0  0
   -2.2673   10.1332   -0.0689 C   0  0  2  0  0  0  0  0  0  0  0  0
   -1.3380    9.9186   -1.0550 O   0  0  0  0  0  0  0  0  0  0  0  0
   -3.3879    9.1238   -0.2930 C   0  0  0  0  0  0  0  0  0  0  0  0
   -3.0191    7.6346   -0.1665 C   0  0  0  0  0  0  0  0  0  0  0  0
  1  2  1  6  0  0  0
  1  3  1  0  0  0  0
  3  4  1  6  0  0  0
  3  5  1  0  0  0  0
  5  6  1  1  0  0  0
  5  7  1  0  0  0  0
  7  8  1  6  0  0  0
  9  7  1  0  0  0  0
  9 10  1  0  0  0  0
  9 11  1  1  0  0  0
 10  1  1  0  0  0  0
 11 12  1  0  0  0  0
 13 14  1  1  0  0  0
 13 15  1  0  0  0  0
 13 22  1  0  0  0  0
 14 32  1  0  0  0  0
 15 16  1  6  0  0  0
 15 17  1  0  0  0  0
 16 23  1  0  0  0  0
 17 18  1  1  0  0  0
 17 19  1  0  0  0  0
 19  2  1  6  0  0  0
 19 20  1  0  0  0  0
 20 21  1  1  0  0  0
 20 22  1  0  0  0  0
 23 24  1  0  0  0  0
 24 25  1  0  0  0  0
 25 26  1  0  0  0  0
 26 27  1  0  0  0  0
 27 28  1  0  0  0  0
 28 29  1  0  0  0  0
 29 30  1  0  0  0  0
 31 37  1  0  0  0  0
 32 33  2  0  0  0  0
 34 32  1  6  0  0  0
 34 35  1  0  0  0  0
 34 36  1  0  0  0  0
 36 37  1  0  0  0  0
M  END
>  <CHROM.1>
-177.67128745,-173.28144702,149.84707907,70.60249947,-169.58621296,60.77785240
78.94724664,-112.41979507,-70.09069968,-167.55416124,83.79224667,-56.90520530
-148.88582277,-177.67736069,-176.29554230,-4.93197182,13.31314865,3.03188350
1.39768798,-0.25562845,0.76169620

>  <Name>
1o9m_lig

>  <RI>
0

>  <Rbt.Current_Directory>
/home/itssahil/PROJECTS/Mol_Feturizer/New_Systems/rnas/1o9m

>  <Rbt.Executable>
rbdock ($Id: //depot/dev/client3/rdock/2013.1/src/exe/rbdock.cxx#4 $)

>  <Rbt.Library>
libRbt.so (2013.1, Build901 2013/11/27)

>  <Rbt.Parameter_File>
/export/apps/rDock/src/rDock_2013.1_src/data/scripts/dock_solv.prm

>  <Rbt.Receptor>
prm/pocket_docking_8.prm

>  <SCORE>
-19.4943

>  <SCORE.INTER>
-13.3861

>  <SCORE.INTER.CONST>
1

>  <SCORE.INTER.POLAR>
-0.860014

>  <SCORE.INTER.ROT>
15

>  <SCORE.INTER.SOLV>
14.9827

>  <SCORE.INTER.VDW>
-24.6515

>  <SCORE.INTER.norm>
-0.361785

>  <SCORE.INTRA>
-6.10824

>  <SCORE.INTRA.DIHEDRAL>
-12.618

>  <SCORE.INTRA.DIHEDRAL.0>
21.5987

>  <SCORE.INTRA.POLAR>
0

>  <SCORE.INTRA.POLAR.0>
0

>  <SCORE.INTRA.REPUL>
0

>  <SCORE.INTRA.REPUL.0>
0

>  <SCORE.INTRA.SOLV>
0.616964

>  <SCORE.INTRA.SOLV.lig_0>
-108.715

>  <SCORE.INTRA.VDW>
-0.107724

>  <SCORE.INTRA.VDW.0>
-3.9485

>  <SCORE.INTRA.norm>
-0.165087

>  <SCORE.RESTR>
0

>  <SCORE.RESTR.CAVITY>
0

>  <SCORE.RESTR.norm>
0

>  <SCORE.SYSTEM>
0

>  <SCORE.SYSTEM.CONST>
0

>  <SCORE.SYSTEM.DIHEDRAL>
0

>  <SCORE.SYSTEM.SOLV>
0

>  <SCORE.SYSTEM.norm>
0

>  <SCORE.heavy>
37

>  <SCORE.norm>
-0.526873

>  <RMSD>
11.136

$$$$
1o9m_lig
 OpenBabel11021811403D
libRbt.so/2013.1/901 2013/11/27
 37 38  0  0  0  0  0  0  0  0999 V2000
  -15.4052   21.3304    9.2698 C   0  0  2  0  0  0  0  0  0  0  0  0
  -15.5581   20.6982    7.9624 O   0  0  0  0  0  0  0  0  0  0  0  0
  -16.6134   20.8348   10.1467 C   0  0  2  0  0  0  0  0  0  0  0  0
  -16.6409   19.3675   10.2782 N   0  0  0  0  0  0  0  0  0  0  0  0
  -17.9577   21.3639    9.5168 C   0  0  1  0  0  0  0  0  0  0  0  0
  -19.0730   20.9273   10.2985 O   0  0  0  0  0  0  0  0  0  0  0  0
  -17.8719   22.9234    9.4277 C   0  0  2  0  0  0  0  0  0  0  0  0
  -19.0466   23.5142    8.8480 O   0  0  0  0  0  0  0  0  0  0  0  0
  -16.6352   23.3559    8.6020 C   0  0  2  0  0  0  0  0  0  0  0  0
  -15.4334   22.7922    9.1472 O   0  0  0  0  0  0  0  0  0  0  0  0
  -16.4979   24.8555    8.5480 C   0  0  0  0  0  0  0  0  0  0  0  0
  -16.3978   25.3703    9.8186 N   0  0  0  0  0  0  0  0  0  0  0  0
  -12.7446   19.6848    4.8195 C   0  0  1  0  0  0  0  0  0  0  0  0
  -11.7212   19.8496    3.7494 N   0  0  0  0  0  0  0  0  0  0  0  0
  -12.1846   20.2347    6.1243 C   0  0  2  0  0  0  0  0  0  0  0  0
  -10.9988   19.5522    6.4040 O   0  0  0  0  0  0  0  0  0  0  0  0
  -13.2187   20.0659    7.2818 C   0  0  1  0  0  0  0  0  0  0  0  0
  -12.6790   20.6162    8.5222 O   0  0  0  0  0  0  0  0  0  0  0  0
  -14.5511   20.8400    6.9199 C   0  0  1  0  0  0  0  0  0  0  0  0
  -15.1307   20.2863    5.6270 C   0  0  1  0  0  0  0  0  0  0  0  0
  -16.3610   21.0007    5.3211 N   0  0  0  0  0  0  0  0  0  0  0  0
  -14.0952   20.4362    4.4805 C   0  0  0  0  0  0  0  0  0  0  0  0
   -9.6423   19.0848    6.2363 C   0  0  0  0  0  0  0  0  0  0  0  0
   -9.2578   18.2366    7.4267 C   0  0  0  0  0  0  0  0  0  0  0  0
   -8.0022   17.4785    7.2490 N   0  0  0  0  0  0  0  0  0  0  0  0
   -6.5674   17.1426    7.1035 C   0  0  0  0  0  0  0  0  0  0  0  0
   -6.7187   16.1011    5.9875 C   0  0  0  0  0  0  0  0  0  0  0  0
   -5.3636   15.6936    5.3795 C   0  0  0  0  0  0  0  0  0  0  0  0
   -5.5446   14.6394    4.2918 C   0  0  0  0  0  0  0  0  0  0  0  0
   -5.8530   13.3491    4.8921 N   0  0  0  0  0  0  0  0  0  0  0  0
   -8.0649   19.5269    0.1999 N   0  0  0  0  0  0  0  0  0  0  0  0
  -10.9486   18.3046    3.3458 C   0  0  0  0  0  0  0  0  0  0  0  0
  -11.0568   17.2864    3.6858 O   0  0  0  0  0  0  0  0  0  0  0  0
  -10.1143   19.0981    2.3702 C   0  0  2  0  0  0  0  0  0  0  0  0
  -10.7077   19.1479    1.1343 O   0  0  0  0  0  0  0  0  0  0  0  0
   -8.8001   18.3446    2.1975 C   0  0  0  0  0  0  0  0  0  0  0  0
   -7.6373   19.1135    1.5443 C   0  0  0  0  0  0  0  0  0  0  0  0
  1  2  1  6  0  0  0
  1  3  1  0  0  0  0
  3  4  1  6  0  0  0
  3  5  1  0  0  0  0
  5  6  1  1  0  0  0
  5  7  1  0  0  0  0
  7  8  1  6  0  0  0
  9  7  1  0  0  0  0
  9 10  1  0  0  0  0
  9 11  1  1  0  0  0
 10  1  1  0  0  0  0
 11 12  1  0  0  0  0
 13 14  1  6  0  0  0
 13 15  1  0  0  0  0
 13 22  1  0  0  0  0
 14 32  1  0  0  0  0
 15 16  1  1  0  0  0
 15 17  1  0  0  0  0
 16 23  1  0  0  0  0
 17 18  1  1  0  0  0
 17 19  1  0  0  0  0
 19  2  1  1  0  0  0
 19 20  1  0  0  0  0
 20 21  1  6  0  0  0
 20 22  1  0  0  0  0
 23 24  1  0  0  0  0
 24 25  1  0  0  0  0
 25 26  1  0  0  0  0
 26 27  1  0  0  0  0
 27 28  1  0  0  0  0
 28 29  1  0  0  0  0
 29 30  1  0  0  0  0
 31 37  1  0  0  0  0
 32 33  2  0  0  0  0
 34 32  1  1  0  0  0
 34 35  1  0  0  0  0
 34 36  1  0  0  0  0
 36 37  1  0  0  0  0
M  END
>  <CHROM.1>
-174.73436920,58.29375000,105.20837087,62.75628970,177.46550659,69.51802562
168.19705939,70.56690742,-138.61049721,169.57611979,178.95102901,-74.22076787
-90.63862081,-164.70768665,-59.87196298,-12.47526099,19.80138310,6.34027573
-2.83787117,0.59445272,-1.32797552

>  <Name>
1o9m_lig

>  <RI>
0

>  <Rbt.Current_Directory>
/home/itssahil/PROJECTS/Mol_Feturizer/New_Systems/rnas/1o9m

>  <Rbt.Executable>
rbdock ($Id: //depot/dev/client3/rdock/2013.1/src/exe/rbdock.cxx#4 $)

>  <Rbt.Library>
libRbt.so (2013.1, Build901 2013/11/27)

>  <Rbt.Parameter_File>
/export/apps/rDock/src/rDock_2013.1_src/data/scripts/dock_solv.prm

>  <Rbt.Receptor>
prm/pocket_docking_6.prm

>  <SCORE>
-6.65744

>  <SCORE.INTER>
0.59944

>  <SCORE.INTER.CONST>
1

>  <SCORE.INTER.POLAR>
-1.61009

>  <SCORE.INTER.ROT>
15

>  <SCORE.INTER.SOLV>
17.7069

>  <SCORE.INTER.VDW>
-13.7357

>  <SCORE.INTER.norm>
0.0162011

>  <SCORE.INTRA>
-7.25688

>  <SCORE.INTRA.DIHEDRAL>
-14.9801

>  <SCORE.INTRA.DIHEDRAL.0>
21.5987

>  <SCORE.INTRA.POLAR>
0

>  <SCORE.INTRA.POLAR.0>
0

>  <SCORE.INTRA.REPUL>
0

>  <SCORE.INTRA.REPUL.0>
0

>  <SCORE.INTRA.SOLV>
2.27625

>  <SCORE.INTRA.SOLV.lig_0>
-108.715

>  <SCORE.INTRA.VDW>
-0.904932

>  <SCORE.INTRA.VDW.0>
-3.9485

>  <SCORE.INTRA.norm>
-0.196132

>  <SCORE.RESTR>
0

>  <SCORE.RESTR.CAVITY>
0

>  <SCORE.RESTR.norm>
0

>  <SCORE.SYSTEM>
0

>  <SCORE.SYSTEM.CONST>
0

>  <SCORE.SYSTEM.DIHEDRAL>
0

>  <SCORE.SYSTEM.SOLV>
0

>  <SCORE.SYSTEM.norm>
0

>  <SCORE.heavy>
37

>  <SCORE.norm>
-0.179931

>  <RMSD>
11.180

$$$$
1o9m_lig
 OpenBabel11021811403D
libRbt.so/2013.1/901 2013/11/27
 37 38  0  0  0  0  0  0  0  0999 V2000
   -6.6256   13.8866    4.7432 C   0  0  2  0  0  0  0  0  0  0  0  0
   -5.7120   13.7755    3.6095 O   0  0  0  0  0  0  0  0  0  0  0  0
   -7.3177   15.2938    4.6196 C   0  0  2  0  0  0  0  0  0  0  0  0
   -8.0457   15.4462    3.3477 N   0  0  0  0  0  0  0  0  0  0  0  0
   -6.2261   16.4198    4.7761 C   0  0  1  0  0  0  0  0  0  0  0  0
   -6.8319   17.7109    4.6691 O   0  0  0  0  0  0  0  0  0  0  0  0
   -5.5099   16.2144    6.1517 C   0  0  2  0  0  0  0  0  0  0  0  0
   -4.4762   17.1832    6.3923 O   0  0  0  0  0  0  0  0  0  0  0  0
   -4.8960   14.7954    6.2413 C   0  0  2  0  0  0  0  0  0  0  0  0
   -5.8945   13.7906    6.0116 O   0  0  0  0  0  0  0  0  0  0  0  0
   -4.2481   14.5521    7.5798 C   0  0  0  0  0  0  0  0  0  0  0  0
   -3.4863   13.4087    7.5389 N   0  0  0  0  0  0  0  0  0  0  0  0
   -4.8843   10.8564    0.5088 C   0  0  1  0  0  0  0  0  0  0  0  0
   -4.6129    9.5446   -0.1431 N   0  0  0  0  0  0  0  0  0  0  0  0
   -6.2365   10.7889    1.2055 C   0  0  2  0  0  0  0  0  0  0  0  0
   -7.1966   10.4550    0.2479 O   0  0  0  0  0  0  0  0  0  0  0  0
   -6.5723   12.1518    1.8891 C   0  0  1  0  0  0  0  0  0  0  0  0
   -7.8605   12.0678    2.5718 O   0  0  0  0  0  0  0  0  0  0  0  0
   -5.4545   12.5005    2.9545 C   0  0  1  0  0  0  0  0  0  0  0  0
   -4.1007   12.5894    2.2667 C   0  0  1  0  0  0  0  0  0  0  0  0
   -3.0915   12.9250    3.2599 N   0  0  0  0  0  0  0  0  0  0  0  0
   -3.7756   11.2408    1.5704 C   0  0  0  0  0  0  0  0  0  0  0  0
   -7.7800   10.2388   -1.0557 C   0  0  0  0  0  0  0  0  0  0  0  0
   -9.2626    9.9888   -0.9018 C   0  0  0  0  0  0  0  0  0  0  0  0
   -9.5955    8.8387   -0.0361 N   0  0  0  0  0  0  0  0  0  0  0  0
  -10.2473    7.9829    0.9813 C   0  0  0  0  0  0  0  0  0  0  0  0
  -10.0339    8.9080    2.1862 C   0  0  0  0  0  0  0  0  0  0  0  0
  -10.3332    8.2055    3.5238 C   0  0  0  0  0  0  0  0  0  0  0  0
  -11.8331    8.0013    3.7131 C   0  0  0  0  0  0  0  0  0  0  0  0
  -12.1051    7.5069    5.0554 N   0  0  0  0  0  0  0  0  0  0  0  0
   -1.8886    6.0483   -0.9361 N   0  0  0  0  0  0  0  0  0  0  0  0
   -5.1259    8.1911    0.8823 C   0  0  0  0  0  0  0  0  0  0  0  0
   -5.5925    8.1027    1.8511 O   0  0  0  0  0  0  0  0  0  0  0  0
   -4.5940    7.2987   -0.2123 C   0  0  2  0  0  0  0  0  0  0  0  0
   -5.6148    6.7504   -0.9467 O   0  0  0  0  0  0  0  0  0  0  0  0
   -3.8731    6.1422    0.4714 C   0  0  0  0  0  0  0  0  0  0  0  0
   -3.0026    5.2391   -0.4210 C   0  0  0  0  0  0  0  0  0  0  0  0
  1  2  1  6  0  0  0
  1  3  1  0  0  0  0
  3  4  1  6  0  0  0
  3  5  1  0  0  0  0
  5  6  1  1  0  0  0
  5  7  1  0  0  0  0
  7  8  1  6  0  0  0
  9  7  1  0  0  0  0
  9 10  1  0  0  0  0
  9 11  1  1  0  0  0
 10  1  1  0  0  0  0
 11 12  1  0  0  0  0
 13 14  1  1  0  0  0
 13 15  1  0  0  0  0
 13 22  1  0  0  0  0
 14 32  1  0  0  0  0
 15 16  1  6  0  0  0
 15 17  1  0  0  0  0
 16 23  1  0  0  0  0
 17 18  1  1  0  0  0
 17 19  1  0  0  0  0
 19  2  1  6  0  0  0
 19 20  1  0  0  0  0
 20 21  1  1  0  0  0
 20 22  1  0  0  0  0
 23 24  1  0  0  0  0
 24 25  1  0  0  0  0
 25 26  1  0  0  0  0
 26 27  1  0  0  0  0
 27 28  1  0  0  0  0
 28 29  1  0  0  0  0
 29 30  1  0  0  0  0
 31 37  1  0  0  0  0
 32 33  2  0  0  0  0
 34 32  1  1  0  0  0
 34 35  1  0  0  0  0
 34 36  1  0  0  0  0
 36 37  1  0  0  0  0
M  END
>  <CHROM.1>
-146.09801296,-167.85127669,-40.12286481,-13.83296136,-170.99104501,82.89554756
-58.04843424,137.86627579,-57.35355574,-167.83546941,-72.68700482,-172.20618910
-104.70800623,-168.21753855,65.18473535,-6.33579185,11.22989414,2.60675315
1.47546730,0.16452621,0.59871461

>  <Name>
1o9m_lig

>  <RI>
0

>  <Rbt.Current_Directory>
/home/itssahil/PROJECTS/Mol_Feturizer/New_Systems/rnas/1o9m

>  <Rbt.Executable>
rbdock ($Id: //depot/dev/client3/rdock/2013.1/src/exe/rbdock.cxx#4 $)

>  <Rbt.Library>
libRbt.so (2013.1, Build901 2013/11/27)

>  <Rbt.Parameter_File>
/export/apps/rDock/src/rDock_2013.1_src/data/scripts/dock_solv.prm

>  <Rbt.Receptor>
prm/pocket_docking_8.prm

>  <SCORE>
-4.71821

>  <SCORE.INTER>
-3.68642

>  <SCORE.INTER.CONST>
1

>  <SCORE.INTER.POLAR>
-0.445963

>  <SCORE.INTER.ROT>
15

>  <SCORE.INTER.SOLV>
21.0356

>  <SCORE.INTER.VDW>
-21.5829

>  <SCORE.INTER.norm>
-0.0996329

>  <SCORE.INTRA>
-1.03247

>  <SCORE.INTRA.DIHEDRAL>
-2.44267

>  <SCORE.INTRA.DIHEDRAL.0>
21.5987

>  <SCORE.INTRA.POLAR>
0

>  <SCORE.INTRA.POLAR.0>
0

>  <SCORE.INTRA.REPUL>
0

>  <SCORE.INTRA.REPUL.0>
0

>  <SCORE.INTRA.SOLV>
2.00428

>  <SCORE.INTRA.SOLV.lig_0>
-108.715

>  <SCORE.INTRA.VDW>
-0.813274

>  <SCORE.INTRA.VDW.0>
-3.9485

>  <SCORE.INTRA.norm>
-0.0279045

>  <SCORE.RESTR>
0.000673405

>  <SCORE.RESTR.CAVITY>
0.000673405

>  <SCORE.RESTR.norm>
1.82001e-05

>  <SCORE.SYSTEM>
0

>  <SCORE.SYSTEM.CONST>
0

>  <SCORE.SYSTEM.DIHEDRAL>
0

>  <SCORE.SYSTEM.SOLV>
0

>  <SCORE.SYSTEM.norm>
0

>  <SCORE.heavy>
37

>  <SCORE.norm>
-0.127519

>  <RMSD>
11.697

$$$$
1o9m_lig
 OpenBabel11021811403D
libRbt.so/2013.1/901 2013/11/27
 37 38  0  0  0  0  0  0  0  0999 V2000
    4.8504   -2.8766    7.7093 C   0  0  2  0  0  0  0  0  0  0  0  0
    5.0804   -1.4395    7.8279 O   0  0  0  0  0  0  0  0  0  0  0  0
    5.2907   -3.2781    6.2535 C   0  0  2  0  0  0  0  0  0  0  0  0
    6.7036   -2.9538    5.9900 N   0  0  0  0  0  0  0  0  0  0  0  0
    4.3497   -2.5584    5.2142 C   0  0  1  0  0  0  0  0  0  0  0  0
    4.7294   -2.9095    3.8808 O   0  0  0  0  0  0  0  0  0  0  0  0
    2.8727   -2.9625    5.5347 C   0  0  2  0  0  0  0  0  0  0  0  0
    1.9217   -2.3449    4.6521 O   0  0  0  0  0  0  0  0  0  0  0  0
    2.5110   -2.5958    6.9952 C   0  0  2  0  0  0  0  0  0  0  0  0
    3.4333   -3.1954    7.9167 O   0  0  0  0  0  0  0  0  0  0  0  0
    1.1103   -3.0258    7.3471 C   0  0  0  0  0  0  0  0  0  0  0  0
    0.1925   -2.2227    6.7131 N   0  0  0  0  0  0  0  0  0  0  0  0
    5.1448    1.6517   10.8711 C   0  0  1  0  0  0  0  0  0  0  0  0
    4.8372    2.3809   12.1333 N   0  0  0  0  0  0  0  0  0  0  0  0
    5.7497    0.2986   11.2198 C   0  0  2  0  0  0  0  0  0  0  0  0
    6.8849    0.5244   12.0012 O   0  0  0  0  0  0  0  0  0  0  0  0
    6.1063   -0.4956    9.9238 C   0  0  1  0  0  0  0  0  0  0  0  0
    6.6651   -1.7994   10.2710 O   0  0  0  0  0  0  0  0  0  0  0  0
    4.7980   -0.7171    9.0606 C   0  0  1  0  0  0  0  0  0  0  0  0
    4.1945    0.6290    8.6897 C   0  0  1  0  0  0  0  0  0  0  0  0
    3.0032    0.4030    7.8851 N   0  0  0  0  0  0  0  0  0  0  0  0
    3.8581    1.4268    9.9780 C   0  0  0  0  0  0  0  0  0  0  0  0
    7.7155    1.0940   13.0368 C   0  0  0  0  0  0  0  0  0  0  0  0
    9.0688    0.4213   13.0150 C   0  0  0  0  0  0  0  0  0  0  0  0
    9.7036    0.3825   11.6814 N   0  0  0  0  0  0  0  0  0  0  0  0
   10.2776    0.7982   10.3813 C   0  0  0  0  0  0  0  0  0  0  0  0
   11.5076   -0.1181   10.4043 C   0  0  0  0  0  0  0  0  0  0  0  0
   12.1117   -0.3222    9.0023 C   0  0  0  0  0  0  0  0  0  0  0  0
   11.4902   -1.5296    8.3071 C   0  0  0  0  0  0  0  0  0  0  0  0
   10.0673   -1.3061    8.0934 N   0  0  0  0  0  0  0  0  0  0  0  0
    0.6969    3.4807   14.1247 N   0  0  0  0  0  0  0  0  0  0  0  0
    3.4542    1.6607   12.9791 C   0  0  0  0  0  0  0  0  0  0  0  0
    2.8017    0.8211   12.7962 O   0  0  0  0  0  0  0  0  0  0  0  0
    3.6401    2.7593   13.9970 C   0  0  2  0  0  0  0  0  0  0  0  0
    2.9955    2.4634   15.1712 O   0  0  0  0  0  0  0  0  0  0  0  0
    2.9704    4.0059   13.4292 C   0  0  0  0  0  0  0  0  0  0  0  0
    1.5111    3.8603   12.9611 C   0  0  0  0  0  0  0  0  0  0  0  0
  1  2  1  6  0  0  0
  1  3  1  0  0  0  0
  3  4  1  6  0  0  0
  3  5  1  0  0  0  0
  5  6  1  6  0  0  0
  5  7  1  0  0  0  0
  7  8  1  6  0  0  0
  9  7  1  0  0  0  0
  9 10  1  0  0  0  0
  9 11  1  1  0  0  0
 10  1  1  0  0  0  0
 11 12  1  0  0  0  0
 13 14  1  1  0  0  0
 13 15  1  0  0  0  0
 13 22  1  0  0  0  0
 14 32  1  0  0  0  0
 15 16  1  1  0  0  0
 15 17  1  0  0  0  0
 16 23  1  0  0  0  0
 17 18  1  1  0  0  0
 17 19  1  0  0  0  0
 19  2  1  6  0  0  0
 19 20  1  0  0  0  0
 20 21  1  1  0  0  0
 20 22  1  0  0  0  0
 23 24  1  0  0  0  0
 24 25  1  0  0  0  0
 25 26  1  0  0  0  0
 26 27  1  0  0  0  0
 27 28  1  0  0  0  0
 28 29  1  0  0  0  0
 29 30  1  0  0  0  0
 31 37  1  0  0  0  0
 32 33  2  0  0  0  0
 34 32  1  6  0  0  0
 34 35  1  0  0  0  0
 34 36  1  0  0  0  0
 36 37  1  0  0  0  0
M  END
>  <CHROM.1>
-179.22252847,-72.04869197,-71.56449897,44.76774399,176.79578454,98.52221430
50.75801390,56.43642929,137.09910835,160.53020145,-90.16538258,63.30665627
-162.64492066,52.31322869,61.69148337,5.24594340,-0.27453068,9.65837429,1.61843916
0.07141992,-2.17452481

>  <Name>
1o9m_lig

>  <RI>
0

>  <Rbt.Current_Directory>
/home/itssahil/PROJECTS/Mol_Feturizer/New_Systems/rnas/1o9m

>  <Rbt.Executable>
rbdock ($Id: //depot/dev/client3/rdock/2013.1/src/exe/rbdock.cxx#4 $)

>  <Rbt.Library>
libRbt.so (2013.1, Build901 2013/11/27)

>  <Rbt.Parameter_File>
/export/apps/rDock/src/rDock_2013.1_src/data/scripts/dock_solv.prm

>  <Rbt.Receptor>
prm/blind_docking_20.prm

>  <SCORE>
-5.0008

>  <SCORE.INTER>
-6.2416

>  <SCORE.INTER.CONST>
1

>  <SCORE.INTER.POLAR>
0

>  <SCORE.INTER.ROT>
15

>  <SCORE.INTER.SOLV>
13.7385

>  <SCORE.INTER.VDW>
-22.3406

>  <SCORE.INTER.norm>
-0.168692

>  <SCORE.INTRA>
0.927772

>  <SCORE.INTRA.DIHEDRAL>
-7.44947

>  <SCORE.INTRA.DIHEDRAL.0>
21.5987

>  <SCORE.INTRA.POLAR>
0

>  <SCORE.INTRA.POLAR.0>
0

>  <SCORE.INTRA.REPUL>
0.103568

>  <SCORE.INTRA.REPUL.0>
0

>  <SCORE.INTRA.SOLV>
8.58089

>  <SCORE.INTRA.SOLV.lig_0>
-108.715

>  <SCORE.INTRA.VDW>
-0.155777

>  <SCORE.INTRA.VDW.0>
-3.9485

>  <SCORE.INTRA.norm>
0.0250749

>  <SCORE.RESTR>
0.313026

>  <SCORE.RESTR.CAVITY>
0.313026

>  <SCORE.RESTR.norm>
0.00846017

>  <SCORE.SYSTEM>
0

>  <SCORE.SYSTEM.CONST>
0

>  <SCORE.SYSTEM.DIHEDRAL>
0

>  <SCORE.SYSTEM.SOLV>
0

>  <SCORE.SYSTEM.norm>
0

>  <SCORE.heavy>
37

>  <SCORE.norm>
-0.135157

>  <RMSD>
21.864

$$$$
1o9m_lig
 OpenBabel11021811403D
libRbt.so/2013.1/901 2013/11/27
 37 38  0  0  0  0  0  0  0  0999 V2000
    7.9652   -1.4650   10.6247 C   0  0  2  0  0  0  0  0  0  0  0  0
    7.9432   -0.0183   10.8213 O   0  0  0  0  0  0  0  0  0  0  0  0
    9.4486   -1.8412   10.2605 C   0  0  2  0  0  0  0  0  0  0  0  0
   10.3982   -1.4449   11.3151 N   0  0  0  0  0  0  0  0  0  0  0  0
    9.8277   -1.1685    8.8867 C   0  0  1  0  0  0  0  0  0  0  0  0
   11.1737   -1.4976    8.5322 O   0  0  0  0  0  0  0  0  0  0  0  0
    8.7984   -1.6478    7.8104 C   0  0  2  0  0  0  0  0  0  0  0  0
    9.0413   -1.0780    6.5138 O   0  0  0  0  0  0  0  0  0  0  0  0
    7.3528   -1.3026    8.2455 C   0  0  2  0  0  0  0  0  0  0  0  0
    7.0613   -1.8559    9.5371 O   0  0  0  0  0  0  0  0  0  0  0  0
    6.3370   -1.8040    7.2519 C   0  0  0  0  0  0  0  0  0  0  0  0
    6.4340   -3.1687    7.1197 N   0  0  0  0  0  0  0  0  0  0  0  0
    3.9108    0.6924   12.2549 C   0  0  1  0  0  0  0  0  0  0  0  0
    2.7322    1.4030   12.8256 N   0  0  0  0  0  0  0  0  0  0  0  0
    4.3505    1.4099   10.9859 C   0  0  2  0  0  0  0  0  0  0  0  0
    3.2632    1.4383   10.1100 O   0  0  0  0  0  0  0  0  0  0  0  0
    5.5751    0.6873   10.3411 C   0  0  1  0  0  0  0  0  0  0  0  0
    6.0009    1.3967    9.1377 O   0  0  0  0  0  0  0  0  0  0  0  0
    6.7786    0.6632   11.3692 C   0  0  1  0  0  0  0  0  0  0  0  0
    6.3572   -0.0681   12.6346 C   0  0  1  0  0  0  0  0  0  0  0  0
    7.4810   -0.0918   13.5587 N   0  0  0  0  0  0  0  0  0  0  0  0
    5.1274    0.6387   13.2651 C   0  0  0  0  0  0  0  0  0  0  0  0
    2.5029    1.7264    8.9161 C   0  0  0  0  0  0  0  0  0  0  0  0
    3.1742    1.0738    7.7295 C   0  0  0  0  0  0  0  0  0  0  0  0
    2.6747   -0.2823    7.4222 N   0  0  0  0  0  0  0  0  0  0  0  0
    2.4230   -1.7399    7.4886 C   0  0  0  0  0  0  0  0  0  0  0  0
    3.3743   -2.0537    8.6503 C   0  0  0  0  0  0  0  0  0  0  0  0
    2.7336   -1.7756   10.0230 C   0  0  0  0  0  0  0  0  0  0  0  0
    3.5995   -2.3220   11.1539 C   0  0  0  0  0  0  0  0  0  0  0  0
    3.6040   -3.7778   11.1218 N   0  0  0  0  0  0  0  0  0  0  0  0
    2.6123    0.4595   15.4369 N   0  0  0  0  0  0  0  0  0  0  0  0
    3.2152    2.8828   13.6762 C   0  0  0  0  0  0  0  0  0  0  0  0
    4.1524    3.3838   13.8623 O   0  0  0  0  0  0  0  0  0  0  0  0
    1.7496    3.0516   13.9943 C   0  0  2  0  0  0  0  0  0  0  0  0
    1.3653    4.3641   13.8861 O   0  0  0  0  0  0  0  0  0  0  0  0
    1.5664    2.6582   15.4559 C   0  0  0  0  0  0  0  0  0  0  0  0
    1.3604    1.1620   15.7538 C   0  0  0  0  0  0  0  0  0  0  0  0
  1  2  1  6  0  0  0
  1  3  1  0  0  0  0
  3  4  1  1  0  0  0
  3  5  1  0  0  0  0
  5  6  1  6  0  0  0
  5  7  1  0  0  0  0
  7  8  1  6  0  0  0
  9  7  1  0  0  0  0
  9 10  1  0  0  0  0
  9 11  1  6  0  0  0
 10  1  1  0  0  0  0
 11 12  1  0  0  0  0
 13 14  1  1  0  0  0
 13 15  1  0  0  0  0
 13 22  1  0  0  0  0
 14 32  1  0  0  0  0
 15 16  1  6  0  0  0
 15 17  1  0  0  0  0
 16 23  1  0  0  0  0
 17 18  1  6  0  0  0
 17 19  1  0  0  0  0
 19  2  1  6  0  0  0
 19 20  1  0  0  0  0
 20 21  1  1  0  0  0
 20 22  1  0  0  0  0
 23 24  1  0  0  0  0
 24 25  1  0  0  0  0
 25 26  1  0  0  0  0
 26 27  1  0  0  0  0
 27 28  1  0  0  0  0
 28 29  1  0  0  0  0
 29 30  1  0  0  0  0
 31 37  1  0  0  0  0
 32 33  2  0  0  0  0
 34 32  1  1  0  0  0
 34 35  1  0  0  0  0
 34 36  1  0  0  0  0
 36 37  1  0  0  0  0
M  END
>  <CHROM.1>
-170.49436330,59.51066588,-77.51573356,179.32559142,60.35818036,-71.08212806
92.13623855,-74.40446592,-5.45819217,82.70539515,170.01588461,-68.22287603
-139.73565219,-85.35988857,67.44704584,5.23932291,-0.02105812,10.73255133
-0.80914431,-0.18356618,1.12906713

>  <Name>
1o9m_lig

>  <RI>
0

>  <Rbt.Current_Directory>
/home/itssahil/PROJECTS/Mol_Feturizer/New_Systems/rnas/1o9m

>  <Rbt.Executable>
rbdock ($Id: //depot/dev/client3/rdock/2013.1/src/exe/rbdock.cxx#4 $)

>  <Rbt.Library>
libRbt.so (2013.1, Build901 2013/11/27)

>  <Rbt.Parameter_File>
/export/apps/rDock/src/rDock_2013.1_src/data/scripts/dock_solv.prm

>  <Rbt.Receptor>
prm/blind_docking_80.prm

>  <SCORE>
-9.60636

>  <SCORE.INTER>
-6.17567

>  <SCORE.INTER.CONST>
1

>  <SCORE.INTER.POLAR>
-1.10954

>  <SCORE.INTER.ROT>
15

>  <SCORE.INTER.SOLV>
18.7451

>  <SCORE.INTER.VDW>
-20.267

>  <SCORE.INTER.norm>
-0.16691

>  <SCORE.INTRA>
-3.45703

>  <SCORE.INTRA.DIHEDRAL>
-9.16049

>  <SCORE.INTRA.DIHEDRAL.0>
21.5987

>  <SCORE.INTRA.POLAR>
0

>  <SCORE.INTRA.POLAR.0>
0

>  <SCORE.INTRA.REPUL>
0

>  <SCORE.INTRA.REPUL.0>
0

>  <SCORE.INTRA.SOLV>
9.78032

>  <SCORE.INTRA.SOLV.lig_0>
-108.715

>  <SCORE.INTRA.VDW>
-3.76694

>  <SCORE.INTRA.VDW.0>
-3.9485

>  <SCORE.INTRA.norm>
-0.0934331

>  <SCORE.RESTR>
0.0263365

>  <SCORE.RESTR.CAVITY>
0.0263365

>  <SCORE.RESTR.norm>
0.000711796

>  <SCORE.SYSTEM>
0

>  <SCORE.SYSTEM.CONST>
0

>  <SCORE.SYSTEM.DIHEDRAL>
0

>  <SCORE.SYSTEM.SOLV>
0

>  <SCORE.SYSTEM.norm>
0

>  <SCORE.heavy>
37

>  <SCORE.norm>
-0.259631

>  <RMSD>
21.964

$$$$
1o9m_lig
 OpenBabel11021811403D
libRbt.so/2013.1/901 2013/11/27
 37 38  0  0  0  0  0  0  0  0999 V2000
    8.9502   -1.1859   10.1225 C   0  0  2  0  0  0  0  0  0  0  0  0
    8.9565    0.2743   10.1092 O   0  0  0  0  0  0  0  0  0  0  0  0
   10.4538   -1.6374   10.0242 C   0  0  2  0  0  0  0  0  0  0  0  0
   11.2670   -1.1104   11.1341 N   0  0  0  0  0  0  0  0  0  0  0  0
   11.0398   -1.1769    8.6355 C   0  0  1  0  0  0  0  0  0  0  0  0
   12.4078   -1.5780    8.5210 O   0  0  0  0  0  0  0  0  0  0  0  0
   10.1475   -1.7877    7.5049 C   0  0  2  0  0  0  0  0  0  0  0  0
   10.5842   -1.4153    6.1876 O   0  0  0  0  0  0  0  0  0  0  0  0
    8.6705   -1.3571    7.6824 C   0  0  2  0  0  0  0  0  0  0  0  0
    8.1869   -1.7131    8.9858 O   0  0  0  0  0  0  0  0  0  0  0  0
    7.7796   -1.9781    6.6377 C   0  0  0  0  0  0  0  0  0  0  0  0
    8.0747   -1.4674    5.3962 N   0  0  0  0  0  0  0  0  0  0  0  0
    4.9276    1.2458   11.3916 C   0  0  1  0  0  0  0  0  0  0  0  0
    3.7355    2.0548   11.7709 N   0  0  0  0  0  0  0  0  0  0  0  0
    5.3203    1.5896    9.9612 C   0  0  2  0  0  0  0  0  0  0  0  0
    4.2176    1.3401    9.1415 O   0  0  0  0  0  0  0  0  0  0  0  0
    6.5577    0.7496    9.5129 C   0  0  1  0  0  0  0  0  0  0  0  0
    6.9378    1.1038    8.1481 O   0  0  0  0  0  0  0  0  0  0  0  0
    7.7789    1.0493   10.4744 C   0  0  1  0  0  0  0  0  0  0  0  0
    7.4049    0.6918   11.9049 C   0  0  1  0  0  0  0  0  0  0  0  0
    8.5449    0.9604   12.7686 N   0  0  0  0  0  0  0  0  0  0  0  0
    6.1628    1.5125   12.3440 C   0  0  0  0  0  0  0  0  0  0  0  0
    3.4534    1.1672    7.9279 C   0  0  0  0  0  0  0  0  0  0  0  0
    1.9812    1.1322    8.2681 C   0  0  0  0  0  0  0  0  0  0  0  0
    1.3312   -0.1690    8.0087 N   0  0  0  0  0  0  0  0  0  0  0  0
    0.6115   -1.2760    7.3385 C   0  0  0  0  0  0  0  0  0  0  0  0
    1.8423   -2.0180    6.8021 C   0  0  0  0  0  0  0  0  0  0  0  0
    2.4700   -1.3090    5.5875 C   0  0  0  0  0  0  0  0  0  0  0  0
    3.5910   -2.1475    4.9811 C   0  0  0  0  0  0  0  0  0  0  0  0
    4.6532   -2.3434    5.9575 N   0  0  0  0  0  0  0  0  0  0  0  0
    1.9630    4.3624   15.5048 N   0  0  0  0  0  0  0  0  0  0  0  0
    2.2987    1.0358   11.9805 C   0  0  0  0  0  0  0  0  0  0  0  0
    2.0968   -0.0216   11.9077 O   0  0  0  0  0  0  0  0  0  0  0  0
    1.5611    2.3197   12.2720 C   0  0  2  0  0  0  0  0  0  0  0  0
    1.8757    3.2924   11.3571 O   0  0  0  0  0  0  0  0  0  0  0  0
    2.0535    2.8145   13.6275 C   0  0  0  0  0  0  0  0  0  0  0  0
    1.4705    4.1451   14.1368 C   0  0  0  0  0  0  0  0  0  0  0  0
  1  2  1  6  0  0  0
  1  3  1  0  0  0  0
  3  4  1  1  0  0  0
  3  5  1  0  0  0  0
  5  6  1  6  0  0  0
  5  7  1  0  0  0  0
  7  8  1  6  0  0  0
  9  7  1  0  0  0  0
  9 10  1  0  0  0  0
  9 11  1  6  0  0  0
 10  1  1  0  0  0  0
 11 12  1  0  0  0  0
 13 14  1  1  0  0  0
 13 15  1  0  0  0  0
 13 22  1  0  0  0  0
 14 32  1  0  0  0  0
 15 16  1  6  0  0  0
 15 17  1  0  0  0  0
 16 23  1  0  0  0  0
 17 18  1  6  0  0  0
 17 19  1  0  0  0  0
 19  2  1  6  0  0  0
 19 20  1  0  0  0  0
 20 21  1  1  0  0  0
 20 22  1  0  0  0  0
 23 24  1  0  0  0  0
 24 25  1  0  0  0  0
 25 26  1  0  0  0  0
 26 27  1  0  0  0  0
 27 28  1  0  0  0  0
 28 29  1  0  0  0  0
 29 30  1  0  0  0  0
 31 37  1  0  0  0  0
 32 33  2  0  0  0  0
 34 32  1  6  0  0  0
 34 35  1  0  0  0  0
 34 36  1  0  0  0  0
 36 37  1  0  0  0  0
M  END
>  <CHROM.1>
-166.39525721,-67.53965907,112.10064773,-170.11732051,-168.24309822,-61.04833993
-114.03900159,-89.84887745,92.03320068,-75.17571529,-173.61153645,-61.57517032
45.95015903,178.43309377,174.10682509,5.72320966,0.19207952,9.54210236,-0.55232807
-0.16056176,1.06062147

>  <Name>
1o9m_lig

>  <RI>
0

>  <Rbt.Current_Directory>
/home/itssahil/PROJECTS/Mol_Feturizer/New_Systems/rnas/1o9m

>  <Rbt.Executable>
rbdock ($Id: //depot/dev/client3/rdock/2013.1/src/exe/rbdock.cxx#4 $)

>  <Rbt.Library>
libRbt.so (2013.1, Build901 2013/11/27)

>  <Rbt.Parameter_File>
/export/apps/rDock/src/rDock_2013.1_src/data/scripts/dock_solv.prm

>  <Rbt.Receptor>
prm/blind_docking_80.prm

>  <SCORE>
-8.80035

>  <SCORE.INTER>
-10.2573

>  <SCORE.INTER.CONST>
1

>  <SCORE.INTER.POLAR>
-1.80503

>  <SCORE.INTER.ROT>
15

>  <SCORE.INTER.SOLV>
18.3942

>  <SCORE.INTER.VDW>
-20.5528

>  <SCORE.INTER.norm>
-0.277224

>  <SCORE.INTRA>
1.03329

>  <SCORE.INTRA.DIHEDRAL>
-9.52352

>  <SCORE.INTRA.DIHEDRAL.0>
21.5987

>  <SCORE.INTRA.POLAR>
0

>  <SCORE.INTRA.POLAR.0>
0

>  <SCORE.INTRA.REPUL>
0

>  <SCORE.INTRA.REPUL.0>
0

>  <SCORE.INTRA.SOLV>
5.99047

>  <SCORE.INTRA.SOLV.lig_0>
-108.715

>  <SCORE.INTRA.VDW>
2.79982

>  <SCORE.INTRA.VDW.0>
-3.9485

>  <SCORE.INTRA.norm>
0.0279268

>  <SCORE.RESTR>
0.42363

>  <SCORE.RESTR.CAVITY>
0.42363

>  <SCORE.RESTR.norm>
0.0114495

>  <SCORE.SYSTEM>
0

>  <SCORE.SYSTEM.CONST>
0

>  <SCORE.SYSTEM.DIHEDRAL>
0

>  <SCORE.SYSTEM.SOLV>
0

>  <SCORE.SYSTEM.norm>
0

>  <SCORE.heavy>
37

>  <SCORE.norm>
-0.237847

>  <RMSD>
22.002

$$$$
1o9m_lig
 OpenBabel11021811403D
libRbt.so/2013.1/901 2013/11/27
 37 38  0  0  0  0  0  0  0  0999 V2000
    8.7576   -0.0581    9.1535 C   0  0  2  0  0  0  0  0  0  0  0  0
    8.1547   -0.4651   10.4196 O   0  0  0  0  0  0  0  0  0  0  0  0
    8.3696   -1.1616    8.1018 C   0  0  2  0  0  0  0  0  0  0  0  0
    6.9103   -1.3071    7.9602 N   0  0  0  0  0  0  0  0  0  0  0  0
    9.0284   -2.5296    8.5243 C   0  0  1  0  0  0  0  0  0  0  0  0
    8.6913   -3.5504    7.5811 O   0  0  0  0  0  0  0  0  0  0  0  0
   10.5737   -2.3116    8.6333 C   0  0  2  0  0  0  0  0  0  0  0  0
   11.2775   -3.4993    9.0321 O   0  0  0  0  0  0  0  0  0  0  0  0
   10.8958   -1.1783    9.6383 C   0  0  2  0  0  0  0  0  0  0  0  0
   10.2167    0.0335    9.2779 O   0  0  0  0  0  0  0  0  0  0  0  0
   12.3763   -0.9100    9.7200 C   0  0  0  0  0  0  0  0  0  0  0  0
   12.8255   -0.3577    8.5442 N   0  0  0  0  0  0  0  0  0  0  0  0
    4.9664    1.0613   12.9346 C   0  0  1  0  0  0  0  0  0  0  0  0
    4.1606    2.0105   13.7526 N   0  0  0  0  0  0  0  0  0  0  0  0
    5.0732    1.6030   11.5156 C   0  0  2  0  0  0  0  0  0  0  0  0
    3.7779    1.7730   11.0223 O   0  0  0  0  0  0  0  0  0  0  0  0
    5.8961    0.6288   10.6148 C   0  0  1  0  0  0  0  0  0  0  0  0
    6.0100    1.1694    9.2630 O   0  0  0  0  0  0  0  0  0  0  0  0
    7.3500    0.4516   11.2153 C   0  0  1  0  0  0  0  0  0  0  0  0
    7.2571   -0.1073   12.6270 C   0  0  1  0  0  0  0  0  0  0  0  0
    8.6030   -0.2763   13.1538 N   0  0  0  0  0  0  0  0  0  0  0  0
    6.4223    0.8514   13.5177 C   0  0  0  0  0  0  0  0  0  0  0  0
    2.4002    1.4611   10.7201 C   0  0  0  0  0  0  0  0  0  0  0  0
    2.0492    2.0244    9.3621 C   0  0  0  0  0  0  0  0  0  0  0  0
    1.2565    1.1100    8.5145 N   0  0  0  0  0  0  0  0  0  0  0  0
    0.8030    0.2869    7.3703 C   0  0  0  0  0  0  0  0  0  0  0  0
    1.5600   -0.9963    7.7355 C   0  0  0  0  0  0  0  0  0  0  0  0
    1.2068   -2.1699    6.8026 C   0  0  0  0  0  0  0  0  0  0  0  0
    1.7940   -1.9604    5.4103 C   0  0  0  0  0  0  0  0  0  0  0  0
    3.2463   -2.0534    5.4607 N   0  0  0  0  0  0  0  0  0  0  0  0
    0.5304    4.5052   12.0581 N   0  0  0  0  0  0  0  0  0  0  0  0
    2.6047    1.3019   14.2255 C   0  0  0  0  0  0  0  0  0  0  0  0
    2.1207    0.3507   14.0674 O   0  0  0  0  0  0  0  0  0  0  0  0
    2.3258    2.6255   14.8948 C   0  0  2  0  0  0  0  0  0  0  0  0
    1.7945    2.4472   16.1470 O   0  0  0  0  0  0  0  0  0  0  0  0
    1.2599    3.3269   14.0601 C   0  0  0  0  0  0  0  0  0  0  0  0
    1.7107    3.9255   12.7154 C   0  0  0  0  0  0  0  0  0  0  0  0
  1  2  1  1  0  0  0
  1  3  1  0  0  0  0
  3  4  1  1  0  0  0
  3  5  1  0  0  0  0
  5  6  1  6  0  0  0
  5  7  1  0  0  0  0
  7  8  1  1  0  0  0
  9  7  1  0  0  0  0
  9 10  1  0  0  0  0
  9 11  1  6  0  0  0
 10  1  1  0  0  0  0
 11 12  1  0  0  0  0
 13 14  1  1  0  0  0
 13 15  1  0  0  0  0
 13 22  1  0  0  0  0
 14 32  1  0  0  0  0
 15 16  1  6  0  0  0
 15 17  1  0  0  0  0
 16 23  1  0  0  0  0
 17 18  1  6  0  0  0
 17 19  1  0  0  0  0
 19  2  1  6  0  0  0
 19 20  1  0  0  0  0
 20 21  1  1  0  0  0
 20 22  1  0  0  0  0
 23 24  1  0  0  0  0
 24 25  1  0  0  0  0
 25 26  1  0  0  0  0
 26 27  1  0  0  0  0
 27 28  1  0  0  0  0
 28 29  1  0  0  0  0
 29 30  1  0  0  0  0
 31 37  1  0  0  0  0
 32 33  2  0  0  0  0
 34 32  1  6  0  0  0
 34 35  1  0  0  0  0
 34 36  1  0  0  0  0
 36 37  1  0  0  0  0
M  END
>  <CHROM.1>
-129.78759312,68.38161822,112.27458548,-46.87159455,-142.60753482,77.11880422
137.05673519,-127.00244665,88.62495565,174.22694146,71.13624854,68.25430456
-135.24912943,-74.25724841,178.00748847,5.52336773,0.20678560,10.41780534
-0.50472225,-0.20595967,1.10767988

>  <Name>
1o9m_lig

>  <RI>
0

>  <Rbt.Current_Directory>
/home/itssahil/PROJECTS/Mol_Feturizer/New_Systems/rnas/1o9m

>  <Rbt.Executable>
rbdock ($Id: //depot/dev/client3/rdock/2013.1/src/exe/rbdock.cxx#4 $)

>  <Rbt.Library>
libRbt.so (2013.1, Build901 2013/11/27)

>  <Rbt.Parameter_File>
/export/apps/rDock/src/rDock_2013.1_src/data/scripts/dock_solv.prm

>  <Rbt.Receptor>
prm/blind_docking_100.prm

>  <SCORE>
1.31895

>  <SCORE.INTER>
-1.91543

>  <SCORE.INTER.CONST>
1

>  <SCORE.INTER.POLAR>
-0.529499

>  <SCORE.INTER.ROT>
15

>  <SCORE.INTER.SOLV>
19.8112

>  <SCORE.INTER.VDW>
-19.7157

>  <SCORE.INTER.norm>
-0.0517684

>  <SCORE.INTRA>
2.86046

>  <SCORE.INTRA.DIHEDRAL>
3.80314

>  <SCORE.INTRA.DIHEDRAL.0>
21.5987

>  <SCORE.INTRA.POLAR>
0

>  <SCORE.INTRA.POLAR.0>
0

>  <SCORE.INTRA.REPUL>
0.00224527

>  <SCORE.INTRA.REPUL.0>
0

>  <SCORE.INTRA.SOLV>
4.10187

>  <SCORE.INTRA.SOLV.lig_0>
-108.715

>  <SCORE.INTRA.VDW>
-1.10327

>  <SCORE.INTRA.VDW.0>
-3.9485

>  <SCORE.INTRA.norm>
0.0773098

>  <SCORE.RESTR>
0.373912

>  <SCORE.RESTR.CAVITY>
0.373912

>  <SCORE.RESTR.norm>
0.0101057

>  <SCORE.SYSTEM>
0

>  <SCORE.SYSTEM.CONST>
0

>  <SCORE.SYSTEM.DIHEDRAL>
0

>  <SCORE.SYSTEM.SOLV>
0

>  <SCORE.SYSTEM.norm>
0

>  <SCORE.heavy>
37

>  <SCORE.norm>
0.0356472

>  <RMSD>
22.124

$$$$
1o9m_lig
 OpenBabel11021811403D
libRbt.so/2013.1/901 2013/11/27
 37 38  0  0  0  0  0  0  0  0999 V2000
    6.8923   -3.3613    8.8340 C   0  0  2  0  0  0  0  0  0  0  0  0
    7.3304   -2.1317    9.4884 O   0  0  0  0  0  0  0  0  0  0  0  0
    8.1973   -4.1649    8.4794 C   0  0  2  0  0  0  0  0  0  0  0  0
    9.0047   -4.4702    9.6735 N   0  0  0  0  0  0  0  0  0  0  0  0
    9.0396   -3.3424    7.4316 C   0  0  1  0  0  0  0  0  0  0  0  0
   10.2325   -4.0542    7.0912 O   0  0  0  0  0  0  0  0  0  0  0  0
    8.1346   -3.0736    6.1842 C   0  0  2  0  0  0  0  0  0  0  0  0
    8.8015   -2.3103    5.1656 O   0  0  0  0  0  0  0  0  0  0  0  0
    6.8402   -2.3312    6.5984 C   0  0  2  0  0  0  0  0  0  0  0  0
    6.1351   -3.0598    7.6139 O   0  0  0  0  0  0  0  0  0  0  0  0
    5.9243   -2.1096    5.4225 C   0  0  0  0  0  0  0  0  0  0  0  0
    5.4702   -3.3137    4.9395 N   0  0  0  0  0  0  0  0  0  0  0  0
    3.5847   -0.1447   10.4059 C   0  0  1  0  0  0  0  0  0  0  0  0
    2.6254    0.8372   10.9850 N   0  0  0  0  0  0  0  0  0  0  0  0
    4.5928    0.6026    9.5436 C   0  0  2  0  0  0  0  0  0  0  0  0
    3.8847    1.3041    8.5655 O   0  0  0  0  0  0  0  0  0  0  0  0
    5.6100   -0.3912    8.8993 C   0  0  1  0  0  0  0  0  0  0  0  0
    6.5841    0.3391    8.0928 O   0  0  0  0  0  0  0  0  0  0  0  0
    6.3797   -1.1755   10.0387 C   0  0  1  0  0  0  0  0  0  0  0  0
    5.3840   -1.9419   10.8960 C   0  0  1  0  0  0  0  0  0  0  0  0
    6.1126   -2.6665   11.9263 N   0  0  0  0  0  0  0  0  0  0  0  0
    4.3607   -0.9561   11.5209 C   0  0  0  0  0  0  0  0  0  0  0  0
    3.0421    1.5288    7.4139 C   0  0  0  0  0  0  0  0  0  0  0  0
    1.7378    0.7880    7.6000 C   0  0  0  0  0  0  0  0  0  0  0  0
    1.8796   -0.6816    7.6563 N   0  0  0  0  0  0  0  0  0  0  0  0
    2.1160   -2.0905    7.2669 C   0  0  0  0  0  0  0  0  0  0  0  0
    0.9706   -2.2122    6.2539 C   0  0  0  0  0  0  0  0  0  0  0  0
    0.8460   -3.6359    5.6796 C   0  0  0  0  0  0  0  0  0  0  0  0
    2.0382   -3.9755    4.7904 C   0  0  0  0  0  0  0  0  0  0  0  0
    2.2044   -2.9548    3.7653 N   0  0  0  0  0  0  0  0  0  0  0  0
    2.0000    2.9918   16.2711 N   0  0  0  0  0  0  0  0  0  0  0  0
    3.3369    1.7097   12.3558 C   0  0  0  0  0  0  0  0  0  0  0  0
    4.2952    1.6993   12.8515 O   0  0  0  0  0  0  0  0  0  0  0  0
    2.0022    2.4047   12.4694 C   0  0  2  0  0  0  0  0  0  0  0  0
    1.8801    3.4023   11.5356 O   0  0  0  0  0  0  0  0  0  0  0  0
    1.9686    3.0762   13.8379 C   0  0  0  0  0  0  0  0  0  0  0  0
    1.9388    2.1502   15.0673 C   0  0  0  0  0  0  0  0  0  0  0  0
  1  2  1  6  0  0  0
  1  3  1  0  0  0  0
  3  4  1  1  0  0  0
  3  5  1  0  0  0  0
  5  6  1  6  0  0  0
  5  7  1  0  0  0  0
  7  8  1  6  0  0  0
  9  7  1  0  0  0  0
  9 10  1  0  0  0  0
  9 11  1  6  0  0  0
 10  1  1  0  0  0  0
 11 12  1  0  0  0  0
 13 14  1  1  0  0  0
 13 15  1  0  0  0  0
 13 22  1  0  0  0  0
 14 32  1  0  0  0  0
 15 16  1  6  0  0  0
 15 17  1  0  0  0  0
 16 23  1  0  0  0  0
 17 18  1  1  0  0  0
 17 19  1  0  0  0  0
 19  2  1  6  0  0  0
 19 20  1  0  0  0  0
 20 21  1  1  0  0  0
 20 22  1  0  0  0  0
 23 24  1  0  0  0  0
 24 25  1  0  0  0  0
 25 26  1  0  0  0  0
 26 27  1  0  0  0  0
 27 28  1  0  0  0  0
 28 29  1  0  0  0  0
 29 30  1  0  0  0  0
 31 37  1  0  0  0  0
 32 33  2  0  0  0  0
 34 32  1  6  0  0  0
 34 35  1  0  0  0  0
 34 36  1  0  0  0  0
 36 37  1  0  0  0  0
M  END
>  <CHROM.1>
-175.85692550,65.17935600,-77.69909473,-65.08814751,53.84952709,-71.81942823
-64.14255907,-70.51064329,-62.29252472,-176.34232068,-68.39900659,-53.73696067
-78.92032406,-67.18987382,176.27737455,4.70612924,-1.00608625,8.96894022
-1.05557780,-0.37478859,1.08055530

>  <Name>
1o9m_lig

>  <RI>
0

>  <Rbt.Current_Directory>
/home/itssahil/PROJECTS/Mol_Feturizer/New_Systems/rnas/1o9m

>  <Rbt.Executable>
rbdock ($Id: //depot/dev/client3/rdock/2013.1/src/exe/rbdock.cxx#4 $)

>  <Rbt.Library>
libRbt.so (2013.1, Build901 2013/11/27)

>  <Rbt.Parameter_File>
/export/apps/rDock/src/rDock_2013.1_src/data/scripts/dock_solv.prm

>  <Rbt.Receptor>
prm/blind_docking_40.prm

>  <SCORE>
-15.8724

>  <SCORE.INTER>
-9.65216

>  <SCORE.INTER.CONST>
1

>  <SCORE.INTER.POLAR>
-2.21885

>  <SCORE.INTER.ROT>
15

>  <SCORE.INTER.SOLV>
17.6184

>  <SCORE.INTER.VDW>
-18.5114

>  <SCORE.INTER.norm>
-0.260869

>  <SCORE.INTRA>
-6.22875

>  <SCORE.INTRA.DIHEDRAL>
-18.2604

>  <SCORE.INTRA.DIHEDRAL.0>
21.5987

>  <SCORE.INTRA.POLAR>
0

>  <SCORE.INTRA.POLAR.0>
0

>  <SCORE.INTRA.REPUL>
0.0507604

>  <SCORE.INTRA.REPUL.0>
0

>  <SCORE.INTRA.SOLV>
6.88416

>  <SCORE.INTRA.SOLV.lig_0>
-108.715

>  <SCORE.INTRA.VDW>
-0.794446

>  <SCORE.INTRA.VDW.0>
-3.9485

>  <SCORE.INTRA.norm>
-0.168345

>  <SCORE.RESTR>
0.00848545

>  <SCORE.RESTR.CAVITY>
0.00848545

>  <SCORE.RESTR.norm>
0.000229336

>  <SCORE.SYSTEM>
0

>  <SCORE.SYSTEM.CONST>
0

>  <SCORE.SYSTEM.DIHEDRAL>
0

>  <SCORE.SYSTEM.SOLV>
0

>  <SCORE.SYSTEM.norm>
0

>  <SCORE.heavy>
37

>  <SCORE.norm>
-0.428984

>  <RMSD>
22.316

$$$$
1o9m_lig
 OpenBabel11021811403D
libRbt.so/2013.1/901 2013/11/27
 37 38  0  0  0  0  0  0  0  0999 V2000
    9.3483   -1.5983    9.7357 C   0  0  2  0  0  0  0  0  0  0  0  0
    9.4987   -0.1485    9.8243 O   0  0  0  0  0  0  0  0  0  0  0  0
   10.4984   -2.1073    8.7909 C   0  0  2  0  0  0  0  0  0  0  0  0
   11.8348   -1.7530    9.3002 N   0  0  0  0  0  0  0  0  0  0  0  0
   10.2770   -1.5169    7.3465 C   0  0  1  0  0  0  0  0  0  0  0  0
   11.3108   -1.9674    6.4668 O   0  0  0  0  0  0  0  0  0  0  0  0
    8.8547   -1.9481    6.8580 C   0  0  2  0  0  0  0  0  0  0  0  0
    8.5389   -1.4464    5.5490 O   0  0  0  0  0  0  0  0  0  0  0  0
    7.7677   -1.4705    7.8523 C   0  0  2  0  0  0  0  0  0  0  0  0
    8.0387   -1.9521    9.1767 O   0  0  0  0  0  0  0  0  0  0  0  0
    6.3924   -1.9219    7.4335 C   0  0  0  0  0  0  0  0  0  0  0  0
    6.3644   -3.2881    7.2857 N   0  0  0  0  0  0  0  0  0  0  0  0
    6.0710    1.0262   12.2099 C   0  0  1  0  0  0  0  0  0  0  0  0
    5.1509    1.8770   13.0156 N   0  0  0  0  0  0  0  0  0  0  0  0
    6.2107    1.6323   10.8201 C   0  0  2  0  0  0  0  0  0  0  0  0
    4.9342    1.7234   10.2612 O   0  0  0  0  0  0  0  0  0  0  0  0
    7.1542    0.7614    9.9319 C   0  0  1  0  0  0  0  0  0  0  0  0
    7.2974    1.3641    8.6095 O   0  0  0  0  0  0  0  0  0  0  0  0
    8.5834    0.6708   10.6065 C   0  0  1  0  0  0  0  0  0  0  0  0
    8.4593    0.0490   11.9891 C   0  0  1  0  0  0  0  0  0  0  0  0
    9.7843   -0.0385   12.5845 N   0  0  0  0  0  0  0  0  0  0  0  0
    7.5057    0.9041   12.8660 C   0  0  0  0  0  0  0  0  0  0  0  0
    3.6638    1.2901    9.7273 C   0  0  0  0  0  0  0  0  0  0  0  0
    3.9030    0.4536    8.4914 C   0  0  0  0  0  0  0  0  0  0  0  0
    2.7144    0.2964    7.6280 N   0  0  0  0  0  0  0  0  0  0  0  0
    1.8051   -0.1570    6.5510 C   0  0  0  0  0  0  0  0  0  0  0  0
    1.4757   -1.5364    7.1358 C   0  0  0  0  0  0  0  0  0  0  0  0
    0.5611   -2.3610    6.2109 C   0  0  0  0  0  0  0  0  0  0  0  0
    0.2074   -3.7036    6.8433 C   0  0  0  0  0  0  0  0  0  0  0  0
   -0.6801   -3.5027    7.9801 N   0  0  0  0  0  0  0  0  0  0  0  0
    0.2495    3.4139   11.7701 N   0  0  0  0  0  0  0  0  0  0  0  0
    3.5837    1.0841   13.2644 C   0  0  0  0  0  0  0  0  0  0  0  0
    3.1552    0.1360   12.9789 O   0  0  0  0  0  0  0  0  0  0  0  0
    3.1880    2.3362   14.0082 C   0  0  2  0  0  0  0  0  0  0  0  0
    2.4433    2.0388   15.1213 O   0  0  0  0  0  0  0  0  0  0  0  0
    2.2857    3.1375   13.0762 C   0  0  0  0  0  0  0  0  0  0  0  0
    0.9518    2.4861   12.6684 C   0  0  0  0  0  0  0  0  0  0  0  0
  1  2  1  6  0  0  0
  1  3  1  0  0  0  0
  3  4  1  1  0  0  0
  3  5  1  0  0  0  0
  5  6  1  6  0  0  0
  5  7  1  0  0  0  0
  7  8  1  6  0  0  0
  9  7  1  0  0  0  0
  9 10  1  0  0  0  0
  9 11  1  6  0  0  0
 10  1  1  0  0  0  0
 11 12  1  0  0  0  0
 13 14  1  1  0  0  0
 13 15  1  0  0  0  0
 13 22  1  0  0  0  0
 14 32  1  0  0  0  0
 15 16  1  6  0  0  0
 15 17  1  0  0  0  0
 16 23  1  0  0  0  0
 17 18  1  6  0  0  0
 17 19  1  0  0  0  0
 19  2  1  6  0  0  0
 19 20  1  0  0  0  0
 20 21  1  1  0  0  0
 20 22  1  0  0  0  0
 23 24  1  0  0  0  0
 24 25  1  0  0  0  0
 25 26  1  0  0  0  0
 26 27  1  0  0  0  0
 27 28  1  0  0  0  0
 28 29  1  0  0  0  0
 29 30  1  0  0  0  0
 31 37  1  0  0  0  0
 32 33  2  0  0  0  0
 34 32  1  6  0  0  0
 34 35  1  0  0  0  0
 34 36  1  0  0  0  0
 36 37  1  0  0  0  0
M  END
>  <CHROM.1>
178.98809378,55.84708392,107.76488393,-64.29373015,-62.03069931,-70.99078000
-162.28257215,-172.02354319,75.14532038,-177.28946274,-177.77551720,69.67372766
-140.32751560,63.15068684,-179.60440616,5.65812991,-0.15512390,9.76351082
-0.44807490,-0.05951074,1.00631142

>  <Name>
1o9m_lig

>  <RI>
0

>  <Rbt.Current_Directory>
/home/itssahil/PROJECTS/Mol_Feturizer/New_Systems/rnas/1o9m

>  <Rbt.Executable>
rbdock ($Id: //depot/dev/client3/rdock/2013.1/src/exe/rbdock.cxx#4 $)

>  <Rbt.Library>
libRbt.so (2013.1, Build901 2013/11/27)

>  <Rbt.Parameter_File>
/export/apps/rDock/src/rDock_2013.1_src/data/scripts/dock_solv.prm

>  <Rbt.Receptor>
prm/blind_docking_80.prm

>  <SCORE>
-15.1323

>  <SCORE.INTER>
-7.87198

>  <SCORE.INTER.CONST>
1

>  <SCORE.INTER.POLAR>
-0.629812

>  <SCORE.INTER.ROT>
15

>  <SCORE.INTER.SOLV>
14.1701

>  <SCORE.INTER.VDW>
-21.472

>  <SCORE.INTER.norm>
-0.212756

>  <SCORE.INTRA>
-7.83897

>  <SCORE.INTRA.DIHEDRAL>
-15.8029

>  <SCORE.INTRA.DIHEDRAL.0>
21.5987

>  <SCORE.INTRA.POLAR>
0

>  <SCORE.INTRA.POLAR.0>
0

>  <SCORE.INTRA.REPUL>
0

>  <SCORE.INTRA.REPUL.0>
0

>  <SCORE.INTRA.SOLV>
2.27602

>  <SCORE.INTRA.SOLV.lig_0>
-108.715

>  <SCORE.INTRA.VDW>
-1.07551

>  <SCORE.INTRA.VDW.0>
-3.9485

>  <SCORE.INTRA.norm>
-0.211864

>  <SCORE.RESTR>
0.578625

>  <SCORE.RESTR.CAVITY>
0.578625

>  <SCORE.RESTR.norm>
0.0156385

>  <SCORE.SYSTEM>
0

>  <SCORE.SYSTEM.CONST>
0

>  <SCORE.SYSTEM.DIHEDRAL>
0

>  <SCORE.SYSTEM.SOLV>
0

>  <SCORE.SYSTEM.norm>
0

>  <SCORE.heavy>
37

>  <SCORE.norm>
-0.408982

>  <RMSD>
22.325

$$$$
1o9m_lig
 OpenBabel11021811403D
libRbt.so/2013.1/901 2013/11/27
 37 38  0  0  0  0  0  0  0  0999 V2000
    8.1061   -0.1899    8.7718 C   0  0  2  0  0  0  0  0  0  0  0  0
    7.4754   -1.0644    9.7565 O   0  0  0  0  0  0  0  0  0  0  0  0
    8.1702   -1.0067    7.4289 C   0  0  2  0  0  0  0  0  0  0  0  0
    6.8353   -1.4293    6.9702 N   0  0  0  0  0  0  0  0  0  0  0  0
    9.1120   -2.2542    7.6298 C   0  0  1  0  0  0  0  0  0  0  0  0
    9.1883   -3.0134    6.4201 O   0  0  0  0  0  0  0  0  0  0  0  0
   10.5137   -1.7355    8.0921 C   0  0  2  0  0  0  0  0  0  0  0  0
   11.4531   -2.7980    8.3230 O   0  0  0  0  0  0  0  0  0  0  0  0
   10.3848   -0.8923    9.3848 C   0  0  2  0  0  0  0  0  0  0  0  0
    9.4574    0.1873    9.2010 O   0  0  0  0  0  0  0  0  0  0  0  0
   11.7146   -0.3335    9.8204 C   0  0  0  0  0  0  0  0  0  0  0  0
   12.4767   -1.3179   10.4030 N   0  0  0  0  0  0  0  0  0  0  0  0
    4.4343   -0.5009   12.7987 C   0  0  1  0  0  0  0  0  0  0  0  0
    3.7320    0.0496   13.9917 N   0  0  0  0  0  0  0  0  0  0  0  0
    4.6507    0.6223   11.7938 C   0  0  2  0  0  0  0  0  0  0  0  0
    3.4025    1.1646   11.4807 O   0  0  0  0  0  0  0  0  0  0  0  0
    5.3693    0.0865   10.5154 C   0  0  1  0  0  0  0  0  0  0  0  0
    5.5905    1.1765    9.5691 O   0  0  0  0  0  0  0  0  0  0  0  0
    6.7706   -0.5321   10.9145 C   0  0  1  0  0  0  0  0  0  0  0  0
    6.5660   -1.6687   11.9046 C   0  0  1  0  0  0  0  0  0  0  0  0
    7.8635   -2.2321   12.2461 N   0  0  0  0  0  0  0  0  0  0  0  0
    5.8341   -1.1402   13.1672 C   0  0  0  0  0  0  0  0  0  0  0  0
    1.9877    1.2098   11.1928 C   0  0  0  0  0  0  0  0  0  0  0  0
    1.7271    2.2664   10.1439 C   0  0  0  0  0  0  0  0  0  0  0  0
    2.4509    2.0497    8.8743 N   0  0  0  0  0  0  0  0  0  0  0  0
    3.1382    1.3946    7.7381 C   0  0  0  0  0  0  0  0  0  0  0  0
    1.9043    0.7286    7.1160 C   0  0  0  0  0  0  0  0  0  0  0  0
    2.2658   -0.1726    5.9204 C   0  0  0  0  0  0  0  0  0  0  0  0
    2.8947   -1.4810    6.3894 C   0  0  0  0  0  0  0  0  0  0  0  0
    1.8992   -2.2999    7.0666 N   0  0  0  0  0  0  0  0  0  0  0  0
    1.8326    3.9048   15.1583 N   0  0  0  0  0  0  0  0  0  0  0  0
    2.2017   -0.7959   14.2922 C   0  0  0  0  0  0  0  0  0  0  0  0
    1.6768   -1.6126   13.8217 O   0  0  0  0  0  0  0  0  0  0  0  0
    2.0227    0.1602   15.4462 C   0  0  2  0  0  0  0  0  0  0  0  0
    1.0016   -0.2407   16.2700 O   0  0  0  0  0  0  0  0  0  0  0  0
    1.6068    1.5002   14.8495 C   0  0  0  0  0  0  0  0  0  0  0  0
    1.4095    2.6687   15.8321 C   0  0  0  0  0  0  0  0  0  0  0  0
  1  2  1  1  0  0  0
  1  3  1  0  0  0  0
  3  4  1  1  0  0  0
  3  5  1  0  0  0  0
  5  6  1  6  0  0  0
  5  7  1  0  0  0  0
  7  8  1  1  0  0  0
  9  7  1  0  0  0  0
  9 10  1  0  0  0  0
  9 11  1  6  0  0  0
 10  1  1  0  0  0  0
 11 12  1  0  0  0  0
 13 14  1  1  0  0  0
 13 15  1  0  0  0  0
 13 22  1  0  0  0  0
 14 32  1  0  0  0  0
 15 16  1  6  0  0  0
 15 17  1  0  0  0  0
 16 23  1  0  0  0  0
 17 18  1  6  0  0  0
 17 19  1  0  0  0  0
 19  2  1  6  0  0  0
 19 20  1  0  0  0  0
 20 21  1  1  0  0  0
 20 22  1  0  0  0  0
 23 24  1  0  0  0  0
 24 25  1  0  0  0  0
 25 26  1  0  0  0  0
 26 27  1  0  0  0  0
 27 28  1  0  0  0  0
 28 29  1  0  0  0  0
 29 30  1  0  0  0  0
 31 37  1  0  0  0  0
 32 33  2  0  0  0  0
 34 32  1  6  0  0  0
 34 35  1  0  0  0  0
 34 36  1  0  0  0  0
 36 37  1  0  0  0  0
M  END
>  <CHROM.1>
-155.07021448,-76.03680702,122.07788698,-38.01430778,-143.44962560,74.06134043
58.67575904,28.42296138,69.70169885,-175.33032930,75.18708534,68.85781821
-167.71620819,-177.85924987,145.63608771,5.38470515,-0.26166856,10.54910342
-0.60038136,-0.24738116,1.47190853

>  <Name>
1o9m_lig

>  <RI>
0

>  <Rbt.Current_Directory>
/home/itssahil/PROJECTS/Mol_Feturizer/New_Systems/rnas/1o9m

>  <Rbt.Executable>
rbdock ($Id: //depot/dev/client3/rdock/2013.1/src/exe/rbdock.cxx#4 $)

>  <Rbt.Library>
libRbt.so (2013.1, Build901 2013/11/27)

>  <Rbt.Parameter_File>
/export/apps/rDock/src/rDock_2013.1_src/data/scripts/dock_solv.prm

>  <Rbt.Receptor>
prm/blind_docking_40.prm

>  <SCORE>
-7.18284

>  <SCORE.INTER>
-7.0098

>  <SCORE.INTER.CONST>
1

>  <SCORE.INTER.POLAR>
-0.858331

>  <SCORE.INTER.ROT>
15

>  <SCORE.INTER.SOLV>
16.6726

>  <SCORE.INTER.VDW>
-20.9696

>  <SCORE.INTER.norm>
-0.189454

>  <SCORE.INTRA>
-0.404269

>  <SCORE.INTRA.DIHEDRAL>
-2.48006

>  <SCORE.INTRA.DIHEDRAL.0>
21.5987

>  <SCORE.INTRA.POLAR>
0

>  <SCORE.INTRA.POLAR.0>
0

>  <SCORE.INTRA.REPUL>
0

>  <SCORE.INTRA.REPUL.0>
0

>  <SCORE.INTRA.SOLV>
2.74064

>  <SCORE.INTRA.SOLV.lig_0>
-108.715

>  <SCORE.INTRA.VDW>
-0.534559

>  <SCORE.INTRA.VDW.0>
-3.9485

>  <SCORE.INTRA.norm>
-0.0109262

>  <SCORE.RESTR>
0.231229

>  <SCORE.RESTR.CAVITY>
0.231229

>  <SCORE.RESTR.norm>
0.00624942

>  <SCORE.SYSTEM>
0

>  <SCORE.SYSTEM.CONST>
0

>  <SCORE.SYSTEM.DIHEDRAL>
0

>  <SCORE.SYSTEM.SOLV>
0

>  <SCORE.SYSTEM.norm>
0

>  <SCORE.heavy>
37

>  <SCORE.norm>
-0.194131

>  <RMSD>
22.361

$$$$
1o9m_lig
 OpenBabel11021811403D
libRbt.so/2013.1/901 2013/11/27
 37 38  0  0  0  0  0  0  0  0999 V2000
    9.1585   -0.7104   11.5143 C   0  0  2  0  0  0  0  0  0  0  0  0
    8.5191    0.4120   10.8334 O   0  0  0  0  0  0  0  0  0  0  0  0
   10.4369   -1.0712   10.6717 C   0  0  2  0  0  0  0  0  0  0  0  0
   11.3669    0.0658   10.5568 N   0  0  0  0  0  0  0  0  0  0  0  0
    9.9891   -1.5721    9.2461 C   0  0  1  0  0  0  0  0  0  0  0  0
   11.1356   -1.9087    8.4600 O   0  0  0  0  0  0  0  0  0  0  0  0
    9.0260   -2.7897    9.4392 C   0  0  2  0  0  0  0  0  0  0  0  0
    8.5399   -3.3190    8.1948 O   0  0  0  0  0  0  0  0  0  0  0  0
    7.8159   -2.3943   10.3211 C   0  0  2  0  0  0  0  0  0  0  0  0
    8.2527   -1.8628   11.5805 O   0  0  0  0  0  0  0  0  0  0  0  0
    6.9008   -3.5655   10.5692 C   0  0  0  0  0  0  0  0  0  0  0  0
    6.0486   -3.2910   11.6121 N   0  0  0  0  0  0  0  0  0  0  0  0
    4.3730    0.5857   12.0982 C   0  0  1  0  0  0  0  0  0  0  0  0
    3.0704    1.1466   12.5547 N   0  0  0  0  0  0  0  0  0  0  0  0
    4.7331    1.2083   10.7561 C   0  0  2  0  0  0  0  0  0  0  0  0
    3.6908    0.9418    9.8657 O   0  0  0  0  0  0  0  0  0  0  0  0
    6.0860    0.6347   10.2284 C   0  0  1  0  0  0  0  0  0  0  0  0
    6.4312    1.2550    8.9522 O   0  0  0  0  0  0  0  0  0  0  0  0
    7.2361    0.9440   11.2712 C   0  0  1  0  0  0  0  0  0  0  0  0
    6.8965    0.3107   12.6118 C   0  0  1  0  0  0  0  0  0  0  0  0
    7.9721    0.5940   13.5501 N   0  0  0  0  0  0  0  0  0  0  0  0
    5.5418    0.8662   13.1272 C   0  0  0  0  0  0  0  0  0  0  0  0
    2.9676    0.8875    8.6165 C   0  0  0  0  0  0  0  0  0  0  0  0
    1.6407    0.1989    8.8396 C   0  0  0  0  0  0  0  0  0  0  0  0
    1.1728   -0.6002    7.6883 N   0  0  0  0  0  0  0  0  0  0  0  0
    1.0555   -1.6665    6.6677 C   0  0  0  0  0  0  0  0  0  0  0  0
    2.4147   -1.4459    5.9919 C   0  0  0  0  0  0  0  0  0  0  0  0
    2.5767   -2.2899    4.7137 C   0  0  0  0  0  0  0  0  0  0  0  0
    4.0196   -2.2656    4.2189 C   0  0  0  0  0  0  0  0  0  0  0  0
    4.8823   -2.9682    5.1582 N   0  0  0  0  0  0  0  0  0  0  0  0
    2.6353    0.3282   15.4119 N   0  0  0  0  0  0  0  0  0  0  0  0
    3.2866    2.7003   13.3829 C   0  0  0  0  0  0  0  0  0  0  0  0
    4.1323    3.3276   13.6182 O   0  0  0  0  0  0  0  0  0  0  0  0
    1.7914    2.6790   13.5867 C   0  0  2  0  0  0  0  0  0  0  0  0
    1.2264    3.8827   13.2493 O   0  0  0  0  0  0  0  0  0  0  0  0
    1.5516    2.4832   15.0796 C   0  0  0  0  0  0  0  0  0  0  0  0
    1.3570    1.0369   15.5698 C   0  0  0  0  0  0  0  0  0  0  0  0
  1  2  1  6  0  0  0
  1  3  1  0  0  0  0
  3  4  1  6  0  0  0
  3  5  1  0  0  0  0
  5  6  1  6  0  0  0
  5  7  1  0  0  0  0
  7  8  1  6  0  0  0
  9  7  1  0  0  0  0
  9 10  1  0  0  0  0
  9 11  1  1  0  0  0
 10  1  1  0  0  0  0
 11 12  1  0  0  0  0
 13 14  1  1  0  0  0
 13 15  1  0  0  0  0
 13 22  1  0  0  0  0
 14 32  1  0  0  0  0
 15 16  1  6  0  0  0
 15 17  1  0  0  0  0
 16 23  1  0  0  0  0
 17 18  1  6  0  0  0
 17 19  1  0  0  0  0
 19  2  1  6  0  0  0
 19 20  1  0  0  0  0
 20 21  1  1  0  0  0
 20 22  1  0  0  0  0
 23 24  1  0  0  0  0
 24 25  1  0  0  0  0
 25 26  1  0  0  0  0
 26 27  1  0  0  0  0
 27 28  1  0  0  0  0
 28 29  1  0  0  0  0
 29 30  1  0  0  0  0
 31 37  1  0  0  0  0
 32 33  2  0  0  0  0
 34 32  1  1  0  0  0
 34 35  1  0  0  0  0
 34 36  1  0  0  0  0
 36 37  1  0  0  0  0
M  END
>  <CHROM.1>
174.70337600,164.38835758,-83.89206159,-173.22808217,177.50776309,-110.76628453
-146.45971837,70.45040159,-62.88876249,-172.32441460,-168.78482298,67.71777196
-132.56806209,-93.38369927,67.86064785,5.40968278,-0.19023851,10.51469983
-0.78514060,-0.24534354,1.11331741

>  <Name>
1o9m_lig

>  <RI>
0

>  <Rbt.Current_Directory>
/home/itssahil/PROJECTS/Mol_Feturizer/New_Systems/rnas/1o9m

>  <Rbt.Executable>
rbdock ($Id: //depot/dev/client3/rdock/2013.1/src/exe/rbdock.cxx#4 $)

>  <Rbt.Library>
libRbt.so (2013.1, Build901 2013/11/27)

>  <Rbt.Parameter_File>
/export/apps/rDock/src/rDock_2013.1_src/data/scripts/dock_solv.prm

>  <Rbt.Receptor>
prm/blind_docking_20.prm

>  <SCORE>
-6.46044

>  <SCORE.INTER>
-9.93697

>  <SCORE.INTER.CONST>
1

>  <SCORE.INTER.POLAR>
-1.8648

>  <SCORE.INTER.ROT>
15

>  <SCORE.INTER.SOLV>
19.7847

>  <SCORE.INTER.VDW>
-20.6035

>  <SCORE.INTER.norm>
-0.268567

>  <SCORE.INTRA>
3.47653

>  <SCORE.INTRA.DIHEDRAL>
-3.23434

>  <SCORE.INTRA.DIHEDRAL.0>
21.5987

>  <SCORE.INTRA.POLAR>
0

>  <SCORE.INTRA.POLAR.0>
0

>  <SCORE.INTRA.REPUL>
0

>  <SCORE.INTRA.REPUL.0>
0

>  <SCORE.INTRA.SOLV>
6.40105

>  <SCORE.INTRA.SOLV.lig_0>
-108.715

>  <SCORE.INTRA.VDW>
1.89317

>  <SCORE.INTRA.VDW.0>
-3.9485

>  <SCORE.INTRA.norm>
0.0939602

>  <SCORE.RESTR>
0

>  <SCORE.RESTR.CAVITY>
0

>  <SCORE.RESTR.norm>
0

>  <SCORE.SYSTEM>
0

>  <SCORE.SYSTEM.CONST>
0

>  <SCORE.SYSTEM.DIHEDRAL>
0

>  <SCORE.SYSTEM.SOLV>
0

>  <SCORE.SYSTEM.norm>
0

>  <SCORE.heavy>
37

>  <SCORE.norm>
-0.174607

>  <RMSD>
22.386

$$$$
1o9m_lig
 OpenBabel11021811403D
libRbt.so/2013.1/901 2013/11/27
 37 38  0  0  0  0  0  0  0  0999 V2000
    8.1608   -1.9331   12.3685 C   0  0  2  0  0  0  0  0  0  0  0  0
    7.7279   -0.8385   11.5045 O   0  0  0  0  0  0  0  0  0  0  0  0
    9.7134   -2.0763   12.1598 C   0  0  2  0  0  0  0  0  0  0  0  0
   10.4362   -0.8356   12.4901 N   0  0  0  0  0  0  0  0  0  0  0  0
    9.9949   -2.5063   10.6699 C   0  0  1  0  0  0  0  0  0  0  0  0
   11.4021   -2.6450   10.4551 O   0  0  0  0  0  0  0  0  0  0  0  0
    9.2202   -3.8370   10.3935 C   0  0  2  0  0  0  0  0  0  0  0  0
    9.3936   -4.3143    9.0492 O   0  0  0  0  0  0  0  0  0  0  0  0
    7.7070   -3.6550   10.6683 C   0  0  2  0  0  0  0  0  0  0  0  0
    7.4828   -3.1824   12.0046 O   0  0  0  0  0  0  0  0  0  0  0  0
    6.9451   -4.9388   10.4634 C   0  0  0  0  0  0  0  0  0  0  0  0
    7.5155   -5.9528   11.1954 N   0  0  0  0  0  0  0  0  0  0  0  0
    3.5010    0.1373   11.5467 C   0  0  1  0  0  0  0  0  0  0  0  0
    2.2387    0.8838   11.8089 N   0  0  0  0  0  0  0  0  0  0  0  0
    4.4236    1.0109   10.7075 C   0  0  2  0  0  0  0  0  0  0  0  0
    3.7450    1.3493    9.5348 O   0  0  0  0  0  0  0  0  0  0  0  0
    5.7556    0.2603   10.3914 C   0  0  1  0  0  0  0  0  0  0  0  0
    6.6402    1.1157    9.6052 O   0  0  0  0  0  0  0  0  0  0  0  0
    6.4852   -0.1181   11.7444 C   0  0  1  0  0  0  0  0  0  0  0  0
    5.5801   -1.0069   12.5837 C   0  0  1  0  0  0  0  0  0  0  0  0
    6.2749   -1.3547   13.8142 N   0  0  0  0  0  0  0  0  0  0  0  0
    4.2478   -0.2683   12.8814 C   0  0  0  0  0  0  0  0  0  0  0  0
    2.7188    1.9099    8.6867 C   0  0  0  0  0  0  0  0  0  0  0  0
    2.8846    1.3724    7.2838 C   0  0  0  0  0  0  0  0  0  0  0  0
    2.6201   -0.0756    7.1557 N   0  0  0  0  0  0  0  0  0  0  0  0
    1.9875   -1.4087    7.2779 C   0  0  0  0  0  0  0  0  0  0  0  0
    2.0956   -1.8167    5.8032 C   0  0  0  0  0  0  0  0  0  0  0  0
    1.7829   -3.3088    5.5841 C   0  0  0  0  0  0  0  0  0  0  0  0
    0.3735   -3.6497    6.0583 C   0  0  0  0  0  0  0  0  0  0  0  0
   -0.6108   -3.1017    5.1358 N   0  0  0  0  0  0  0  0  0  0  0  0
    1.9526    4.4945   15.6372 N   0  0  0  0  0  0  0  0  0  0  0  0
    2.5597    2.4628   12.5507 C   0  0  0  0  0  0  0  0  0  0  0  0
    3.4478    3.0023   12.8409 O   0  0  0  0  0  0  0  0  0  0  0  0
    1.0607    2.6355   12.5791 C   0  0  2  0  0  0  0  0  0  0  0  0
    0.6381    3.4756   11.5802 O   0  0  0  0  0  0  0  0  0  0  0  0
    0.7191    3.3156   13.9002 C   0  0  0  0  0  0  0  0  0  0  0  0
    1.4959    4.5994   14.2438 C   0  0  0  0  0  0  0  0  0  0  0  0
  1  2  1  6  0  0  0
  1  3  1  0  0  0  0
  3  4  1  6  0  0  0
  3  5  1  0  0  0  0
  5  6  1  1  0  0  0
  5  7  1  0  0  0  0
  7  8  1  6  0  0  0
  9  7  1  0  0  0  0
  9 10  1  0  0  0  0
  9 11  1  1  0  0  0
 10  1  1  0  0  0  0
 11 12  1  0  0  0  0
 13 14  1  1  0  0  0
 13 15  1  0  0  0  0
 13 22  1  0  0  0  0
 14 32  1  0  0  0  0
 15 16  1  6  0  0  0
 15 17  1  0  0  0  0
 16 23  1  0  0  0  0
 17 18  1  6  0  0  0
 17 19  1  0  0  0  0
 19  2  1  6  0  0  0
 19 20  1  0  0  0  0
 20 21  1  1  0  0  0
 20 22  1  0  0  0  0
 23 24  1  0  0  0  0
 24 25  1  0  0  0  0
 25 26  1  0  0  0  0
 26 27  1  0  0  0  0
 27 28  1  0  0  0  0
 28 29  1  0  0  0  0
 29 30  1  0  0  0  0
 31 37  1  0  0  0  0
 32 33  2  0  0  0  0
 34 32  1  6  0  0  0
 34 35  1  0  0  0  0
 34 36  1  0  0  0  0
 36 37  1  0  0  0  0
M  END
>  <CHROM.1>
-158.79808330,52.90621834,-54.75873871,60.25362756,-167.26388446,-142.48963725
66.97744251,46.48254319,133.01903988,168.24409313,59.24744699,72.67755097
-103.07130442,51.38540597,-133.15373253,4.89122824,-0.55496656,10.63929760
-0.40702017,-0.47666765,0.85739415

>  <Name>
1o9m_lig

>  <RI>
0

>  <Rbt.Current_Directory>
/home/itssahil/PROJECTS/Mol_Feturizer/New_Systems/rnas/1o9m

>  <Rbt.Executable>
rbdock ($Id: //depot/dev/client3/rdock/2013.1/src/exe/rbdock.cxx#4 $)

>  <Rbt.Library>
libRbt.so (2013.1, Build901 2013/11/27)

>  <Rbt.Parameter_File>
/export/apps/rDock/src/rDock_2013.1_src/data/scripts/dock_solv.prm

>  <Rbt.Receptor>
prm/blind_docking_20.prm

>  <SCORE>
-3.40816

>  <SCORE.INTER>
-10.796

>  <SCORE.INTER.CONST>
1

>  <SCORE.INTER.POLAR>
-3.04041

>  <SCORE.INTER.ROT>
15

>  <SCORE.INTER.SOLV>
23.6262

>  <SCORE.INTER.VDW>
-18.5381

>  <SCORE.INTER.norm>
-0.291785

>  <SCORE.INTRA>
6.28909

>  <SCORE.INTRA.DIHEDRAL>
-4.00746

>  <SCORE.INTRA.DIHEDRAL.0>
21.5987

>  <SCORE.INTRA.POLAR>
0

>  <SCORE.INTRA.POLAR.0>
0

>  <SCORE.INTRA.REPUL>
0

>  <SCORE.INTRA.REPUL.0>
0

>  <SCORE.INTRA.SOLV>
5.52986

>  <SCORE.INTRA.SOLV.lig_0>
-108.715

>  <SCORE.INTRA.VDW>
5.52789

>  <SCORE.INTRA.VDW.0>
-3.9485

>  <SCORE.INTRA.norm>
0.169975

>  <SCORE.RESTR>
1.09878

>  <SCORE.RESTR.CAVITY>
1.09878

>  <SCORE.RESTR.norm>
0.0296967

>  <SCORE.SYSTEM>
0

>  <SCORE.SYSTEM.CONST>
0

>  <SCORE.SYSTEM.DIHEDRAL>
0

>  <SCORE.SYSTEM.SOLV>
0

>  <SCORE.SYSTEM.norm>
0

>  <SCORE.heavy>
37

>  <SCORE.norm>
-0.0921124

>  <RMSD>
22.401

$$$$
1o9m_lig
 OpenBabel11021811403D
libRbt.so/2013.1/901 2013/11/27
 37 38  0  0  0  0  0  0  0  0999 V2000
    7.7273   -1.4126   10.0447 C   0  0  2  0  0  0  0  0  0  0  0  0
    7.8774   -0.1911   10.8305 O   0  0  0  0  0  0  0  0  0  0  0  0
    8.0600   -2.6071   11.0127 C   0  0  2  0  0  0  0  0  0  0  0  0
    7.1739   -2.6333   12.1896 N   0  0  0  0  0  0  0  0  0  0  0  0
    9.5700   -2.5073   11.4531 C   0  0  1  0  0  0  0  0  0  0  0  0
    9.8981   -3.5853   12.3339 O   0  0  0  0  0  0  0  0  0  0  0  0
   10.4538   -2.5080   10.1622 C   0  0  2  0  0  0  0  0  0  0  0  0
   11.8581   -2.4027   10.4480 O   0  0  0  0  0  0  0  0  0  0  0  0
   10.0466   -1.3475    9.2211 C   0  0  2  0  0  0  0  0  0  0  0  0
    8.6488   -1.4132    8.9030 O   0  0  0  0  0  0  0  0  0  0  0  0
   10.8457   -1.3594    7.9437 C   0  0  0  0  0  0  0  0  0  0  0  0
   10.5447   -2.4785    7.2045 N   0  0  0  0  0  0  0  0  0  0  0  0
    3.8830    0.6275   12.3119 C   0  0  1  0  0  0  0  0  0  0  0  0
    2.7177    1.3804   12.8548 N   0  0  0  0  0  0  0  0  0  0  0  0
    4.2848    1.2393   10.9767 C   0  0  2  0  0  0  0  0  0  0  0  0
    3.1738    1.1938   10.1319 O   0  0  0  0  0  0  0  0  0  0  0  0
    5.4943    0.4685   10.3597 C   0  0  1  0  0  0  0  0  0  0  0  0
    5.8840    1.0775    9.0909 O   0  0  0  0  0  0  0  0  0  0  0  0
    6.7255    0.5310   11.3526 C   0  0  1  0  0  0  0  0  0  0  0  0
    6.3419   -0.0948   12.6850 C   0  0  1  0  0  0  0  0  0  0  0  0
    7.4908   -0.0406   13.5765 N   0  0  0  0  0  0  0  0  0  0  0  0
    5.1271    0.6591   13.2891 C   0  0  0  0  0  0  0  0  0  0  0  0
    1.9788    0.6783    9.5052 C   0  0  0  0  0  0  0  0  0  0  0  0
    1.8930    1.2035    8.0906 C   0  0  0  0  0  0  0  0  0  0  0  0
    2.3647    0.2527    7.0627 N   0  0  0  0  0  0  0  0  0  0  0  0
    2.5245   -0.4737    5.7824 C   0  0  0  0  0  0  0  0  0  0  0  0
    2.2995   -1.8898    6.3272 C   0  0  0  0  0  0  0  0  0  0  0  0
    0.8445   -2.1197    6.7768 C   0  0  0  0  0  0  0  0  0  0  0  0
    0.6910   -3.4694    7.4712 C   0  0  0  0  0  0  0  0  0  0  0  0
   -0.7171   -3.7505    7.7126 N   0  0  0  0  0  0  0  0  0  0  0  0
    2.5864    0.5487   15.5628 N   0  0  0  0  0  0  0  0  0  0  0  0
    3.2266    2.8876   13.6398 C   0  0  0  0  0  0  0  0  0  0  0  0
    4.1721    3.3812   13.8017 O   0  0  0  0  0  0  0  0  0  0  0  0
    1.7649    3.0929   13.9544 C   0  0  2  0  0  0  0  0  0  0  0  0
    1.4016    4.4060   13.7943 O   0  0  0  0  0  0  0  0  0  0  0  0
    1.5798    2.7618   15.4311 C   0  0  0  0  0  0  0  0  0  0  0  0
    1.3340    1.2846   15.7881 C   0  0  0  0  0  0  0  0  0  0  0  0
  1  2  1  1  0  0  0
  1  3  1  0  0  0  0
  3  4  1  1  0  0  0
  3  5  1  0  0  0  0
  5  6  1  1  0  0  0
  5  7  1  0  0  0  0
  7  8  1  1  0  0  0
  9  7  1  0  0  0  0
  9 10  1  0  0  0  0
  9 11  1  6  0  0  0
 10  1  1  0  0  0  0
 11 12  1  0  0  0  0
 13 14  1  1  0  0  0
 13 15  1  0  0  0  0
 13 22  1  0  0  0  0
 14 32  1  0  0  0  0
 15 16  1  6  0  0  0
 15 17  1  0  0  0  0
 16 23  1  0  0  0  0
 17 18  1  6  0  0  0
 17 19  1  0  0  0  0
 19  2  1  6  0  0  0
 19 20  1  0  0  0  0
 20 21  1  1  0  0  0
 20 22  1  0  0  0  0
 23 24  1  0  0  0  0
 24 25  1  0  0  0  0
 25 26  1  0  0  0  0
 26 27  1  0  0  0  0
 27 28  1  0  0  0  0
 28 29  1  0  0  0  0
 29 30  1  0  0  0  0
 31 37  1  0  0  0  0
 32 33  2  0  0  0  0
 34 32  1  1  0  0  0
 34 35  1  0  0  0  0
 34 36  1  0  0  0  0
 36 37  1  0  0  0  0
M  END
>  <CHROM.1>
-102.35700587,66.05585696,-80.37112994,-38.89124154,-149.17586281,-35.14478398
98.85285286,150.21057434,-125.43773272,68.87441381,-172.92605706,-171.77975456
-139.88763038,-86.06093959,70.52744324,5.20053723,-0.22441914,10.77687860
-0.43010225,-0.25346339,1.08703644

>  <Name>
1o9m_lig

>  <RI>
0

>  <Rbt.Current_Directory>
/home/itssahil/PROJECTS/Mol_Feturizer/New_Systems/rnas/1o9m

>  <Rbt.Executable>
rbdock ($Id: //depot/dev/client3/rdock/2013.1/src/exe/rbdock.cxx#4 $)

>  <Rbt.Library>
libRbt.so (2013.1, Build901 2013/11/27)

>  <Rbt.Parameter_File>
/export/apps/rDock/src/rDock_2013.1_src/data/scripts/dock_solv.prm

>  <Rbt.Receptor>
prm/blind_docking_20.prm

>  <SCORE>
-1.38259

>  <SCORE.INTER>
-8.48222

>  <SCORE.INTER.CONST>
1

>  <SCORE.INTER.POLAR>
-2.00518

>  <SCORE.INTER.ROT>
15

>  <SCORE.INTER.SOLV>
18.1591

>  <SCORE.INTER.VDW>
-18.6239

>  <SCORE.INTER.norm>
-0.229249

>  <SCORE.INTRA>
7.09964

>  <SCORE.INTRA.DIHEDRAL>
4.1729

>  <SCORE.INTRA.DIHEDRAL.0>
21.5987

>  <SCORE.INTRA.POLAR>
0

>  <SCORE.INTRA.POLAR.0>
0

>  <SCORE.INTRA.REPUL>
0

>  <SCORE.INTRA.REPUL.0>
0

>  <SCORE.INTRA.SOLV>
9.86793

>  <SCORE.INTRA.SOLV.lig_0>
-108.715

>  <SCORE.INTRA.VDW>
0.0792231

>  <SCORE.INTRA.VDW.0>
-3.9485

>  <SCORE.INTRA.norm>
0.191882

>  <SCORE.RESTR>
0

>  <SCORE.RESTR.CAVITY>
0

>  <SCORE.RESTR.norm>
0

>  <SCORE.SYSTEM>
0

>  <SCORE.SYSTEM.CONST>
0

>  <SCORE.SYSTEM.DIHEDRAL>
0

>  <SCORE.SYSTEM.SOLV>
0

>  <SCORE.SYSTEM.norm>
0

>  <SCORE.heavy>
37

>  <SCORE.norm>
-0.0373672

>  <RMSD>
22.408

$$$$
1o9m_lig
 OpenBabel11021811403D
libRbt.so/2013.1/901 2013/11/27
 37 38  0  0  0  0  0  0  0  0999 V2000
    8.8300   -0.8606   11.7619 C   0  0  2  0  0  0  0  0  0  0  0  0
    7.7733   -0.2846   10.9351 O   0  0  0  0  0  0  0  0  0  0  0  0
   10.1665   -0.7041   10.9471 C   0  0  2  0  0  0  0  0  0  0  0  0
   10.4633    0.7037   10.6296 N   0  0  0  0  0  0  0  0  0  0  0  0
   10.0702   -1.5648    9.6303 C   0  0  1  0  0  0  0  0  0  0  0  0
   11.2762   -1.4404    8.8716 O   0  0  0  0  0  0  0  0  0  0  0  0
    9.7782   -3.0465   10.0385 C   0  0  2  0  0  0  0  0  0  0  0  0
    9.6529   -3.9224    8.9062 O   0  0  0  0  0  0  0  0  0  0  0  0
    8.4841   -3.1349   10.8847 C   0  0  2  0  0  0  0  0  0  0  0  0
    8.5641   -2.2778   12.0329 O   0  0  0  0  0  0  0  0  0  0  0  0
    8.2104   -4.5455   11.3384 C   0  0  0  0  0  0  0  0  0  0  0  0
    6.9775   -4.6205   11.9415 N   0  0  0  0  0  0  0  0  0  0  0  0
    3.7178    0.7014   12.1190 C   0  0  1  0  0  0  0  0  0  0  0  0
    2.5780    1.4405   12.7307 N   0  0  0  0  0  0  0  0  0  0  0  0
    4.4007    1.6054   11.1016 C   0  0  2  0  0  0  0  0  0  0  0  0
    3.4438    1.9929   10.1612 O   0  0  0  0  0  0  0  0  0  0  0  0
    5.5936    0.8642   10.4197 C   0  0  1  0  0  0  0  0  0  0  0  0
    6.2535    1.7480    9.4626 O   0  0  0  0  0  0  0  0  0  0  0  0
    6.6462    0.4294   11.5191 C   0  0  1  0  0  0  0  0  0  0  0  0
    5.9801   -0.4900   12.5315 C   0  0  1  0  0  0  0  0  0  0  0  0
    6.9675   -0.8892   13.5230 N   0  0  0  0  0  0  0  0  0  0  0  0
    4.7819    0.2400   13.1953 C   0  0  0  0  0  0  0  0  0  0  0  0
    2.4340    1.8651    9.1362 C   0  0  0  0  0  0  0  0  0  0  0  0
    3.0885    1.4321    7.8445 C   0  0  0  0  0  0  0  0  0  0  0  0
    2.7445    0.0584    7.4229 N   0  0  0  0  0  0  0  0  0  0  0  0
    2.6566   -1.4186    7.3689 C   0  0  0  0  0  0  0  0  0  0  0  0
    4.1526   -1.7006    7.1805 C   0  0  0  0  0  0  0  0  0  0  0  0
    4.4368   -3.1877    6.8977 C   0  0  0  0  0  0  0  0  0  0  0  0
    5.8908   -3.4004    6.4877 C   0  0  0  0  0  0  0  0  0  0  0  0
    6.7772   -3.0529    7.5894 N   0  0  0  0  0  0  0  0  0  0  0  0
    1.1068    0.6610   17.0076 N   0  0  0  0  0  0  0  0  0  0  0  0
    3.1425    2.7877   13.7371 C   0  0  0  0  0  0  0  0  0  0  0  0
    4.1080    3.1945   13.9947 O   0  0  0  0  0  0  0  0  0  0  0  0
    1.6842    3.0361   14.0362 C   0  0  2  0  0  0  0  0  0  0  0  0
    1.4057    4.3789   14.0717 O   0  0  0  0  0  0  0  0  0  0  0  0
    1.4220    2.4949   15.4374 C   0  0  0  0  0  0  0  0  0  0  0  0
    1.4160    0.9644   15.6028 C   0  0  0  0  0  0  0  0  0  0  0  0
  1  2  1  6  0  0  0
  1  3  1  0  0  0  0
  3  4  1  6  0  0  0
  3  5  1  0  0  0  0
  5  6  1  1  0  0  0
  5  7  1  0  0  0  0
  7  8  1  6  0  0  0
  9  7  1  0  0  0  0
  9 10  1  0  0  0  0
  9 11  1  1  0  0  0
 10  1  1  0  0  0  0
 11 12  1  0  0  0  0
 13 14  1  1  0  0  0
 13 15  1  0  0  0  0
 13 22  1  0  0  0  0
 14 32  1  0  0  0  0
 15 16  1  6  0  0  0
 15 17  1  0  0  0  0
 16 23  1  0  0  0  0
 17 18  1  6  0  0  0
 17 19  1  0  0  0  0
 19  2  1  6  0  0  0
 19 20  1  0  0  0  0
 20 21  1  1  0  0  0
 20 22  1  0  0  0  0
 23 24  1  0  0  0  0
 24 25  1  0  0  0  0
 25 26  1  0  0  0  0
 26 27  1  0  0  0  0
 27 28  1  0  0  0  0
 28 29  1  0  0  0  0
 29 30  1  0  0  0  0
 31 37  1  0  0  0  0
 32 33  2  0  0  0  0
 34 32  1  1  0  0  0
 34 35  1  0  0  0  0
 34 36  1  0  0  0  0
 36 37  1  0  0  0  0
M  END
>  <CHROM.1>
-144.96105938,-172.54902710,-67.79637430,-58.74431943,-71.67906487,-175.98383789
111.29055727,-69.45115972,-61.59789305,-172.61650237,170.57274165,64.25227982
-140.64042568,-71.58655187,-178.30326730,5.60868852,-0.25903702,11.02346558
-0.66738330,-0.44260711,1.22971685

>  <Name>
1o9m_lig

>  <RI>
0

>  <Rbt.Current_Directory>
/home/itssahil/PROJECTS/Mol_Feturizer/New_Systems/rnas/1o9m

>  <Rbt.Executable>
rbdock ($Id: //depot/dev/client3/rdock/2013.1/src/exe/rbdock.cxx#4 $)

>  <Rbt.Library>
libRbt.so (2013.1, Build901 2013/11/27)

>  <Rbt.Parameter_File>
/export/apps/rDock/src/rDock_2013.1_src/data/scripts/dock_solv.prm

>  <Rbt.Receptor>
prm/blind_docking_100.prm

>  <SCORE>
-10.1772

>  <SCORE.INTER>
-9.52846

>  <SCORE.INTER.CONST>
1

>  <SCORE.INTER.POLAR>
-1.7659

>  <SCORE.INTER.ROT>
15

>  <SCORE.INTER.SOLV>
23.7557

>  <SCORE.INTER.VDW>
-21.9845

>  <SCORE.INTER.norm>
-0.257526

>  <SCORE.INTRA>
-0.650965

>  <SCORE.INTRA.DIHEDRAL>
-7.45937

>  <SCORE.INTRA.DIHEDRAL.0>
21.5987

>  <SCORE.INTRA.POLAR>
0

>  <SCORE.INTRA.POLAR.0>
0

>  <SCORE.INTRA.REPUL>
0

>  <SCORE.INTRA.REPUL.0>
0

>  <SCORE.INTRA.SOLV>
5.23106

>  <SCORE.INTRA.SOLV.lig_0>
-108.715

>  <SCORE.INTRA.VDW>
0.46319

>  <SCORE.INTRA.VDW.0>
-3.9485

>  <SCORE.INTRA.norm>
-0.0175936

>  <SCORE.RESTR>
0.00227525

>  <SCORE.RESTR.CAVITY>
0.00227525

>  <SCORE.RESTR.norm>
6.14933e-05

>  <SCORE.SYSTEM>
0

>  <SCORE.SYSTEM.CONST>
0

>  <SCORE.SYSTEM.DIHEDRAL>
0

>  <SCORE.SYSTEM.SOLV>
0

>  <SCORE.SYSTEM.norm>
0

>  <SCORE.heavy>
37

>  <SCORE.norm>
-0.275058

>  <RMSD>
22.494

$$$$
1o9m_lig
 OpenBabel11021811403D
libRbt.so/2013.1/901 2013/11/27
 37 38  0  0  0  0  0  0  0  0999 V2000
   10.3045   -1.9213   10.9726 C   0  0  2  0  0  0  0  0  0  0  0  0
    9.6947   -0.6025   11.1176 O   0  0  0  0  0  0  0  0  0  0  0  0
   11.8578   -1.6859   10.8918 C   0  0  2  0  0  0  0  0  0  0  0  0
   12.3797   -0.9998   12.0867 N   0  0  0  0  0  0  0  0  0  0  0  0
   12.1866   -0.8637    9.5880 C   0  0  1  0  0  0  0  0  0  0  0  0
   13.5955   -0.6379    9.4907 O   0  0  0  0  0  0  0  0  0  0  0  0
   11.6281   -1.6560    8.3601 C   0  0  2  0  0  0  0  0  0  0  0  0
   11.8592   -0.9840    7.1111 O   0  0  0  0  0  0  0  0  0  0  0  0
   10.1084   -1.9083    8.5184 C   0  0  2  0  0  0  0  0  0  0  0  0
    9.8278   -2.5835    9.7532 O   0  0  0  0  0  0  0  0  0  0  0  0
    9.5560   -2.7192    7.3747 C   0  0  0  0  0  0  0  0  0  0  0  0
    9.6143   -1.9963    6.2070 N   0  0  0  0  0  0  0  0  0  0  0  0
    5.6693    1.0138   11.0493 C   0  0  1  0  0  0  0  0  0  0  0  0
    4.2733    1.2767   10.6005 N   0  0  0  0  0  0  0  0  0  0  0  0
    5.8315   -0.4789   11.3026 C   0  0  2  0  0  0  0  0  0  0  0  0
    4.8804   -0.8591   12.2519 O   0  0  0  0  0  0  0  0  0  0  0  0
    7.2782   -0.8000   11.7940 C   0  0  1  0  0  0  0  0  0  0  0  0
    7.4276   -2.2361   12.0125 O   0  0  0  0  0  0  0  0  0  0  0  0
    8.3247   -0.3411   10.6985 C   0  0  1  0  0  0  0  0  0  0  0  0
    8.1851    1.1531   10.4503 C   0  0  1  0  0  0  0  0  0  0  0  0
    9.1648    1.5561    9.4526 N   0  0  0  0  0  0  0  0  0  0  0  0
    6.7412    1.4751    9.9806 C   0  0  0  0  0  0  0  0  0  0  0  0
    3.7089   -1.5001   12.8025 C   0  0  0  0  0  0  0  0  0  0  0  0
    3.5670   -1.1124   14.2565 C   0  0  0  0  0  0  0  0  0  0  0  0
    3.0348    0.2492   14.4703 N   0  0  0  0  0  0  0  0  0  0  0  0
    2.1279    1.4192   14.4991 C   0  0  0  0  0  0  0  0  0  0  0  0
    3.0502    2.4044   13.7699 C   0  0  0  0  0  0  0  0  0  0  0  0
    2.4459    3.8185   13.6846 C   0  0  0  0  0  0  0  0  0  0  0  0
    1.1848    3.8258   12.8261 C   0  0  0  0  0  0  0  0  0  0  0  0
    1.5267    3.5758   11.4329 N   0  0  0  0  0  0  0  0  0  0  0  0
    1.9848    1.0668    6.3976 N   0  0  0  0  0  0  0  0  0  0  0  0
    3.7355    0.0745    9.4121 C   0  0  0  0  0  0  0  0  0  0  0  0
    4.1783   -0.7968    8.9553 O   0  0  0  0  0  0  0  0  0  0  0  0
    2.4452    0.8557    9.3636 C   0  0  2  0  0  0  0  0  0  0  0  0
    1.8981    0.9903   10.6144 O   0  0  0  0  0  0  0  0  0  0  0  0
    1.4613    0.0331    8.5390 C   0  0  0  0  0  0  0  0  0  0  0  0
    1.8355   -0.2322    7.0695 C   0  0  0  0  0  0  0  0  0  0  0  0
  1  2  1  6  0  0  0
  1  3  1  0  0  0  0
  3  4  1  1  0  0  0
  3  5  1  0  0  0  0
  5  6  1  6  0  0  0
  5  7  1  0  0  0  0
  7  8  1  6  0  0  0
  9  7  1  0  0  0  0
  9 10  1  0  0  0  0
  9 11  1  6  0  0  0
 10  1  1  0  0  0  0
 11 12  1  0  0  0  0
 13 14  1  6  0  0  0
 13 15  1  0  0  0  0
 13 22  1  0  0  0  0
 14 32  1  0  0  0  0
 15 16  1  1  0  0  0
 15 17  1  0  0  0  0
 16 23  1  0  0  0  0
 17 18  1  6  0  0  0
 17 19  1  0  0  0  0
 19  2  1  1  0  0  0
 19 20  1  0  0  0  0
 20 21  1  6  0  0  0
 20 22  1  0  0  0  0
 23 24  1  0  0  0  0
 24 25  1  0  0  0  0
 25 26  1  0  0  0  0
 26 27  1  0  0  0  0
 27 28  1  0  0  0  0
 28 29  1  0  0  0  0
 29 30  1  0  0  0  0
 31 37  1  0  0  0  0
 32 33  2  0  0  0  0
 34 32  1  1  0  0  0
 34 35  1  0  0  0  0
 34 36  1  0  0  0  0
 36 37  1  0  0  0  0
M  END
>  <CHROM.1>
154.89934636,-66.88374313,-43.48955861,111.37311824,-177.47317461,81.83654341
76.82692318,66.71009103,-126.89873698,-176.48434376,-65.10973624,-68.55135313
-55.16564542,-62.24930693,-59.16644697,6.45886024,-0.07401926,10.51667687
-0.29202640,-0.26091944,1.40651552

>  <Name>
1o9m_lig

>  <RI>
0

>  <Rbt.Current_Directory>
/home/itssahil/PROJECTS/Mol_Feturizer/New_Systems/rnas/1o9m

>  <Rbt.Executable>
rbdock ($Id: //depot/dev/client3/rdock/2013.1/src/exe/rbdock.cxx#4 $)

>  <Rbt.Library>
libRbt.so (2013.1, Build901 2013/11/27)

>  <Rbt.Parameter_File>
/export/apps/rDock/src/rDock_2013.1_src/data/scripts/dock_solv.prm

>  <Rbt.Receptor>
prm/blind_docking_20.prm

>  <SCORE>
-4.42786

>  <SCORE.INTER>
-5.5704

>  <SCORE.INTER.CONST>
1

>  <SCORE.INTER.POLAR>
-1.73571

>  <SCORE.INTER.ROT>
15

>  <SCORE.INTER.SOLV>
22.9822

>  <SCORE.INTER.VDW>
-19.1886

>  <SCORE.INTER.norm>
-0.150551

>  <SCORE.INTRA>
1.12792

>  <SCORE.INTRA.DIHEDRAL>
-6.00961

>  <SCORE.INTRA.DIHEDRAL.0>
21.5987

>  <SCORE.INTRA.POLAR>
0

>  <SCORE.INTRA.POLAR.0>
0

>  <SCORE.INTRA.REPUL>
0

>  <SCORE.INTRA.REPUL.0>
0

>  <SCORE.INTRA.SOLV>
7.96168

>  <SCORE.INTRA.SOLV.lig_0>
-108.715

>  <SCORE.INTRA.VDW>
0.151887

>  <SCORE.INTRA.VDW.0>
-3.9485

>  <SCORE.INTRA.norm>
0.0304843

>  <SCORE.RESTR>
0.0146222

>  <SCORE.RESTR.CAVITY>
0.0146222

>  <SCORE.RESTR.norm>
0.000395195

>  <SCORE.SYSTEM>
0

>  <SCORE.SYSTEM.CONST>
0

>  <SCORE.SYSTEM.DIHEDRAL>
0

>  <SCORE.SYSTEM.SOLV>
0

>  <SCORE.SYSTEM.norm>
0

>  <SCORE.heavy>
37

>  <SCORE.norm>
-0.119672

>  <RMSD>
22.540

$$$$
1o9m_lig
 OpenBabel11021811403D
libRbt.so/2013.1/901 2013/11/27
 37 38  0  0  0  0  0  0  0  0999 V2000
    7.3771   -3.4192    9.2744 C   0  0  2  0  0  0  0  0  0  0  0  0
    7.6984   -2.1725    9.9635 O   0  0  0  0  0  0  0  0  0  0  0  0
    8.6600   -4.3241    9.3723 C   0  0  2  0  0  0  0  0  0  0  0  0
    9.0506   -4.5870   10.7684 N   0  0  0  0  0  0  0  0  0  0  0  0
    9.8376   -3.6346    8.5838 C   0  0  1  0  0  0  0  0  0  0  0  0
   11.0170   -4.4404    8.6565 O   0  0  0  0  0  0  0  0  0  0  0  0
    9.3671   -3.4062    7.1094 C   0  0  2  0  0  0  0  0  0  0  0  0
   10.3644   -2.7630    6.2991 O   0  0  0  0  0  0  0  0  0  0  0  0
    8.0716   -2.5583    7.0748 C   0  0  2  0  0  0  0  0  0  0  0  0
    7.0417   -3.1650    7.8689 O   0  0  0  0  0  0  0  0  0  0  0  0
    7.5657   -2.3708    5.6679 C   0  0  0  0  0  0  0  0  0  0  0  0
    6.3656   -1.7007    5.6790 N   0  0  0  0  0  0  0  0  0  0  0  0
    3.8101   -0.3380   10.5433 C   0  0  1  0  0  0  0  0  0  0  0  0
    2.7582    0.5795   11.0640 N   0  0  0  0  0  0  0  0  0  0  0  0
    4.8921    0.4900    9.8634 C   0  0  2  0  0  0  0  0  0  0  0  0
    4.2868    1.2422    8.8546 O   0  0  0  0  0  0  0  0  0  0  0  0
    6.0099   -0.4336    9.2844 C   0  0  1  0  0  0  0  0  0  0  0  0
    7.0518    0.3726    8.6545 O   0  0  0  0  0  0  0  0  0  0  0  0
    6.6592   -1.2784   10.4551 C   0  0  1  0  0  0  0  0  0  0  0  0
    5.5907   -2.1247   11.1303 C   0  0  1  0  0  0  0  0  0  0  0  0
    6.2108   -2.9033   12.1918 N   0  0  0  0  0  0  0  0  0  0  0  0
    4.4696   -1.2079   11.6887 C   0  0  0  0  0  0  0  0  0  0  0  0
    3.5214    1.5289    7.6635 C   0  0  0  0  0  0  0  0  0  0  0  0
    2.1877    0.8227    7.7475 C   0  0  0  0  0  0  0  0  0  0  0  0
    2.2154   -0.5795    7.2829 N   0  0  0  0  0  0  0  0  0  0  0  0
    1.8384   -1.8583    6.6387 C   0  0  0  0  0  0  0  0  0  0  0  0
    2.5208   -2.7960    7.6427 C   0  0  0  0  0  0  0  0  0  0  0  0
    1.9022   -2.6974    9.0497 C   0  0  0  0  0  0  0  0  0  0  0  0
    0.4201   -3.0583    9.0244 C   0  0  0  0  0  0  0  0  0  0  0  0
    0.2484   -4.4371    8.5888 N   0  0  0  0  0  0  0  0  0  0  0  0
    0.9633    0.7894   14.9065 N   0  0  0  0  0  0  0  0  0  0  0  0
    3.3563    1.5480   12.4246 C   0  0  0  0  0  0  0  0  0  0  0  0
    4.2971    1.6306   12.9461 O   0  0  0  0  0  0  0  0  0  0  0  0
    1.9671    2.1351   12.4794 C   0  0  2  0  0  0  0  0  0  0  0  0
    1.8056    3.1188   11.5369 O   0  0  0  0  0  0  0  0  0  0  0  0
    1.8232    2.8034   13.8423 C   0  0  0  0  0  0  0  0  0  0  0  0
    1.9207    1.8916   15.0787 C   0  0  0  0  0  0  0  0  0  0  0  0
  1  2  1  1  0  0  0
  1  3  1  0  0  0  0
  3  4  1  1  0  0  0
  3  5  1  0  0  0  0
  5  6  1  6  0  0  0
  5  7  1  0  0  0  0
  7  8  1  6  0  0  0
  9  7  1  0  0  0  0
  9 10  1  0  0  0  0
  9 11  1  6  0  0  0
 10  1  1  0  0  0  0
 11 12  1  0  0  0  0
 13 14  1  1  0  0  0
 13 15  1  0  0  0  0
 13 22  1  0  0  0  0
 14 32  1  0  0  0  0
 15 16  1  6  0  0  0
 15 17  1  0  0  0  0
 16 23  1  0  0  0  0
 17 18  1  1  0  0  0
 17 19  1  0  0  0  0
 19  2  1  6  0  0  0
 19 20  1  0  0  0  0
 20 21  1  1  0  0  0
 20 22  1  0  0  0  0
 23 24  1  0  0  0  0
 24 25  1  0  0  0  0
 25 26  1  0  0  0  0
 26 27  1  0  0  0  0
 27 28  1  0  0  0  0
 28 29  1  0  0  0  0
 29 30  1  0  0  0  0
 31 37  1  0  0  0  0
 32 33  2  0  0  0  0
 34 32  1  1  0  0  0
 34 35  1  0  0  0  0
 34 36  1  0  0  0  0
 36 37  1  0  0  0  0
M  END
>  <CHROM.1>
-159.81062711,175.56541056,-69.23525311,-57.08739204,50.77616134,-76.91617662
-85.08975157,-139.95278438,-148.32047184,64.15584569,59.71143259,62.08745683
-80.72628447,-62.75799440,-52.91306226,5.02848341,-1.15695727,9.62788389
-0.67446841,-0.29562756,1.09326908

>  <Name>
1o9m_lig

>  <RI>
0

>  <Rbt.Current_Directory>
/home/itssahil/PROJECTS/Mol_Feturizer/New_Systems/rnas/1o9m

>  <Rbt.Executable>
rbdock ($Id: //depot/dev/client3/rdock/2013.1/src/exe/rbdock.cxx#4 $)

>  <Rbt.Library>
libRbt.so (2013.1, Build901 2013/11/27)

>  <Rbt.Parameter_File>
/export/apps/rDock/src/rDock_2013.1_src/data/scripts/dock_solv.prm

>  <Rbt.Receptor>
prm/blind_docking_100.prm

>  <SCORE>
-9.92916

>  <SCORE.INTER>
-6.68334

>  <SCORE.INTER.CONST>
1

>  <SCORE.INTER.POLAR>
-1.77992

>  <SCORE.INTER.ROT>
15

>  <SCORE.INTER.SOLV>
16.769

>  <SCORE.INTER.VDW>
-17.7122

>  <SCORE.INTER.norm>
-0.180631

>  <SCORE.INTRA>
-3.25139

>  <SCORE.INTRA.DIHEDRAL>
-12.8378

>  <SCORE.INTRA.DIHEDRAL.0>
21.5987

>  <SCORE.INTRA.POLAR>
0

>  <SCORE.INTRA.POLAR.0>
0

>  <SCORE.INTRA.REPUL>
0

>  <SCORE.INTRA.REPUL.0>
0

>  <SCORE.INTRA.SOLV>
7.0678

>  <SCORE.INTRA.SOLV.lig_0>
-108.715

>  <SCORE.INTRA.VDW>
-0.36638

>  <SCORE.INTRA.VDW.0>
-3.9485

>  <SCORE.INTRA.norm>
-0.0878755

>  <SCORE.RESTR>
0.00557202

>  <SCORE.RESTR.CAVITY>
0.00557202

>  <SCORE.RESTR.norm>
0.000150595

>  <SCORE.SYSTEM>
0

>  <SCORE.SYSTEM.CONST>
0

>  <SCORE.SYSTEM.DIHEDRAL>
0

>  <SCORE.SYSTEM.SOLV>
0

>  <SCORE.SYSTEM.norm>
0

>  <SCORE.heavy>
37

>  <SCORE.norm>
-0.268356

>  <RMSD>
22.601

$$$$
1o9m_lig
 OpenBabel11021811403D
libRbt.so/2013.1/901 2013/11/27
 37 38  0  0  0  0  0  0  0  0999 V2000
    9.0598    0.3770   12.7102 C   0  0  2  0  0  0  0  0  0  0  0  0
    8.0137    1.0352   11.9326 O   0  0  0  0  0  0  0  0  0  0  0  0
   10.4096    0.6313   11.9435 C   0  0  2  0  0  0  0  0  0  0  0  0
   10.7008    2.0675   11.7903 N   0  0  0  0  0  0  0  0  0  0  0  0
   10.3444   -0.0779   10.5376 C   0  0  1  0  0  0  0  0  0  0  0  0
   11.5630    0.1375    9.8206 O   0  0  0  0  0  0  0  0  0  0  0  0
   10.0570   -1.5976   10.7727 C   0  0  2  0  0  0  0  0  0  0  0  0
    9.9596   -2.3427    9.5478 O   0  0  0  0  0  0  0  0  0  0  0  0
    8.7485   -1.7875   11.5790 C   0  0  2  0  0  0  0  0  0  0  0  0
    8.8005   -1.0632   12.8167 O   0  0  0  0  0  0  0  0  0  0  0  0
    8.4779   -3.2415   11.8677 C   0  0  0  0  0  0  0  0  0  0  0  0
    9.5093   -3.7816   12.5983 N   0  0  0  0  0  0  0  0  0  0  0  0
    4.0350    0.0062   10.5426 C   0  0  1  0  0  0  0  0  0  0  0  0
    2.9264   -0.7700    9.9197 N   0  0  0  0  0  0  0  0  0  0  0  0
    4.6182   -0.8052   11.6916 C   0  0  2  0  0  0  0  0  0  0  0  0
    3.5850   -1.0827   12.5891 O   0  0  0  0  0  0  0  0  0  0  0  0
    5.7746   -0.0209   12.3882 C   0  0  1  0  0  0  0  0  0  0  0  0
    6.3399   -0.8177   13.4735 O   0  0  0  0  0  0  0  0  0  0  0  0
    6.9164    0.2865   11.3356 C   0  0  1  0  0  0  0  0  0  0  0  0
    6.3498    1.1133   10.1914 C   0  0  1  0  0  0  0  0  0  0  0  0
    7.4176    1.3969    9.2444 N   0  0  0  0  0  0  0  0  0  0  0  0
    5.1871    0.3420    9.5113 C   0  0  0  0  0  0  0  0  0  0  0  0
    2.3721   -1.6733   13.1055 C   0  0  0  0  0  0  0  0  0  0  0  0
    2.1184   -1.1491   14.5003 C   0  0  0  0  0  0  0  0  0  0  0  0
    1.6277    0.2439   14.5429 N   0  0  0  0  0  0  0  0  0  0  0  0
    1.1142    1.5426   15.0349 C   0  0  0  0  0  0  0  0  0  0  0  0
    2.2872    2.4119   14.5644 C   0  0  0  0  0  0  0  0  0  0  0  0
    2.4061    2.4534   13.0293 C   0  0  0  0  0  0  0  0  0  0  0  0
    1.1744    3.0973   12.4004 C   0  0  0  0  0  0  0  0  0  0  0  0
    1.0173    4.4597   12.8897 N   0  0  0  0  0  0  0  0  0  0  0  0
    2.6038   -2.4472    4.9177 N   0  0  0  0  0  0  0  0  0  0  0  0
    3.5268   -2.2403    9.1294 C   0  0  0  0  0  0  0  0  0  0  0  0
    4.4956   -2.6993    9.0082 O   0  0  0  0  0  0  0  0  0  0  0  0
    2.0918   -2.4844    8.7307 C   0  0  2  0  0  0  0  0  0  0  0  0
    1.5556   -3.5392    9.4249 O   0  0  0  0  0  0  0  0  0  0  0  0
    2.1040   -2.8860    7.2599 C   0  0  0  0  0  0  0  0  0  0  0  0
    2.6334   -1.8440    6.2580 C   0  0  0  0  0  0  0  0  0  0  0  0
  1  2  1  6  0  0  0
  1  3  1  0  0  0  0
  3  4  1  6  0  0  0
  3  5  1  0  0  0  0
  5  6  1  1  0  0  0
  5  7  1  0  0  0  0
  7  8  1  6  0  0  0
  9  7  1  0  0  0  0
  9 10  1  0  0  0  0
  9 11  1  1  0  0  0
 10  1  1  0  0  0  0
 11 12  1  0  0  0  0
 13 14  1  6  0  0  0
 13 15  1  0  0  0  0
 13 22  1  0  0  0  0
 14 32  1  0  0  0  0
 15 16  1  1  0  0  0
 15 17  1  0  0  0  0
 16 23  1  0  0  0  0
 17 18  1  1  0  0  0
 17 19  1  0  0  0  0
 19  2  1  1  0  0  0
 19 20  1  0  0  0  0
 20 21  1  6  0  0  0
 20 22  1  0  0  0  0
 23 24  1  0  0  0  0
 24 25  1  0  0  0  0
 25 26  1  0  0  0  0
 26 27  1  0  0  0  0
 27 28  1  0  0  0  0
 28 29  1  0  0  0  0
 29 30  1  0  0  0  0
 31 37  1  0  0  0  0
 32 33  2  0  0  0  0
 34 32  1  1  0  0  0
 34 35  1  0  0  0  0
 34 36  1  0  0  0  0
 36 37  1  0  0  0  0
M  END
>  <CHROM.1>
117.86601385,59.89703819,-66.34061502,69.49765368,-179.59879449,81.25750976
74.44578078,176.03244654,119.04973302,65.26637397,63.24285232,59.73411180
-109.14456846,-62.38453493,177.98056511,5.46971742,-0.47266428,11.18437066
-0.08636152,-0.04691055,0.95852829

>  <Name>
1o9m_lig

>  <RI>
0

>  <Rbt.Current_Directory>
/home/itssahil/PROJECTS/Mol_Feturizer/New_Systems/rnas/1o9m

>  <Rbt.Executable>
rbdock ($Id: //depot/dev/client3/rdock/2013.1/src/exe/rbdock.cxx#4 $)

>  <Rbt.Library>
libRbt.so (2013.1, Build901 2013/11/27)

>  <Rbt.Parameter_File>
/export/apps/rDock/src/rDock_2013.1_src/data/scripts/dock_solv.prm

>  <Rbt.Receptor>
prm/blind_docking_20.prm

>  <SCORE>
-4.65508

>  <SCORE.INTER>
-3.86614

>  <SCORE.INTER.CONST>
1

>  <SCORE.INTER.POLAR>
-0.37098

>  <SCORE.INTER.ROT>
15

>  <SCORE.INTER.SOLV>
20.5494

>  <SCORE.INTER.VDW>
-21.7906

>  <SCORE.INTER.norm>
-0.10449

>  <SCORE.INTRA>
-0.788944

>  <SCORE.INTRA.DIHEDRAL>
-7.57087

>  <SCORE.INTRA.DIHEDRAL.0>
21.5987

>  <SCORE.INTRA.POLAR>
0

>  <SCORE.INTRA.POLAR.0>
0

>  <SCORE.INTRA.REPUL>
0.000698773

>  <SCORE.INTRA.REPUL.0>
0

>  <SCORE.INTRA.SOLV>
4.66807

>  <SCORE.INTRA.SOLV.lig_0>
-108.715

>  <SCORE.INTRA.VDW>
0.658962

>  <SCORE.INTRA.VDW.0>
-3.9485

>  <SCORE.INTRA.norm>
-0.0213228

>  <SCORE.RESTR>
0

>  <SCORE.RESTR.CAVITY>
0

>  <SCORE.RESTR.norm>
0

>  <SCORE.SYSTEM>
0

>  <SCORE.SYSTEM.CONST>
0

>  <SCORE.SYSTEM.DIHEDRAL>
0

>  <SCORE.SYSTEM.SOLV>
0

>  <SCORE.SYSTEM.norm>
0

>  <SCORE.heavy>
37

>  <SCORE.norm>
-0.125813

>  <RMSD>
22.602

$$$$
1o9m_lig
 OpenBabel11021811403D
libRbt.so/2013.1/901 2013/11/27
 37 38  0  0  0  0  0  0  0  0999 V2000
    9.2249   -1.6303    9.7873 C   0  0  2  0  0  0  0  0  0  0  0  0
    9.4466   -0.1986    9.9699 O   0  0  0  0  0  0  0  0  0  0  0  0
   10.5976   -2.2354    9.3140 C   0  0  2  0  0  0  0  0  0  0  0  0
   11.6769   -1.9961   10.2881 N   0  0  0  0  0  0  0  0  0  0  0  0
   10.9702   -1.6285    7.9080 C   0  0  1  0  0  0  0  0  0  0  0  0
   12.2158   -2.1655    7.4545 O   0  0  0  0  0  0  0  0  0  0  0  0
    9.7977   -1.9372    6.9193 C   0  0  2  0  0  0  0  0  0  0  0  0
   10.0260   -1.4105    5.6020 O   0  0  0  0  0  0  0  0  0  0  0  0
    8.4628   -1.3686    7.4608 C   0  0  2  0  0  0  0  0  0  0  0  0
    8.1889   -1.8714    8.7767 O   0  0  0  0  0  0  0  0  0  0  0  0
    7.3067   -1.7014    6.5535 C   0  0  0  0  0  0  0  0  0  0  0  0
    7.1431   -3.0636    6.4712 N   0  0  0  0  0  0  0  0  0  0  0  0
    5.9045    1.0360   12.1493 C   0  0  1  0  0  0  0  0  0  0  0  0
    4.9515    1.9038   12.8964 N   0  0  0  0  0  0  0  0  0  0  0  0
    6.1316    1.6317   10.7665 C   0  0  2  0  0  0  0  0  0  0  0  0
    4.8904    1.7362   10.1350 O   0  0  0  0  0  0  0  0  0  0  0  0
    7.1124    0.7429    9.9384 C   0  0  1  0  0  0  0  0  0  0  0  0
    7.3391    1.3356    8.6232 O   0  0  0  0  0  0  0  0  0  0  0  0
    8.4994    0.6376   10.6941 C   0  0  1  0  0  0  0  0  0  0  0  0
    8.2880    0.0259   12.0707 C   0  0  1  0  0  0  0  0  0  0  0  0
    9.5755   -0.0755   12.7413 N   0  0  0  0  0  0  0  0  0  0  0  0
    7.2976    0.8989   12.8870 C   0  0  0  0  0  0  0  0  0  0  0  0
    3.6261    1.3210    9.5732 C   0  0  0  0  0  0  0  0  0  0  0  0
    3.8760    0.5798    8.2799 C   0  0  0  0  0  0  0  0  0  0  0  0
    4.5304   -0.7336    8.4522 N   0  0  0  0  0  0  0  0  0  0  0  0
    4.8475   -2.0978    8.9327 C   0  0  0  0  0  0  0  0  0  0  0  0
    5.0565   -1.7448   10.4108 C   0  0  0  0  0  0  0  0  0  0  0  0
    5.2303   -2.9958   11.2924 C   0  0  0  0  0  0  0  0  0  0  0  0
    3.9763   -3.8642   11.2666 C   0  0  0  0  0  0  0  0  0  0  0  0
    2.8198   -3.0854   11.6865 N   0  0  0  0  0  0  0  0  0  0  0  0
    1.3804    4.6406   14.4794 N   0  0  0  0  0  0  0  0  0  0  0  0
    3.5660    0.9763   13.5020 C   0  0  0  0  0  0  0  0  0  0  0  0
    3.2660   -0.0594   13.4626 O   0  0  0  0  0  0  0  0  0  0  0  0
    3.0572    2.2907   14.0415 C   0  0  2  0  0  0  0  0  0  0  0  0
    2.2977    2.1047   15.1687 O   0  0  0  0  0  0  0  0  0  0  0  0
    2.1330    2.8763   12.9796 C   0  0  0  0  0  0  0  0  0  0  0  0
    1.8003    4.3748   13.0959 C   0  0  0  0  0  0  0  0  0  0  0  0
  1  2  1  6  0  0  0
  1  3  1  0  0  0  0
  3  4  1  1  0  0  0
  3  5  1  0  0  0  0
  5  6  1  6  0  0  0
  5  7  1  0  0  0  0
  7  8  1  6  0  0  0
  9  7  1  0  0  0  0
  9 10  1  0  0  0  0
  9 11  1  6  0  0  0
 10  1  1  0  0  0  0
 11 12  1  0  0  0  0
 13 14  1  1  0  0  0
 13 15  1  0  0  0  0
 13 22  1  0  0  0  0
 14 32  1  0  0  0  0
 15 16  1  6  0  0  0
 15 17  1  0  0  0  0
 16 23  1  0  0  0  0
 17 18  1  6  0  0  0
 17 19  1  0  0  0  0
 19  2  1  6  0  0  0
 19 20  1  0  0  0  0
 20 21  1  1  0  0  0
 20 22  1  0  0  0  0
 23 24  1  0  0  0  0
 24 25  1  0  0  0  0
 25 26  1  0  0  0  0
 26 27  1  0  0  0  0
 27 28  1  0  0  0  0
 28 29  1  0  0  0  0
 29 30  1  0  0  0  0
 31 37  1  0  0  0  0
 32 33  2  0  0  0  0
 34 32  1  6  0  0  0
 34 35  1  0  0  0  0
 34 36  1  0  0  0  0
 36 37  1  0  0  0  0
M  END
>  <CHROM.1>
-165.44200904,61.92394368,125.60906115,-59.17887126,-72.36852821,-65.88591038
68.75559982,49.98771023,-59.29057653,172.28312027,-62.67948167,-56.58237375
-150.49306980,-163.06320570,-49.35650466,6.39365164,-0.18253335,10.41227259
-0.75399402,0.05450633,0.88204334

>  <Name>
1o9m_lig

>  <RI>
0

>  <Rbt.Current_Directory>
/home/itssahil/PROJECTS/Mol_Feturizer/New_Systems/rnas/1o9m

>  <Rbt.Executable>
rbdock ($Id: //depot/dev/client3/rdock/2013.1/src/exe/rbdock.cxx#4 $)

>  <Rbt.Library>
libRbt.so (2013.1, Build901 2013/11/27)

>  <Rbt.Parameter_File>
/export/apps/rDock/src/rDock_2013.1_src/data/scripts/dock_solv.prm

>  <Rbt.Receptor>
prm/blind_docking_60.prm

>  <SCORE>
-10.9987

>  <SCORE.INTER>
-5.6064

>  <SCORE.INTER.CONST>
1

>  <SCORE.INTER.POLAR>
0

>  <SCORE.INTER.ROT>
15

>  <SCORE.INTER.SOLV>
13.5554

>  <SCORE.INTER.VDW>
-21.8561

>  <SCORE.INTER.norm>
-0.151524

>  <SCORE.INTRA>
-5.8912

>  <SCORE.INTRA.DIHEDRAL>
-14.6816

>  <SCORE.INTRA.DIHEDRAL.0>
21.5987

>  <SCORE.INTRA.POLAR>
0

>  <SCORE.INTRA.POLAR.0>
0

>  <SCORE.INTRA.REPUL>
0.0677648

>  <SCORE.INTRA.REPUL.0>
0

>  <SCORE.INTRA.SOLV>
9.24879

>  <SCORE.INTRA.SOLV.lig_0>
-108.715

>  <SCORE.INTRA.VDW>
-3.51365

>  <SCORE.INTRA.VDW.0>
-3.9485

>  <SCORE.INTRA.norm>
-0.159222

>  <SCORE.RESTR>
0.498878

>  <SCORE.RESTR.CAVITY>
0.498878

>  <SCORE.RESTR.norm>
0.0134832

>  <SCORE.SYSTEM>
0

>  <SCORE.SYSTEM.CONST>
0

>  <SCORE.SYSTEM.DIHEDRAL>
0

>  <SCORE.SYSTEM.SOLV>
0

>  <SCORE.SYSTEM.norm>
0

>  <SCORE.heavy>
37

>  <SCORE.norm>
-0.297263

>  <RMSD>
22.604

$$$$
1o9m_lig
 OpenBabel11021811403D
libRbt.so/2013.1/901 2013/11/27
 37 38  0  0  0  0  0  0  0  0999 V2000
    8.5333   -1.6922    8.2504 C   0  0  2  0  0  0  0  0  0  0  0  0
    7.5793   -2.1977    9.2336 O   0  0  0  0  0  0  0  0  0  0  0  0
    9.4529   -2.9069    7.8586 C   0  0  2  0  0  0  0  0  0  0  0  0
    8.6814   -4.0330    7.3040 N   0  0  0  0  0  0  0  0  0  0  0  0
   10.2719   -3.3620    9.1259 C   0  0  1  0  0  0  0  0  0  0  0  0
   11.1185   -4.4660    8.7944 O   0  0  0  0  0  0  0  0  0  0  0  0
   11.0830   -2.1305    9.6484 C   0  0  2  0  0  0  0  0  0  0  0  0
   11.8585   -2.4302   10.8204 O   0  0  0  0  0  0  0  0  0  0  0  0
   10.1354   -0.9471    9.9649 C   0  0  2  0  0  0  0  0  0  0  0  0
    9.3409   -0.6074    8.8192 O   0  0  0  0  0  0  0  0  0  0  0  0
   10.8977    0.2715   10.4172 C   0  0  0  0  0  0  0  0  0  0  0  0
   11.7007    0.7344    9.4022 N   0  0  0  0  0  0  0  0  0  0  0  0
    3.8572   -0.3739   10.5144 C   0  0  1  0  0  0  0  0  0  0  0  0
    2.9146    0.5307   11.2304 N   0  0  0  0  0  0  0  0  0  0  0  0
    4.8129    0.4706    9.6825 C   0  0  2  0  0  0  0  0  0  0  0  0
    4.0494    1.2507    8.8115 O   0  0  0  0  0  0  0  0  0  0  0  0
    5.8104   -0.4386    8.8977 C   0  0  1  0  0  0  0  0  0  0  0  0
    6.7350    0.3829    8.1213 O   0  0  0  0  0  0  0  0  0  0  0  0
    6.6442   -1.3157    9.9182 C   0  0  1  0  0  0  0  0  0  0  0  0
    5.7009   -2.1784   10.7427 C   0  0  1  0  0  0  0  0  0  0  0  0
    6.4877   -2.9863   11.6624 N   0  0  0  0  0  0  0  0  0  0  0  0
    4.6965   -1.2754   11.5077 C   0  0  0  0  0  0  0  0  0  0  0  0
    3.1480    1.5707    7.7292 C   0  0  0  0  0  0  0  0  0  0  0  0
    1.7860    0.9871    8.0274 C   0  0  0  0  0  0  0  0  0  0  0  0
    1.6937   -0.4723    7.8164 N   0  0  0  0  0  0  0  0  0  0  0  0
    2.0547   -1.8825    7.5454 C   0  0  0  0  0  0  0  0  0  0  0  0
    2.5675   -1.6854    6.1132 C   0  0  0  0  0  0  0  0  0  0  0  0
    2.7270   -3.0193    5.3599 C   0  0  0  0  0  0  0  0  0  0  0  0
    1.3991   -3.4749    4.7629 C   0  0  0  0  0  0  0  0  0  0  0  0
    0.5308   -3.9923    5.8111 N   0  0  0  0  0  0  0  0  0  0  0  0
    1.6853    4.0419   15.3954 N   0  0  0  0  0  0  0  0  0  0  0  0
    3.7725    1.8620   12.0296 C   0  0  0  0  0  0  0  0  0  0  0  0
    4.8045    2.1675   12.1051 O   0  0  0  0  0  0  0  0  0  0  0  0
    2.4153    2.2984   12.5248 C   0  0  2  0  0  0  0  0  0  0  0  0
    1.5367    2.4656   11.4846 O   0  0  0  0  0  0  0  0  0  0  0  0
    2.5995    3.6675   13.1699 C   0  0  0  0  0  0  0  0  0  0  0  0
    1.4064    4.2291   13.9643 C   0  0  0  0  0  0  0  0  0  0  0  0
  1  2  1  1  0  0  0
  1  3  1  0  0  0  0
  3  4  1  1  0  0  0
  3  5  1  0  0  0  0
  5  6  1  6  0  0  0
  5  7  1  0  0  0  0
  7  8  1  1  0  0  0
  9  7  1  0  0  0  0
  9 10  1  0  0  0  0
  9 11  1  6  0  0  0
 10  1  1  0  0  0  0
 11 12  1  0  0  0  0
 13 14  1  1  0  0  0
 13 15  1  0  0  0  0
 13 22  1  0  0  0  0
 14 32  1  0  0  0  0
 15 16  1  6  0  0  0
 15 17  1  0  0  0  0
 16 23  1  0  0  0  0
 17 18  1  1  0  0  0
 17 19  1  0  0  0  0
 19  2  1  6  0  0  0
 19 20  1  0  0  0  0
 20 21  1  1  0  0  0
 20 22  1  0  0  0  0
 23 24  1  0  0  0  0
 24 25  1  0  0  0  0
 25 26  1  0  0  0  0
 26 27  1  0  0  0  0
 27 28  1  0  0  0  0
 28 29  1  0  0  0  0
 29 30  1  0  0  0  0
 31 37  1  0  0  0  0
 32 33  2  0  0  0  0
 34 32  1  6  0  0  0
 34 35  1  0  0  0  0
 34 36  1  0  0  0  0
 36 37  1  0  0  0  0
M  END
>  <CHROM.1>
174.16722879,64.22489822,-47.77155040,-64.88166397,63.42498725,52.84620086
-76.06586825,7.55645517,-63.03039342,-166.07834700,83.29536415,-74.79841641
-54.91341037,-170.02405844,102.30563267,5.60131257,-0.55876229,9.57583495
0.44363973,0.21627472,-2.28173183

>  <Name>
1o9m_lig

>  <RI>
0

>  <Rbt.Current_Directory>
/home/itssahil/PROJECTS/Mol_Feturizer/New_Systems/rnas/1o9m

>  <Rbt.Executable>
rbdock ($Id: //depot/dev/client3/rdock/2013.1/src/exe/rbdock.cxx#4 $)

>  <Rbt.Library>
libRbt.so (2013.1, Build901 2013/11/27)

>  <Rbt.Parameter_File>
/export/apps/rDock/src/rDock_2013.1_src/data/scripts/dock_solv.prm

>  <Rbt.Receptor>
prm/blind_docking_80.prm

>  <SCORE>
-9.25038

>  <SCORE.INTER>
-7.12783

>  <SCORE.INTER.CONST>
1

>  <SCORE.INTER.POLAR>
-1.77632

>  <SCORE.INTER.ROT>
15

>  <SCORE.INTER.SOLV>
19.2909

>  <SCORE.INTER.VDW>
-18.8611

>  <SCORE.INTER.norm>
-0.192644

>  <SCORE.INTRA>
-2.43211

>  <SCORE.INTRA.DIHEDRAL>
-9.56354

>  <SCORE.INTRA.DIHEDRAL.0>
21.5987

>  <SCORE.INTRA.POLAR>
0

>  <SCORE.INTRA.POLAR.0>
0

>  <SCORE.INTRA.REPUL>
0

>  <SCORE.INTRA.REPUL.0>
0

>  <SCORE.INTRA.SOLV>
3.87279

>  <SCORE.INTRA.SOLV.lig_0>
-108.715

>  <SCORE.INTRA.VDW>
0.41327

>  <SCORE.INTRA.VDW.0>
-3.9485

>  <SCORE.INTRA.norm>
-0.0657326

>  <SCORE.RESTR>
0.309557

>  <SCORE.RESTR.CAVITY>
0.309557

>  <SCORE.RESTR.norm>
0.00836641

>  <SCORE.SYSTEM>
0

>  <SCORE.SYSTEM.CONST>
0

>  <SCORE.SYSTEM.DIHEDRAL>
0

>  <SCORE.SYSTEM.SOLV>
0

>  <SCORE.SYSTEM.norm>
0

>  <SCORE.heavy>
37

>  <SCORE.norm>
-0.25001

>  <RMSD>
22.646

$$$$
1o9m_lig
 OpenBabel11021811403D
libRbt.so/2013.1/901 2013/11/27
 37 38  0  0  0  0  0  0  0  0999 V2000
    8.1588   -1.3279    8.1963 C   0  0  2  0  0  0  0  0  0  0  0  0
    7.3031   -2.0156    9.1591 O   0  0  0  0  0  0  0  0  0  0  0  0
    9.0501   -2.4358    7.5235 C   0  0  2  0  0  0  0  0  0  0  0  0
    8.2417   -3.4706    6.8551 N   0  0  0  0  0  0  0  0  0  0  0  0
    9.9853   -3.0784    8.6173 C   0  0  1  0  0  0  0  0  0  0  0  0
   10.8083   -4.0893    8.0290 O   0  0  0  0  0  0  0  0  0  0  0  0
   10.8292   -1.9334    9.2687 C   0  0  2  0  0  0  0  0  0  0  0  0
   11.7110   -2.4078   10.2993 O   0  0  0  0  0  0  0  0  0  0  0  0
    9.9035   -0.8442    9.8647 C   0  0  2  0  0  0  0  0  0  0  0  0
    9.0048   -0.3353    8.8684 O   0  0  0  0  0  0  0  0  0  0  0  0
   10.6925    0.2987   10.4493 C   0  0  0  0  0  0  0  0  0  0  0  0
    9.8510    1.1865   11.0761 N   0  0  0  0  0  0  0  0  0  0  0  0
    3.4933   -0.9186   10.9205 C   0  0  1  0  0  0  0  0  0  0  0  0
    2.4885   -0.1826   11.7379 N   0  0  0  0  0  0  0  0  0  0  0  0
    4.1203    0.0478    9.9248 C   0  0  2  0  0  0  0  0  0  0  0  0
    3.0935    0.5938    9.1517 O   0  0  0  0  0  0  0  0  0  0  0  0
    5.1696   -0.6860    9.0314 C   0  0  1  0  0  0  0  0  0  0  0  0
    5.7792    0.2552    8.0960 O   0  0  0  0  0  0  0  0  0  0  0  0
    6.3059   -1.3023    9.9451 C   0  0  1  0  0  0  0  0  0  0  0  0
    5.6938   -2.2844   10.9323 C   0  0  1  0  0  0  0  0  0  0  0  0
    6.7558   -2.8495   11.7510 N   0  0  0  0  0  0  0  0  0  0  0  0
    4.6364   -1.5594   11.8074 C   0  0  0  0  0  0  0  0  0  0  0  0
    2.4560    1.3011    8.0654 C   0  0  0  0  0  0  0  0  0  0  0  0
    2.5392    0.4636    6.8100 C   0  0  0  0  0  0  0  0  0  0  0  0
    2.0369   -0.9167    6.9693 N   0  0  0  0  0  0  0  0  0  0  0  0
    1.8736   -2.3115    7.4388 C   0  0  0  0  0  0  0  0  0  0  0  0
    0.4352   -2.5198    6.9484 C   0  0  0  0  0  0  0  0  0  0  0  0
    0.3811   -3.0843    5.5163 C   0  0  0  0  0  0  0  0  0  0  0  0
   -1.0417   -3.0518    4.9668 C   0  0  0  0  0  0  0  0  0  0  0  0
   -1.9693   -3.5980    5.9474 N   0  0  0  0  0  0  0  0  0  0  0  0
    2.1034    0.6968   16.2251 N   0  0  0  0  0  0  0  0  0  0  0  0
    2.6945    1.5734   11.5940 C   0  0  0  0  0  0  0  0  0  0  0  0
    3.3644    2.2203   11.0492 O   0  0  0  0  0  0  0  0  0  0  0  0
    1.5471    1.6811   12.5684 C   0  0  2  0  0  0  0  0  0  0  0  0
    0.9221    2.8982   12.4679 O   0  0  0  0  0  0  0  0  0  0  0  0
    2.1477    1.6090   13.9680 C   0  0  0  0  0  0  0  0  0  0  0  0
    1.2463    1.0517   15.0846 C   0  0  0  0  0  0  0  0  0  0  0  0
  1  2  1  1  0  0  0
  1  3  1  0  0  0  0
  3  4  1  1  0  0  0
  3  5  1  0  0  0  0
  5  6  1  6  0  0  0
  5  7  1  0  0  0  0
  7  8  1  1  0  0  0
  9  7  1  0  0  0  0
  9 10  1  0  0  0  0
  9 11  1  6  0  0  0
 10  1  1  0  0  0  0
 11 12  1  0  0  0  0
 13 14  1  1  0  0  0
 13 15  1  0  0  0  0
 13 22  1  0  0  0  0
 14 32  1  0  0  0  0
 15 16  1  6  0  0  0
 15 17  1  0  0  0  0
 16 23  1  0  0  0  0
 17 18  1  6  0  0  0
 17 19  1  0  0  0  0
 19  2  1  6  0  0  0
 19 20  1  0  0  0  0
 20 21  1  1  0  0  0
 20 22  1  0  0  0  0
 23 24  1  0  0  0  0
 24 25  1  0  0  0  0
 25 26  1  0  0  0  0
 26 27  1  0  0  0  0
 27 28  1  0  0  0  0
 28 29  1  0  0  0  0
 29 30  1  0  0  0  0
 31 37  1  0  0  0  0
 32 33  2  0  0  0  0
 34 32  1  6  0  0  0
 34 35  1  0  0  0  0
 34 36  1  0  0  0  0
 36 37  1  0  0  0  0
M  END
>  <CHROM.1>
-177.96851227,-174.53444313,-15.79328811,-166.09709772,72.27647722,64.62620264
52.60994673,-60.69673696,160.81390768,90.30658581,-170.06376290,-47.68555427
-157.12286145,-152.41361926,163.54214670,4.98529236,-0.83387112,9.64283212
0.13639813,0.12432304,-2.09081674

>  <Name>
1o9m_lig

>  <RI>
0

>  <Rbt.Current_Directory>
/home/itssahil/PROJECTS/Mol_Feturizer/New_Systems/rnas/1o9m

>  <Rbt.Executable>
rbdock ($Id: //depot/dev/client3/rdock/2013.1/src/exe/rbdock.cxx#4 $)

>  <Rbt.Library>
libRbt.so (2013.1, Build901 2013/11/27)

>  <Rbt.Parameter_File>
/export/apps/rDock/src/rDock_2013.1_src/data/scripts/dock_solv.prm

>  <Rbt.Receptor>
prm/blind_docking_40.prm

>  <SCORE>
-7.9514

>  <SCORE.INTER>
-6.69654

>  <SCORE.INTER.CONST>
1

>  <SCORE.INTER.POLAR>
-2.28535

>  <SCORE.INTER.ROT>
15

>  <SCORE.INTER.SOLV>
18.3164

>  <SCORE.INTER.VDW>
-16.552

>  <SCORE.INTER.norm>
-0.180988

>  <SCORE.INTRA>
-1.25485

>  <SCORE.INTRA.DIHEDRAL>
-9.75571

>  <SCORE.INTRA.DIHEDRAL.0>
21.5987

>  <SCORE.INTRA.POLAR>
0

>  <SCORE.INTRA.POLAR.0>
0

>  <SCORE.INTRA.REPUL>
0

>  <SCORE.INTRA.REPUL.0>
0

>  <SCORE.INTRA.SOLV>
1.56863

>  <SCORE.INTRA.SOLV.lig_0>
-108.715

>  <SCORE.INTRA.VDW>
2.83869

>  <SCORE.INTRA.VDW.0>
-3.9485

>  <SCORE.INTRA.norm>
-0.033915

>  <SCORE.RESTR>
0

>  <SCORE.RESTR.CAVITY>
0

>  <SCORE.RESTR.norm>
0

>  <SCORE.SYSTEM>
0

>  <SCORE.SYSTEM.CONST>
0

>  <SCORE.SYSTEM.DIHEDRAL>
0

>  <SCORE.SYSTEM.SOLV>
0

>  <SCORE.SYSTEM.norm>
0

>  <SCORE.heavy>
37

>  <SCORE.norm>
-0.214903

>  <RMSD>
22.650

$$$$
1o9m_lig
 OpenBabel11021811403D
libRbt.so/2013.1/901 2013/11/27
 37 38  0  0  0  0  0  0  0  0999 V2000
    8.2700   -0.9572    8.5444 C   0  0  2  0  0  0  0  0  0  0  0  0
    7.3730   -1.6335    9.4773 O   0  0  0  0  0  0  0  0  0  0  0  0
    9.0842   -2.0871    7.8130 C   0  0  2  0  0  0  0  0  0  0  0  0
    8.2074   -3.0320    7.0994 N   0  0  0  0  0  0  0  0  0  0  0  0
    9.9775   -2.8431    8.8685 C   0  0  1  0  0  0  0  0  0  0  0  0
   10.7303   -3.8760    8.2266 O   0  0  0  0  0  0  0  0  0  0  0  0
   10.8971   -1.7898    9.5704 C   0  0  2  0  0  0  0  0  0  0  0  0
   11.7481   -2.3717   10.5714 O   0  0  0  0  0  0  0  0  0  0  0  0
   10.0471   -0.6726   10.2244 C   0  0  2  0  0  0  0  0  0  0  0  0
    9.1816   -0.0570    9.2594 O   0  0  0  0  0  0  0  0  0  0  0  0
   10.9116    0.3855   10.8597 C   0  0  0  0  0  0  0  0  0  0  0  0
   10.1284    1.3530   11.4428 N   0  0  0  0  0  0  0  0  0  0  0  0
    3.5037   -0.5688   11.1252 C   0  0  1  0  0  0  0  0  0  0  0  0
    2.4633    0.1776   11.8868 N   0  0  0  0  0  0  0  0  0  0  0  0
    4.1131    0.3610   10.0847 C   0  0  2  0  0  0  0  0  0  0  0  0
    3.0804    0.8281    9.2689 O   0  0  0  0  0  0  0  0  0  0  0  0
    5.1990   -0.3858    9.2475 C   0  0  1  0  0  0  0  0  0  0  0  0
    5.7909    0.5217    8.2684 O   0  0  0  0  0  0  0  0  0  0  0  0
    6.3415   -0.9113   10.2089 C   0  0  1  0  0  0  0  0  0  0  0  0
    5.7476   -1.8568   11.2420 C   0  0  1  0  0  0  0  0  0  0  0  0
    6.8156   -2.3391   12.1048 N   0  0  0  0  0  0  0  0  0  0  0  0
    4.6542   -1.1201   12.0613 C   0  0  0  0  0  0  0  0  0  0  0  0
    2.4322    1.5367    8.1899 C   0  0  0  0  0  0  0  0  0  0  0  0
    2.5576    0.7291    6.9185 C   0  0  0  0  0  0  0  0  0  0  0  0
    1.8856   -0.5857    6.9683 N   0  0  0  0  0  0  0  0  0  0  0  0
    1.2984   -1.8843    6.5666 C   0  0  0  0  0  0  0  0  0  0  0  0
    2.5185   -2.4306    5.8144 C   0  0  0  0  0  0  0  0  0  0  0  0
    3.6368   -2.8902    6.7685 C   0  0  0  0  0  0  0  0  0  0  0  0
    4.8873   -3.2950    5.9942 C   0  0  0  0  0  0  0  0  0  0  0  0
    4.6048   -4.4531    5.1580 N   0  0  0  0  0  0  0  0  0  0  0  0
    2.3572    0.9103   15.9869 N   0  0  0  0  0  0  0  0  0  0  0  0
    3.0937    1.7121   12.5149 C   0  0  0  0  0  0  0  0  0  0  0  0
    4.0411    2.2256   12.4627 O   0  0  0  0  0  0  0  0  0  0  0  0
    1.7273    1.9004   13.1275 C   0  0  2  0  0  0  0  0  0  0  0  0
    0.9137    2.6425   12.3095 O   0  0  0  0  0  0  0  0  0  0  0  0
    1.9234    2.7096   14.4049 C   0  0  0  0  0  0  0  0  0  0  0  0
    1.4709    2.0527   15.7215 C   0  0  0  0  0  0  0  0  0  0  0  0
  1  2  1  1  0  0  0
  1  3  1  0  0  0  0
  3  4  1  1  0  0  0
  3  5  1  0  0  0  0
  5  6  1  6  0  0  0
  5  7  1  0  0  0  0
  7  8  1  1  0  0  0
  9  7  1  0  0  0  0
  9 10  1  0  0  0  0
  9 11  1  6  0  0  0
 10  1  1  0  0  0  0
 11 12  1  0  0  0  0
 13 14  1  1  0  0  0
 13 15  1  0  0  0  0
 13 22  1  0  0  0  0
 14 32  1  0  0  0  0
 15 16  1  6  0  0  0
 15 17  1  0  0  0  0
 16 23  1  0  0  0  0
 17 18  1  6  0  0  0
 17 19  1  0  0  0  0
 19  2  1  6  0  0  0
 19 20  1  0  0  0  0
 20 21  1  1  0  0  0
 20 22  1  0  0  0  0
 23 24  1  0  0  0  0
 24 25  1  0  0  0  0
 25 26  1  0  0  0  0
 26 27  1  0  0  0  0
 27 28  1  0  0  0  0
 28 29  1  0  0  0  0
 29 30  1  0  0  0  0
 31 37  1  0  0  0  0
 32 33  2  0  0  0  0
 34 32  1  6  0  0  0
 34 35  1  0  0  0  0
 34 36  1  0  0  0  0
 36 37  1  0  0  0  0
M  END
>  <CHROM.1>
-172.03008820,-179.34538552,-51.61961711,-177.13509251,80.66556948,68.17483675
62.90750196,168.26803399,52.58312254,74.58365493,-174.25592227,-64.08417971
-94.40989899,-120.16790214,67.59100158,5.51811111,-0.58542214,9.89171918
-0.57859280,-0.19479065,1.08742646

>  <Name>
1o9m_lig

>  <RI>
0

>  <Rbt.Current_Directory>
/home/itssahil/PROJECTS/Mol_Feturizer/New_Systems/rnas/1o9m

>  <Rbt.Executable>
rbdock ($Id: //depot/dev/client3/rdock/2013.1/src/exe/rbdock.cxx#4 $)

>  <Rbt.Library>
libRbt.so (2013.1, Build901 2013/11/27)

>  <Rbt.Parameter_File>
/export/apps/rDock/src/rDock_2013.1_src/data/scripts/dock_solv.prm

>  <Rbt.Receptor>
prm/blind_docking_20.prm

>  <SCORE>
-11.3863

>  <SCORE.INTER>
-5.93108

>  <SCORE.INTER.CONST>
1

>  <SCORE.INTER.POLAR>
-1.71615

>  <SCORE.INTER.ROT>
15

>  <SCORE.INTER.SOLV>
19.8338

>  <SCORE.INTER.VDW>
-18.4448

>  <SCORE.INTER.norm>
-0.160299

>  <SCORE.INTRA>
-5.45518

>  <SCORE.INTRA.DIHEDRAL>
-10.8077

>  <SCORE.INTRA.DIHEDRAL.0>
21.5987

>  <SCORE.INTRA.POLAR>
0

>  <SCORE.INTRA.POLAR.0>
0

>  <SCORE.INTRA.REPUL>
0

>  <SCORE.INTRA.REPUL.0>
0

>  <SCORE.INTRA.SOLV>
3.18454

>  <SCORE.INTRA.SOLV.lig_0>
-108.715

>  <SCORE.INTRA.VDW>
-1.6436

>  <SCORE.INTRA.VDW.0>
-3.9485

>  <SCORE.INTRA.norm>
-0.147437

>  <SCORE.RESTR>
0

>  <SCORE.RESTR.CAVITY>
0

>  <SCORE.RESTR.norm>
0

>  <SCORE.SYSTEM>
0

>  <SCORE.SYSTEM.CONST>
0

>  <SCORE.SYSTEM.DIHEDRAL>
0

>  <SCORE.SYSTEM.SOLV>
0

>  <SCORE.SYSTEM.norm>
0

>  <SCORE.heavy>
37

>  <SCORE.norm>
-0.307737

>  <RMSD>
22.653

$$$$
1o9m_lig
 OpenBabel11021811403D
libRbt.so/2013.1/901 2013/11/27
 37 38  0  0  0  0  0  0  0  0999 V2000
    9.6974   -1.8610   10.8009 C   0  0  2  0  0  0  0  0  0  0  0  0
    8.8980   -1.7236   12.0151 O   0  0  0  0  0  0  0  0  0  0  0  0
   10.7179   -0.6639   10.8033 C   0  0  2  0  0  0  0  0  0  0  0  0
   11.5806   -0.6702   11.9978 N   0  0  0  0  0  0  0  0  0  0  0  0
    9.9212    0.6918   10.6975 C   0  0  1  0  0  0  0  0  0  0  0  0
   10.8287    1.7973   10.6960 O   0  0  0  0  0  0  0  0  0  0  0  0
    9.0472    0.6420    9.4010 C   0  0  2  0  0  0  0  0  0  0  0  0
    8.2603    1.8296    9.2130 O   0  0  0  0  0  0  0  0  0  0  0  0
    8.1027   -0.5850    9.4260 C   0  0  2  0  0  0  0  0  0  0  0  0
    8.8458   -1.7991    9.6077 O   0  0  0  0  0  0  0  0  0  0  0  0
    7.2890   -0.6876    8.1619 C   0  0  0  0  0  0  0  0  0  0  0  0
    8.1148   -0.8639    7.0773 N   0  0  0  0  0  0  0  0  0  0  0  0
    5.0732   -0.1408   13.3136 C   0  0  1  0  0  0  0  0  0  0  0  0
    3.8290    0.6785   13.3288 N   0  0  0  0  0  0  0  0  0  0  0  0
    5.1034   -0.9652   12.0338 C   0  0  2  0  0  0  0  0  0  0  0  0
    3.9453   -1.7447   11.9978 O   0  0  0  0  0  0  0  0  0  0  0  0
    6.3845   -1.8562   11.9830 C   0  0  1  0  0  0  0  0  0  0  0  0
    6.4129   -2.6252   10.7419 O   0  0  0  0  0  0  0  0  0  0  0  0
    7.6723   -0.9375   12.0410 C   0  0  1  0  0  0  0  0  0  0  0  0
    7.6630   -0.1222   13.3252 C   0  0  1  0  0  0  0  0  0  0  0  0
    8.8610    0.7029   13.3654 N   0  0  0  0  0  0  0  0  0  0  0  0
    6.3797    0.7490   13.3851 C   0  0  0  0  0  0  0  0  0  0  0  0
    2.9798   -2.7002   11.5063 C   0  0  0  0  0  0  0  0  0  0  0  0
    2.6253   -2.3586   10.0773 C   0  0  0  0  0  0  0  0  0  0  0  0
    1.4955   -3.1387    9.5314 N   0  0  0  0  0  0  0  0  0  0  0  0
    0.5674   -3.8038    8.5887 C   0  0  0  0  0  0  0  0  0  0  0  0
    0.1180   -2.5475    7.8319 C   0  0  0  0  0  0  0  0  0  0  0  0
    1.2425   -1.9543    6.9625 C   0  0  0  0  0  0  0  0  0  0  0  0
    1.6535   -2.9246    5.8593 C   0  0  0  0  0  0  0  0  0  0  0  0
    0.5646   -3.0892    4.9067 N   0  0  0  0  0  0  0  0  0  0  0  0
    1.7965    4.0277   15.3085 N   0  0  0  0  0  0  0  0  0  0  0  0
    3.7073    1.7019   11.8850 C   0  0  0  0  0  0  0  0  0  0  0  0
    4.3142    1.8559   11.0064 O   0  0  0  0  0  0  0  0  0  0  0  0
    2.4236    2.2173   12.4884 C   0  0  2  0  0  0  0  0  0  0  0  0
    1.4738    2.4372   11.5232 O   0  0  0  0  0  0  0  0  0  0  0  0
    2.7407    3.5726   13.1108 C   0  0  0  0  0  0  0  0  0  0  0  0
    1.6007    4.2729   13.8723 C   0  0  0  0  0  0  0  0  0  0  0  0
  1  2  1  1  0  0  0
  1  3  1  0  0  0  0
  3  4  1  1  0  0  0
  3  5  1  0  0  0  0
  5  6  1  6  0  0  0
  5  7  1  0  0  0  0
  7  8  1  1  0  0  0
  9  7  1  0  0  0  0
  9 10  1  0  0  0  0
  9 11  1  6  0  0  0
 10  1  1  0  0  0  0
 11 12  1  0  0  0  0
 13 14  1  6  0  0  0
 13 15  1  0  0  0  0
 13 22  1  0  0  0  0
 14 32  1  0  0  0  0
 15 16  1  1  0  0  0
 15 17  1  0  0  0  0
 16 23  1  0  0  0  0
 17 18  1  6  0  0  0
 17 19  1  0  0  0  0
 19  2  1  1  0  0  0
 19 20  1  0  0  0  0
 20 21  1  6  0  0  0
 20 22  1  0  0  0  0
 23 24  1  0  0  0  0
 24 25  1  0  0  0  0
 25 26  1  0  0  0  0
 26 27  1  0  0  0  0
 27 28  1  0  0  0  0
 28 29  1  0  0  0  0
 29 30  1  0  0  0  0
 31 37  1  0  0  0  0
 32 33  2  0  0  0  0
 34 32  1  6  0  0  0
 34 35  1  0  0  0  0
 34 36  1  0  0  0  0
 36 37  1  0  0  0  0
M  END
>  <CHROM.1>
89.05675216,62.26829463,-56.29841069,-179.89774065,-51.22799350,102.07329318
-171.16290981,-157.01443874,-60.52921600,69.53679894,63.88778056,66.89204070
-142.53402522,-176.40896059,99.40208451,5.45760845,-0.33798277,10.79012033
-0.27206134,0.04271363,-2.28576285

>  <Name>
1o9m_lig

>  <RI>
0

>  <Rbt.Current_Directory>
/home/itssahil/PROJECTS/Mol_Feturizer/New_Systems/rnas/1o9m

>  <Rbt.Executable>
rbdock ($Id: //depot/dev/client3/rdock/2013.1/src/exe/rbdock.cxx#4 $)

>  <Rbt.Library>
libRbt.so (2013.1, Build901 2013/11/27)

>  <Rbt.Parameter_File>
/export/apps/rDock/src/rDock_2013.1_src/data/scripts/dock_solv.prm

>  <Rbt.Receptor>
prm/blind_docking_20.prm

>  <SCORE>
-3.04557

>  <SCORE.INTER>
-6.50782

>  <SCORE.INTER.CONST>
1

>  <SCORE.INTER.POLAR>
-0.886753

>  <SCORE.INTER.ROT>
15

>  <SCORE.INTER.SOLV>
22.2709

>  <SCORE.INTER.VDW>
-22.4063

>  <SCORE.INTER.norm>
-0.175887

>  <SCORE.INTRA>
3.24301

>  <SCORE.INTRA.DIHEDRAL>
-4.56246

>  <SCORE.INTRA.DIHEDRAL.0>
21.5987

>  <SCORE.INTRA.POLAR>
0

>  <SCORE.INTRA.POLAR.0>
0

>  <SCORE.INTRA.REPUL>
0

>  <SCORE.INTRA.REPUL.0>
0

>  <SCORE.INTRA.SOLV>
7.3416

>  <SCORE.INTRA.SOLV.lig_0>
-108.715

>  <SCORE.INTRA.VDW>
1.85344

>  <SCORE.INTRA.VDW.0>
-3.9485

>  <SCORE.INTRA.norm>
0.0876489

>  <SCORE.RESTR>
0.219243

>  <SCORE.RESTR.CAVITY>
0.219243

>  <SCORE.RESTR.norm>
0.00592547

>  <SCORE.SYSTEM>
0

>  <SCORE.SYSTEM.CONST>
0

>  <SCORE.SYSTEM.DIHEDRAL>
0

>  <SCORE.SYSTEM.SOLV>
0

>  <SCORE.SYSTEM.norm>
0

>  <SCORE.heavy>
37

>  <SCORE.norm>
-0.0823126

>  <RMSD>
22.679

$$$$
1o9m_lig
 OpenBabel11021811403D
libRbt.so/2013.1/901 2013/11/27
 37 38  0  0  0  0  0  0  0  0999 V2000
    2.1494    1.6805   11.4606 C   0  0  2  0  0  0  0  0  0  0  0  0
    2.9385    2.0499   10.2888 O   0  0  0  0  0  0  0  0  0  0  0  0
    2.3226    2.8492   12.4991 C   0  0  2  0  0  0  0  0  0  0  0  0
    1.8760    4.1450   11.9585 N   0  0  0  0  0  0  0  0  0  0  0  0
    3.8324    2.9213   12.9457 C   0  0  1  0  0  0  0  0  0  0  0  0
    4.0156    3.9770   13.8931 O   0  0  0  0  0  0  0  0  0  0  0  0
    4.2337    1.5264   13.5293 C   0  0  2  0  0  0  0  0  0  0  0  0
    5.6052    1.4737   13.9549 O   0  0  0  0  0  0  0  0  0  0  0  0
    3.9905    0.4077   12.4863 C   0  0  2  0  0  0  0  0  0  0  0  0
    2.6288    0.4177   12.0334 O   0  0  0  0  0  0  0  0  0  0  0  0
    4.3166   -0.9539   13.0433 C   0  0  0  0  0  0  0  0  0  0  0  0
    4.4424   -1.8674   12.0240 N   0  0  0  0  0  0  0  0  0  0  0  0
    3.1224   -1.6523    8.0349 C   0  0  1  0  0  0  0  0  0  0  0  0
    3.3636   -2.5940    6.9059 N   0  0  0  0  0  0  0  0  0  0  0  0
    4.4373   -0.9780    8.4022 C   0  0  2  0  0  0  0  0  0  0  0  0
    5.3578   -1.9781    8.7228 O   0  0  0  0  0  0  0  0  0  0  0  0
    4.2361    0.0070    9.5967 C   0  0  1  0  0  0  0  0  0  0  0  0
    5.4986    0.6632    9.9252 O   0  0  0  0  0  0  0  0  0  0  0  0
    3.1767    1.1139    9.1988 C   0  0  1  0  0  0  0  0  0  0  0  0
    1.8522    0.4532    8.8477 C   0  0  1  0  0  0  0  0  0  0  0  0
    0.8898    1.4879    8.5000 N   0  0  0  0  0  0  0  0  0  0  0  0
    2.0560   -0.5407    7.6730 C   0  0  0  0  0  0  0  0  0  0  0  0
    6.5930   -2.5779    9.1710 C   0  0  0  0  0  0  0  0  0  0  0  0
    7.7221   -2.1181    8.2775 C   0  0  0  0  0  0  0  0  0  0  0  0
    9.0100   -2.7955    8.5331 N   0  0  0  0  0  0  0  0  0  0  0  0
   10.0780   -3.5970    9.1729 C   0  0  0  0  0  0  0  0  0  0  0  0
   10.0664   -2.8929   10.5356 C   0  0  0  0  0  0  0  0  0  0  0  0
    8.9960   -3.4675   11.4824 C   0  0  0  0  0  0  0  0  0  0  0  0
    9.3323   -4.8996   11.8866 C   0  0  0  0  0  0  0  0  0  0  0  0
    8.4167   -5.3548   12.9233 N   0  0  0  0  0  0  0  0  0  0  0  0
   -0.1232   -4.2000    4.8460 N   0  0  0  0  0  0  0  0  0  0  0  0
    3.3300   -1.7563    5.3426 C   0  0  0  0  0  0  0  0  0  0  0  0
    3.1877   -0.7340    5.0285 O   0  0  0  0  0  0  0  0  0  0  0  0
    3.5665   -3.1148    4.7295 C   0  0  2  0  0  0  0  0  0  0  0  0
    4.2952   -3.0175    3.5713 O   0  0  0  0  0  0  0  0  0  0  0  0
    2.1997   -3.6699    4.3442 C   0  0  0  0  0  0  0  0  0  0  0  0
    1.0927   -3.5975    5.4116 C   0  0  0  0  0  0  0  0  0  0  0  0
  1  2  1  6  0  0  0
  1  3  1  0  0  0  0
  3  4  1  6  0  0  0
  3  5  1  0  0  0  0
  5  6  1  1  0  0  0
  5  7  1  0  0  0  0
  7  8  1  6  0  0  0
  9  7  1  0  0  0  0
  9 10  1  0  0  0  0
  9 11  1  1  0  0  0
 10  1  1  0  0  0  0
 11 12  1  0  0  0  0
 13 14  1  6  0  0  0
 13 15  1  0  0  0  0
 13 22  1  0  0  0  0
 14 32  1  0  0  0  0
 15 16  1  1  0  0  0
 15 17  1  0  0  0  0
 16 23  1  0  0  0  0
 17 18  1  6  0  0  0
 17 19  1  0  0  0  0
 19  2  1  1  0  0  0
 19 20  1  0  0  0  0
 20 21  1  6  0  0  0
 20 22  1  0  0  0  0
 23 24  1  0  0  0  0
 24 25  1  0  0  0  0
 25 26  1  0  0  0  0
 26 27  1  0  0  0  0
 27 28  1  0  0  0  0
 28 29  1  0  0  0  0
 29 30  1  0  0  0  0
 31 37  1  0  0  0  0
 32 33  2  0  0  0  0
 34 32  1  6  0  0  0
 34 35  1  0  0  0  0
 34 36  1  0  0  0  0
 36 37  1  0  0  0  0
M  END
>  <CHROM.1>
170.73888286,-163.81329687,-83.58090493,-174.75252877,-60.54995657,-74.42285170
-172.81849940,-14.72785300,-52.09923420,84.80097301,67.23331454,171.96709111
-148.51223053,-48.29810993,-179.10113711,4.45521673,-0.88456786,9.49889300
1.50433701,-0.57180304,0.95107708

>  <Name>
1o9m_lig

>  <RI>
0

>  <Rbt.Current_Directory>
/home/itssahil/PROJECTS/Mol_Feturizer/New_Systems/rnas/1o9m

>  <Rbt.Executable>
rbdock ($Id: //depot/dev/client3/rdock/2013.1/src/exe/rbdock.cxx#4 $)

>  <Rbt.Library>
libRbt.so (2013.1, Build901 2013/11/27)

>  <Rbt.Parameter_File>
/export/apps/rDock/src/rDock_2013.1_src/data/scripts/dock_solv.prm

>  <Rbt.Receptor>
prm/blind_docking_20.prm

>  <SCORE>
-3.88406

>  <SCORE.INTER>
-1.60498

>  <SCORE.INTER.CONST>
1

>  <SCORE.INTER.POLAR>
-2.1415

>  <SCORE.INTER.ROT>
15

>  <SCORE.INTER.SOLV>
24.2705

>  <SCORE.INTER.VDW>
-15.6218

>  <SCORE.INTER.norm>
-0.0433779

>  <SCORE.INTRA>
-3.31214

>  <SCORE.INTRA.DIHEDRAL>
-12.6592

>  <SCORE.INTRA.DIHEDRAL.0>
21.5987

>  <SCORE.INTRA.POLAR>
0

>  <SCORE.INTRA.POLAR.0>
0

>  <SCORE.INTRA.REPUL>
0

>  <SCORE.INTRA.REPUL.0>
0

>  <SCORE.INTRA.SOLV>
3.94222

>  <SCORE.INTRA.SOLV.lig_0>
-108.715

>  <SCORE.INTRA.VDW>
1.04637

>  <SCORE.INTRA.VDW.0>
-3.9485

>  <SCORE.INTRA.norm>
-0.0895174

>  <SCORE.RESTR>
1.03306

>  <SCORE.RESTR.CAVITY>
1.03306

>  <SCORE.RESTR.norm>
0.0279206

>  <SCORE.SYSTEM>
0

>  <SCORE.SYSTEM.CONST>
0

>  <SCORE.SYSTEM.DIHEDRAL>
0

>  <SCORE.SYSTEM.SOLV>
0

>  <SCORE.SYSTEM.norm>
0

>  <SCORE.heavy>
37

>  <SCORE.norm>
-0.104975

>  <RMSD>
22.691

$$$$
1o9m_lig
 OpenBabel11021811403D
libRbt.so/2013.1/901 2013/11/27
 37 38  0  0  0  0  0  0  0  0999 V2000
    9.4937   -2.1746   10.0079 C   0  0  2  0  0  0  0  0  0  0  0  0
    9.5790   -0.7683    9.6240 O   0  0  0  0  0  0  0  0  0  0  0  0
   10.7896   -2.8675    9.4466 C   0  0  2  0  0  0  0  0  0  0  0  0
   12.0213   -2.2572    9.9769 N   0  0  0  0  0  0  0  0  0  0  0  0
   10.7675   -2.8020    7.8721 C   0  0  1  0  0  0  0  0  0  0  0  0
   11.9366   -3.4282    7.3369 O   0  0  0  0  0  0  0  0  0  0  0  0
    9.4505   -3.4851    7.3758 C   0  0  2  0  0  0  0  0  0  0  0  0
    9.3178   -3.4665    5.9451 O   0  0  0  0  0  0  0  0  0  0  0  0
    8.2106   -2.8003    8.0020 C   0  0  2  0  0  0  0  0  0  0  0  0
    8.2960   -2.7986    9.4345 O   0  0  0  0  0  0  0  0  0  0  0  0
    6.9303   -3.4758    7.5836 C   0  0  0  0  0  0  0  0  0  0  0  0
    6.7242   -3.3112    6.2346 N   0  0  0  0  0  0  0  0  0  0  0  0
    5.9917    0.9174   11.3876 C   0  0  1  0  0  0  0  0  0  0  0  0
    4.9885    1.9278   11.8262 N   0  0  0  0  0  0  0  0  0  0  0  0
    6.1485    1.0044    9.8756 C   0  0  2  0  0  0  0  0  0  0  0  0
    4.8921    0.7998    9.3012 O   0  0  0  0  0  0  0  0  0  0  0  0
    7.1796   -0.0521    9.3672 C   0  0  1  0  0  0  0  0  0  0  0  0
    7.3374    0.0558    7.9195 O   0  0  0  0  0  0  0  0  0  0  0  0
    8.5835    0.2048   10.0519 C   0  0  1  0  0  0  0  0  0  0  0  0
    8.4435    0.1017   11.5631 C   0  0  1  0  0  0  0  0  0  0  0  0
    9.7465    0.3260   12.1710 N   0  0  0  0  0  0  0  0  0  0  0  0
    7.4038    1.1387   12.0663 C   0  0  0  0  0  0  0  0  0  0  0  0
    3.5707    0.2471    9.1142 C   0  0  0  0  0  0  0  0  0  0  0  0
    3.0455    0.6617    7.7589 C   0  0  0  0  0  0  0  0  0  0  0  0
    1.9351   -0.1749    7.2589 N   0  0  0  0  0  0  0  0  0  0  0  0
    0.8431   -1.1725    7.1890 C   0  0  0  0  0  0  0  0  0  0  0  0
    1.6081   -2.3492    7.8079 C   0  0  0  0  0  0  0  0  0  0  0  0
    1.8032   -2.1864    9.3270 C   0  0  0  0  0  0  0  0  0  0  0  0
    2.7179   -3.2736    9.8827 C   0  0  0  0  0  0  0  0  0  0  0  0
    2.9396   -3.0613   11.3061 N   0  0  0  0  0  0  0  0  0  0  0  0
    0.9210    4.3056   13.0508 N   0  0  0  0  0  0  0  0  0  0  0  0
    4.2260    1.4633   13.3590 C   0  0  0  0  0  0  0  0  0  0  0  0
    4.3293    0.6339   14.0413 O   0  0  0  0  0  0  0  0  0  0  0  0
    3.4091    2.7237   13.2122 C   0  0  2  0  0  0  0  0  0  0  0  0
    4.1333    3.8307   13.5757 O   0  0  0  0  0  0  0  0  0  0  0  0
    2.2483    2.6150   14.1948 C   0  0  0  0  0  0  0  0  0  0  0  0
    1.3727    3.8676   14.3795 C   0  0  0  0  0  0  0  0  0  0  0  0
  1  2  1  6  0  0  0
  1  3  1  0  0  0  0
  3  4  1  1  0  0  0
  3  5  1  0  0  0  0
  5  6  1  6  0  0  0
  5  7  1  0  0  0  0
  7  8  1  6  0  0  0
  9  7  1  0  0  0  0
  9 10  1  0  0  0  0
  9 11  1  1  0  0  0
 10  1  1  0  0  0  0
 11 12  1  0  0  0  0
 13 14  1  1  0  0  0
 13 15  1  0  0  0  0
 13 22  1  0  0  0  0
 14 32  1  0  0  0  0
 15 16  1  6  0  0  0
 15 17  1  0  0  0  0
 16 23  1  0  0  0  0
 17 18  1  6  0  0  0
 17 19  1  0  0  0  0
 19  2  1  6  0  0  0
 19 20  1  0  0  0  0
 20 21  1  1  0  0  0
 20 22  1  0  0  0  0
 23 24  1  0  0  0  0
 24 25  1  0  0  0  0
 25 26  1  0  0  0  0
 26 27  1  0  0  0  0
 27 28  1  0  0  0  0
 28 29  1  0  0  0  0
 29 30  1  0  0  0  0
 31 37  1  0  0  0  0
 32 33  2  0  0  0  0
 34 32  1  1  0  0  0
 34 35  1  0  0  0  0
 34 36  1  0  0  0  0
 36 37  1  0  0  0  0
M  END
>  <CHROM.1>
-175.96381951,-66.19083571,155.13666766,-37.20601154,-168.32655541,-68.49590571
160.72507469,10.10681887,-48.75914390,73.49769530,-172.64735363,177.23779115
-78.58994064,171.72913954,53.09270384,6.04415809,-0.52035477,9.97518338,-0.70163495
-0.12629949,0.87099656

>  <Name>
1o9m_lig

>  <RI>
0

>  <Rbt.Current_Directory>
/home/itssahil/PROJECTS/Mol_Feturizer/New_Systems/rnas/1o9m

>  <Rbt.Executable>
rbdock ($Id: //depot/dev/client3/rdock/2013.1/src/exe/rbdock.cxx#4 $)

>  <Rbt.Library>
libRbt.so (2013.1, Build901 2013/11/27)

>  <Rbt.Parameter_File>
/export/apps/rDock/src/rDock_2013.1_src/data/scripts/dock_solv.prm

>  <Rbt.Receptor>
prm/blind_docking_80.prm

>  <SCORE>
-8.66732

>  <SCORE.INTER>
-4.91987

>  <SCORE.INTER.CONST>
1

>  <SCORE.INTER.POLAR>
-0.470569

>  <SCORE.INTER.ROT>
15

>  <SCORE.INTER.SOLV>
15.5184

>  <SCORE.INTER.VDW>
-20.4841

>  <SCORE.INTER.norm>
-0.132969

>  <SCORE.INTRA>
-3.77387

>  <SCORE.INTRA.DIHEDRAL>
-12.7917

>  <SCORE.INTRA.DIHEDRAL.0>
21.5987

>  <SCORE.INTRA.POLAR>
0

>  <SCORE.INTRA.POLAR.0>
0

>  <SCORE.INTRA.REPUL>
0

>  <SCORE.INTRA.REPUL.0>
0

>  <SCORE.INTRA.SOLV>
3.04681

>  <SCORE.INTRA.SOLV.lig_0>
-108.715

>  <SCORE.INTRA.VDW>
1.09859

>  <SCORE.INTRA.VDW.0>
-3.9485

>  <SCORE.INTRA.norm>
-0.101996

>  <SCORE.RESTR>
0.0264149

>  <SCORE.RESTR.CAVITY>
0.0264149

>  <SCORE.RESTR.norm>
0.000713917

>  <SCORE.SYSTEM>
0

>  <SCORE.SYSTEM.CONST>
0

>  <SCORE.SYSTEM.DIHEDRAL>
0

>  <SCORE.SYSTEM.SOLV>
0

>  <SCORE.SYSTEM.norm>
0

>  <SCORE.heavy>
37

>  <SCORE.norm>
-0.234252

>  <RMSD>
22.694

$$$$
1o9m_lig
 OpenBabel11021811403D
libRbt.so/2013.1/901 2013/11/27
 37 38  0  0  0  0  0  0  0  0999 V2000
   10.4572   -1.1934   10.2059 C   0  0  2  0  0  0  0  0  0  0  0  0
   10.2349    0.2479   10.2802 O   0  0  0  0  0  0  0  0  0  0  0  0
   11.8644   -1.3915    9.5313 C   0  0  2  0  0  0  0  0  0  0  0  0
   12.9434   -0.7371   10.2919 N   0  0  0  0  0  0  0  0  0  0  0  0
   11.8095   -0.8419    8.0553 C   0  0  1  0  0  0  0  0  0  0  0  0
   13.0790   -1.0125    7.4189 O   0  0  0  0  0  0  0  0  0  0  0  0
   10.6633   -1.5920    7.2997 C   0  0  2  0  0  0  0  0  0  0  0  0
   10.5122   -1.1538    5.9395 O   0  0  0  0  0  0  0  0  0  0  0  0
    9.3133   -1.4102    8.0365 C   0  0  2  0  0  0  0  0  0  0  0  0
    9.4139   -1.8398    9.4021 O   0  0  0  0  0  0  0  0  0  0  0  0
    8.2022   -2.1700    7.3594 C   0  0  0  0  0  0  0  0  0  0  0  0
    7.0631   -2.1329    8.1279 N   0  0  0  0  0  0  0  0  0  0  0  0
    6.4030    0.5646   12.2893 C   0  0  1  0  0  0  0  0  0  0  0  0
    5.2580    1.1570   13.0362 N   0  0  0  0  0  0  0  0  0  0  0  0
    6.5862    1.3274   10.9843 C   0  0  2  0  0  0  0  0  0  0  0  0
    5.3861    1.2571   10.2737 O   0  0  0  0  0  0  0  0  0  0  0  0
    7.7670    0.7279   10.1573 C   0  0  1  0  0  0  0  0  0  0  0  0
    7.9467    1.4810    8.9191 O   0  0  0  0  0  0  0  0  0  0  0  0
    9.1031    0.8128   11.0019 C   0  0  1  0  0  0  0  0  0  0  0  0
    8.9387    0.0380   12.3006 C   0  0  1  0  0  0  0  0  0  0  0  0
   10.1814    0.1162   13.0537 N   0  0  0  0  0  0  0  0  0  0  0  0
    7.7523    0.6214   13.1138 C   0  0  0  0  0  0  0  0  0  0  0  0
    3.9673    1.3396   10.0153 C   0  0  0  0  0  0  0  0  0  0  0  0
    3.7353    1.3798    8.5223 C   0  0  0  0  0  0  0  0  0  0  0  0
    2.3847    0.9471    8.1081 N   0  0  0  0  0  0  0  0  0  0  0  0
    1.2348    0.1013    7.7147 C   0  0  0  0  0  0  0  0  0  0  0  0
    1.9107   -0.6211    6.5424 C   0  0  0  0  0  0  0  0  0  0  0  0
    1.2543   -1.9803    6.2357 C   0  0  0  0  0  0  0  0  0  0  0  0
    1.9644   -2.6856    5.0843 C   0  0  0  0  0  0  0  0  0  0  0  0
    1.5289   -4.0727    5.0026 N   0  0  0  0  0  0  0  0  0  0  0  0
    2.2762    3.8636   14.5879 N   0  0  0  0  0  0  0  0  0  0  0  0
    3.7666    0.2315   12.7798 C   0  0  0  0  0  0  0  0  0  0  0  0
    3.5058   -0.6554   12.2236 O   0  0  0  0  0  0  0  0  0  0  0  0
    3.1020    1.2612   13.6605 C   0  0  2  0  0  0  0  0  0  0  0  0
    2.0766    0.7084   14.3850 O   0  0  0  0  0  0  0  0  0  0  0  0
    2.4770    2.2982   12.7338 C   0  0  0  0  0  0  0  0  0  0  0  0
    1.5856    3.3693   13.3879 C   0  0  0  0  0  0  0  0  0  0  0  0
  1  2  1  6  0  0  0
  1  3  1  0  0  0  0
  3  4  1  1  0  0  0
  3  5  1  0  0  0  0
  5  6  1  6  0  0  0
  5  7  1  0  0  0  0
  7  8  1  6  0  0  0
  9  7  1  0  0  0  0
  9 10  1  0  0  0  0
  9 11  1  6  0  0  0
 10  1  1  0  0  0  0
 11 12  1  0  0  0  0
 13 14  1  1  0  0  0
 13 15  1  0  0  0  0
 13 22  1  0  0  0  0
 14 32  1  0  0  0  0
 15 16  1  6  0  0  0
 15 17  1  0  0  0  0
 16 23  1  0  0  0  0
 17 18  1  6  0  0  0
 17 19  1  0  0  0  0
 19  2  1  6  0  0  0
 19 20  1  0  0  0  0
 20 21  1  1  0  0  0
 20 22  1  0  0  0  0
 23 24  1  0  0  0  0
 24 25  1  0  0  0  0
 25 26  1  0  0  0  0
 26 27  1  0  0  0  0
 27 28  1  0  0  0  0
 28 29  1  0  0  0  0
 29 30  1  0  0  0  0
 31 37  1  0  0  0  0
 32 33  2  0  0  0  0
 34 32  1  6  0  0  0
 34 35  1  0  0  0  0
 34 36  1  0  0  0  0
 36 37  1  0  0  0  0
M  END
>  <CHROM.1>
-172.12381310,172.15358705,97.85916303,49.66378654,162.84991078,-79.29678285
157.60738433,-85.26455224,-55.07590382,156.10779124,-178.90862771,167.55546993
-147.91772403,172.67258550,45.01815500,6.42508602,-0.04531674,9.92587127
-0.28669645,-0.07976887,1.11202840

>  <Name>
1o9m_lig

>  <RI>
0

>  <Rbt.Current_Directory>
/home/itssahil/PROJECTS/Mol_Feturizer/New_Systems/rnas/1o9m

>  <Rbt.Executable>
rbdock ($Id: //depot/dev/client3/rdock/2013.1/src/exe/rbdock.cxx#4 $)

>  <Rbt.Library>
libRbt.so (2013.1, Build901 2013/11/27)

>  <Rbt.Parameter_File>
/export/apps/rDock/src/rDock_2013.1_src/data/scripts/dock_solv.prm

>  <Rbt.Receptor>
prm/blind_docking_20.prm

>  <SCORE>
-10.1415

>  <SCORE.INTER>
-6.9973

>  <SCORE.INTER.CONST>
1

>  <SCORE.INTER.POLAR>
-0.578659

>  <SCORE.INTER.ROT>
15

>  <SCORE.INTER.SOLV>
16.452

>  <SCORE.INTER.VDW>
-21.82

>  <SCORE.INTER.norm>
-0.189116

>  <SCORE.INTRA>
-3.1442

>  <SCORE.INTRA.DIHEDRAL>
-9.15399

>  <SCORE.INTRA.DIHEDRAL.0>
21.5987

>  <SCORE.INTRA.POLAR>
0

>  <SCORE.INTRA.POLAR.0>
0

>  <SCORE.INTRA.REPUL>
0.0260758

>  <SCORE.INTRA.REPUL.0>
0

>  <SCORE.INTRA.SOLV>
2.86761

>  <SCORE.INTRA.SOLV.lig_0>
-108.715

>  <SCORE.INTRA.VDW>
-0.13139

>  <SCORE.INTRA.VDW.0>
-3.9485

>  <SCORE.INTRA.norm>
-0.0849784

>  <SCORE.RESTR>
0

>  <SCORE.RESTR.CAVITY>
0

>  <SCORE.RESTR.norm>
0

>  <SCORE.SYSTEM>
0

>  <SCORE.SYSTEM.CONST>
0

>  <SCORE.SYSTEM.DIHEDRAL>
0

>  <SCORE.SYSTEM.SOLV>
0

>  <SCORE.SYSTEM.norm>
0

>  <SCORE.heavy>
37

>  <SCORE.norm>
-0.274095

>  <RMSD>
22.744

$$$$
1o9m_lig
 OpenBabel11021811403D
libRbt.so/2013.1/901 2013/11/27
 37 38  0  0  0  0  0  0  0  0999 V2000
    9.6424   -1.6597    9.4100 C   0  0  2  0  0  0  0  0  0  0  0  0
    9.4369   -0.2361    9.1583 O   0  0  0  0  0  0  0  0  0  0  0  0
   10.6946   -2.1510    8.3488 C   0  0  2  0  0  0  0  0  0  0  0  0
   11.9680   -1.4162    8.4462 N   0  0  0  0  0  0  0  0  0  0  0  0
   10.0763   -2.0073    6.9063 C   0  0  1  0  0  0  0  0  0  0  0  0
   11.0148   -2.4501    5.9221 O   0  0  0  0  0  0  0  0  0  0  0  0
    8.7443   -2.8268    6.8646 C   0  0  2  0  0  0  0  0  0  0  0  0
    8.0828   -2.7512    5.5912 O   0  0  0  0  0  0  0  0  0  0  0  0
    7.7689   -2.3397    7.9645 C   0  0  2  0  0  0  0  0  0  0  0  0
    8.3854   -2.4013    9.2589 O   0  0  0  0  0  0  0  0  0  0  0  0
    6.4992   -3.1510    7.9823 C   0  0  0  0  0  0  0  0  0  0  0  0
    5.7101   -2.7765    9.0436 N   0  0  0  0  0  0  0  0  0  0  0  0
    5.7743    0.6704   11.2993 C   0  0  1  0  0  0  0  0  0  0  0  0
    4.7146    1.4563   11.9915 N   0  0  0  0  0  0  0  0  0  0  0  0
    5.9036    1.1733    9.8680 C   0  0  2  0  0  0  0  0  0  0  0  0
    4.6549    1.0497    9.2550 O   0  0  0  0  0  0  0  0  0  0  0  0
    6.9930    0.3638    9.0963 C   0  0  1  0  0  0  0  0  0  0  0  0
    7.1230    0.8694    7.7325 O   0  0  0  0  0  0  0  0  0  0  0  0
    8.3872    0.5174    9.8301 C   0  0  1  0  0  0  0  0  0  0  0  0
    8.2756    0.0005   11.2563 C   0  0  1  0  0  0  0  0  0  0  0  0
    9.5700    0.1369   11.9070 N   0  0  0  0  0  0  0  0  0  0  0  0
    7.1788    0.7920   12.0178 C   0  0  0  0  0  0  0  0  0  0  0  0
    3.2534    1.2836    8.9948 C   0  0  0  0  0  0  0  0  0  0  0  0
    2.7991    0.3814    7.8705 C   0  0  0  0  0  0  0  0  0  0  0  0
    2.4776   -0.9973    8.2935 N   0  0  0  0  0  0  0  0  0  0  0  0
    2.5984   -2.3673    8.8419 C   0  0  0  0  0  0  0  0  0  0  0  0
    1.1874   -2.8506    8.4835 C   0  0  0  0  0  0  0  0  0  0  0  0
    1.0214   -3.1042    6.9735 C   0  0  0  0  0  0  0  0  0  0  0  0
   -0.3998   -3.5509    6.6447 C   0  0  0  0  0  0  0  0  0  0  0  0
   -1.3529   -2.5300    7.0565 N   0  0  0  0  0  0  0  0  0  0  0  0
    0.4869   -0.1955   15.1825 N   0  0  0  0  0  0  0  0  0  0  0  0
    4.4100    0.8377   13.6259 C   0  0  0  0  0  0  0  0  0  0  0  0
    4.8186    0.0410   14.2279 O   0  0  0  0  0  0  0  0  0  0  0  0
    3.3523    1.9100   13.7199 C   0  0  2  0  0  0  0  0  0  0  0  0
    3.5356    2.6931   14.8313 O   0  0  0  0  0  0  0  0  0  0  0  0
    2.0159    1.1982   13.8986 C   0  0  0  0  0  0  0  0  0  0  0  0
    1.8818    0.2638   15.1146 C   0  0  0  0  0  0  0  0  0  0  0  0
  1  2  1  6  0  0  0
  1  3  1  0  0  0  0
  3  4  1  6  0  0  0
  3  5  1  0  0  0  0
  5  6  1  6  0  0  0
  5  7  1  0  0  0  0
  7  8  1  6  0  0  0
  9  7  1  0  0  0  0
  9 10  1  0  0  0  0
  9 11  1  1  0  0  0
 10  1  1  0  0  0  0
 11 12  1  0  0  0  0
 13 14  1  1  0  0  0
 13 15  1  0  0  0  0
 13 22  1  0  0  0  0
 14 32  1  0  0  0  0
 15 16  1  6  0  0  0
 15 17  1  0  0  0  0
 16 23  1  0  0  0  0
 17 18  1  6  0  0  0
 17 19  1  0  0  0  0
 19  2  1  6  0  0  0
 19 20  1  0  0  0  0
 20 21  1  1  0  0  0
 20 22  1  0  0  0  0
 23 24  1  0  0  0  0
 24 25  1  0  0  0  0
 25 26  1  0  0  0  0
 26 27  1  0  0  0  0
 27 28  1  0  0  0  0
 28 29  1  0  0  0  0
 29 30  1  0  0  0  0
 31 37  1  0  0  0  0
 32 33  2  0  0  0  0
 34 32  1  1  0  0  0
 34 35  1  0  0  0  0
 34 36  1  0  0  0  0
 36 37  1  0  0  0  0
M  END
>  <CHROM.1>
171.29241211,174.48485889,175.23363885,64.86612213,-177.87864993,-83.75459892
81.57375544,-60.64580860,-175.60055471,72.94806904,-178.64011528,59.41974853
-126.25233550,58.01178121,173.77172175,5.64468785,-0.70540190,9.79051253
-0.53403165,0.06784597,1.05874716

>  <Name>
1o9m_lig

>  <RI>
0

>  <Rbt.Current_Directory>
/home/itssahil/PROJECTS/Mol_Feturizer/New_Systems/rnas/1o9m

>  <Rbt.Executable>
rbdock ($Id: //depot/dev/client3/rdock/2013.1/src/exe/rbdock.cxx#4 $)

>  <Rbt.Library>
libRbt.so (2013.1, Build901 2013/11/27)

>  <Rbt.Parameter_File>
/export/apps/rDock/src/rDock_2013.1_src/data/scripts/dock_solv.prm

>  <Rbt.Receptor>
prm/blind_docking_20.prm

>  <SCORE>
-10.6476

>  <SCORE.INTER>
-6.12532

>  <SCORE.INTER.CONST>
1

>  <SCORE.INTER.POLAR>
-0.713762

>  <SCORE.INTER.ROT>
15

>  <SCORE.INTER.SOLV>
12.1409

>  <SCORE.INTER.VDW>
-19.3513

>  <SCORE.INTER.norm>
-0.165549

>  <SCORE.INTRA>
-4.52232

>  <SCORE.INTRA.DIHEDRAL>
-13.6857

>  <SCORE.INTRA.DIHEDRAL.0>
21.5987

>  <SCORE.INTRA.POLAR>
0

>  <SCORE.INTRA.POLAR.0>
0

>  <SCORE.INTRA.REPUL>
0

>  <SCORE.INTRA.REPUL.0>
0

>  <SCORE.INTRA.SOLV>
5.00949

>  <SCORE.INTRA.SOLV.lig_0>
-108.715

>  <SCORE.INTRA.VDW>
-0.184204

>  <SCORE.INTRA.VDW.0>
-3.9485

>  <SCORE.INTRA.norm>
-0.122225

>  <SCORE.RESTR>
0

>  <SCORE.RESTR.CAVITY>
0

>  <SCORE.RESTR.norm>
0

>  <SCORE.SYSTEM>
0

>  <SCORE.SYSTEM.CONST>
0

>  <SCORE.SYSTEM.DIHEDRAL>
0

>  <SCORE.SYSTEM.SOLV>
0

>  <SCORE.SYSTEM.norm>
0

>  <SCORE.heavy>
37

>  <SCORE.norm>
-0.287774

>  <RMSD>
22.785

$$$$
1o9m_lig
 OpenBabel11021811403D
libRbt.so/2013.1/901 2013/11/27
 37 38  0  0  0  0  0  0  0  0999 V2000
   10.0090   -1.3824   10.0079 C   0  0  2  0  0  0  0  0  0  0  0  0
    9.8941    0.0457    9.7261 O   0  0  0  0  0  0  0  0  0  0  0  0
   11.2790   -1.8879    9.2293 C   0  0  2  0  0  0  0  0  0  0  0  0
   12.5026   -1.1766    9.6389 N   0  0  0  0  0  0  0  0  0  0  0  0
   11.0316   -1.7268    7.6812 C   0  0  1  0  0  0  0  0  0  0  0  0
   12.1735   -2.1820    6.9502 O   0  0  0  0  0  0  0  0  0  0  0  0
    9.7363   -2.5220    7.3107 C   0  0  2  0  0  0  0  0  0  0  0  0
    9.4048   -2.4290    5.9156 O   0  0  0  0  0  0  0  0  0  0  0  0
    8.5313   -2.0223    8.1454 C   0  0  2  0  0  0  0  0  0  0  0  0
    8.8143   -2.1007    9.5501 O   0  0  0  0  0  0  0  0  0  0  0  0
    7.2821   -2.8107    7.8478 C   0  0  0  0  0  0  0  0  0  0  0  0
    6.2670   -2.4308    8.6931 N   0  0  0  0  0  0  0  0  0  0  0  0
    6.2187    1.1812   11.7319 C   0  0  1  0  0  0  0  0  0  0  0  0
    5.1734    2.0357   12.3617 N   0  0  0  0  0  0  0  0  0  0  0  0
    6.4006    1.6140   10.2834 C   0  0  2  0  0  0  0  0  0  0  0  0
    5.1630    1.5087    9.6452 O   0  0  0  0  0  0  0  0  0  0  0  0
    7.4767    0.7313    9.5760 C   0  0  1  0  0  0  0  0  0  0  0  0
    7.6578    1.1698    8.1949 O   0  0  0  0  0  0  0  0  0  0  0  0
    8.8580    0.8667   10.3373 C   0  0  1  0  0  0  0  0  0  0  0  0
    8.6934    0.4189   11.7816 C   0  0  1  0  0  0  0  0  0  0  0  0
    9.9763    0.5371   12.4582 N   0  0  0  0  0  0  0  0  0  0  0  0
    7.6095    1.2836   12.4795 C   0  0  0  0  0  0  0  0  0  0  0  0
    3.9192    0.9185    9.2079 C   0  0  0  0  0  0  0  0  0  0  0  0
    4.2130   -0.3538    8.4468 C   0  0  0  0  0  0  0  0  0  0  0  0
    3.2230   -1.4293    8.6615 N   0  0  0  0  0  0  0  0  0  0  0  0
    2.3333   -2.4156    9.3159 C   0  0  0  0  0  0  0  0  0  0  0  0
    1.7748   -3.0578    8.0397 C   0  0  0  0  0  0  0  0  0  0  0  0
    0.8790   -2.0916    7.2420 C   0  0  0  0  0  0  0  0  0  0  0  0
    0.2914   -2.7766    6.0121 C   0  0  0  0  0  0  0  0  0  0  0  0
   -0.5131   -3.9218    6.4138 N   0  0  0  0  0  0  0  0  0  0  0  0
    1.8722    0.7958   11.0251 N   0  0  0  0  0  0  0  0  0  0  0  0
    3.8715    1.0575   13.0650 C   0  0  0  0  0  0  0  0  0  0  0  0
    3.6725    0.0004   13.1491 O   0  0  0  0  0  0  0  0  0  0  0  0
    3.2297    2.3715   13.4380 C   0  0  2  0  0  0  0  0  0  0  0  0
    3.1508    2.5174   14.7997 O   0  0  0  0  0  0  0  0  0  0  0  0
    1.7977    2.3277   12.9162 C   0  0  0  0  0  0  0  0  0  0  0  0
    1.6152    2.1956   11.3934 C   0  0  0  0  0  0  0  0  0  0  0  0
  1  2  1  6  0  0  0
  1  3  1  0  0  0  0
  3  4  1  1  0  0  0
  3  5  1  0  0  0  0
  5  6  1  6  0  0  0
  5  7  1  0  0  0  0
  7  8  1  6  0  0  0
  9  7  1  0  0  0  0
  9 10  1  0  0  0  0
  9 11  1  1  0  0  0
 10  1  1  0  0  0  0
 11 12  1  0  0  0  0
 13 14  1  1  0  0  0
 13 15  1  0  0  0  0
 13 22  1  0  0  0  0
 14 32  1  0  0  0  0
 15 16  1  6  0  0  0
 15 17  1  0  0  0  0
 16 23  1  0  0  0  0
 17 18  1  6  0  0  0
 17 19  1  0  0  0  0
 19  2  1  6  0  0  0
 19 20  1  0  0  0  0
 20 21  1  1  0  0  0
 20 22  1  0  0  0  0
 23 24  1  0  0  0  0
 24 25  1  0  0  0  0
 25 26  1  0  0  0  0
 26 27  1  0  0  0  0
 27 28  1  0  0  0  0
 28 29  1  0  0  0  0
 29 30  1  0  0  0  0
 31 37  1  0  0  0  0
 32 33  2  0  0  0  0
 34 32  1  1  0  0  0
 34 35  1  0  0  0  0
 34 36  1  0  0  0  0
 36 37  1  0  0  0  0
M  END
>  <CHROM.1>
-177.04374804,174.22665796,124.86137522,-50.77392130,-57.13700484,-81.45675536
143.85255047,-53.10744348,-177.55102040,-67.78768114,-177.56673358,59.96775938
-115.65253319,-62.06750865,76.99783304,6.09796627,-0.41209551,9.78419286
-0.25110063,0.00055768,0.90749230

>  <Name>
1o9m_lig

>  <RI>
0

>  <Rbt.Current_Directory>
/home/itssahil/PROJECTS/Mol_Feturizer/New_Systems/rnas/1o9m

>  <Rbt.Executable>
rbdock ($Id: //depot/dev/client3/rdock/2013.1/src/exe/rbdock.cxx#4 $)

>  <Rbt.Library>
libRbt.so (2013.1, Build901 2013/11/27)

>  <Rbt.Parameter_File>
/export/apps/rDock/src/rDock_2013.1_src/data/scripts/dock_solv.prm

>  <Rbt.Receptor>
prm/blind_docking_60.prm

>  <SCORE>
-5.54465

>  <SCORE.INTER>
-5.86284

>  <SCORE.INTER.CONST>
1

>  <SCORE.INTER.POLAR>
-0.385727

>  <SCORE.INTER.ROT>
15

>  <SCORE.INTER.SOLV>
10.7245

>  <SCORE.INTER.VDW>
-19.7976

>  <SCORE.INTER.norm>
-0.158455

>  <SCORE.INTRA>
0.281703

>  <SCORE.INTRA.DIHEDRAL>
-10.4157

>  <SCORE.INTRA.DIHEDRAL.0>
21.5987

>  <SCORE.INTRA.POLAR>
0

>  <SCORE.INTRA.POLAR.0>
0

>  <SCORE.INTRA.REPUL>
0

>  <SCORE.INTRA.REPUL.0>
0

>  <SCORE.INTRA.SOLV>
12.3041

>  <SCORE.INTRA.SOLV.lig_0>
-108.715

>  <SCORE.INTRA.VDW>
-0.662493

>  <SCORE.INTRA.VDW.0>
-3.9485

>  <SCORE.INTRA.norm>
0.00761359

>  <SCORE.RESTR>
0.0364889

>  <SCORE.RESTR.CAVITY>
0.0364889

>  <SCORE.RESTR.norm>
0.000986188

>  <SCORE.SYSTEM>
0

>  <SCORE.SYSTEM.CONST>
0

>  <SCORE.SYSTEM.DIHEDRAL>
0

>  <SCORE.SYSTEM.SOLV>
0

>  <SCORE.SYSTEM.norm>
0

>  <SCORE.heavy>
37

>  <SCORE.norm>
-0.149855

>  <RMSD>
22.795

$$$$
1o9m_lig
 OpenBabel11021811403D
libRbt.so/2013.1/901 2013/11/27
 37 38  0  0  0  0  0  0  0  0999 V2000
    7.5746   -2.3064    9.5525 C   0  0  2  0  0  0  0  0  0  0  0  0
    7.9553   -0.9176    9.7945 O   0  0  0  0  0  0  0  0  0  0  0  0
    7.7558   -3.0614   10.9205 C   0  0  2  0  0  0  0  0  0  0  0  0
    6.9326   -2.4755   11.9929 N   0  0  0  0  0  0  0  0  0  0  0  0
    9.2810   -3.0484   11.3175 C   0  0  1  0  0  0  0  0  0  0  0  0
    9.4723   -3.7316   12.5593 O   0  0  0  0  0  0  0  0  0  0  0  0
   10.0924   -3.7029   10.1510 C   0  0  2  0  0  0  0  0  0  0  0  0
   11.5071   -3.7282   10.4015 O   0  0  0  0  0  0  0  0  0  0  0  0
    9.8335   -2.9557    8.8194 C   0  0  2  0  0  0  0  0  0  0  0  0
    8.4301   -2.9085    8.5237 O   0  0  0  0  0  0  0  0  0  0  0  0
   10.5602   -3.6011    7.6679 C   0  0  0  0  0  0  0  0  0  0  0  0
   10.5254   -2.7825    6.5643 N   0  0  0  0  0  0  0  0  0  0  0  0
    4.4745    1.0057   11.5281 C   0  0  1  0  0  0  0  0  0  0  0  0
    3.4797    2.0633   11.8618 N   0  0  0  0  0  0  0  0  0  0  0  0
    4.5032    0.8166   10.0176 C   0  0  2  0  0  0  0  0  0  0  0  0
    3.2108    0.4903    9.6011 O   0  0  0  0  0  0  0  0  0  0  0  0
    5.5216   -0.2987    9.6215 C   0  0  1  0  0  0  0  0  0  0  0  0
    5.5559   -0.4555    8.1701 O   0  0  0  0  0  0  0  0  0  0  0  0
    6.9685    0.1015   10.1237 C   0  0  1  0  0  0  0  0  0  0  0  0
    6.9569    0.2750   11.6349 C   0  0  1  0  0  0  0  0  0  0  0  0
    8.2979    0.6275   12.0766 N   0  0  0  0  0  0  0  0  0  0  0  0
    5.9302    1.3700   12.0302 C   0  0  0  0  0  0  0  0  0  0  0  0
    1.9619   -0.2317    9.5269 C   0  0  0  0  0  0  0  0  0  0  0  0
    2.1169   -1.3972    8.5771 C   0  0  0  0  0  0  0  0  0  0  0  0
    2.3948   -1.0058    7.1797 N   0  0  0  0  0  0  0  0  0  0  0  0
    2.6588   -1.0704    5.7242 C   0  0  0  0  0  0  0  0  0  0  0  0
    2.5150   -2.5890    5.5627 C   0  0  0  0  0  0  0  0  0  0  0  0
    3.6283   -3.3633    6.2929 C   0  0  0  0  0  0  0  0  0  0  0  0
    4.8749   -3.4846    5.4218 C   0  0  0  0  0  0  0  0  0  0  0  0
    5.4593   -2.1697    5.1990 N   0  0  0  0  0  0  0  0  0  0  0  0
    2.3181    1.2460   15.3301 N   0  0  0  0  0  0  0  0  0  0  0  0
    3.7809    2.7555   13.4670 C   0  0  0  0  0  0  0  0  0  0  0  0
    4.5158    2.5953   14.2406 O   0  0  0  0  0  0  0  0  0  0  0  0
    2.5590    3.6041   13.2136 C   0  0  2  0  0  0  0  0  0  0  0  0
    2.6111    4.7757   13.9254 O   0  0  0  0  0  0  0  0  0  0  0  0
    1.3607    2.8220   13.7401 C   0  0  0  0  0  0  0  0  0  0  0  0
    1.4045    2.3922   15.2177 C   0  0  0  0  0  0  0  0  0  0  0  0
  1  2  1  1  0  0  0
  1  3  1  0  0  0  0
  3  4  1  1  0  0  0
  3  5  1  0  0  0  0
  5  6  1  1  0  0  0
  5  7  1  0  0  0  0
  7  8  1  1  0  0  0
  9  7  1  0  0  0  0
  9 10  1  0  0  0  0
  9 11  1  6  0  0  0
 10  1  1  0  0  0  0
 11 12  1  0  0  0  0
 13 14  1  6  0  0  0
 13 15  1  0  0  0  0
 13 22  1  0  0  0  0
 14 32  1  0  0  0  0
 15 16  1  1  0  0  0
 15 17  1  0  0  0  0
 16 23  1  0  0  0  0
 17 18  1  6  0  0  0
 17 19  1  0  0  0  0
 19  2  1  1  0  0  0
 19 20  1  0  0  0  0
 20 21  1  6  0  0  0
 20 22  1  0  0  0  0
 23 24  1  0  0  0  0
 24 25  1  0  0  0  0
 25 26  1  0  0  0  0
 26 27  1  0  0  0  0
 27 28  1  0  0  0  0
 28 29  1  0  0  0  0
 29 30  1  0  0  0  0
 31 37  1  0  0  0  0
 32 33  2  0  0  0  0
 34 32  1  1  0  0  0
 34 35  1  0  0  0  0
 34 36  1  0  0  0  0
 36 37  1  0  0  0  0
M  END
>  <CHROM.1>
-94.83337185,-168.41683163,-159.47425483,-56.52902249,-84.27824769,-23.07889835
-63.74648498,-178.23191668,3.38746905,-66.57482683,-85.04741198,65.74174542
-153.85524483,56.40486674,-76.24472314,5.65997472,-0.66143222,10.20359896
-0.82467540,-0.40813293,1.06645115

>  <Name>
1o9m_lig

>  <RI>
0

>  <Rbt.Current_Directory>
/home/itssahil/PROJECTS/Mol_Feturizer/New_Systems/rnas/1o9m

>  <Rbt.Executable>
rbdock ($Id: //depot/dev/client3/rdock/2013.1/src/exe/rbdock.cxx#4 $)

>  <Rbt.Library>
libRbt.so (2013.1, Build901 2013/11/27)

>  <Rbt.Parameter_File>
/export/apps/rDock/src/rDock_2013.1_src/data/scripts/dock_solv.prm

>  <Rbt.Receptor>
prm/blind_docking_60.prm

>  <SCORE>
-0.459423

>  <SCORE.INTER>
-6.60909

>  <SCORE.INTER.CONST>
1

>  <SCORE.INTER.POLAR>
-2.14558

>  <SCORE.INTER.ROT>
15

>  <SCORE.INTER.SOLV>
17.3879

>  <SCORE.INTER.VDW>
-16.6501

>  <SCORE.INTER.norm>
-0.178624

>  <SCORE.INTRA>
6.14967

>  <SCORE.INTRA.DIHEDRAL>
-2.37515

>  <SCORE.INTRA.DIHEDRAL.0>
21.5987

>  <SCORE.INTRA.POLAR>
0

>  <SCORE.INTRA.POLAR.0>
0

>  <SCORE.INTRA.REPUL>
0

>  <SCORE.INTRA.REPUL.0>
0

>  <SCORE.INTRA.SOLV>
11.6062

>  <SCORE.INTRA.SOLV.lig_0>
-108.715

>  <SCORE.INTRA.VDW>
1.53416

>  <SCORE.INTRA.VDW.0>
-3.9485

>  <SCORE.INTRA.norm>
0.166207

>  <SCORE.RESTR>
0

>  <SCORE.RESTR.CAVITY>
0

>  <SCORE.RESTR.norm>
0

>  <SCORE.SYSTEM>
0

>  <SCORE.SYSTEM.CONST>
0

>  <SCORE.SYSTEM.DIHEDRAL>
0

>  <SCORE.SYSTEM.SOLV>
0

>  <SCORE.SYSTEM.norm>
0

>  <SCORE.heavy>
37

>  <SCORE.norm>
-0.0124168

>  <RMSD>
22.798

$$$$
1o9m_lig
 OpenBabel11021811403D
libRbt.so/2013.1/901 2013/11/27
 37 38  0  0  0  0  0  0  0  0999 V2000
   10.7694   -1.3558   10.2624 C   0  0  2  0  0  0  0  0  0  0  0  0
   10.6223    0.0968   10.2378 O   0  0  0  0  0  0  0  0  0  0  0  0
   12.1436   -1.6748    9.5666 C   0  0  2  0  0  0  0  0  0  0  0  0
   13.2769   -1.0254   10.2485 N   0  0  0  0  0  0  0  0  0  0  0  0
   12.0715   -1.2295    8.0565 C   0  0  1  0  0  0  0  0  0  0  0  0
   13.3108   -1.5113    7.4004 O   0  0  0  0  0  0  0  0  0  0  0  0
   10.8665   -1.9703    7.3884 C   0  0  2  0  0  0  0  0  0  0  0  0
   10.6962   -1.6227    6.0045 O   0  0  0  0  0  0  0  0  0  0  0  0
    9.5505   -1.6661    8.1460 C   0  0  2  0  0  0  0  0  0  0  0  0
    9.6708   -2.0022    9.5359 O   0  0  0  0  0  0  0  0  0  0  0  0
    8.3823   -2.4129    7.5558 C   0  0  0  0  0  0  0  0  0  0  0  0
    7.2183   -2.0570    8.1943 N   0  0  0  0  0  0  0  0  0  0  0  0
    6.8530    0.7152   12.2946 C   0  0  1  0  0  0  0  0  0  0  0  0
    5.7249    1.4152   12.9706 N   0  0  0  0  0  0  0  0  0  0  0  0
    6.9842    1.2508   10.8753 C   0  0  2  0  0  0  0  0  0  0  0  0
    5.7629    1.0537   10.2274 O   0  0  0  0  0  0  0  0  0  0  0  0
    8.1456    0.5307   10.1202 C   0  0  1  0  0  0  0  0  0  0  0  0
    8.2755    1.0678    8.7685 O   0  0  0  0  0  0  0  0  0  0  0  0
    9.5069    0.7655   10.8932 C   0  0  1  0  0  0  0  0  0  0  0  0
    9.3945    0.2172   12.3076 C   0  0  1  0  0  0  0  0  0  0  0  0
   10.6595    0.4296   12.9947 N   0  0  0  0  0  0  0  0  0  0  0  0
    8.2272    0.9191   13.0520 C   0  0  0  0  0  0  0  0  0  0  0  0
    4.8032    1.0040    9.1489 C   0  0  0  0  0  0  0  0  0  0  0  0
    3.4171    0.8250    9.7245 C   0  0  0  0  0  0  0  0  0  0  0  0
    2.3458    0.7503    8.7098 N   0  0  0  0  0  0  0  0  0  0  0  0
    1.0210    0.5882    8.0686 C   0  0  0  0  0  0  0  0  0  0  0  0
    1.4810    0.7573    6.6151 C   0  0  0  0  0  0  0  0  0  0  0  0
    2.3933   -0.3941    6.1522 C   0  0  0  0  0  0  0  0  0  0  0  0
    1.6224   -1.7082    6.0747 C   0  0  0  0  0  0  0  0  0  0  0  0
    2.5071   -2.7826    5.6467 N   0  0  0  0  0  0  0  0  0  0  0  0
    1.0872    3.3971   14.0273 N   0  0  0  0  0  0  0  0  0  0  0  0
    4.2466    0.4348   12.9506 C   0  0  0  0  0  0  0  0  0  0  0  0
    3.9850   -0.5425   12.5758 O   0  0  0  0  0  0  0  0  0  0  0  0
    3.5933    1.5968   13.6582 C   0  0  2  0  0  0  0  0  0  0  0  0
    2.7184    1.1636   14.6220 O   0  0  0  0  0  0  0  0  0  0  0  0
    2.7666    2.3410   12.6155 C   0  0  0  0  0  0  0  0  0  0  0  0
    2.1452    3.6817   13.0471 C   0  0  0  0  0  0  0  0  0  0  0  0
  1  2  1  6  0  0  0
  1  3  1  0  0  0  0
  3  4  1  1  0  0  0
  3  5  1  0  0  0  0
  5  6  1  6  0  0  0
  5  7  1  0  0  0  0
  7  8  1  6  0  0  0
  9  7  1  0  0  0  0
  9 10  1  0  0  0  0
  9 11  1  6  0  0  0
 10  1  1  0  0  0  0
 11 12  1  0  0  0  0
 13 14  1  1  0  0  0
 13 15  1  0  0  0  0
 13 22  1  0  0  0  0
 14 32  1  0  0  0  0
 15 16  1  6  0  0  0
 15 17  1  0  0  0  0
 16 23  1  0  0  0  0
 17 18  1  6  0  0  0
 17 19  1  0  0  0  0
 19  2  1  6  0  0  0
 19 20  1  0  0  0  0
 20 21  1  1  0  0  0
 20 22  1  0  0  0  0
 23 24  1  0  0  0  0
 24 25  1  0  0  0  0
 25 26  1  0  0  0  0
 26 27  1  0  0  0  0
 27 28  1  0  0  0  0
 28 29  1  0  0  0  0
 29 30  1  0  0  0  0
 31 37  1  0  0  0  0
 32 33  2  0  0  0  0
 34 32  1  6  0  0  0
 34 35  1  0  0  0  0
 34 36  1  0  0  0  0
 36 37  1  0  0  0  0
M  END
>  <CHROM.1>
-175.11361813,-176.17711337,98.97838704,-170.95251474,-168.94896398,-71.70875764
-179.58628056,174.61624455,-177.13767051,66.38967714,67.14779328,-179.50953159
-141.08939618,-172.15483646,-69.29429754,6.71164247,0.02321110,9.99906595
-0.30003927,-0.15891194,1.16315349

>  <Name>
1o9m_lig

>  <RI>
0

>  <Rbt.Current_Directory>
/home/itssahil/PROJECTS/Mol_Feturizer/New_Systems/rnas/1o9m

>  <Rbt.Executable>
rbdock ($Id: //depot/dev/client3/rdock/2013.1/src/exe/rbdock.cxx#4 $)

>  <Rbt.Library>
libRbt.so (2013.1, Build901 2013/11/27)

>  <Rbt.Parameter_File>
/export/apps/rDock/src/rDock_2013.1_src/data/scripts/dock_solv.prm

>  <Rbt.Receptor>
prm/blind_docking_20.prm

>  <SCORE>
-12.2242

>  <SCORE.INTER>
-5.75659

>  <SCORE.INTER.CONST>
1

>  <SCORE.INTER.POLAR>
0

>  <SCORE.INTER.ROT>
15

>  <SCORE.INTER.SOLV>
13.176

>  <SCORE.INTER.VDW>
-21.8297

>  <SCORE.INTER.norm>
-0.155583

>  <SCORE.INTRA>
-6.47615

>  <SCORE.INTRA.DIHEDRAL>
-15.8163

>  <SCORE.INTRA.DIHEDRAL.0>
21.5987

>  <SCORE.INTRA.POLAR>
0

>  <SCORE.INTRA.POLAR.0>
0

>  <SCORE.INTRA.REPUL>
0

>  <SCORE.INTRA.REPUL.0>
0

>  <SCORE.INTRA.SOLV>
4.9376

>  <SCORE.INTRA.SOLV.lig_0>
-108.715

>  <SCORE.INTRA.VDW>
-1.0368

>  <SCORE.INTRA.VDW.0>
-3.9485

>  <SCORE.INTRA.norm>
-0.175031

>  <SCORE.RESTR>
0.00858181

>  <SCORE.RESTR.CAVITY>
0.00858181

>  <SCORE.RESTR.norm>
0.000231941

>  <SCORE.SYSTEM>
0

>  <SCORE.SYSTEM.CONST>
0

>  <SCORE.SYSTEM.DIHEDRAL>
0

>  <SCORE.SYSTEM.SOLV>
0

>  <SCORE.SYSTEM.norm>
0

>  <SCORE.heavy>
37

>  <SCORE.norm>
-0.330383

>  <RMSD>
22.814

$$$$
1o9m_lig
 OpenBabel11021811403D
libRbt.so/2013.1/901 2013/11/27
 37 38  0  0  0  0  0  0  0  0999 V2000
    9.7109   -1.1646    9.9921 C   0  0  2  0  0  0  0  0  0  0  0  0
    9.3489    0.2077    9.6485 O   0  0  0  0  0  0  0  0  0  0  0  0
   11.2319   -1.3278    9.6253 C   0  0  2  0  0  0  0  0  0  0  0  0
   12.0849   -0.3682   10.3480 N   0  0  0  0  0  0  0  0  0  0  0  0
   11.4058   -1.1657    8.0673 C   0  0  1  0  0  0  0  0  0  0  0  0
   12.7824   -1.3120    7.7078 O   0  0  0  0  0  0  0  0  0  0  0  0
   10.4948   -2.2252    7.3637 C   0  0  2  0  0  0  0  0  0  0  0  0
   10.5629   -2.1551    5.9301 O   0  0  0  0  0  0  0  0  0  0  0  0
    9.0196   -2.0548    7.8032 C   0  0  2  0  0  0  0  0  0  0  0  0
    8.9002   -2.1223    9.2317 O   0  0  0  0  0  0  0  0  0  0  0  0
    8.1289   -3.0998    7.1824 C   0  0  0  0  0  0  0  0  0  0  0  0
    8.0907   -2.9426    5.8175 N   0  0  0  0  0  0  0  0  0  0  0  0
    5.2219    0.4525   10.9631 C   0  0  1  0  0  0  0  0  0  0  0  0
    3.8786    1.0237   11.2611 N   0  0  0  0  0  0  0  0  0  0  0  0
    5.5042    0.6101    9.4752 C   0  0  2  0  0  0  0  0  0  0  0  0
    4.4798   -0.0293    8.7737 O   0  0  0  0  0  0  0  0  0  0  0  0
    6.8978    0.0069    9.1122 C   0  0  1  0  0  0  0  0  0  0  0  0
    7.1663    0.1835    7.6877 O   0  0  0  0  0  0  0  0  0  0  0  0
    8.0275    0.7472    9.9378 C   0  0  1  0  0  0  0  0  0  0  0  0
    7.7666    0.5807   11.4271 C   0  0  1  0  0  0  0  0  0  0  0  0
    8.8233    1.2549   12.1664 N   0  0  0  0  0  0  0  0  0  0  0  0
    6.3728    1.1626   11.7846 C   0  0  0  0  0  0  0  0  0  0  0  0
    3.5976   -1.0914    8.3492 C   0  0  0  0  0  0  0  0  0  0  0  0
    2.6773   -0.5714    7.2688 C   0  0  0  0  0  0  0  0  0  0  0  0
    1.9866   -1.6288    6.5021 N   0  0  0  0  0  0  0  0  0  0  0  0
    1.7079   -2.8867    5.7725 C   0  0  0  0  0  0  0  0  0  0  0  0
    0.1770   -2.7919    5.7893 C   0  0  0  0  0  0  0  0  0  0  0  0
   -0.4087   -3.0281    7.1940 C   0  0  0  0  0  0  0  0  0  0  0  0
   -0.2961   -4.4954    7.5963 C   0  0  0  0  0  0  0  0  0  0  0  0
   -1.0029   -4.7265    8.8482 N   0  0  0  0  0  0  0  0  0  0  0  0
    2.3007    0.4652   15.5439 N   0  0  0  0  0  0  0  0  0  0  0  0
    3.6224    1.2048   13.0070 C   0  0  0  0  0  0  0  0  0  0  0  0
    4.2127    1.0088   13.8885 O   0  0  0  0  0  0  0  0  0  0  0  0
    2.2499    1.7176   12.6450 C   0  0  2  0  0  0  0  0  0  0  0  0
    2.3296    2.8298   11.8458 O   0  0  0  0  0  0  0  0  0  0  0  0
    1.5849    2.1563   13.9450 C   0  0  0  0  0  0  0  0  0  0  0  0
    1.1134    1.0419   14.8966 C   0  0  0  0  0  0  0  0  0  0  0  0
  1  2  1  6  0  0  0
  1  3  1  0  0  0  0
  3  4  1  1  0  0  0
  3  5  1  0  0  0  0
  5  6  1  1  0  0  0
  5  7  1  0  0  0  0
  7  8  1  6  0  0  0
  9  7  1  0  0  0  0
  9 10  1  0  0  0  0
  9 11  1  6  0  0  0
 10  1  1  0  0  0  0
 11 12  1  0  0  0  0
 13 14  1  6  0  0  0
 13 15  1  0  0  0  0
 13 22  1  0  0  0  0
 14 32  1  0  0  0  0
 15 16  1  6  0  0  0
 15 17  1  0  0  0  0
 16 23  1  0  0  0  0
 17 18  1  6  0  0  0
 17 19  1  0  0  0  0
 19  2  1  1  0  0  0
 19 20  1  0  0  0  0
 20 21  1  1  0  0  0
 20 22  1  0  0  0  0
 23 24  1  0  0  0  0
 24 25  1  0  0  0  0
 25 26  1  0  0  0  0
 26 27  1  0  0  0  0
 27 28  1  0  0  0  0
 28 29  1  0  0  0  0
 29 30  1  0  0  0  0
 31 37  1  0  0  0  0
 32 33  2  0  0  0  0
 34 32  1  1  0  0  0
 34 35  1  0  0  0  0
 34 36  1  0  0  0  0
 36 37  1  0  0  0  0
M  END
>  <CHROM.1>
-175.77787450,-64.82636536,-167.48087558,-56.74285619,-178.10147917,-64.89891432
164.32712007,-39.85860973,164.23449182,-71.10801214,-71.97651531,-172.88135594
-59.37751950,-73.19408890,74.31478752,5.73677087,-0.66209003,9.55568694,-0.21691970
0.07548024,1.00057370

>  <Name>
1o9m_lig

>  <RI>
0

>  <Rbt.Current_Directory>
/home/itssahil/PROJECTS/Mol_Feturizer/New_Systems/rnas/1o9m

>  <Rbt.Executable>
rbdock ($Id: //depot/dev/client3/rdock/2013.1/src/exe/rbdock.cxx#4 $)

>  <Rbt.Library>
libRbt.so (2013.1, Build901 2013/11/27)

>  <Rbt.Parameter_File>
/export/apps/rDock/src/rDock_2013.1_src/data/scripts/dock_solv.prm

>  <Rbt.Receptor>
prm/blind_docking_20.prm

>  <SCORE>
-13.0758

>  <SCORE.INTER>
-9.33874

>  <SCORE.INTER.CONST>
1

>  <SCORE.INTER.POLAR>
-2.0812

>  <SCORE.INTER.ROT>
15

>  <SCORE.INTER.SOLV>
17.9774

>  <SCORE.INTER.VDW>
-18.881

>  <SCORE.INTER.norm>
-0.252398

>  <SCORE.INTRA>
-3.73701

>  <SCORE.INTRA.DIHEDRAL>
-16.3366

>  <SCORE.INTRA.DIHEDRAL.0>
21.5987

>  <SCORE.INTRA.POLAR>
0

>  <SCORE.INTRA.POLAR.0>
0

>  <SCORE.INTRA.REPUL>
0

>  <SCORE.INTRA.REPUL.0>
0

>  <SCORE.INTRA.SOLV>
4.46974

>  <SCORE.INTRA.SOLV.lig_0>
-108.715

>  <SCORE.INTRA.VDW>
2.19642

>  <SCORE.INTRA.VDW.0>
-3.9485

>  <SCORE.INTRA.norm>
-0.101

>  <SCORE.RESTR>
0

>  <SCORE.RESTR.CAVITY>
0

>  <SCORE.RESTR.norm>
0

>  <SCORE.SYSTEM>
0

>  <SCORE.SYSTEM.CONST>
0

>  <SCORE.SYSTEM.DIHEDRAL>
0

>  <SCORE.SYSTEM.SOLV>
0

>  <SCORE.SYSTEM.norm>
0

>  <SCORE.heavy>
37

>  <SCORE.norm>
-0.353399

>  <RMSD>
22.842

$$$$
1o9m_lig
 OpenBabel11021811403D
libRbt.so/2013.1/901 2013/11/27
 37 38  0  0  0  0  0  0  0  0999 V2000
   10.1564   -1.9677   11.3345 C   0  0  2  0  0  0  0  0  0  0  0  0
   10.0622   -0.7360   10.5559 O   0  0  0  0  0  0  0  0  0  0  0  0
   11.0870   -2.9388   10.5187 C   0  0  2  0  0  0  0  0  0  0  0  0
   12.4245   -2.3652   10.2884 N   0  0  0  0  0  0  0  0  0  0  0  0
   10.3886   -3.2927    9.1509 C   0  0  1  0  0  0  0  0  0  0  0  0
   11.2157   -4.1775    8.3904 O   0  0  0  0  0  0  0  0  0  0  0  0
    8.9891   -3.9163    9.4670 C   0  0  2  0  0  0  0  0  0  0  0  0
    8.2530   -4.2633    8.2826 O   0  0  0  0  0  0  0  0  0  0  0  0
    8.1370   -2.9426   10.3180 C   0  0  2  0  0  0  0  0  0  0  0  0
    8.8310   -2.5699   11.5175 O   0  0  0  0  0  0  0  0  0  0  0  0
    6.8040   -3.5426   10.6839 C   0  0  0  0  0  0  0  0  0  0  0  0
    6.2285   -2.8329   11.7107 N   0  0  0  0  0  0  0  0  0  0  0  0
    6.2508    1.0092   11.6730 C   0  0  1  0  0  0  0  0  0  0  0  0
    5.2043    2.0363   11.9361 N   0  0  0  0  0  0  0  0  0  0  0  0
    6.6736    1.1008   10.2131 C   0  0  2  0  0  0  0  0  0  0  0  0
    5.5350    0.9233    9.4244 O   0  0  0  0  0  0  0  0  0  0  0  0
    7.7591    0.0274    9.8858 C   0  0  1  0  0  0  0  0  0  0  0  0
    8.1720    0.1396    8.4896 O   0  0  0  0  0  0  0  0  0  0  0  0
    9.0245    0.2538   10.8095 C   0  0  1  0  0  0  0  0  0  0  0  0
    8.6181    0.1458   12.2714 C   0  0  1  0  0  0  0  0  0  0  0  0
    9.7971    0.3420   13.1015 N   0  0  0  0  0  0  0  0  0  0  0  0
    7.5247    1.1999   12.5920 C   0  0  0  0  0  0  0  0  0  0  0  0
    4.3931    0.2612    8.8375 C   0  0  0  0  0  0  0  0  0  0  0  0
    3.5472    1.2804    8.1094 C   0  0  0  0  0  0  0  0  0  0  0  0
    2.3039    0.7315    7.5299 N   0  0  0  0  0  0  0  0  0  0  0  0
    0.8953    0.3076    7.3608 C   0  0  0  0  0  0  0  0  0  0  0  0
    1.1289   -1.2050    7.4622 C   0  0  0  0  0  0  0  0  0  0  0  0
   -0.1736   -2.0107    7.2985 C   0  0  0  0  0  0  0  0  0  0  0  0
    0.0967   -3.5107    7.3639 C   0  0  0  0  0  0  0  0  0  0  0  0
    0.4754   -3.8921    8.7171 N   0  0  0  0  0  0  0  0  0  0  0  0
    0.8316    3.5149   11.7849 N   0  0  0  0  0  0  0  0  0  0  0  0
    4.2273    1.6193   13.3568 C   0  0  0  0  0  0  0  0  0  0  0  0
    4.2252    0.8092   14.0694 O   0  0  0  0  0  0  0  0  0  0  0  0
    3.4506    2.8789   13.0605 C   0  0  2  0  0  0  0  0  0  0  0  0
    4.0412    3.9744   13.6375 O   0  0  0  0  0  0  0  0  0  0  0  0
    2.0833    2.7195   13.7160 C   0  0  0  0  0  0  0  0  0  0  0  0
    0.9683    3.6685   13.2405 C   0  0  0  0  0  0  0  0  0  0  0  0
  1  2  1  6  0  0  0
  1  3  1  0  0  0  0
  3  4  1  6  0  0  0
  3  5  1  0  0  0  0
  5  6  1  1  0  0  0
  5  7  1  0  0  0  0
  7  8  1  6  0  0  0
  9  7  1  0  0  0  0
  9 10  1  0  0  0  0
  9 11  1  1  0  0  0
 10  1  1  0  0  0  0
 11 12  1  0  0  0  0
 13 14  1  1  0  0  0
 13 15  1  0  0  0  0
 13 22  1  0  0  0  0
 14 32  1  0  0  0  0
 15 16  1  6  0  0  0
 15 17  1  0  0  0  0
 16 23  1  0  0  0  0
 17 18  1  6  0  0  0
 17 19  1  0  0  0  0
 19  2  1  6  0  0  0
 19 20  1  0  0  0  0
 20 21  1  1  0  0  0
 20 22  1  0  0  0  0
 23 24  1  0  0  0  0
 24 25  1  0  0  0  0
 25 26  1  0  0  0  0
 26 27  1  0  0  0  0
 27 28  1  0  0  0  0
 28 29  1  0  0  0  0
 29 30  1  0  0  0  0
 31 37  1  0  0  0  0
 32 33  2  0  0  0  0
 34 32  1  1  0  0  0
 34 35  1  0  0  0  0
 34 36  1  0  0  0  0
 36 37  1  0  0  0  0
M  END
>  <CHROM.1>
163.68614808,163.91001037,158.02493401,-65.23479487,169.53819732,-93.40623975
-176.69614771,90.96877804,-106.92661788,-178.94375912,178.36912641,69.60811578
-86.13578495,-163.11497684,56.26533636,5.94255541,-0.47300419,10.47494399
-0.30908865,-0.25694195,0.73886486

>  <Name>
1o9m_lig

>  <RI>
0

>  <Rbt.Current_Directory>
/home/itssahil/PROJECTS/Mol_Feturizer/New_Systems/rnas/1o9m

>  <Rbt.Executable>
rbdock ($Id: //depot/dev/client3/rdock/2013.1/src/exe/rbdock.cxx#4 $)

>  <Rbt.Library>
libRbt.so (2013.1, Build901 2013/11/27)

>  <Rbt.Parameter_File>
/export/apps/rDock/src/rDock_2013.1_src/data/scripts/dock_solv.prm

>  <Rbt.Receptor>
prm/blind_docking_60.prm

>  <SCORE>
-10.6037

>  <SCORE.INTER>
-8.05758

>  <SCORE.INTER.CONST>
1

>  <SCORE.INTER.POLAR>
-1.72384

>  <SCORE.INTER.ROT>
15

>  <SCORE.INTER.SOLV>
22.7171

>  <SCORE.INTER.VDW>
-20.7979

>  <SCORE.INTER.norm>
-0.217773

>  <SCORE.INTRA>
-2.61445

>  <SCORE.INTRA.DIHEDRAL>
-9.86248

>  <SCORE.INTRA.DIHEDRAL.0>
21.5987

>  <SCORE.INTRA.POLAR>
0

>  <SCORE.INTRA.POLAR.0>
0

>  <SCORE.INTRA.REPUL>
0

>  <SCORE.INTRA.REPUL.0>
0

>  <SCORE.INTRA.SOLV>
3.6733

>  <SCORE.INTRA.SOLV.lig_0>
-108.715

>  <SCORE.INTRA.VDW>
0.480145

>  <SCORE.INTRA.VDW.0>
-3.9485

>  <SCORE.INTRA.norm>
-0.0706608

>  <SCORE.RESTR>
0.0683639

>  <SCORE.RESTR.CAVITY>
0.0683639

>  <SCORE.RESTR.norm>
0.00184767

>  <SCORE.SYSTEM>
0

>  <SCORE.SYSTEM.CONST>
0

>  <SCORE.SYSTEM.DIHEDRAL>
0

>  <SCORE.SYSTEM.SOLV>
0

>  <SCORE.SYSTEM.norm>
0

>  <SCORE.heavy>
37

>  <SCORE.norm>
-0.286586

>  <RMSD>
22.864

$$$$
1o9m_lig
 OpenBabel11021811403D
libRbt.so/2013.1/901 2013/11/27
 37 38  0  0  0  0  0  0  0  0999 V2000
   10.1242    0.2693   11.5325 C   0  0  2  0  0  0  0  0  0  0  0  0
    8.9526    0.2100   10.6630 O   0  0  0  0  0  0  0  0  0  0  0  0
   11.3812    0.2023   10.5893 C   0  0  2  0  0  0  0  0  0  0  0  0
   11.4028    1.3041    9.6113 N   0  0  0  0  0  0  0  0  0  0  0  0
   11.4019   -1.1936    9.8577 C   0  0  1  0  0  0  0  0  0  0  0  0
   12.5385   -1.2799    8.9940 O   0  0  0  0  0  0  0  0  0  0  0  0
   11.4016   -2.3143   10.9492 C   0  0  2  0  0  0  0  0  0  0  0  0
   11.4027   -3.6378   10.3894 O   0  0  0  0  0  0  0  0  0  0  0  0
   10.1747   -2.1672   11.8827 C   0  0  2  0  0  0  0  0  0  0  0  0
   10.1332   -0.8587   12.4707 O   0  0  0  0  0  0  0  0  0  0  0  0
   10.1808   -3.2017   12.9782 C   0  0  0  0  0  0  0  0  0  0  0  0
    9.9452   -4.4506   12.4547 N   0  0  0  0  0  0  0  0  0  0  0  0
    4.7435    0.6785   11.6033 C   0  0  1  0  0  0  0  0  0  0  0  0
    3.4600    1.3241   11.9976 N   0  0  0  0  0  0  0  0  0  0  0  0
    5.2711    1.3594   10.3478 C   0  0  2  0  0  0  0  0  0  0  0  0
    4.2905    1.2559    9.3589 O   0  0  0  0  0  0  0  0  0  0  0  0
    6.6095    0.7015    9.8856 C   0  0  1  0  0  0  0  0  0  0  0  0
    7.1164    1.3769    8.6942 O   0  0  0  0  0  0  0  0  0  0  0  0
    7.6876    0.8266   11.0379 C   0  0  1  0  0  0  0  0  0  0  0  0
    7.1795    0.1331   12.2929 C   0  0  1  0  0  0  0  0  0  0  0  0
    8.1906    0.2468   13.3333 N   0  0  0  0  0  0  0  0  0  0  0  0
    5.8389    0.7741   12.7411 C   0  0  0  0  0  0  0  0  0  0  0  0
    3.6343    1.4529    8.0872 C   0  0  0  0  0  0  0  0  0  0  0  0
    2.3455    0.6636    8.0650 C   0  0  0  0  0  0  0  0  0  0  0  0
    2.5331   -0.7980    7.9575 N   0  0  0  0  0  0  0  0  0  0  0  0
    2.2612   -2.2487    7.8399 C   0  0  0  0  0  0  0  0  0  0  0  0
    1.4200   -2.1906    6.5585 C   0  0  0  0  0  0  0  0  0  0  0  0
    0.8620   -3.5702    6.1615 C   0  0  0  0  0  0  0  0  0  0  0  0
   -0.2259   -4.0221    7.1308 C   0  0  0  0  0  0  0  0  0  0  0  0
   -1.4255   -3.2174    6.9468 N   0  0  0  0  0  0  0  0  0  0  0  0
    0.2606    1.4843   16.9502 N   0  0  0  0  0  0  0  0  0  0  0  0
    3.1362    1.1215   13.7299 C   0  0  0  0  0  0  0  0  0  0  0  0
    3.6542    0.6539   14.5527 O   0  0  0  0  0  0  0  0  0  0  0  0
    1.8512    1.8688   13.4688 C   0  0  2  0  0  0  0  0  0  0  0  0
    2.0440    3.2257   13.5297 O   0  0  0  0  0  0  0  0  0  0  0  0
    0.8933    1.5091   14.5991 C   0  0  0  0  0  0  0  0  0  0  0  0
    1.3560    1.8284   16.0322 C   0  0  0  0  0  0  0  0  0  0  0  0
  1  2  1  6  0  0  0
  1  3  1  0  0  0  0
  3  4  1  6  0  0  0
  3  5  1  0  0  0  0
  5  6  1  1  0  0  0
  5  7  1  0  0  0  0
  7  8  1  6  0  0  0
  9  7  1  0  0  0  0
  9 10  1  0  0  0  0
  9 11  1  1  0  0  0
 10  1  1  0  0  0  0
 11 12  1  0  0  0  0
 13 14  1  1  0  0  0
 13 15  1  0  0  0  0
 13 22  1  0  0  0  0
 14 32  1  0  0  0  0
 15 16  1  6  0  0  0
 15 17  1  0  0  0  0
 16 23  1  0  0  0  0
 17 18  1  6  0  0  0
 17 19  1  0  0  0  0
 19  2  1  6  0  0  0
 19 20  1  0  0  0  0
 20 21  1  1  0  0  0
 20 22  1  0  0  0  0
 23 24  1  0  0  0  0
 24 25  1  0  0  0  0
 25 26  1  0  0  0  0
 26 27  1  0  0  0  0
 27 28  1  0  0  0  0
 28 29  1  0  0  0  0
 29 30  1  0  0  0  0
 31 37  1  0  0  0  0
 32 33  2  0  0  0  0
 34 32  1  1  0  0  0
 34 35  1  0  0  0  0
 34 36  1  0  0  0  0
 36 37  1  0  0  0  0
M  END
>  <CHROM.1>
-151.67011848,-69.29635089,-155.48784904,174.96107498,176.86018720,176.28464395
-72.21204892,-177.15191759,56.07086992,-176.31730875,70.52760776,70.83552313
-85.69006791,58.54460892,176.48416295,5.80063394,-0.28854600,10.94070076
-0.02798094,-0.11246202,1.08401697

>  <Name>
1o9m_lig

>  <RI>
0

>  <Rbt.Current_Directory>
/home/itssahil/PROJECTS/Mol_Feturizer/New_Systems/rnas/1o9m

>  <Rbt.Executable>
rbdock ($Id: //depot/dev/client3/rdock/2013.1/src/exe/rbdock.cxx#4 $)

>  <Rbt.Library>
libRbt.so (2013.1, Build901 2013/11/27)

>  <Rbt.Parameter_File>
/export/apps/rDock/src/rDock_2013.1_src/data/scripts/dock_solv.prm

>  <Rbt.Receptor>
prm/blind_docking_100.prm

>  <SCORE>
-3.70971

>  <SCORE.INTER>
-2.89925

>  <SCORE.INTER.CONST>
1

>  <SCORE.INTER.POLAR>
-0.475042

>  <SCORE.INTER.ROT>
15

>  <SCORE.INTER.SOLV>
18.1711

>  <SCORE.INTER.VDW>
-20.0064

>  <SCORE.INTER.norm>
-0.0783582

>  <SCORE.INTRA>
-0.86592

>  <SCORE.INTRA.DIHEDRAL>
-14.5025

>  <SCORE.INTRA.DIHEDRAL.0>
21.5987

>  <SCORE.INTRA.POLAR>
0

>  <SCORE.INTRA.POLAR.0>
0

>  <SCORE.INTRA.REPUL>
0.0216474

>  <SCORE.INTRA.REPUL.0>
0

>  <SCORE.INTRA.SOLV>
3.89225

>  <SCORE.INTRA.SOLV.lig_0>
-108.715

>  <SCORE.INTRA.VDW>
4.33097

>  <SCORE.INTRA.VDW.0>
-3.9485

>  <SCORE.INTRA.norm>
-0.0234033

>  <SCORE.RESTR>
0.0554688

>  <SCORE.RESTR.CAVITY>
0.0554688

>  <SCORE.RESTR.norm>
0.00149916

>  <SCORE.SYSTEM>
0

>  <SCORE.SYSTEM.CONST>
0

>  <SCORE.SYSTEM.DIHEDRAL>
0

>  <SCORE.SYSTEM.SOLV>
0

>  <SCORE.SYSTEM.norm>
0

>  <SCORE.heavy>
37

>  <SCORE.norm>
-0.100262

>  <RMSD>
22.901

$$$$
1o9m_lig
 OpenBabel11021811403D
libRbt.so/2013.1/901 2013/11/27
 37 38  0  0  0  0  0  0  0  0999 V2000
    8.6250   -0.4558    8.9887 C   0  0  2  0  0  0  0  0  0  0  0  0
    7.8486   -1.3639    9.8282 O   0  0  0  0  0  0  0  0  0  0  0  0
    9.6865   -1.3423    8.2391 C   0  0  2  0  0  0  0  0  0  0  0  0
    9.0561   -2.3947    7.4229 N   0  0  0  0  0  0  0  0  0  0  0  0
   10.6710   -1.9712    9.2969 C   0  0  1  0  0  0  0  0  0  0  0  0
   11.6485   -2.7818    8.6388 O   0  0  0  0  0  0  0  0  0  0  0  0
   11.3211   -0.8035   10.1101 C   0  0  2  0  0  0  0  0  0  0  0  0
   12.2305   -1.2672   11.1215 O   0  0  0  0  0  0  0  0  0  0  0  0
   10.2307    0.0687   10.7799 C   0  0  2  0  0  0  0  0  0  0  0  0
    9.2986    0.5599    9.8056 O   0  0  0  0  0  0  0  0  0  0  0  0
   10.8289    1.2345   11.5239 C   0  0  0  0  0  0  0  0  0  0  0  0
   11.4934    0.7941   12.6436 N   0  0  0  0  0  0  0  0  0  0  0  0
    3.7731   -1.0037   11.2709 C   0  0  1  0  0  0  0  0  0  0  0  0
    2.6057   -0.5296   12.0659 N   0  0  0  0  0  0  0  0  0  0  0  0
    4.3668    0.1781   10.5164 C   0  0  2  0  0  0  0  0  0  0  0  0
    3.3605    0.7278    9.7192 O   0  0  0  0  0  0  0  0  0  0  0  0
    5.5853   -0.2762    9.6524 C   0  0  1  0  0  0  0  0  0  0  0  0
    6.1591    0.8690    8.9511 O   0  0  0  0  0  0  0  0  0  0  0  0
    6.6948   -0.9059   10.5897 C   0  0  1  0  0  0  0  0  0  0  0  0
    6.1186   -2.1000   11.3353 C   0  0  1  0  0  0  0  0  0  0  0  0
    7.1576   -2.6721   12.1785 N   0  0  0  0  0  0  0  0  0  0  0  0
    4.8951   -1.6522   12.1789 C   0  0  0  0  0  0  0  0  0  0  0  0
    2.7059    1.6551    8.8258 C   0  0  0  0  0  0  0  0  0  0  0  0
    1.6145    0.9318    8.0707 C   0  0  0  0  0  0  0  0  0  0  0  0
    2.0833   -0.2443    7.3090 N   0  0  0  0  0  0  0  0  0  0  0  0
    2.8252   -1.4635    6.9146 C   0  0  0  0  0  0  0  0  0  0  0  0
    2.0827   -1.7319    5.5995 C   0  0  0  0  0  0  0  0  0  0  0  0
    1.1514   -2.9551    5.6922 C   0  0  0  0  0  0  0  0  0  0  0  0
   -0.0819   -2.6435    6.5344 C   0  0  0  0  0  0  0  0  0  0  0  0
    0.2692   -2.6236    7.9474 N   0  0  0  0  0  0  0  0  0  0  0  0
    0.8783   -2.4561   13.7660 N   0  0  0  0  0  0  0  0  0  0  0  0
    3.1218    0.3018   13.5454 C   0  0  0  0  0  0  0  0  0  0  0  0
    4.0740    0.5483   13.9888 O   0  0  0  0  0  0  0  0  0  0  0  0
    1.6507    0.4553   13.8455 C   0  0  2  0  0  0  0  0  0  0  0  0
    1.3518    1.7398   14.2233 O   0  0  0  0  0  0  0  0  0  0  0  0
    1.3486   -0.4377   15.0439 C   0  0  0  0  0  0  0  0  0  0  0  0
    1.6661   -1.9364   14.8931 C   0  0  0  0  0  0  0  0  0  0  0  0
  1  2  1  1  0  0  0
  1  3  1  0  0  0  0
  3  4  1  1  0  0  0
  3  5  1  0  0  0  0
  5  6  1  6  0  0  0
  5  7  1  0  0  0  0
  7  8  1  1  0  0  0
  9  7  1  0  0  0  0
  9 10  1  0  0  0  0
  9 11  1  6  0  0  0
 10  1  1  0  0  0  0
 11 12  1  0  0  0  0
 13 14  1  1  0  0  0
 13 15  1  0  0  0  0
 13 22  1  0  0  0  0
 14 32  1  0  0  0  0
 15 16  1  6  0  0  0
 15 17  1  0  0  0  0
 16 23  1  0  0  0  0
 17 18  1  1  0  0  0
 17 19  1  0  0  0  0
 19  2  1  6  0  0  0
 19 20  1  0  0  0  0
 20 21  1  1  0  0  0
 20 22  1  0  0  0  0
 23 24  1  0  0  0  0
 24 25  1  0  0  0  0
 25 26  1  0  0  0  0
 26 27  1  0  0  0  0
 27 28  1  0  0  0  0
 28 29  1  0  0  0  0
 29 30  1  0  0  0  0
 31 37  1  0  0  0  0
 32 33  2  0  0  0  0
 34 32  1  1  0  0  0
 34 35  1  0  0  0  0
 34 36  1  0  0  0  0
 36 37  1  0  0  0  0
M  END
>  <CHROM.1>
-174.86314729,-70.10255609,-78.06534925,172.71565528,155.31232988,58.70008067
-56.89120056,36.80046158,177.12985421,-108.13526652,72.84534449,-75.33267966
-132.70133941,-58.13313915,-59.61570899,5.43599368,-0.74035673,10.35215115
0.04387209,-0.00519448,-1.78677721

>  <Name>
1o9m_lig

>  <RI>
0

>  <Rbt.Current_Directory>
/home/itssahil/PROJECTS/Mol_Feturizer/New_Systems/rnas/1o9m

>  <Rbt.Executable>
rbdock ($Id: //depot/dev/client3/rdock/2013.1/src/exe/rbdock.cxx#4 $)

>  <Rbt.Library>
libRbt.so (2013.1, Build901 2013/11/27)

>  <Rbt.Parameter_File>
/export/apps/rDock/src/rDock_2013.1_src/data/scripts/dock_solv.prm

>  <Rbt.Receptor>
prm/blind_docking_100.prm

>  <SCORE>
-10.0489

>  <SCORE.INTER>
-9.19115

>  <SCORE.INTER.CONST>
1

>  <SCORE.INTER.POLAR>
-1.18742

>  <SCORE.INTER.ROT>
15

>  <SCORE.INTER.SOLV>
16.348

>  <SCORE.INTER.VDW>
-21.2187

>  <SCORE.INTER.norm>
-0.248409

>  <SCORE.INTRA>
-0.87155

>  <SCORE.INTRA.DIHEDRAL>
-8.64207

>  <SCORE.INTRA.DIHEDRAL.0>
21.5987

>  <SCORE.INTRA.POLAR>
0

>  <SCORE.INTRA.POLAR.0>
0

>  <SCORE.INTRA.REPUL>
0

>  <SCORE.INTRA.REPUL.0>
0

>  <SCORE.INTRA.SOLV>
7.11519

>  <SCORE.INTRA.SOLV.lig_0>
-108.715

>  <SCORE.INTRA.VDW>
-0.108108

>  <SCORE.INTRA.VDW.0>
-3.9485

>  <SCORE.INTRA.norm>
-0.0235554

>  <SCORE.RESTR>
0.0137574

>  <SCORE.RESTR.CAVITY>
0.0137574

>  <SCORE.RESTR.norm>
0.000371823

>  <SCORE.SYSTEM>
0

>  <SCORE.SYSTEM.CONST>
0

>  <SCORE.SYSTEM.DIHEDRAL>
0

>  <SCORE.SYSTEM.SOLV>
0

>  <SCORE.SYSTEM.norm>
0

>  <SCORE.heavy>
37

>  <SCORE.norm>
-0.271593

>  <RMSD>
22.952

$$$$
1o9m_lig
 OpenBabel11021811403D
libRbt.so/2013.1/901 2013/11/27
 37 38  0  0  0  0  0  0  0  0999 V2000
    9.0674   -1.5106   11.1094 C   0  0  2  0  0  0  0  0  0  0  0  0
    8.0484   -0.9564   10.2224 O   0  0  0  0  0  0  0  0  0  0  0  0
    9.8282   -0.2833   11.7334 C   0  0  2  0  0  0  0  0  0  0  0  0
    8.9244    0.6133   12.4752 N   0  0  0  0  0  0  0  0  0  0  0  0
   10.5717    0.4992   10.5850 C   0  0  1  0  0  0  0  0  0  0  0  0
   11.2737    1.6207   11.1282 O   0  0  0  0  0  0  0  0  0  0  0  0
   11.5284   -0.5010    9.8559 C   0  0  2  0  0  0  0  0  0  0  0  0
   12.2494    0.1069    8.7716 O   0  0  0  0  0  0  0  0  0  0  0  0
   10.7366   -1.7154    9.3112 C   0  0  2  0  0  0  0  0  0  0  0  0
   10.0016   -2.3598   10.3619 O   0  0  0  0  0  0  0  0  0  0  0  0
   11.6438   -2.7223    8.6527 C   0  0  0  0  0  0  0  0  0  0  0  0
   12.4813   -3.2889    9.5839 N   0  0  0  0  0  0  0  0  0  0  0  0
    4.0412   -2.1067    9.0225 C   0  0  1  0  0  0  0  0  0  0  0  0
    2.9173   -2.9414    8.5130 N   0  0  0  0  0  0  0  0  0  0  0  0
    4.6354   -2.7797   10.2522 C   0  0  2  0  0  0  0  0  0  0  0  0
    3.6137   -2.9375   11.1911 O   0  0  0  0  0  0  0  0  0  0  0  0
    5.8083   -1.9286   10.8331 C   0  0  1  0  0  0  0  0  0  0  0  0
    6.3837   -2.5947   11.9983 O   0  0  0  0  0  0  0  0  0  0  0  0
    6.9364   -1.7608    9.7353 C   0  0  1  0  0  0  0  0  0  0  0  0
    6.3590   -1.0719    8.5081 C   0  0  1  0  0  0  0  0  0  0  0  0
    7.4146   -0.9143    7.5189 N   0  0  0  0  0  0  0  0  0  0  0  0
    5.1801   -1.9081    7.9421 C   0  0  0  0  0  0  0  0  0  0  0  0
    2.5556   -2.5723   12.1041 C   0  0  0  0  0  0  0  0  0  0  0  0
    3.1134   -1.6600   13.1723 C   0  0  0  0  0  0  0  0  0  0  0  0
    3.4929   -0.3182   12.6841 N   0  0  0  0  0  0  0  0  0  0  0  0
    4.1581    0.7734   11.9369 C   0  0  0  0  0  0  0  0  0  0  0  0
    3.1515    1.8829   12.2665 C   0  0  0  0  0  0  0  0  0  0  0  0
    3.2567    2.3530   13.7294 C   0  0  0  0  0  0  0  0  0  0  0  0
    2.1394    3.3333   14.0729 C   0  0  0  0  0  0  0  0  0  0  0  0
    2.2274    4.5105   13.2204 N   0  0  0  0  0  0  0  0  0  0  0  0
   -1.9368   -3.9662    9.5551 N   0  0  0  0  0  0  0  0  0  0  0  0
    1.9379   -2.0581    7.3267 C   0  0  0  0  0  0  0  0  0  0  0  0
    1.9764   -1.0729    6.8885 O   0  0  0  0  0  0  0  0  0  0  0  0
    1.0802   -3.2985    7.2693 C   0  0  2  0  0  0  0  0  0  0  0  0
    0.4169   -3.3893    6.0719 O   0  0  0  0  0  0  0  0  0  0  0  0
    0.0165   -3.1508    8.3516 C   0  0  0  0  0  0  0  0  0  0  0  0
   -0.8785   -4.3743    8.6199 C   0  0  0  0  0  0  0  0  0  0  0  0
  1  2  1  6  0  0  0
  1  3  1  0  0  0  0
  3  4  1  6  0  0  0
  3  5  1  0  0  0  0
  5  6  1  1  0  0  0
  5  7  1  0  0  0  0
  7  8  1  6  0  0  0
  9  7  1  0  0  0  0
  9 10  1  0  0  0  0
  9 11  1  1  0  0  0
 10  1  1  0  0  0  0
 11 12  1  0  0  0  0
 13 14  1  6  0  0  0
 13 15  1  0  0  0  0
 13 22  1  0  0  0  0
 14 32  1  0  0  0  0
 15 16  1  1  0  0  0
 15 17  1  0  0  0  0
 16 23  1  0  0  0  0
 17 18  1  1  0  0  0
 17 19  1  0  0  0  0
 19  2  1  1  0  0  0
 19 20  1  0  0  0  0
 20 21  1  6  0  0  0
 20 22  1  0  0  0  0
 23 24  1  0  0  0  0
 24 25  1  0  0  0  0
 25 26  1  0  0  0  0
 26 27  1  0  0  0  0
 27 28  1  0  0  0  0
 28 29  1  0  0  0  0
 29 30  1  0  0  0  0
 31 37  1  0  0  0  0
 32 33  2  0  0  0  0
 34 32  1  6  0  0  0
 34 35  1  0  0  0  0
 34 36  1  0  0  0  0
 36 37  1  0  0  0  0
M  END
>  <CHROM.1>
-164.06355898,65.99702854,166.80701778,-59.68394132,-60.20705041,78.35300783
69.47512792,-61.06864087,164.71614253,72.68132104,-173.25325128,-60.69905908
-155.06492345,-172.30818865,-172.51198597,5.58945498,-1.19927893,10.17774779
-0.14398746,-0.04324185,-2.33935060

>  <Name>
1o9m_lig

>  <RI>
0

>  <Rbt.Current_Directory>
/home/itssahil/PROJECTS/Mol_Feturizer/New_Systems/rnas/1o9m

>  <Rbt.Executable>
rbdock ($Id: //depot/dev/client3/rdock/2013.1/src/exe/rbdock.cxx#4 $)

>  <Rbt.Library>
libRbt.so (2013.1, Build901 2013/11/27)

>  <Rbt.Parameter_File>
/export/apps/rDock/src/rDock_2013.1_src/data/scripts/dock_solv.prm

>  <Rbt.Receptor>
prm/blind_docking_80.prm

>  <SCORE>
-11.0899

>  <SCORE.INTER>
-3.54757

>  <SCORE.INTER.CONST>
1

>  <SCORE.INTER.POLAR>
-0.87178

>  <SCORE.INTER.ROT>
15

>  <SCORE.INTER.SOLV>
17.9153

>  <SCORE.INTER.VDW>
-19.0309

>  <SCORE.INTER.norm>
-0.0958802

>  <SCORE.INTRA>
-7.56308

>  <SCORE.INTRA.DIHEDRAL>
-15.2868

>  <SCORE.INTRA.DIHEDRAL.0>
21.5987

>  <SCORE.INTRA.POLAR>
0

>  <SCORE.INTRA.POLAR.0>
0

>  <SCORE.INTRA.REPUL>
0

>  <SCORE.INTRA.REPUL.0>
0

>  <SCORE.INTRA.SOLV>
2.4972

>  <SCORE.INTRA.SOLV.lig_0>
-108.715

>  <SCORE.INTRA.VDW>
-1.1683

>  <SCORE.INTRA.VDW.0>
-3.9485

>  <SCORE.INTRA.norm>
-0.204407

>  <SCORE.RESTR>
0.0207103

>  <SCORE.RESTR.CAVITY>
0.0207103

>  <SCORE.RESTR.norm>
0.000559739

>  <SCORE.SYSTEM>
0

>  <SCORE.SYSTEM.CONST>
0

>  <SCORE.SYSTEM.DIHEDRAL>
0

>  <SCORE.SYSTEM.SOLV>
0

>  <SCORE.SYSTEM.norm>
0

>  <SCORE.heavy>
37

>  <SCORE.norm>
-0.299728

>  <RMSD>
22.994

$$$$
1o9m_lig
 OpenBabel11021811403D
libRbt.so/2013.1/901 2013/11/27
 37 38  0  0  0  0  0  0  0  0999 V2000
    8.9034   -0.2724   10.4846 C   0  0  2  0  0  0  0  0  0  0  0  0
    8.7848   -0.7212    9.1001 O   0  0  0  0  0  0  0  0  0  0  0  0
   10.4109    0.1246   10.6951 C   0  0  2  0  0  0  0  0  0  0  0  0
   10.8426    1.1837    9.7661 N   0  0  0  0  0  0  0  0  0  0  0  0
   11.3091   -1.1602   10.5328 C   0  0  1  0  0  0  0  0  0  0  0  0
   12.6865   -0.8250   10.7218 O   0  0  0  0  0  0  0  0  0  0  0  0
   10.8146   -2.2317   11.5598 C   0  0  2  0  0  0  0  0  0  0  0  0
   11.5582   -3.4592   11.4865 O   0  0  0  0  0  0  0  0  0  0  0  0
    9.3130   -2.5431   11.3438 C   0  0  2  0  0  0  0  0  0  0  0  0
    8.5269   -1.3445   11.4129 O   0  0  0  0  0  0  0  0  0  0  0  0
    8.7975   -3.5318   12.3573 C   0  0  0  0  0  0  0  0  0  0  0  0
    7.4404   -3.6963   12.2141 N   0  0  0  0  0  0  0  0  0  0  0  0
    5.4041   -1.9347    6.6672 C   0  0  1  0  0  0  0  0  0  0  0  0
    4.2240   -2.7140    6.1986 N   0  0  0  0  0  0  0  0  0  0  0  0
    5.1190   -1.4038    8.0655 C   0  0  2  0  0  0  0  0  0  0  0  0
    3.9558   -0.6336    8.0034 O   0  0  0  0  0  0  0  0  0  0  0  0
    6.3246   -0.5626    8.5915 C   0  0  1  0  0  0  0  0  0  0  0  0
    6.0483   -0.0775    9.9409 O   0  0  0  0  0  0  0  0  0  0  0  0
    7.6239   -1.4660    8.6325 C   0  0  1  0  0  0  0  0  0  0  0  0
    7.9301   -1.9874    7.2367 C   0  0  1  0  0  0  0  0  0  0  0  0
    9.1347   -2.8017    7.2942 N   0  0  0  0  0  0  0  0  0  0  0  0
    6.7237   -2.8071    6.7058 C   0  0  0  0  0  0  0  0  0  0  0  0
    2.5613   -0.3141    7.8034 C   0  0  0  0  0  0  0  0  0  0  0  0
    2.3071    1.1063    8.2532 C   0  0  0  0  0  0  0  0  0  0  0  0
    2.4611    1.3170    9.7075 N   0  0  0  0  0  0  0  0  0  0  0  0
    2.9892    1.2703   11.0900 C   0  0  0  0  0  0  0  0  0  0  0  0
    1.8749    2.0867   11.7567 C   0  0  0  0  0  0  0  0  0  0  0  0
    2.0724    2.2128   13.2790 C   0  0  0  0  0  0  0  0  0  0  0  0
    1.9430    0.8557   13.9637 C   0  0  0  0  0  0  0  0  0  0  0  0
    2.2567    0.9783   15.3803 N   0  0  0  0  0  0  0  0  0  0  0  0
   -1.0716   -3.2753    6.9395 N   0  0  0  0  0  0  0  0  0  0  0  0
    3.1732   -1.7373    5.1552 C   0  0  0  0  0  0  0  0  0  0  0  0
    3.1991   -0.7263    4.7794 O   0  0  0  0  0  0  0  0  0  0  0  0
    2.2853   -2.9558    5.0885 C   0  0  2  0  0  0  0  0  0  0  0  0
    1.8787   -3.2048    3.8021 O   0  0  0  0  0  0  0  0  0  0  0  0
    1.0305   -2.6329    5.8921 C   0  0  0  0  0  0  0  0  0  0  0  0
    0.0048   -3.7674    6.0675 C   0  0  0  0  0  0  0  0  0  0  0  0
  1  2  1  6  0  0  0
  1  3  1  0  0  0  0
  3  4  1  6  0  0  0
  3  5  1  0  0  0  0
  5  6  1  1  0  0  0
  5  7  1  0  0  0  0
  7  8  1  6  0  0  0
  9  7  1  0  0  0  0
  9 10  1  0  0  0  0
  9 11  1  1  0  0  0
 10  1  1  0  0  0  0
 11 12  1  0  0  0  0
 13 14  1  1  0  0  0
 13 15  1  0  0  0  0
 13 22  1  0  0  0  0
 14 32  1  0  0  0  0
 15 16  1  6  0  0  0
 15 17  1  0  0  0  0
 16 23  1  0  0  0  0
 17 18  1  1  0  0  0
 17 19  1  0  0  0  0
 19  2  1  6  0  0  0
 19 20  1  0  0  0  0
 20 21  1  1  0  0  0
 20 22  1  0  0  0  0
 23 24  1  0  0  0  0
 24 25  1  0  0  0  0
 25 26  1  0  0  0  0
 26 27  1  0  0  0  0
 27 28  1  0  0  0  0
 28 29  1  0  0  0  0
 29 30  1  0  0  0  0
 31 37  1  0  0  0  0
 32 33  2  0  0  0  0
 34 32  1  6  0  0  0
 34 35  1  0  0  0  0
 34 36  1  0  0  0  0
 36 37  1  0  0  0  0
M  END
>  <CHROM.1>
164.85065283,174.67283636,97.76397744,63.07635432,172.13190506,69.28907157
-66.75360511,44.03299307,-178.53589219,178.04743874,-65.81105608,174.68279580
-134.57465247,-175.43058846,176.26662794,5.70619758,-1.17687369,9.13812846
0.37384996,-0.18908238,1.12156165

>  <Name>
1o9m_lig

>  <RI>
0

>  <Rbt.Current_Directory>
/home/itssahil/PROJECTS/Mol_Feturizer/New_Systems/rnas/1o9m

>  <Rbt.Executable>
rbdock ($Id: //depot/dev/client3/rdock/2013.1/src/exe/rbdock.cxx#4 $)

>  <Rbt.Library>
libRbt.so (2013.1, Build901 2013/11/27)

>  <Rbt.Parameter_File>
/export/apps/rDock/src/rDock_2013.1_src/data/scripts/dock_solv.prm

>  <Rbt.Receptor>
prm/blind_docking_40.prm

>  <SCORE>
-14.1282

>  <SCORE.INTER>
-5.59086

>  <SCORE.INTER.CONST>
1

>  <SCORE.INTER.POLAR>
-1.63706

>  <SCORE.INTER.ROT>
15

>  <SCORE.INTER.SOLV>
17.9457

>  <SCORE.INTER.VDW>
-17.8523

>  <SCORE.INTER.norm>
-0.151104

>  <SCORE.INTRA>
-8.55009

>  <SCORE.INTRA.DIHEDRAL>
-15.7164

>  <SCORE.INTRA.DIHEDRAL.0>
21.5987

>  <SCORE.INTRA.POLAR>
0

>  <SCORE.INTRA.POLAR.0>
0

>  <SCORE.INTRA.REPUL>
0

>  <SCORE.INTRA.REPUL.0>
0

>  <SCORE.INTRA.SOLV>
0.179846

>  <SCORE.INTRA.SOLV.lig_0>
-108.715

>  <SCORE.INTRA.VDW>
-0.781811

>  <SCORE.INTRA.VDW.0>
-3.9485

>  <SCORE.INTRA.norm>
-0.231084

>  <SCORE.RESTR>
0.012779

>  <SCORE.RESTR.CAVITY>
0.012779

>  <SCORE.RESTR.norm>
0.000345378

>  <SCORE.SYSTEM>
0

>  <SCORE.SYSTEM.CONST>
0

>  <SCORE.SYSTEM.DIHEDRAL>
0

>  <SCORE.SYSTEM.SOLV>
0

>  <SCORE.SYSTEM.norm>
0

>  <SCORE.heavy>
37

>  <SCORE.norm>
-0.381843

>  <RMSD>
23.001

$$$$
1o9m_lig
 OpenBabel11021811403D
libRbt.so/2013.1/901 2013/11/27
 37 38  0  0  0  0  0  0  0  0999 V2000
    9.4051   -0.7374    8.9015 C   0  0  2  0  0  0  0  0  0  0  0  0
    8.9756   -2.0824    9.2740 O   0  0  0  0  0  0  0  0  0  0  0  0
   10.7023   -0.4376    9.7392 C   0  0  2  0  0  0  0  0  0  0  0  0
   11.7722   -1.4164    9.4781 N   0  0  0  0  0  0  0  0  0  0  0  0
   10.3314   -0.4116   11.2708 C   0  0  1  0  0  0  0  0  0  0  0  0
   11.4961   -0.1385   12.0548 O   0  0  0  0  0  0  0  0  0  0  0  0
    9.2117    0.6604   11.4815 C   0  0  2  0  0  0  0  0  0  0  0  0
    8.7825    0.7569   12.8495 O   0  0  0  0  0  0  0  0  0  0  0  0
    7.9825    0.3481   10.5926 C   0  0  2  0  0  0  0  0  0  0  0  0
    8.3619    0.2464    9.2124 O   0  0  0  0  0  0  0  0  0  0  0  0
    6.9108    1.3977   10.7350 C   0  0  0  0  0  0  0  0  0  0  0  0
    5.8688    1.1331    9.8785 N   0  0  0  0  0  0  0  0  0  0  0  0
    5.0267   -2.3716    7.5010 C   0  0  1  0  0  0  0  0  0  0  0  0
    3.7521   -2.9667    7.0103 N   0  0  0  0  0  0  0  0  0  0  0  0
    5.1586   -2.6524    8.9917 C   0  0  2  0  0  0  0  0  0  0  0  0
    4.0358   -2.1208    9.6297 O   0  0  0  0  0  0  0  0  0  0  0  0
    6.4747   -2.0294    9.5550 C   0  0  1  0  0  0  0  0  0  0  0  0
    6.6005   -2.3238   10.9798 O   0  0  0  0  0  0  0  0  0  0  0  0
    7.7202   -2.6458    8.7970 C   0  0  1  0  0  0  0  0  0  0  0  0
    7.6093   -2.3553    7.3080 C   0  0  1  0  0  0  0  0  0  0  0  0
    8.7699   -2.9167    6.6331 N   0  0  0  0  0  0  0  0  0  0  0  0
    6.2913   -2.9576    6.7519 C   0  0  0  0  0  0  0  0  0  0  0  0
    3.1916   -1.6590   10.7070 C   0  0  0  0  0  0  0  0  0  0  0  0
    3.0581   -2.7552   11.7390 C   0  0  0  0  0  0  0  0  0  0  0  0
    2.3338   -2.3502   12.9614 N   0  0  0  0  0  0  0  0  0  0  0  0
    2.0033   -1.7207   14.2603 C   0  0  0  0  0  0  0  0  0  0  0  0
    2.1675   -0.2601   13.8214 C   0  0  0  0  0  0  0  0  0  0  0  0
    1.8811    0.7306   14.9654 C   0  0  0  0  0  0  0  0  0  0  0  0
    2.1166    2.1697   14.5173 C   0  0  0  0  0  0  0  0  0  0  0  0
    2.0277    3.0698   15.6585 N   0  0  0  0  0  0  0  0  0  0  0  0
   -0.9237   -3.9110    9.4844 N   0  0  0  0  0  0  0  0  0  0  0  0
    2.3793   -1.8766    7.2818 C   0  0  0  0  0  0  0  0  0  0  0  0
    2.2603   -0.8913    7.7050 O   0  0  0  0  0  0  0  0  0  0  0  0
    1.5299   -2.9678    6.6773 C   0  0  2  0  0  0  0  0  0  0  0  0
    1.1171   -2.6334    5.4125 O   0  0  0  0  0  0  0  0  0  0  0  0
    0.2744   -3.0773    7.5356 C   0  0  0  0  0  0  0  0  0  0  0  0
    0.4140   -3.8073    8.8837 C   0  0  0  0  0  0  0  0  0  0  0  0
  1  2  1  1  0  0  0
  1  3  1  0  0  0  0
  3  4  1  1  0  0  0
  3  5  1  0  0  0  0
  5  6  1  1  0  0  0
  5  7  1  0  0  0  0
  7  8  1  1  0  0  0
  9  7  1  0  0  0  0
  9 10  1  0  0  0  0
  9 11  1  6  0  0  0
 10  1  1  0  0  0  0
 11 12  1  0  0  0  0
 13 14  1  6  0  0  0
 13 15  1  0  0  0  0
 13 22  1  0  0  0  0
 14 32  1  0  0  0  0
 15 16  1  1  0  0  0
 15 17  1  0  0  0  0
 16 23  1  0  0  0  0
 17 18  1  1  0  0  0
 17 19  1  0  0  0  0
 19  2  1  1  0  0  0
 19 20  1  0  0  0  0
 20 21  1  6  0  0  0
 20 22  1  0  0  0  0
 23 24  1  0  0  0  0
 24 25  1  0  0  0  0
 25 26  1  0  0  0  0
 26 27  1  0  0  0  0
 27 28  1  0  0  0  0
 28 29  1  0  0  0  0
 29 30  1  0  0  0  0
 31 37  1  0  0  0  0
 32 33  2  0  0  0  0
 34 32  1  1  0  0  0
 34 35  1  0  0  0  0
 34 36  1  0  0  0  0
 36 37  1  0  0  0  0
M  END
>  <CHROM.1>
173.49954795,176.56883548,84.27767206,-166.00227484,-54.19488484,-75.30991833
173.79200485,-73.56264515,60.08958225,179.64817584,177.30655639,-171.86852315
-106.68288826,-77.13805504,-174.72967045,5.32828529,-1.28692359,10.02365713
-0.09908686,-0.13528795,-2.05948941

>  <Name>
1o9m_lig

>  <RI>
0

>  <Rbt.Current_Directory>
/home/itssahil/PROJECTS/Mol_Feturizer/New_Systems/rnas/1o9m

>  <Rbt.Executable>
rbdock ($Id: //depot/dev/client3/rdock/2013.1/src/exe/rbdock.cxx#4 $)

>  <Rbt.Library>
libRbt.so (2013.1, Build901 2013/11/27)

>  <Rbt.Parameter_File>
/export/apps/rDock/src/rDock_2013.1_src/data/scripts/dock_solv.prm

>  <Rbt.Receptor>
prm/blind_docking_100.prm

>  <SCORE>
-13.6856

>  <SCORE.INTER>
-5.74467

>  <SCORE.INTER.CONST>
1

>  <SCORE.INTER.POLAR>
-0.916444

>  <SCORE.INTER.ROT>
15

>  <SCORE.INTER.SOLV>
16.7431

>  <SCORE.INTER.VDW>
-19.956

>  <SCORE.INTER.norm>
-0.155261

>  <SCORE.INTRA>
-7.95648

>  <SCORE.INTRA.DIHEDRAL>
-14.9629

>  <SCORE.INTRA.DIHEDRAL.0>
21.5987

>  <SCORE.INTRA.POLAR>
0

>  <SCORE.INTRA.POLAR.0>
0

>  <SCORE.INTRA.REPUL>
0

>  <SCORE.INTRA.REPUL.0>
0

>  <SCORE.INTRA.SOLV>
2.4968

>  <SCORE.INTRA.SOLV.lig_0>
-108.715

>  <SCORE.INTRA.VDW>
-1.72343

>  <SCORE.INTRA.VDW.0>
-3.9485

>  <SCORE.INTRA.norm>
-0.21504

>  <SCORE.RESTR>
0.0155308

>  <SCORE.RESTR.CAVITY>
0.0155308

>  <SCORE.RESTR.norm>
0.000419752

>  <SCORE.SYSTEM>
0

>  <SCORE.SYSTEM.CONST>
0

>  <SCORE.SYSTEM.DIHEDRAL>
0

>  <SCORE.SYSTEM.SOLV>
0

>  <SCORE.SYSTEM.norm>
0

>  <SCORE.heavy>
37

>  <SCORE.norm>
-0.369882

>  <RMSD>
23.033

$$$$
1o9m_lig
 OpenBabel11021811403D
libRbt.so/2013.1/901 2013/11/27
 37 38  0  0  0  0  0  0  0  0999 V2000
    9.5256   -0.4887    9.6832 C   0  0  2  0  0  0  0  0  0  0  0  0
    9.2390   -1.8702   10.0592 O   0  0  0  0  0  0  0  0  0  0  0  0
   10.7520   -0.0355   10.5579 C   0  0  2  0  0  0  0  0  0  0  0  0
   11.9339   -0.8889   10.3440 N   0  0  0  0  0  0  0  0  0  0  0  0
   10.3298   -0.0375   12.0763 C   0  0  1  0  0  0  0  0  0  0  0  0
   11.4293    0.3734   12.8935 O   0  0  0  0  0  0  0  0  0  0  0  0
    9.0894    0.9022   12.2371 C   0  0  2  0  0  0  0  0  0  0  0  0
    8.6068    0.9621   13.5893 O   0  0  0  0  0  0  0  0  0  0  0  0
    7.9338    0.4440   11.3135 C   0  0  2  0  0  0  0  0  0  0  0  0
    8.3680    0.3732    9.9476 O   0  0  0  0  0  0  0  0  0  0  0  0
    6.7460    1.3664   11.4078 C   0  0  0  0  0  0  0  0  0  0  0  0
    6.1817    1.2893   12.6588 N   0  0  0  0  0  0  0  0  0  0  0  0
    5.0696   -2.3815    8.9752 C   0  0  1  0  0  0  0  0  0  0  0  0
    3.7850   -3.0512    8.6277 N   0  0  0  0  0  0  0  0  0  0  0  0
    5.5055   -2.8422   10.3595 C   0  0  2  0  0  0  0  0  0  0  0  0
    4.4796   -2.5369   11.2564 O   0  0  0  0  0  0  0  0  0  0  0  0
    6.8420   -2.1500   10.7747 C   0  0  1  0  0  0  0  0  0  0  0  0
    7.2607   -2.6160   12.0938 O   0  0  0  0  0  0  0  0  0  0  0  0
    7.9729   -2.5083    9.7266 C   0  0  1  0  0  0  0  0  0  0  0  0
    7.5569   -2.0358    8.3418 C   0  0  1  0  0  0  0  0  0  0  0  0
    8.6155   -2.3611    7.3978 N   0  0  0  0  0  0  0  0  0  0  0  0
    6.2181   -2.7089    7.9372 C   0  0  0  0  0  0  0  0  0  0  0  0
    3.1365   -2.3972   11.7693 C   0  0  0  0  0  0  0  0  0  0  0  0
    3.1984   -1.9163   13.2009 C   0  0  0  0  0  0  0  0  0  0  0  0
    1.9789   -1.2185   13.6578 N   0  0  0  0  0  0  0  0  0  0  0  0
    0.7799   -0.3501   13.6883 C   0  0  0  0  0  0  0  0  0  0  0  0
    1.4021    0.8729   13.0026 C   0  0  0  0  0  0  0  0  0  0  0  0
    2.3304    1.6627   13.9442 C   0  0  0  0  0  0  0  0  0  0  0  0
    1.5403    2.3127   15.0759 C   0  0  0  0  0  0  0  0  0  0  0  0
    1.8740    3.7269   15.1709 N   0  0  0  0  0  0  0  0  0  0  0  0
   -0.2160   -5.2266    9.1067 N   0  0  0  0  0  0  0  0  0  0  0  0
    2.5162   -1.8690    8.2544 C   0  0  0  0  0  0  0  0  0  0  0  0
    2.4664   -0.7921    8.2116 O   0  0  0  0  0  0  0  0  0  0  0  0
    1.6104   -3.0606    8.0618 C   0  0  2  0  0  0  0  0  0  0  0  0
    1.0876   -3.0878    6.7937 O   0  0  0  0  0  0  0  0  0  0  0  0
    0.4363   -2.8824    9.0181 C   0  0  0  0  0  0  0  0  0  0  0  0
   -0.7350   -3.8709    8.8744 C   0  0  0  0  0  0  0  0  0  0  0  0
  1  2  1  1  0  0  0
  1  3  1  0  0  0  0
  3  4  1  1  0  0  0
  3  5  1  0  0  0  0
  5  6  1  1  0  0  0
  5  7  1  0  0  0  0
  7  8  1  1  0  0  0
  9  7  1  0  0  0  0
  9 10  1  0  0  0  0
  9 11  1  6  0  0  0
 10  1  1  0  0  0  0
 11 12  1  0  0  0  0
 13 14  1  6  0  0  0
 13 15  1  0  0  0  0
 13 22  1  0  0  0  0
 14 32  1  0  0  0  0
 15 16  1  1  0  0  0
 15 17  1  0  0  0  0
 16 23  1  0  0  0  0
 17 18  1  1  0  0  0
 17 19  1  0  0  0  0
 19  2  1  1  0  0  0
 19 20  1  0  0  0  0
 20 21  1  6  0  0  0
 20 22  1  0  0  0  0
 23 24  1  0  0  0  0
 24 25  1  0  0  0  0
 25 26  1  0  0  0  0
 26 27  1  0  0  0  0
 27 28  1  0  0  0  0
 28 29  1  0  0  0  0
 29 30  1  0  0  0  0
 31 37  1  0  0  0  0
 32 33  2  0  0  0  0
 34 32  1  6  0  0  0
 34 35  1  0  0  0  0
 34 36  1  0  0  0  0
 36 37  1  0  0  0  0
M  END
>  <CHROM.1>
163.57915064,-66.47701413,122.98469116,41.13933087,176.82484183,-82.82808785
156.19291852,-39.32427126,-43.69642817,-75.85840816,-66.88851464,-129.08634883
-121.02369295,171.65465392,60.30902484,5.32467887,-1.09980941,10.82999881
-0.18301987,-0.10254359,-2.23669373

>  <Name>
1o9m_lig

>  <RI>
0

>  <Rbt.Current_Directory>
/home/itssahil/PROJECTS/Mol_Feturizer/New_Systems/rnas/1o9m

>  <Rbt.Executable>
rbdock ($Id: //depot/dev/client3/rdock/2013.1/src/exe/rbdock.cxx#4 $)

>  <Rbt.Library>
libRbt.so (2013.1, Build901 2013/11/27)

>  <Rbt.Parameter_File>
/export/apps/rDock/src/rDock_2013.1_src/data/scripts/dock_solv.prm

>  <Rbt.Receptor>
prm/blind_docking_80.prm

>  <SCORE>
-6.79924

>  <SCORE.INTER>
-8.08628

>  <SCORE.INTER.CONST>
1

>  <SCORE.INTER.POLAR>
-1.78829

>  <SCORE.INTER.ROT>
15

>  <SCORE.INTER.SOLV>
18.6753

>  <SCORE.INTER.VDW>
-19.255

>  <SCORE.INTER.norm>
-0.218548

>  <SCORE.INTRA>
0.760358

>  <SCORE.INTRA.DIHEDRAL>
-3.65592

>  <SCORE.INTRA.DIHEDRAL.0>
21.5987

>  <SCORE.INTRA.POLAR>
0

>  <SCORE.INTRA.POLAR.0>
0

>  <SCORE.INTRA.REPUL>
0

>  <SCORE.INTRA.REPUL.0>
0

>  <SCORE.INTRA.SOLV>
3.69703

>  <SCORE.INTRA.SOLV.lig_0>
-108.715

>  <SCORE.INTRA.VDW>
0.739807

>  <SCORE.INTRA.VDW.0>
-3.9485

>  <SCORE.INTRA.norm>
0.0205502

>  <SCORE.RESTR>
0.526684

>  <SCORE.RESTR.CAVITY>
0.526684

>  <SCORE.RESTR.norm>
0.0142347

>  <SCORE.SYSTEM>
0

>  <SCORE.SYSTEM.CONST>
0

>  <SCORE.SYSTEM.DIHEDRAL>
0

>  <SCORE.SYSTEM.SOLV>
0

>  <SCORE.SYSTEM.norm>
0

>  <SCORE.heavy>
37

>  <SCORE.norm>
-0.183763

>  <RMSD>
23.056

$$$$
1o9m_lig
 OpenBabel11021811403D
libRbt.so/2013.1/901 2013/11/27
 37 38  0  0  0  0  0  0  0  0999 V2000
    8.6587   -0.3493   11.0260 C   0  0  2  0  0  0  0  0  0  0  0  0
    8.2837   -1.2612    9.9489 O   0  0  0  0  0  0  0  0  0  0  0  0
    9.6302    0.7125   10.3908 C   0  0  2  0  0  0  0  0  0  0  0  0
    9.0006    1.4491    9.2809 N   0  0  0  0  0  0  0  0  0  0  0  0
   10.9412   -0.0150    9.9052 C   0  0  1  0  0  0  0  0  0  0  0  0
   11.8429    0.9312    9.3244 O   0  0  0  0  0  0  0  0  0  0  0  0
   11.5694   -0.7549   11.1321 C   0  0  2  0  0  0  0  0  0  0  0  0
   12.7692   -1.4710   10.7969 O   0  0  0  0  0  0  0  0  0  0  0  0
   10.5526   -1.7451   11.7518 C   0  0  2  0  0  0  0  0  0  0  0  0
    9.3358   -1.0729   12.1080 O   0  0  0  0  0  0  0  0  0  0  0  0
   11.1141   -2.4305   12.9706 C   0  0  0  0  0  0  0  0  0  0  0  0
   11.6163   -1.5012   13.8502 N   0  0  0  0  0  0  0  0  0  0  0  0
    3.9597   -1.5656    9.7713 C   0  0  1  0  0  0  0  0  0  0  0  0
    2.6013   -2.1689    9.6702 N   0  0  0  0  0  0  0  0  0  0  0  0
    4.6628   -2.1393   10.9940 C   0  0  2  0  0  0  0  0  0  0  0  0
    3.8696   -1.8695   12.1113 O   0  0  0  0  0  0  0  0  0  0  0  0
    6.0874   -1.5200   11.1512 C   0  0  1  0  0  0  0  0  0  0  0  0
    6.7594   -2.0937   12.3138 O   0  0  0  0  0  0  0  0  0  0  0  0
    6.9479   -1.8347    9.8603 C   0  0  1  0  0  0  0  0  0  0  0  0
    6.2648   -1.2497    8.6336 C   0  0  1  0  0  0  0  0  0  0  0  0
    7.0788   -1.5370    7.4620 N   0  0  0  0  0  0  0  0  0  0  0  0
    4.8410   -1.8507    8.4884 C   0  0  0  0  0  0  0  0  0  0  0  0
    2.7279   -1.9152   12.9950 C   0  0  0  0  0  0  0  0  0  0  0  0
    3.0779   -1.2292   14.2956 C   0  0  0  0  0  0  0  0  0  0  0  0
    3.7132    0.0943   14.1294 N   0  0  0  0  0  0  0  0  0  0  0  0
    4.3002    1.3090   13.5192 C   0  0  0  0  0  0  0  0  0  0  0  0
    2.9829    2.0093   13.1624 C   0  0  0  0  0  0  0  0  0  0  0  0
    2.2102    1.2724   12.0524 C   0  0  0  0  0  0  0  0  0  0  0  0
    2.9083    1.4232   10.7044 C   0  0  0  0  0  0  0  0  0  0  0  0
    1.9995    1.0584    9.6268 N   0  0  0  0  0  0  0  0  0  0  0  0
   -2.2509   -2.9885    6.3999 N   0  0  0  0  0  0  0  0  0  0  0  0
    2.2897   -2.7987    8.0414 C   0  0  0  0  0  0  0  0  0  0  0  0
    2.8551   -2.8534    7.1242 O   0  0  0  0  0  0  0  0  0  0  0  0
    0.9230   -3.1710    8.5620 C   0  0  2  0  0  0  0  0  0  0  0  0
    0.9136   -4.4469    9.0659 O   0  0  0  0  0  0  0  0  0  0  0  0
   -0.0227   -3.1631    7.3660 C   0  0  0  0  0  0  0  0  0  0  0  0
   -1.4891   -2.7832    7.6404 C   0  0  0  0  0  0  0  0  0  0  0  0
  1  2  1  6  0  0  0
  1  3  1  0  0  0  0
  3  4  1  6  0  0  0
  3  5  1  0  0  0  0
  5  6  1  1  0  0  0
  5  7  1  0  0  0  0
  7  8  1  6  0  0  0
  9  7  1  0  0  0  0
  9 10  1  0  0  0  0
  9 11  1  1  0  0  0
 10  1  1  0  0  0  0
 11 12  1  0  0  0  0
 13 14  1  6  0  0  0
 13 15  1  0  0  0  0
 13 22  1  0  0  0  0
 14 32  1  0  0  0  0
 15 16  1  1  0  0  0
 15 17  1  0  0  0  0
 16 23  1  0  0  0  0
 17 18  1  1  0  0  0
 17 19  1  0  0  0  0
 19  2  1  1  0  0  0
 19 20  1  0  0  0  0
 20 21  1  6  0  0  0
 20 22  1  0  0  0  0
 23 24  1  0  0  0  0
 24 25  1  0  0  0  0
 25 26  1  0  0  0  0
 26 27  1  0  0  0  0
 27 28  1  0  0  0  0
 28 29  1  0  0  0  0
 29 30  1  0  0  0  0
 31 37  1  0  0  0  0
 32 33  2  0  0  0  0
 34 32  1  6  0  0  0
 34 35  1  0  0  0  0
 34 36  1  0  0  0  0
 36 37  1  0  0  0  0
M  END
>  <CHROM.1>
-143.89870292,51.37138551,-130.02753889,64.46784415,171.45720685,-8.44374154
48.42796103,-1.21237913,79.04604409,-67.98753186,-71.12815277,-164.10517942
-91.20004353,-149.06012481,-173.53243477,5.57679445,-1.18659283,10.48606234
-0.26305558,-0.04193394,-1.98804349

>  <Name>
1o9m_lig

>  <RI>
0

>  <Rbt.Current_Directory>
/home/itssahil/PROJECTS/Mol_Feturizer/New_Systems/rnas/1o9m

>  <Rbt.Executable>
rbdock ($Id: //depot/dev/client3/rdock/2013.1/src/exe/rbdock.cxx#4 $)

>  <Rbt.Library>
libRbt.so (2013.1, Build901 2013/11/27)

>  <Rbt.Parameter_File>
/export/apps/rDock/src/rDock_2013.1_src/data/scripts/dock_solv.prm

>  <Rbt.Receptor>
prm/blind_docking_100.prm

>  <SCORE>
1.86674

>  <SCORE.INTER>
-3.81836

>  <SCORE.INTER.CONST>
1

>  <SCORE.INTER.POLAR>
-1.3927

>  <SCORE.INTER.ROT>
15

>  <SCORE.INTER.SOLV>
17.1337

>  <SCORE.INTER.VDW>
-17.2145

>  <SCORE.INTER.norm>
-0.103199

>  <SCORE.INTRA>
5.39933

>  <SCORE.INTRA.DIHEDRAL>
-0.227624

>  <SCORE.INTRA.DIHEDRAL.0>
21.5987

>  <SCORE.INTRA.POLAR>
0

>  <SCORE.INTRA.POLAR.0>
0

>  <SCORE.INTRA.REPUL>
0

>  <SCORE.INTRA.REPUL.0>
0

>  <SCORE.INTRA.SOLV>
5.1844

>  <SCORE.INTRA.SOLV.lig_0>
-108.715

>  <SCORE.INTRA.VDW>
2.92094

>  <SCORE.INTRA.VDW.0>
-3.9485

>  <SCORE.INTRA.norm>
0.145928

>  <SCORE.RESTR>
0.285775

>  <SCORE.RESTR.CAVITY>
0.285775

>  <SCORE.RESTR.norm>
0.00772364

>  <SCORE.SYSTEM>
0

>  <SCORE.SYSTEM.CONST>
0

>  <SCORE.SYSTEM.DIHEDRAL>
0

>  <SCORE.SYSTEM.SOLV>
0

>  <SCORE.SYSTEM.norm>
0

>  <SCORE.heavy>
37

>  <SCORE.norm>
0.0504524

>  <RMSD>
23.071

$$$$
1o9m_lig
 OpenBabel11021811403D
libRbt.so/2013.1/901 2013/11/27
 37 38  0  0  0  0  0  0  0  0999 V2000
    6.8784   -3.1205    9.9870 C   0  0  2  0  0  0  0  0  0  0  0  0
    7.0782   -1.9058   10.7724 O   0  0  0  0  0  0  0  0  0  0  0  0
    6.7577   -4.3017   11.0188 C   0  0  2  0  0  0  0  0  0  0  0  0
    5.6444   -4.1039   11.9635 N   0  0  0  0  0  0  0  0  0  0  0  0
    8.1237   -4.4531   11.7900 C   0  0  1  0  0  0  0  0  0  0  0  0
    8.0398   -5.5238   12.7345 O   0  0  0  0  0  0  0  0  0  0  0  0
    9.2550   -4.6829   10.7341 C   0  0  2  0  0  0  0  0  0  0  0  0
   10.5553   -4.8180   11.3306 O   0  0  0  0  0  0  0  0  0  0  0  0
    9.2922   -3.5201    9.7119 C   0  0  2  0  0  0  0  0  0  0  0  0
    8.0128   -3.3490    9.0849 O   0  0  0  0  0  0  0  0  0  0  0  0
   10.3374   -3.7449    8.6499 C   0  0  0  0  0  0  0  0  0  0  0  0
   11.5941   -3.7193    9.2061 N   0  0  0  0  0  0  0  0  0  0  0  0
    3.0736   -0.5381   11.7281 C   0  0  1  0  0  0  0  0  0  0  0  0
    1.9551    0.3783   12.0867 N   0  0  0  0  0  0  0  0  0  0  0  0
    3.6889   -0.0729   10.4153 C   0  0  2  0  0  0  0  0  0  0  0  0
    2.6791   -0.0534    9.4510 O   0  0  0  0  0  0  0  0  0  0  0  0
    4.8570   -1.0174    9.9895 C   0  0  1  0  0  0  0  0  0  0  0  0
    5.4527   -0.5487    8.7413 O   0  0  0  0  0  0  0  0  0  0  0  0
    5.9714   -1.0230   11.1137 C   0  0  1  0  0  0  0  0  0  0  0  0
    5.3728   -1.5043   12.4266 C   0  0  1  0  0  0  0  0  0  0  0  0
    6.4160   -1.5161   13.4411 N   0  0  0  0  0  0  0  0  0  0  0  0
    4.1987   -0.5770   12.8401 C   0  0  0  0  0  0  0  0  0  0  0  0
    1.6402   -0.5499    8.5787 C   0  0  0  0  0  0  0  0  0  0  0  0
    2.1506   -0.5654    7.1561 C   0  0  0  0  0  0  0  0  0  0  0  0
    2.8892   -1.7921    6.7919 N   0  0  0  0  0  0  0  0  0  0  0  0
    3.3538   -2.9921    6.0595 C   0  0  0  0  0  0  0  0  0  0  0  0
    4.6942   -3.1624    6.7858 C   0  0  0  0  0  0  0  0  0  0  0  0
    5.7718   -2.1959    6.2598 C   0  0  0  0  0  0  0  0  0  0  0  0
    6.1621   -2.5368    4.8250 C   0  0  0  0  0  0  0  0  0  0  0  0
    5.1146   -2.1116    3.9073 N   0  0  0  0  0  0  0  0  0  0  0  0
    2.8389    1.5611   14.6762 N   0  0  0  0  0  0  0  0  0  0  0  0
    2.3866    2.0744   11.7971 C   0  0  0  0  0  0  0  0  0  0  0  0
    3.2572    2.5852   11.4161 O   0  0  0  0  0  0  0  0  0  0  0  0
    1.0164    2.4045   12.3368 C   0  0  2  0  0  0  0  0  0  0  0  0
    0.3681    3.3051   11.5301 O   0  0  0  0  0  0  0  0  0  0  0  0
    1.2248    3.0896   13.6829 C   0  0  0  0  0  0  0  0  0  0  0  0
    1.5224    2.1798   14.8885 C   0  0  0  0  0  0  0  0  0  0  0  0
  1  2  1  1  0  0  0
  1  3  1  0  0  0  0
  3  4  1  1  0  0  0
  3  5  1  0  0  0  0
  5  6  1  1  0  0  0
  5  7  1  0  0  0  0
  7  8  1  1  0  0  0
  9  7  1  0  0  0  0
  9 10  1  0  0  0  0
  9 11  1  6  0  0  0
 10  1  1  0  0  0  0
 11 12  1  0  0  0  0
 13 14  1  1  0  0  0
 13 15  1  0  0  0  0
 13 22  1  0  0  0  0
 14 32  1  0  0  0  0
 15 16  1  6  0  0  0
 15 17  1  0  0  0  0
 16 23  1  0  0  0  0
 17 18  1  6  0  0  0
 17 19  1  0  0  0  0
 19  2  1  6  0  0  0
 19 20  1  0  0  0  0
 20 21  1  1  0  0  0
 20 22  1  0  0  0  0
 23 24  1  0  0  0  0
 24 25  1  0  0  0  0
 25 26  1  0  0  0  0
 26 27  1  0  0  0  0
 27 28  1  0  0  0  0
 28 29  1  0  0  0  0
 29 30  1  0  0  0  0
 31 37  1  0  0  0  0
 32 33  2  0  0  0  0
 34 32  1  6  0  0  0
 34 35  1  0  0  0  0
 34 36  1  0  0  0  0
 36 37  1  0  0  0  0
M  END
>  <CHROM.1>
-96.65443367,-65.66678485,-42.48831000,-61.99686780,-106.82593471,-31.88754728
86.00353490,132.77247101,161.44375494,-79.34689122,-67.24693308,74.88568962
-133.00004205,-79.47931054,66.82181820,5.13708552,-1.41430283,10.25687652
-0.43807360,-0.63102454,1.34738570

>  <Name>
1o9m_lig

>  <RI>
0

>  <Rbt.Current_Directory>
/home/itssahil/PROJECTS/Mol_Feturizer/New_Systems/rnas/1o9m

>  <Rbt.Executable>
rbdock ($Id: //depot/dev/client3/rdock/2013.1/src/exe/rbdock.cxx#4 $)

>  <Rbt.Library>
libRbt.so (2013.1, Build901 2013/11/27)

>  <Rbt.Parameter_File>
/export/apps/rDock/src/rDock_2013.1_src/data/scripts/dock_solv.prm

>  <Rbt.Receptor>
prm/blind_docking_20.prm

>  <SCORE>
-7.16548

>  <SCORE.INTER>
-15.9526

>  <SCORE.INTER.CONST>
1

>  <SCORE.INTER.POLAR>
-4.45005

>  <SCORE.INTER.ROT>
15

>  <SCORE.INTER.SOLV>
19.2618

>  <SCORE.INTER.VDW>
-15.8221

>  <SCORE.INTER.norm>
-0.43115

>  <SCORE.INTRA>
8.17691

>  <SCORE.INTRA.DIHEDRAL>
2.8337

>  <SCORE.INTRA.DIHEDRAL.0>
21.5987

>  <SCORE.INTRA.POLAR>
0

>  <SCORE.INTRA.POLAR.0>
0

>  <SCORE.INTRA.REPUL>
0

>  <SCORE.INTRA.REPUL.0>
0

>  <SCORE.INTRA.SOLV>
14.4116

>  <SCORE.INTRA.SOLV.lig_0>
-108.715

>  <SCORE.INTRA.VDW>
-0.445753

>  <SCORE.INTRA.VDW.0>
-3.9485

>  <SCORE.INTRA.norm>
0.220997

>  <SCORE.RESTR>
0.610183

>  <SCORE.RESTR.CAVITY>
0.610183

>  <SCORE.RESTR.norm>
0.0164914

>  <SCORE.SYSTEM>
0

>  <SCORE.SYSTEM.CONST>
0

>  <SCORE.SYSTEM.DIHEDRAL>
0

>  <SCORE.SYSTEM.SOLV>
0

>  <SCORE.SYSTEM.norm>
0

>  <SCORE.heavy>
37

>  <SCORE.norm>
-0.193662

>  <RMSD>
23.086

$$$$
1o9m_lig
 OpenBabel11021811403D
libRbt.so/2013.1/901 2013/11/27
 37 38  0  0  0  0  0  0  0  0999 V2000
   10.3103   -1.2489   10.2099 C   0  0  2  0  0  0  0  0  0  0  0  0
    9.9933    0.1740   10.2945 O   0  0  0  0  0  0  0  0  0  0  0  0
   11.7575   -1.3462    9.6013 C   0  0  2  0  0  0  0  0  0  0  0  0
   12.7555   -0.6387   10.4227 N   0  0  0  0  0  0  0  0  0  0  0  0
   11.7377   -0.7751    8.1325 C   0  0  1  0  0  0  0  0  0  0  0  0
   13.0441   -0.8543    7.5558 O   0  0  0  0  0  0  0  0  0  0  0  0
   10.6785   -1.5824    7.3115 C   0  0  2  0  0  0  0  0  0  0  0  0
   10.5644   -1.1306    5.9522 O   0  0  0  0  0  0  0  0  0  0  0  0
    9.2864   -1.4989    7.9849 C   0  0  2  0  0  0  0  0  0  0  0  0
    9.3494   -1.9454    9.3472 O   0  0  0  0  0  0  0  0  0  0  0  0
    8.2591   -2.3150    7.2438 C   0  0  0  0  0  0  0  0  0  0  0  0
    7.0141   -2.1270    7.7949 N   0  0  0  0  0  0  0  0  0  0  0  0
    5.8912    0.1763   11.7063 C   0  0  1  0  0  0  0  0  0  0  0  0
    4.6007    0.6749   12.2590 N   0  0  0  0  0  0  0  0  0  0  0  0
    6.2010    0.9328   10.4217 C   0  0  2  0  0  0  0  0  0  0  0  0
    5.1311    0.7446    9.5441 O   0  0  0  0  0  0  0  0  0  0  0  0
    7.5394    0.4291    9.7952 C   0  0  1  0  0  0  0  0  0  0  0  0
    7.8365    1.1766    8.5764 O   0  0  0  0  0  0  0  0  0  0  0  0
    8.7219    0.6459   10.8251 C   0  0  1  0  0  0  0  0  0  0  0  0
    8.4327   -0.1209   12.1065 C   0  0  1  0  0  0  0  0  0  0  0  0
    9.5374    0.0796   13.0323 N   0  0  0  0  0  0  0  0  0  0  0  0
    7.0921    0.3660   12.7190 C   0  0  0  0  0  0  0  0  0  0  0  0
    4.1970    0.0498    8.6890 C   0  0  0  0  0  0  0  0  0  0  0  0
    3.1974    1.0398    8.1365 C   0  0  0  0  0  0  0  0  0  0  0  0
    1.8267    0.5048    8.0029 N   0  0  0  0  0  0  0  0  0  0  0  0
    0.6222   -0.1658    7.4626 C   0  0  0  0  0  0  0  0  0  0  0  0
    0.9906   -1.5975    7.8720 C   0  0  0  0  0  0  0  0  0  0  0  0
   -0.1538   -2.5943    7.6094 C   0  0  0  0  0  0  0  0  0  0  0  0
    0.1476   -3.9532    8.2337 C   0  0  0  0  0  0  0  0  0  0  0  0
   -0.8394   -4.9324    7.8010 N   0  0  0  0  0  0  0  0  0  0  0  0
    1.0055   -1.4814   13.4413 N   0  0  0  0  0  0  0  0  0  0  0  0
    4.2917    0.0208   13.8787 C   0  0  0  0  0  0  0  0  0  0  0  0
    4.8223   -0.6372   14.5492 O   0  0  0  0  0  0  0  0  0  0  0  0
    2.9937    0.7888   13.8255 C   0  0  2  0  0  0  0  0  0  0  0  0
    3.1775    2.1010   14.1811 O   0  0  0  0  0  0  0  0  0  0  0  0
    2.0727    0.1736   14.8733 C   0  0  0  0  0  0  0  0  0  0  0  0
    1.7306   -1.3184   14.7097 C   0  0  0  0  0  0  0  0  0  0  0  0
  1  2  1  6  0  0  0
  1  3  1  0  0  0  0
  3  4  1  1  0  0  0
  3  5  1  0  0  0  0
  5  6  1  6  0  0  0
  5  7  1  0  0  0  0
  7  8  1  6  0  0  0
  9  7  1  0  0  0  0
  9 10  1  0  0  0  0
  9 11  1  6  0  0  0
 10  1  1  0  0  0  0
 11 12  1  0  0  0  0
 13 14  1  1  0  0  0
 13 15  1  0  0  0  0
 13 22  1  0  0  0  0
 14 32  1  0  0  0  0
 15 16  1  6  0  0  0
 15 17  1  0  0  0  0
 16 23  1  0  0  0  0
 17 18  1  6  0  0  0
 17 19  1  0  0  0  0
 19  2  1  6  0  0  0
 19 20  1  0  0  0  0
 20 21  1  1  0  0  0
 20 22  1  0  0  0  0
 23 24  1  0  0  0  0
 24 25  1  0  0  0  0
 25 26  1  0  0  0  0
 26 27  1  0  0  0  0
 27 28  1  0  0  0  0
 28 29  1  0  0  0  0
 29 30  1  0  0  0  0
 31 37  1  0  0  0  0
 32 33  2  0  0  0  0
 34 32  1  1  0  0  0
 34 35  1  0  0  0  0
 34 36  1  0  0  0  0
 36 37  1  0  0  0  0
M  END
>  <CHROM.1>
-179.60145623,-174.71228805,-171.36942928,-62.73615692,177.73669343,-75.01797461
-143.54620211,-86.94588109,83.84820054,173.04438324,-170.55223910,-171.20220272
-82.96088777,-59.79421894,-62.62861902,6.11646210,-0.59090615,10.14533466
-0.17999902,0.09444962,1.24569075

>  <Name>
1o9m_lig

>  <RI>
0

>  <Rbt.Current_Directory>
/home/itssahil/PROJECTS/Mol_Feturizer/New_Systems/rnas/1o9m

>  <Rbt.Executable>
rbdock ($Id: //depot/dev/client3/rdock/2013.1/src/exe/rbdock.cxx#4 $)

>  <Rbt.Library>
libRbt.so (2013.1, Build901 2013/11/27)

>  <Rbt.Parameter_File>
/export/apps/rDock/src/rDock_2013.1_src/data/scripts/dock_solv.prm

>  <Rbt.Receptor>
prm/blind_docking_20.prm

>  <SCORE>
-13.4079

>  <SCORE.INTER>
-8.04817

>  <SCORE.INTER.CONST>
1

>  <SCORE.INTER.POLAR>
-0.964656

>  <SCORE.INTER.ROT>
15

>  <SCORE.INTER.SOLV>
15.3269

>  <SCORE.INTER.VDW>
-20.8589

>  <SCORE.INTER.norm>
-0.217518

>  <SCORE.INTRA>
-5.39091

>  <SCORE.INTRA.DIHEDRAL>
-13.676

>  <SCORE.INTRA.DIHEDRAL.0>
21.5987

>  <SCORE.INTRA.POLAR>
0

>  <SCORE.INTRA.POLAR.0>
0

>  <SCORE.INTRA.REPUL>
0

>  <SCORE.INTRA.REPUL.0>
0

>  <SCORE.INTRA.SOLV>
3.39276

>  <SCORE.INTRA.SOLV.lig_0>
-108.715

>  <SCORE.INTRA.VDW>
-0.249305

>  <SCORE.INTRA.VDW.0>
-3.9485

>  <SCORE.INTRA.norm>
-0.1457

>  <SCORE.RESTR>
0.0311376

>  <SCORE.RESTR.CAVITY>
0.0311376

>  <SCORE.RESTR.norm>
0.000841557

>  <SCORE.SYSTEM>
0

>  <SCORE.SYSTEM.CONST>
0

>  <SCORE.SYSTEM.DIHEDRAL>
0

>  <SCORE.SYSTEM.SOLV>
0

>  <SCORE.SYSTEM.norm>
0

>  <SCORE.heavy>
37

>  <SCORE.norm>
-0.362377

>  <RMSD>
23.090

$$$$
1o9m_lig
 OpenBabel11021811403D
libRbt.so/2013.1/901 2013/11/27
 37 38  0  0  0  0  0  0  0  0999 V2000
    9.9351   -2.0001   11.5944 C   0  0  2  0  0  0  0  0  0  0  0  0
    9.7026   -1.5064   10.2400 O   0  0  0  0  0  0  0  0  0  0  0  0
   11.3920   -2.5932   11.6069 C   0  0  2  0  0  0  0  0  0  0  0  0
   12.4051   -1.5889   11.2381 N   0  0  0  0  0  0  0  0  0  0  0  0
   11.4523   -3.8306   10.6327 C   0  0  1  0  0  0  0  0  0  0  0  0
   12.7688   -4.3896   10.6278 O   0  0  0  0  0  0  0  0  0  0  0  0
   10.3722   -4.8645   11.0928 C   0  0  2  0  0  0  0  0  0  0  0  0
   10.3278   -6.0333   10.2579 O   0  0  0  0  0  0  0  0  0  0  0  0
    8.9675   -4.2129   11.1159 C   0  0  2  0  0  0  0  0  0  0  0  0
    8.9610   -3.0403   11.9432 O   0  0  0  0  0  0  0  0  0  0  0  0
    7.9161   -5.1726   11.6099 C   0  0  0  0  0  0  0  0  0  0  0  0
    6.7324   -4.5096   11.8304 N   0  0  0  0  0  0  0  0  0  0  0  0
    6.4604    0.9481    8.7287 C   0  0  1  0  0  0  0  0  0  0  0  0
    5.1015    1.3399    8.2602 N   0  0  0  0  0  0  0  0  0  0  0  0
    6.3595    0.4408   10.1608 C   0  0  2  0  0  0  0  0  0  0  0  0
    5.7945    1.4551   10.9367 O   0  0  0  0  0  0  0  0  0  0  0  0
    7.7668    0.0349   10.7016 C   0  0  1  0  0  0  0  0  0  0  0  0
    7.6541   -0.4700   12.0672 O   0  0  0  0  0  0  0  0  0  0  0  0
    8.3781   -1.1039    9.7877 C   0  0  1  0  0  0  0  0  0  0  0  0
    8.5015   -0.6022    8.3570 C   0  0  1  0  0  0  0  0  0  0  0  0
    9.0784   -1.6577    7.5381 N   0  0  0  0  0  0  0  0  0  0  0  0
    7.1053   -0.1801    7.8260 C   0  0  0  0  0  0  0  0  0  0  0  0
    5.2227    2.1068   12.0922 C   0  0  0  0  0  0  0  0  0  0  0  0
    4.0366    1.3061   12.5786 C   0  0  0  0  0  0  0  0  0  0  0  0
    3.1059    2.0655   13.4388 N   0  0  0  0  0  0  0  0  0  0  0  0
    2.2770    3.1575   13.9982 C   0  0  0  0  0  0  0  0  0  0  0  0
    1.9087    2.4712   15.3197 C   0  0  0  0  0  0  0  0  0  0  0  0
    0.9370    1.2936   15.1168 C   0  0  0  0  0  0  0  0  0  0  0  0
    0.2124    0.9498   16.4145 C   0  0  0  0  0  0  0  0  0  0  0  0
    1.1369    0.3329   17.3553 N   0  0  0  0  0  0  0  0  0  0  0  0
    3.4508   -1.5362    6.1228 N   0  0  0  0  0  0  0  0  0  0  0  0
    3.9378    0.0165    8.4631 C   0  0  0  0  0  0  0  0  0  0  0  0
    3.9865   -0.9884    8.8526 O   0  0  0  0  0  0  0  0  0  0  0  0
    2.9291    0.9495    7.8388 C   0  0  2  0  0  0  0  0  0  0  0  0
    2.2349    1.6441    8.7967 O   0  0  0  0  0  0  0  0  0  0  0  0
    1.9155    0.0779    7.1056 C   0  0  0  0  0  0  0  0  0  0  0  0
    2.3826   -0.5809    5.7950 C   0  0  0  0  0  0  0  0  0  0  0  0
  1  2  1  6  0  0  0
  1  3  1  0  0  0  0
  3  4  1  6  0  0  0
  3  5  1  0  0  0  0
  5  6  1  1  0  0  0
  5  7  1  0  0  0  0
  7  8  1  6  0  0  0
  9  7  1  0  0  0  0
  9 10  1  0  0  0  0
  9 11  1  1  0  0  0
 10  1  1  0  0  0  0
 11 12  1  0  0  0  0
 13 14  1  6  0  0  0
 13 15  1  0  0  0  0
 13 22  1  0  0  0  0
 14 32  1  0  0  0  0
 15 16  1  1  0  0  0
 15 17  1  0  0  0  0
 16 23  1  0  0  0  0
 17 18  1  1  0  0  0
 17 19  1  0  0  0  0
 19  2  1  1  0  0  0
 19 20  1  0  0  0  0
 20 21  1  6  0  0  0
 20 22  1  0  0  0  0
 23 24  1  0  0  0  0
 24 25  1  0  0  0  0
 25 26  1  0  0  0  0
 26 27  1  0  0  0  0
 27 28  1  0  0  0  0
 28 29  1  0  0  0  0
 29 30  1  0  0  0  0
 31 37  1  0  0  0  0
 32 33  2  0  0  0  0
 34 32  1  1  0  0  0
 34 35  1  0  0  0  0
 34 36  1  0  0  0  0
 36 37  1  0  0  0  0
M  END
>  <CHROM.1>
168.89352705,170.01403796,-53.98192446,172.95434424,-55.16564158,57.35764302
-160.51641251,38.46035015,-169.30775123,-70.25980410,-159.99703555,-70.98578604
-93.67257340,-73.22983949,65.00031926,6.29823655,-0.83189806,10.75475610
-0.21434037,-0.52939235,1.56884452

>  <Name>
1o9m_lig

>  <RI>
0

>  <Rbt.Current_Directory>
/home/itssahil/PROJECTS/Mol_Feturizer/New_Systems/rnas/1o9m

>  <Rbt.Executable>
rbdock ($Id: //depot/dev/client3/rdock/2013.1/src/exe/rbdock.cxx#4 $)

>  <Rbt.Library>
libRbt.so (2013.1, Build901 2013/11/27)

>  <Rbt.Parameter_File>
/export/apps/rDock/src/rDock_2013.1_src/data/scripts/dock_solv.prm

>  <Rbt.Receptor>
prm/blind_docking_100.prm

>  <SCORE>
-11.7355

>  <SCORE.INTER>
-6.57404

>  <SCORE.INTER.CONST>
1

>  <SCORE.INTER.POLAR>
-0.753722

>  <SCORE.INTER.ROT>
15

>  <SCORE.INTER.SOLV>
21.2712

>  <SCORE.INTER.VDW>
-22.5607

>  <SCORE.INTER.norm>
-0.177677

>  <SCORE.INTRA>
-5.18925

>  <SCORE.INTRA.DIHEDRAL>
-13.8235

>  <SCORE.INTRA.DIHEDRAL.0>
21.5987

>  <SCORE.INTRA.POLAR>
0

>  <SCORE.INTRA.POLAR.0>
0

>  <SCORE.INTRA.REPUL>
0

>  <SCORE.INTRA.REPUL.0>
0

>  <SCORE.INTRA.SOLV>
3.75515

>  <SCORE.INTRA.SOLV.lig_0>
-108.715

>  <SCORE.INTRA.VDW>
-0.155091

>  <SCORE.INTRA.VDW.0>
-3.9485

>  <SCORE.INTRA.norm>
-0.14025

>  <SCORE.RESTR>
0.0277903

>  <SCORE.RESTR.CAVITY>
0.0277903

>  <SCORE.RESTR.norm>
0.00075109

>  <SCORE.SYSTEM>
0

>  <SCORE.SYSTEM.CONST>
0

>  <SCORE.SYSTEM.DIHEDRAL>
0

>  <SCORE.SYSTEM.SOLV>
0

>  <SCORE.SYSTEM.norm>
0

>  <SCORE.heavy>
37

>  <SCORE.norm>
-0.317176

>  <RMSD>
23.106

$$$$
1o9m_lig
 OpenBabel11021811403D
libRbt.so/2013.1/901 2013/11/27
 37 38  0  0  0  0  0  0  0  0999 V2000
   10.8115   -0.9752   11.3809 C   0  0  2  0  0  0  0  0  0  0  0  0
   10.0372   -0.2165   10.4027 O   0  0  0  0  0  0  0  0  0  0  0  0
   12.0024   -1.6329   10.5911 C   0  0  2  0  0  0  0  0  0  0  0  0
   12.8489   -0.6290    9.9228 N   0  0  0  0  0  0  0  0  0  0  0  0
   11.4218   -2.6587    9.5449 C   0  0  1  0  0  0  0  0  0  0  0  0
   12.4870   -3.2725    8.8140 O   0  0  0  0  0  0  0  0  0  0  0  0
   10.5559   -3.7060   10.3201 C   0  0  2  0  0  0  0  0  0  0  0  0
    9.9598   -4.6864    9.4551 O   0  0  0  0  0  0  0  0  0  0  0  0
    9.4355   -3.0006   11.1235 C   0  0  2  0  0  0  0  0  0  0  0  0
    9.9844   -2.0124   12.0076 O   0  0  0  0  0  0  0  0  0  0  0  0
    8.6210   -3.9832   11.9245 C   0  0  0  0  0  0  0  0  0  0  0  0
    7.3594   -3.4854   12.1477 N   0  0  0  0  0  0  0  0  0  0  0  0
    6.1239    1.0455   11.7862 C   0  0  1  0  0  0  0  0  0  0  0  0
    5.0054    1.9389   12.1988 N   0  0  0  0  0  0  0  0  0  0  0  0
    6.5083    1.3703   10.3491 C   0  0  2  0  0  0  0  0  0  0  0  0
    5.3712    1.2113    9.5541 O   0  0  0  0  0  0  0  0  0  0  0  0
    7.6679    0.4431    9.8663 C   0  0  1  0  0  0  0  0  0  0  0  0
    8.0421    0.7787    8.4952 O   0  0  0  0  0  0  0  0  0  0  0  0
    8.9302    0.6421   10.8006 C   0  0  1  0  0  0  0  0  0  0  0  0
    8.5634    0.3021   12.2371 C   0  0  1  0  0  0  0  0  0  0  0  0
    9.7401    0.4770   13.0753 N   0  0  0  0  0  0  0  0  0  0  0  0
    7.3973    1.2105   12.7107 C   0  0  0  0  0  0  0  0  0  0  0  0
    4.3020    0.5402    8.8522 C   0  0  0  0  0  0  0  0  0  0  0  0
    3.3970    1.5727    8.2202 C   0  0  0  0  0  0  0  0  0  0  0  0
    2.2274    1.0038    7.5190 N   0  0  0  0  0  0  0  0  0  0  0  0
    1.3298    0.0644    6.8090 C   0  0  0  0  0  0  0  0  0  0  0  0
    2.3720   -0.5173    5.8455 C   0  0  0  0  0  0  0  0  0  0  0  0
    2.0115   -1.9417    5.3836 C   0  0  0  0  0  0  0  0  0  0  0  0
    2.3603   -2.9709    6.4543 C   0  0  0  0  0  0  0  0  0  0  0  0
    1.3508   -2.9628    7.5037 N   0  0  0  0  0  0  0  0  0  0  0  0
    1.9937    3.0423   16.1266 N   0  0  0  0  0  0  0  0  0  0  0  0
    3.9335    1.1415   13.3657 C   0  0  0  0  0  0  0  0  0  0  0  0
    3.9132    0.1755   13.8459 O   0  0  0  0  0  0  0  0  0  0  0  0
    3.1192    2.4115   13.3249 C   0  0  2  0  0  0  0  0  0  0  0  0
    3.6651    3.3782   14.1309 O   0  0  0  0  0  0  0  0  0  0  0  0
    1.7493    2.0770   13.9047 C   0  0  0  0  0  0  0  0  0  0  0  0
    1.6833    1.7932   15.4163 C   0  0  0  0  0  0  0  0  0  0  0  0
  1  2  1  6  0  0  0
  1  3  1  0  0  0  0
  3  4  1  6  0  0  0
  3  5  1  0  0  0  0
  5  6  1  1  0  0  0
  5  7  1  0  0  0  0
  7  8  1  6  0  0  0
  9  7  1  0  0  0  0
  9 10  1  0  0  0  0
  9 11  1  1  0  0  0
 10  1  1  0  0  0  0
 11 12  1  0  0  0  0
 13 14  1  1  0  0  0
 13 15  1  0  0  0  0
 13 22  1  0  0  0  0
 14 32  1  0  0  0  0
 15 16  1  6  0  0  0
 15 17  1  0  0  0  0
 16 23  1  0  0  0  0
 17 18  1  6  0  0  0
 17 19  1  0  0  0  0
 19  2  1  6  0  0  0
 19 20  1  0  0  0  0
 20 21  1  1  0  0  0
 20 22  1  0  0  0  0
 23 24  1  0  0  0  0
 24 25  1  0  0  0  0
 25 26  1  0  0  0  0
 26 27  1  0  0  0  0
 27 28  1  0  0  0  0
 28 29  1  0  0  0  0
 29 30  1  0  0  0  0
 31 37  1  0  0  0  0
 32 33  2  0  0  0  0
 34 32  1  1  0  0  0
 34 35  1  0  0  0  0
 34 36  1  0  0  0  0
 36 37  1  0  0  0  0
M  END
>  <CHROM.1>
-173.54441341,-154.26840803,148.52373419,-70.66441377,176.66489345,-134.94360647
-177.50918783,-22.11134499,-44.43541081,153.82608498,-78.88004017,77.97014996
-81.00626004,70.15898369,66.95938321,6.44813723,-0.33442390,10.67357543,-0.22447415
-0.30102431,1.08335567

>  <Name>
1o9m_lig

>  <RI>
0

>  <Rbt.Current_Directory>
/home/itssahil/PROJECTS/Mol_Feturizer/New_Systems/rnas/1o9m

>  <Rbt.Executable>
rbdock ($Id: //depot/dev/client3/rdock/2013.1/src/exe/rbdock.cxx#4 $)

>  <Rbt.Library>
libRbt.so (2013.1, Build901 2013/11/27)

>  <Rbt.Parameter_File>
/export/apps/rDock/src/rDock_2013.1_src/data/scripts/dock_solv.prm

>  <Rbt.Receptor>
prm/blind_docking_80.prm

>  <SCORE>
-5.28464

>  <SCORE.INTER>
-10.7562

>  <SCORE.INTER.CONST>
1

>  <SCORE.INTER.POLAR>
-1.77466

>  <SCORE.INTER.ROT>
15

>  <SCORE.INTER.SOLV>
23.269

>  <SCORE.INTER.VDW>
-22.6116

>  <SCORE.INTER.norm>
-0.290709

>  <SCORE.INTRA>
5.47158

>  <SCORE.INTRA.DIHEDRAL>
-4.51501

>  <SCORE.INTRA.DIHEDRAL.0>
21.5987

>  <SCORE.INTRA.POLAR>
0

>  <SCORE.INTRA.POLAR.0>
0

>  <SCORE.INTRA.REPUL>
0

>  <SCORE.INTRA.REPUL.0>
0

>  <SCORE.INTRA.SOLV>
5.45254

>  <SCORE.INTRA.SOLV.lig_0>
-108.715

>  <SCORE.INTRA.VDW>
5.00281

>  <SCORE.INTRA.VDW.0>
-3.9485

>  <SCORE.INTRA.norm>
0.14788

>  <SCORE.RESTR>
0

>  <SCORE.RESTR.CAVITY>
0

>  <SCORE.RESTR.norm>
0

>  <SCORE.SYSTEM>
0

>  <SCORE.SYSTEM.CONST>
0

>  <SCORE.SYSTEM.DIHEDRAL>
0

>  <SCORE.SYSTEM.SOLV>
0

>  <SCORE.SYSTEM.norm>
0

>  <SCORE.heavy>
37

>  <SCORE.norm>
-0.142828

>  <RMSD>
23.115

$$$$
1o9m_lig
 OpenBabel11021811403D
libRbt.so/2013.1/901 2013/11/27
 37 38  0  0  0  0  0  0  0  0999 V2000
    8.1338   -3.2512    9.1380 C   0  0  2  0  0  0  0  0  0  0  0  0
    8.3046   -2.0799    9.9931 O   0  0  0  0  0  0  0  0  0  0  0  0
    9.1470   -4.3347    9.6614 C   0  0  2  0  0  0  0  0  0  0  0  0
    8.9100   -4.6823   11.0735 N   0  0  0  0  0  0  0  0  0  0  0  0
   10.6175   -3.8061    9.4561 C   0  0  1  0  0  0  0  0  0  0  0  0
   11.5590   -4.7759    9.9235 O   0  0  0  0  0  0  0  0  0  0  0  0
   10.8089   -3.4792    7.9382 C   0  0  2  0  0  0  0  0  0  0  0  0
   12.1187   -2.9698    7.6385 O   0  0  0  0  0  0  0  0  0  0  0  0
    9.7520   -2.4517    7.4634 C   0  0  2  0  0  0  0  0  0  0  0  0
    8.4236   -2.9200    7.7383 O   0  0  0  0  0  0  0  0  0  0  0  0
    9.8792   -2.1618    5.9902 C   0  0  0  0  0  0  0  0  0  0  0  0
    9.5129   -3.2638    5.2549 N   0  0  0  0  0  0  0  0  0  0  0  0
    4.2295   -0.6815   10.5018 C   0  0  1  0  0  0  0  0  0  0  0  0
    3.0819    0.1548   10.9524 N   0  0  0  0  0  0  0  0  0  0  0  0
    5.1830    0.1870    9.6925 C   0  0  2  0  0  0  0  0  0  0  0  0
    4.4653    0.7349    8.6271 O   0  0  0  0  0  0  0  0  0  0  0  0
    6.3953   -0.6540    9.1822 C   0  0  1  0  0  0  0  0  0  0  0  0
    7.3129    0.1941    8.4264 O   0  0  0  0  0  0  0  0  0  0  0  0
    7.1719   -1.2686   10.4171 C   0  0  1  0  0  0  0  0  0  0  0  0
    6.2341   -2.1541   11.2234 C   0  0  1  0  0  0  0  0  0  0  0  0
    6.9709   -2.7199   12.3435 N   0  0  0  0  0  0  0  0  0  0  0  0
    5.0188   -1.3226   11.7142 C   0  0  0  0  0  0  0  0  0  0  0  0
    3.4370    1.4785    7.9370 C   0  0  0  0  0  0  0  0  0  0  0  0
    2.1070    0.7878    8.1335 C   0  0  0  0  0  0  0  0  0  0  0  0
    1.8084   -0.2481    7.1233 N   0  0  0  0  0  0  0  0  0  0  0  0
    1.9338   -1.1733    5.9740 C   0  0  0  0  0  0  0  0  0  0  0  0
    3.3264   -1.7213    6.3103 C   0  0  0  0  0  0  0  0  0  0  0  0
    3.9312   -2.5346    5.1505 C   0  0  0  0  0  0  0  0  0  0  0  0
    5.3501   -2.9883    5.4794 C   0  0  0  0  0  0  0  0  0  0  0  0
    5.3209   -4.0095    6.5169 N   0  0  0  0  0  0  0  0  0  0  0  0
    1.3877    1.3738   15.9314 N   0  0  0  0  0  0  0  0  0  0  0  0
    3.5949    1.3858   12.1221 C   0  0  0  0  0  0  0  0  0  0  0  0
    4.5361    1.6698   12.5665 O   0  0  0  0  0  0  0  0  0  0  0  0
    2.1404    1.7842   12.1804 C   0  0  2  0  0  0  0  0  0  0  0  0
    1.9143    2.9439   11.4833 O   0  0  0  0  0  0  0  0  0  0  0  0
    1.8214    2.0796   13.6418 C   0  0  0  0  0  0  0  0  0  0  0  0
    1.7238    0.8718   14.5912 C   0  0  0  0  0  0  0  0  0  0  0  0
  1  2  1  1  0  0  0
  1  3  1  0  0  0  0
  3  4  1  1  0  0  0
  3  5  1  0  0  0  0
  5  6  1  6  0  0  0
  5  7  1  0  0  0  0
  7  8  1  1  0  0  0
  9  7  1  0  0  0  0
  9 10  1  0  0  0  0
  9 11  1  6  0  0  0
 10  1  1  0  0  0  0
 11 12  1  0  0  0  0
 13 14  1  1  0  0  0
 13 15  1  0  0  0  0
 13 22  1  0  0  0  0
 14 32  1  0  0  0  0
 15 16  1  6  0  0  0
 15 17  1  0  0  0  0
 16 23  1  0  0  0  0
 17 18  1  1  0  0  0
 17 19  1  0  0  0  0
 19  2  1  6  0  0  0
 19 20  1  0  0  0  0
 20 21  1  1  0  0  0
 20 22  1  0  0  0  0
 23 24  1  0  0  0  0
 24 25  1  0  0  0  0
 25 26  1  0  0  0  0
 26 27  1  0  0  0  0
 27 28  1  0  0  0  0
 28 29  1  0  0  0  0
 29 30  1  0  0  0  0
 31 37  1  0  0  0  0
 32 33  2  0  0  0  0
 34 32  1  1  0  0  0
 34 35  1  0  0  0  0
 34 36  1  0  0  0  0
 36 37  1  0  0  0  0
M  END
>  <CHROM.1>
-141.59438759,68.87783008,-66.95233975,57.53904230,-67.09946236,-59.73910095
-88.32829951,3.95253990,47.28082894,-168.35403921,176.28353740,70.13935542
-104.27825686,-72.73702786,-178.98446494,5.90372445,-1.23058042,9.43268703
-0.52937340,-0.47441914,1.36075210

>  <Name>
1o9m_lig

>  <RI>
0

>  <Rbt.Current_Directory>
/home/itssahil/PROJECTS/Mol_Feturizer/New_Systems/rnas/1o9m

>  <Rbt.Executable>
rbdock ($Id: //depot/dev/client3/rdock/2013.1/src/exe/rbdock.cxx#4 $)

>  <Rbt.Library>
libRbt.so (2013.1, Build901 2013/11/27)

>  <Rbt.Parameter_File>
/export/apps/rDock/src/rDock_2013.1_src/data/scripts/dock_solv.prm

>  <Rbt.Receptor>
prm/blind_docking_40.prm

>  <SCORE>
-10.1898

>  <SCORE.INTER>
-7.04676

>  <SCORE.INTER.CONST>
1

>  <SCORE.INTER.POLAR>
-1.78473

>  <SCORE.INTER.ROT>
15

>  <SCORE.INTER.SOLV>
15.37

>  <SCORE.INTER.VDW>
-17.4721

>  <SCORE.INTER.norm>
-0.190453

>  <SCORE.INTRA>
-3.29298

>  <SCORE.INTRA.DIHEDRAL>
-8.4796

>  <SCORE.INTRA.DIHEDRAL.0>
21.5987

>  <SCORE.INTRA.POLAR>
0

>  <SCORE.INTRA.POLAR.0>
0

>  <SCORE.INTRA.REPUL>
0

>  <SCORE.INTRA.REPUL.0>
0

>  <SCORE.INTRA.SOLV>
6.09745

>  <SCORE.INTRA.SOLV.lig_0>
-108.715

>  <SCORE.INTRA.VDW>
-2.1019

>  <SCORE.INTRA.VDW.0>
-3.9485

>  <SCORE.INTRA.norm>
-0.0889994

>  <SCORE.RESTR>
0.149961

>  <SCORE.RESTR.CAVITY>
0.149961

>  <SCORE.RESTR.norm>
0.004053

>  <SCORE.SYSTEM>
0

>  <SCORE.SYSTEM.CONST>
0

>  <SCORE.SYSTEM.DIHEDRAL>
0

>  <SCORE.SYSTEM.SOLV>
0

>  <SCORE.SYSTEM.norm>
0

>  <SCORE.heavy>
37

>  <SCORE.norm>
-0.275399

>  <RMSD>
23.131

$$$$
1o9m_lig
 OpenBabel11021811403D
libRbt.so/2013.1/901 2013/11/27
 37 38  0  0  0  0  0  0  0  0999 V2000
    9.6525   -1.3585   10.2158 C   0  0  2  0  0  0  0  0  0  0  0  0
    8.8218   -1.0532    9.0544 O   0  0  0  0  0  0  0  0  0  0  0  0
   10.0177    0.0219   10.8758 C   0  0  2  0  0  0  0  0  0  0  0  0
    8.8205    0.7810   11.2774 N   0  0  0  0  0  0  0  0  0  0  0  0
   10.8964    0.8573    9.8688 C   0  0  1  0  0  0  0  0  0  0  0  0
   11.2435    2.1184   10.4474 O   0  0  0  0  0  0  0  0  0  0  0  0
   12.1575    0.0069    9.5030 C   0  0  2  0  0  0  0  0  0  0  0  0
   13.0263    0.6707    8.5705 O   0  0  0  0  0  0  0  0  0  0  0  0
   11.7401   -1.3617    8.9106 C   0  0  2  0  0  0  0  0  0  0  0  0
   10.8726   -2.0659    9.8112 O   0  0  0  0  0  0  0  0  0  0  0  0
   12.9370   -2.2235    8.6016 C   0  0  0  0  0  0  0  0  0  0  0  0
   12.5376   -3.3984    8.0106 N   0  0  0  0  0  0  0  0  0  0  0  0
    4.8414   -1.9206    7.5628 C   0  0  1  0  0  0  0  0  0  0  0  0
    3.5714   -2.6561    7.3065 N   0  0  0  0  0  0  0  0  0  0  0  0
    5.0151   -1.7483    9.0657 C   0  0  2  0  0  0  0  0  0  0  0  0
    3.8942   -1.0726    9.5528 O   0  0  0  0  0  0  0  0  0  0  0  0
    6.3277   -0.9641    9.3819 C   0  0  1  0  0  0  0  0  0  0  0  0
    6.4941   -0.8244   10.8260 O   0  0  0  0  0  0  0  0  0  0  0  0
    7.5705   -1.7541    8.8013 C   0  0  1  0  0  0  0  0  0  0  0  0
    7.4176   -1.9161    7.2966 C   0  0  1  0  0  0  0  0  0  0  0  0
    8.5761   -2.6305    6.7819 N   0  0  0  0  0  0  0  0  0  0  0  0
    6.1028   -2.6785    6.9812 C   0  0  0  0  0  0  0  0  0  0  0  0
    3.0274   -0.4094   10.4990 C   0  0  0  0  0  0  0  0  0  0  0  0
    3.6699    0.8861   10.9387 C   0  0  0  0  0  0  0  0  0  0  0  0
    2.8801    1.6476   11.9283 N   0  0  0  0  0  0  0  0  0  0  0  0
    2.4692    2.3423   13.1697 C   0  0  0  0  0  0  0  0  0  0  0  0
    2.4876    1.1206   14.0971 C   0  0  0  0  0  0  0  0  0  0  0  0
    1.3939    0.0971   13.7387 C   0  0  0  0  0  0  0  0  0  0  0  0
    1.4922   -1.1433   14.6214 C   0  0  0  0  0  0  0  0  0  0  0  0
    2.6552   -1.9343   14.2447 N   0  0  0  0  0  0  0  0  0  0  0  0
   -0.2205   -3.6109    8.2515 N   0  0  0  0  0  0  0  0  0  0  0  0
    2.9586   -2.3440    5.6713 C   0  0  0  0  0  0  0  0  0  0  0  0
    3.2965   -1.7605    4.8290 O   0  0  0  0  0  0  0  0  0  0  0  0
    1.8006   -3.2346    6.0500 C   0  0  2  0  0  0  0  0  0  0  0  0
    1.4143   -4.0230    4.9958 O   0  0  0  0  0  0  0  0  0  0  0  0
    0.6242   -2.3185    6.3688 C   0  0  0  0  0  0  0  0  0  0  0  0
   -0.6224   -2.9760    6.9880 C   0  0  0  0  0  0  0  0  0  0  0  0
  1  2  1  6  0  0  0
  1  3  1  0  0  0  0
  3  4  1  6  0  0  0
  3  5  1  0  0  0  0
  5  6  1  1  0  0  0
  5  7  1  0  0  0  0
  7  8  1  6  0  0  0
  9  7  1  0  0  0  0
  9 10  1  0  0  0  0
  9 11  1  1  0  0  0
 10  1  1  0  0  0  0
 11 12  1  0  0  0  0
 13 14  1  1  0  0  0
 13 15  1  0  0  0  0
 13 22  1  0  0  0  0
 14 32  1  0  0  0  0
 15 16  1  6  0  0  0
 15 17  1  0  0  0  0
 16 23  1  0  0  0  0
 17 18  1  1  0  0  0
 17 19  1  0  0  0  0
 19  2  1  6  0  0  0
 19 20  1  0  0  0  0
 20 21  1  1  0  0  0
 20 22  1  0  0  0  0
 23 24  1  0  0  0  0
 24 25  1  0  0  0  0
 25 26  1  0  0  0  0
 26 27  1  0  0  0  0
 27 28  1  0  0  0  0
 28 29  1  0  0  0  0
 29 30  1  0  0  0  0
 31 37  1  0  0  0  0
 32 33  2  0  0  0  0
 34 32  1  6  0  0  0
 34 35  1  0  0  0  0
 34 36  1  0  0  0  0
 36 37  1  0  0  0  0
M  END
>  <CHROM.1>
-132.02884058,-176.69266296,157.06704323,-176.09196896,67.31928288,94.65571257
-179.13587359,119.60336885,-63.55276307,-66.94795818,176.49090576,-72.07813364
-141.72336104,-171.07539825,59.51154383,6.00856164,-1.14690345,9.32603428
0.05055371,0.08546929,1.09138763

>  <Name>
1o9m_lig

>  <RI>
0

>  <Rbt.Current_Directory>
/home/itssahil/PROJECTS/Mol_Feturizer/New_Systems/rnas/1o9m

>  <Rbt.Executable>
rbdock ($Id: //depot/dev/client3/rdock/2013.1/src/exe/rbdock.cxx#4 $)

>  <Rbt.Library>
libRbt.so (2013.1, Build901 2013/11/27)

>  <Rbt.Parameter_File>
/export/apps/rDock/src/rDock_2013.1_src/data/scripts/dock_solv.prm

>  <Rbt.Receptor>
prm/blind_docking_20.prm

>  <SCORE>
-1.18678

>  <SCORE.INTER>
0.273776

>  <SCORE.INTER.CONST>
1

>  <SCORE.INTER.POLAR>
0

>  <SCORE.INTER.ROT>
15

>  <SCORE.INTER.SOLV>
14.5501

>  <SCORE.INTER.VDW>
-18.2675

>  <SCORE.INTER.norm>
0.00739935

>  <SCORE.INTRA>
-1.47057

>  <SCORE.INTRA.DIHEDRAL>
-5.45825

>  <SCORE.INTRA.DIHEDRAL.0>
21.5987

>  <SCORE.INTRA.POLAR>
0

>  <SCORE.INTRA.POLAR.0>
0

>  <SCORE.INTRA.REPUL>
0

>  <SCORE.INTRA.REPUL.0>
0

>  <SCORE.INTRA.SOLV>
3.87821

>  <SCORE.INTRA.SOLV.lig_0>
-108.715

>  <SCORE.INTRA.VDW>
-0.680547

>  <SCORE.INTRA.VDW.0>
-3.9485

>  <SCORE.INTRA.norm>
-0.0397451

>  <SCORE.RESTR>
0.0100094

>  <SCORE.RESTR.CAVITY>
0.0100094

>  <SCORE.RESTR.norm>
0.000270523

>  <SCORE.SYSTEM>
0

>  <SCORE.SYSTEM.CONST>
0

>  <SCORE.SYSTEM.DIHEDRAL>
0

>  <SCORE.SYSTEM.SOLV>
0

>  <SCORE.SYSTEM.norm>
0

>  <SCORE.heavy>
37

>  <SCORE.norm>
-0.0320752

>  <RMSD>
23.135

$$$$
1o9m_lig
 OpenBabel11021811403D
libRbt.so/2013.1/901 2013/11/27
 37 38  0  0  0  0  0  0  0  0999 V2000
    9.8545   -2.1499    7.9417 C   0  0  2  0  0  0  0  0  0  0  0  0
    8.7822   -1.1795    8.1436 O   0  0  0  0  0  0  0  0  0  0  0  0
    9.9306   -3.0079    9.2579 C   0  0  2  0  0  0  0  0  0  0  0  0
    8.6587   -3.6915    9.5511 N   0  0  0  0  0  0  0  0  0  0  0  0
   10.3522   -2.0755   10.4565 C   0  0  1  0  0  0  0  0  0  0  0  0
   10.4302   -2.8341   11.6665 O   0  0  0  0  0  0  0  0  0  0  0  0
   11.7161   -1.4017   10.0916 C   0  0  2  0  0  0  0  0  0  0  0  0
   12.1892   -0.5106   11.1149 O   0  0  0  0  0  0  0  0  0  0  0  0
   11.5993   -0.6181    8.7609 C   0  0  2  0  0  0  0  0  0  0  0  0
   11.1331   -1.4703    7.7046 O   0  0  0  0  0  0  0  0  0  0  0  0
   12.9156   -0.0055    8.3577 C   0  0  0  0  0  0  0  0  0  0  0  0
   13.8570   -0.9874    8.1605 N   0  0  0  0  0  0  0  0  0  0  0  0
    4.4814   -1.3426    7.5988 C   0  0  1  0  0  0  0  0  0  0  0  0
    3.0663   -1.7833    7.7502 N   0  0  0  0  0  0  0  0  0  0  0  0
    5.0093   -0.9080    8.9593 C   0  0  2  0  0  0  0  0  0  0  0  0
    4.1779    0.1067    9.4381 O   0  0  0  0  0  0  0  0  0  0  0  0
    6.4877   -0.4190    8.8456 C   0  0  1  0  0  0  0  0  0  0  0  0
    6.9894   -0.0257   10.1595 O   0  0  0  0  0  0  0  0  0  0  0  0
    7.3926   -1.5912    8.2863 C   0  0  1  0  0  0  0  0  0  0  0  0
    6.8862   -2.0216    6.9180 C   0  0  1  0  0  0  0  0  0  0  0  0
    7.7398   -3.0880    6.4163 N   0  0  0  0  0  0  0  0  0  0  0  0
    5.4101   -2.4892    7.0273 C   0  0  0  0  0  0  0  0  0  0  0  0
    3.4674    0.9286   10.3901 C   0  0  0  0  0  0  0  0  0  0  0  0
    4.4405    1.4458   11.4245 C   0  0  0  0  0  0  0  0  0  0  0  0
    3.8495    1.6473   12.7636 N   0  0  0  0  0  0  0  0  0  0  0  0
    2.9725    2.1153   13.8609 C   0  0  0  0  0  0  0  0  0  0  0  0
    2.2060    0.8042   14.0765 C   0  0  0  0  0  0  0  0  0  0  0  0
    0.9598    0.9934   14.9615 C   0  0  0  0  0  0  0  0  0  0  0  0
    1.3478    1.1629   16.4272 C   0  0  0  0  0  0  0  0  0  0  0  0
    0.1556    1.3517   17.2416 N   0  0  0  0  0  0  0  0  0  0  0  0
   -0.2747   -5.1683    6.0913 N   0  0  0  0  0  0  0  0  0  0  0  0
    2.3330   -2.1640    6.1805 C   0  0  0  0  0  0  0  0  0  0  0  0
    2.6761   -2.1597    5.1576 O   0  0  0  0  0  0  0  0  0  0  0  0
    1.0734   -2.4555    6.9591 C   0  0  2  0  0  0  0  0  0  0  0  0
    1.2137   -3.5833    7.7275 O   0  0  0  0  0  0  0  0  0  0  0  0
   -0.0190   -2.7518    5.9376 C   0  0  0  0  0  0  0  0  0  0  0  0
    0.0878   -4.0818    5.1698 C   0  0  0  0  0  0  0  0  0  0  0  0
  1  2  1  1  0  0  0
  1  3  1  0  0  0  0
  3  4  1  1  0  0  0
  3  5  1  0  0  0  0
  5  6  1  1  0  0  0
  5  7  1  0  0  0  0
  7  8  1  1  0  0  0
  9  7  1  0  0  0  0
  9 10  1  0  0  0  0
  9 11  1  6  0  0  0
 10  1  1  0  0  0  0
 11 12  1  0  0  0  0
 13 14  1  1  0  0  0
 13 15  1  0  0  0  0
 13 22  1  0  0  0  0
 14 32  1  0  0  0  0
 15 16  1  6  0  0  0
 15 17  1  0  0  0  0
 16 23  1  0  0  0  0
 17 18  1  1  0  0  0
 17 19  1  0  0  0  0
 19  2  1  6  0  0  0
 19 20  1  0  0  0  0
 20 21  1  1  0  0  0
 20 22  1  0  0  0  0
 23 24  1  0  0  0  0
 24 25  1  0  0  0  0
 25 26  1  0  0  0  0
 26 27  1  0  0  0  0
 27 28  1  0  0  0  0
 28 29  1  0  0  0  0
 29 30  1  0  0  0  0
 31 37  1  0  0  0  0
 32 33  2  0  0  0  0
 34 32  1  6  0  0  0
 34 35  1  0  0  0  0
 34 36  1  0  0  0  0
 36 37  1  0  0  0  0
M  END
>  <CHROM.1>
-65.46836700,61.35367445,174.73912880,148.68300062,52.77481227,165.82012880
-148.79413096,-56.25331334,106.61246800,-167.27321857,-74.96998883,179.50226155
-68.80880637,70.88227225,73.61480926,5.84085492,-1.22180522,9.39276357,0.17035529
-0.01852779,-2.03973445

>  <Name>
1o9m_lig

>  <RI>
0

>  <Rbt.Current_Directory>
/home/itssahil/PROJECTS/Mol_Feturizer/New_Systems/rnas/1o9m

>  <Rbt.Executable>
rbdock ($Id: //depot/dev/client3/rdock/2013.1/src/exe/rbdock.cxx#4 $)

>  <Rbt.Library>
libRbt.so (2013.1, Build901 2013/11/27)

>  <Rbt.Parameter_File>
/export/apps/rDock/src/rDock_2013.1_src/data/scripts/dock_solv.prm

>  <Rbt.Receptor>
prm/blind_docking_20.prm

>  <SCORE>
1.24353

>  <SCORE.INTER>
0.679971

>  <SCORE.INTER.CONST>
1

>  <SCORE.INTER.POLAR>
0

>  <SCORE.INTER.ROT>
15

>  <SCORE.INTER.SOLV>
10.7926

>  <SCORE.INTER.VDW>
-16.7442

>  <SCORE.INTER.norm>
0.0183776

>  <SCORE.INTRA>
0.552238

>  <SCORE.INTRA.DIHEDRAL>
-8.96946

>  <SCORE.INTRA.DIHEDRAL.0>
21.5987

>  <SCORE.INTRA.POLAR>
0

>  <SCORE.INTRA.POLAR.0>
0

>  <SCORE.INTRA.REPUL>
0

>  <SCORE.INTRA.REPUL.0>
0

>  <SCORE.INTRA.SOLV>
6.51802

>  <SCORE.INTRA.SOLV.lig_0>
-108.715

>  <SCORE.INTRA.VDW>
1.77795

>  <SCORE.INTRA.VDW.0>
-3.9485

>  <SCORE.INTRA.norm>
0.0149254

>  <SCORE.RESTR>
0.0113176

>  <SCORE.RESTR.CAVITY>
0.0113176

>  <SCORE.RESTR.norm>
0.000305882

>  <SCORE.SYSTEM>
0

>  <SCORE.SYSTEM.CONST>
0

>  <SCORE.SYSTEM.DIHEDRAL>
0

>  <SCORE.SYSTEM.SOLV>
0

>  <SCORE.SYSTEM.norm>
0

>  <SCORE.heavy>
37

>  <SCORE.norm>
0.0336088

>  <RMSD>
23.136

$$$$
1o9m_lig
 OpenBabel11021811403D
libRbt.so/2013.1/901 2013/11/27
 37 38  0  0  0  0  0  0  0  0999 V2000
   10.9843   -0.4748   10.8588 C   0  0  2  0  0  0  0  0  0  0  0  0
    9.7101   -0.2402   10.1852 O   0  0  0  0  0  0  0  0  0  0  0  0
   12.0250   -0.8230    9.7318 C   0  0  2  0  0  0  0  0  0  0  0  0
   12.1527    0.2580    8.7388 N   0  0  0  0  0  0  0  0  0  0  0  0
   11.5989   -2.1718    9.0367 C   0  0  1  0  0  0  0  0  0  0  0  0
   12.5322   -2.5114    8.0076 O   0  0  0  0  0  0  0  0  0  0  0  0
   11.5051   -3.2780   10.1389 C   0  0  2  0  0  0  0  0  0  0  0  0
   11.1044   -4.5546    9.6149 O   0  0  0  0  0  0  0  0  0  0  0  0
   10.5107   -2.8590   11.2498 C   0  0  2  0  0  0  0  0  0  0  0  0
   10.8734   -1.5879   11.8083 O   0  0  0  0  0  0  0  0  0  0  0  0
   10.4439   -3.8832   12.3531 C   0  0  0  0  0  0  0  0  0  0  0  0
    9.6547   -4.9422   11.9723 N   0  0  0  0  0  0  0  0  0  0  0  0
    6.0449    1.0055   12.1434 C   0  0  1  0  0  0  0  0  0  0  0  0
    5.0081    1.8932   12.7406 N   0  0  0  0  0  0  0  0  0  0  0  0
    6.2330    1.3840   10.6806 C   0  0  2  0  0  0  0  0  0  0  0  0
    4.9950    1.2690   10.0448 O   0  0  0  0  0  0  0  0  0  0  0  0
    7.3004    0.4650   10.0070 C   0  0  1  0  0  0  0  0  0  0  0  0
    7.4876    0.8517    8.6113 O   0  0  0  0  0  0  0  0  0  0  0  0
    8.6822    0.6131   10.7649 C   0  0  1  0  0  0  0  0  0  0  0  0
    8.5113    0.2194   12.2242 C   0  0  1  0  0  0  0  0  0  0  0  0
    9.7946    0.3482   12.8980 N   0  0  0  0  0  0  0  0  0  0  0  0
    7.4359    1.1200   12.8889 C   0  0  0  0  0  0  0  0  0  0  0  0
    3.5667    1.3635    9.8510 C   0  0  0  0  0  0  0  0  0  0  0  0
    3.2239    0.9112    8.4501 C   0  0  0  0  0  0  0  0  0  0  0  0
    3.7514   -0.4236    8.0993 N   0  0  0  0  0  0  0  0  0  0  0  0
    4.0187   -1.8799    8.1075 C   0  0  0  0  0  0  0  0  0  0  0  0
    4.2596   -2.0299    9.6150 C   0  0  0  0  0  0  0  0  0  0  0  0
    2.9450   -2.0722   10.4165 C   0  0  0  0  0  0  0  0  0  0  0  0
    3.1314   -2.8107   11.7383 C   0  0  0  0  0  0  0  0  0  0  0  0
    3.3817   -4.2236   11.4909 N   0  0  0  0  0  0  0  0  0  0  0  0
    1.5821    3.4935   11.3883 N   0  0  0  0  0  0  0  0  0  0  0  0
    3.5960    0.9679   13.2852 C   0  0  0  0  0  0  0  0  0  0  0  0
    3.3255   -0.0765   13.2924 O   0  0  0  0  0  0  0  0  0  0  0  0
    3.0096    2.3001   13.6839 C   0  0  2  0  0  0  0  0  0  0  0  0
    3.1919    2.5432   15.0217 O   0  0  0  0  0  0  0  0  0  0  0  0
    1.5052    2.2073   13.4543 C   0  0  0  0  0  0  0  0  0  0  0  0
    1.0176    2.2797   11.9959 C   0  0  0  0  0  0  0  0  0  0  0  0
  1  2  1  6  0  0  0
  1  3  1  0  0  0  0
  3  4  1  6  0  0  0
  3  5  1  0  0  0  0
  5  6  1  6  0  0  0
  5  7  1  0  0  0  0
  7  8  1  6  0  0  0
  9  7  1  0  0  0  0
  9 10  1  0  0  0  0
  9 11  1  1  0  0  0
 10  1  1  0  0  0  0
 11 12  1  0  0  0  0
 13 14  1  1  0  0  0
 13 15  1  0  0  0  0
 13 22  1  0  0  0  0
 14 32  1  0  0  0  0
 15 16  1  6  0  0  0
 15 17  1  0  0  0  0
 16 23  1  0  0  0  0
 17 18  1  6  0  0  0
 17 19  1  0  0  0  0
 19  2  1  6  0  0  0
 19 20  1  0  0  0  0
 20 21  1  1  0  0  0
 20 22  1  0  0  0  0
 23 24  1  0  0  0  0
 24 25  1  0  0  0  0
 25 26  1  0  0  0  0
 26 27  1  0  0  0  0
 27 28  1  0  0  0  0
 28 29  1  0  0  0  0
 29 30  1  0  0  0  0
 31 37  1  0  0  0  0
 32 33  2  0  0  0  0
 34 32  1  1  0  0  0
 34 35  1  0  0  0  0
 34 36  1  0  0  0  0
 36 37  1  0  0  0  0
M  END
>  <CHROM.1>
-154.02426727,-78.98487337,117.35464902,40.02297895,176.49664803,-167.99655930
53.29371904,59.68829096,-45.71054966,79.09491107,154.85873063,-67.72979540
-97.82546067,-75.28532391,-53.33281883,6.76359659,-0.42571458,10.97570521
-0.42671921,-0.02585568,0.53881939

>  <Name>
1o9m_lig

>  <RI>
0

>  <Rbt.Current_Directory>
/home/itssahil/PROJECTS/Mol_Feturizer/New_Systems/rnas/1o9m

>  <Rbt.Executable>
rbdock ($Id: //depot/dev/client3/rdock/2013.1/src/exe/rbdock.cxx#4 $)

>  <Rbt.Library>
libRbt.so (2013.1, Build901 2013/11/27)

>  <Rbt.Parameter_File>
/export/apps/rDock/src/rDock_2013.1_src/data/scripts/dock_solv.prm

>  <Rbt.Receptor>
prm/blind_docking_100.prm

>  <SCORE>
-4.89953

>  <SCORE.INTER>
-6.04127

>  <SCORE.INTER.CONST>
1

>  <SCORE.INTER.POLAR>
-1.33268

>  <SCORE.INTER.ROT>
15

>  <SCORE.INTER.SOLV>
24.2316

>  <SCORE.INTER.VDW>
-21.2624

>  <SCORE.INTER.norm>
-0.163278

>  <SCORE.INTRA>
1.01932

>  <SCORE.INTRA.DIHEDRAL>
-6.98586

>  <SCORE.INTRA.DIHEDRAL.0>
21.5987

>  <SCORE.INTRA.POLAR>
0

>  <SCORE.INTRA.POLAR.0>
0

>  <SCORE.INTRA.REPUL>
0

>  <SCORE.INTRA.REPUL.0>
0

>  <SCORE.INTRA.SOLV>
7.52156

>  <SCORE.INTRA.SOLV.lig_0>
-108.715

>  <SCORE.INTRA.VDW>
0.751466

>  <SCORE.INTRA.VDW.0>
-3.9485

>  <SCORE.INTRA.norm>
0.0275492

>  <SCORE.RESTR>
0.122421

>  <SCORE.RESTR.CAVITY>
0.122421

>  <SCORE.RESTR.norm>
0.00330868

>  <SCORE.SYSTEM>
0

>  <SCORE.SYSTEM.CONST>
0

>  <SCORE.SYSTEM.DIHEDRAL>
0

>  <SCORE.SYSTEM.SOLV>
0

>  <SCORE.SYSTEM.norm>
0

>  <SCORE.heavy>
37

>  <SCORE.norm>
-0.13242

>  <RMSD>
23.199

$$$$
1o9m_lig
 OpenBabel11021811403D
libRbt.so/2013.1/901 2013/11/27
 37 38  0  0  0  0  0  0  0  0999 V2000
    9.4592   -1.1725    8.3020 C   0  0  2  0  0  0  0  0  0  0  0  0
    8.9386   -2.4302    8.8306 O   0  0  0  0  0  0  0  0  0  0  0  0
   10.7221   -0.8151    9.1691 C   0  0  2  0  0  0  0  0  0  0  0  0
   11.7511   -1.8682    9.1142 N   0  0  0  0  0  0  0  0  0  0  0  0
   10.2687   -0.5549   10.6558 C   0  0  1  0  0  0  0  0  0  0  0  0
   11.4009   -0.2257   11.4653 O   0  0  0  0  0  0  0  0  0  0  0  0
    9.1977    0.5854   10.6448 C   0  0  2  0  0  0  0  0  0  0  0  0
    8.6990    0.8947   11.9565 O   0  0  0  0  0  0  0  0  0  0  0  0
    8.0049    0.2053    9.7331 C   0  0  2  0  0  0  0  0  0  0  0  0
    8.4543   -0.1086    8.4069 O   0  0  0  0  0  0  0  0  0  0  0  0
    6.9843    1.3116    9.6606 C   0  0  0  0  0  0  0  0  0  0  0  0
    7.5156    2.4082    9.0246 N   0  0  0  0  0  0  0  0  0  0  0  0
    4.9222   -2.6232    7.2022 C   0  0  1  0  0  0  0  0  0  0  0  0
    3.6091   -3.1836    6.7765 N   0  0  0  0  0  0  0  0  0  0  0  0
    5.0948   -2.8559    8.6970 C   0  0  2  0  0  0  0  0  0  0  0  0
    4.0164   -2.2573    9.3520 O   0  0  0  0  0  0  0  0  0  0  0  0
    6.4530   -2.2667    9.1928 C   0  0  1  0  0  0  0  0  0  0  0  0
    6.6167   -2.5152   10.6225 O   0  0  0  0  0  0  0  0  0  0  0  0
    7.6464   -2.9593    8.4168 C   0  0  1  0  0  0  0  0  0  0  0  0
    7.4952   -2.7176    6.9227 C   0  0  1  0  0  0  0  0  0  0  0  0
    8.6089   -3.3488    6.2306 N   0  0  0  0  0  0  0  0  0  0  0  0
    6.1362   -3.2858    6.4334 C   0  0  0  0  0  0  0  0  0  0  0  0
    3.1691   -1.8365   10.4436 C   0  0  0  0  0  0  0  0  0  0  0  0
    3.9393   -0.8890   11.3343 C   0  0  0  0  0  0  0  0  0  0  0  0
    3.5660   -0.9629   12.7620 N   0  0  0  0  0  0  0  0  0  0  0  0
    3.6496   -1.0203   14.2392 C   0  0  0  0  0  0  0  0  0  0  0  0
    2.2278   -1.5340   14.4994 C   0  0  0  0  0  0  0  0  0  0  0  0
    1.1687   -0.4257   14.3505 C   0  0  0  0  0  0  0  0  0  0  0  0
    1.3053    0.6165   15.4562 C   0  0  0  0  0  0  0  0  0  0  0  0
    0.9189    0.0408   16.7366 N   0  0  0  0  0  0  0  0  0  0  0  0
   -1.2543   -3.7261    5.8544 N   0  0  0  0  0  0  0  0  0  0  0  0
    3.0178   -2.4021    5.2979 C   0  0  0  0  0  0  0  0  0  0  0  0
    3.3918   -1.6327    4.6404 O   0  0  0  0  0  0  0  0  0  0  0  0
    1.8065   -3.2911    5.4392 C   0  0  2  0  0  0  0  0  0  0  0  0
    1.1750   -3.4662    4.2340 O   0  0  0  0  0  0  0  0  0  0  0  0
    0.8250   -2.5595    6.3482 C   0  0  0  0  0  0  0  0  0  0  0  0
   -0.3254   -3.3914    6.9435 C   0  0  0  0  0  0  0  0  0  0  0  0
  1  2  1  1  0  0  0
  1  3  1  0  0  0  0
  3  4  1  1  0  0  0
  3  5  1  0  0  0  0
  5  6  1  1  0  0  0
  5  7  1  0  0  0  0
  7  8  1  1  0  0  0
  9  7  1  0  0  0  0
  9 10  1  0  0  0  0
  9 11  1  6  0  0  0
 10  1  1  0  0  0  0
 11 12  1  0  0  0  0
 13 14  1  6  0  0  0
 13 15  1  0  0  0  0
 13 22  1  0  0  0  0
 14 32  1  0  0  0  0
 15 16  1  1  0  0  0
 15 17  1  0  0  0  0
 16 23  1  0  0  0  0
 17 18  1  1  0  0  0
 17 19  1  0  0  0  0
 19  2  1  1  0  0  0
 19 20  1  0  0  0  0
 20 21  1  6  0  0  0
 20 22  1  0  0  0  0
 23 24  1  0  0  0  0
 24 25  1  0  0  0  0
 25 26  1  0  0  0  0
 26 27  1  0  0  0  0
 27 28  1  0  0  0  0
 28 29  1  0  0  0  0
 29 30  1  0  0  0  0
 31 37  1  0  0  0  0
 32 33  2  0  0  0  0
 34 32  1  6  0  0  0
 34 35  1  0  0  0  0
 34 36  1  0  0  0  0
 36 37  1  0  0  0  0
M  END
>  <CHROM.1>
169.84500734,66.39108804,156.10016282,179.98042648,62.99466307,-80.83885814
-147.80826704,136.37047511,-162.99687980,-76.59953459,-67.83497372,-69.23505102
-156.84686752,-164.67751045,-70.45393103,5.42423356,-1.51226859,9.34690004
-0.29390320,-0.14684331,-1.89805071

>  <Name>
1o9m_lig

>  <RI>
0

>  <Rbt.Current_Directory>
/home/itssahil/PROJECTS/Mol_Feturizer/New_Systems/rnas/1o9m

>  <Rbt.Executable>
rbdock ($Id: //depot/dev/client3/rdock/2013.1/src/exe/rbdock.cxx#4 $)

>  <Rbt.Library>
libRbt.so (2013.1, Build901 2013/11/27)

>  <Rbt.Parameter_File>
/export/apps/rDock/src/rDock_2013.1_src/data/scripts/dock_solv.prm

>  <Rbt.Receptor>
prm/blind_docking_80.prm

>  <SCORE>
-6.69661

>  <SCORE.INTER>
-3.80096

>  <SCORE.INTER.CONST>
1

>  <SCORE.INTER.POLAR>
0

>  <SCORE.INTER.ROT>
15

>  <SCORE.INTER.SOLV>
17.9713

>  <SCORE.INTER.VDW>
-22.1244

>  <SCORE.INTER.norm>
-0.102729

>  <SCORE.INTRA>
-2.89565

>  <SCORE.INTRA.DIHEDRAL>
-9.99736

>  <SCORE.INTRA.DIHEDRAL.0>
21.5987

>  <SCORE.INTRA.POLAR>
0

>  <SCORE.INTRA.POLAR.0>
0

>  <SCORE.INTRA.REPUL>
0

>  <SCORE.INTRA.REPUL.0>
0

>  <SCORE.INTRA.SOLV>
3.87131

>  <SCORE.INTRA.SOLV.lig_0>
-108.715

>  <SCORE.INTRA.VDW>
0.167375

>  <SCORE.INTRA.VDW.0>
-3.9485

>  <SCORE.INTRA.norm>
-0.0782608

>  <SCORE.RESTR>
0

>  <SCORE.RESTR.CAVITY>
0

>  <SCORE.RESTR.norm>
0

>  <SCORE.SYSTEM>
0

>  <SCORE.SYSTEM.CONST>
0

>  <SCORE.SYSTEM.DIHEDRAL>
0

>  <SCORE.SYSTEM.SOLV>
0

>  <SCORE.SYSTEM.norm>
0

>  <SCORE.heavy>
37

>  <SCORE.norm>
-0.180989

>  <RMSD>
23.207

$$$$
1o9m_lig
 OpenBabel11021811403D
libRbt.so/2013.1/901 2013/11/27
 37 38  0  0  0  0  0  0  0  0999 V2000
   10.2697   -1.7805   11.2752 C   0  0  2  0  0  0  0  0  0  0  0  0
   10.0645   -0.5580   10.5034 O   0  0  0  0  0  0  0  0  0  0  0  0
   11.2220   -2.6927   10.4175 C   0  0  2  0  0  0  0  0  0  0  0  0
   12.5096   -2.0371   10.1290 N   0  0  0  0  0  0  0  0  0  0  0  0
   10.4870   -3.0912    9.0815 C   0  0  1  0  0  0  0  0  0  0  0  0
   11.3331   -3.9237    8.2836 O   0  0  0  0  0  0  0  0  0  0  0  0
    9.1445   -3.8005    9.4584 C   0  0  2  0  0  0  0  0  0  0  0  0
    8.3796   -4.1942    8.3073 O   0  0  0  0  0  0  0  0  0  0  0  0
    8.2720   -2.8807   10.3478 C   0  0  2  0  0  0  0  0  0  0  0  0
    8.9939   -2.4640   11.5159 O   0  0  0  0  0  0  0  0  0  0  0  0
    6.9966   -3.5622   10.7716 C   0  0  0  0  0  0  0  0  0  0  0  0
    6.4051   -2.8680   11.8000 N   0  0  0  0  0  0  0  0  0  0  0  0
    6.2213    0.9898   11.7897 C   0  0  1  0  0  0  0  0  0  0  0  0
    5.1428    1.9635   12.1188 N   0  0  0  0  0  0  0  0  0  0  0  0
    6.5964    1.1488   10.3225 C   0  0  2  0  0  0  0  0  0  0  0  0
    5.4427    0.9519    9.5607 O   0  0  0  0  0  0  0  0  0  0  0  0
    7.7137    0.1327    9.9266 C   0  0  1  0  0  0  0  0  0  0  0  0
    8.0799    0.3096    8.5241 O   0  0  0  0  0  0  0  0  0  0  0  0
    8.9960    0.3791   10.8215 C   0  0  1  0  0  0  0  0  0  0  0  0
    8.6380    0.2043   12.2895 C   0  0  1  0  0  0  0  0  0  0  0  0
    9.8325    0.4200   13.0923 N   0  0  0  0  0  0  0  0  0  0  0  0
    7.5134    1.2010   12.6783 C   0  0  0  0  0  0  0  0  0  0  0  0
    4.5717    0.9628    8.4084 C   0  0  0  0  0  0  0  0  0  0  0  0
    3.3070    0.2017    8.7337 C   0  0  0  0  0  0  0  0  0  0  0  0
    3.4924   -1.2598    8.8453 N   0  0  0  0  0  0  0  0  0  0  0  0
    4.1203   -2.5972    8.9434 C   0  0  0  0  0  0  0  0  0  0  0  0
    5.3904   -2.2803    8.1439 C   0  0  0  0  0  0  0  0  0  0  0  0
    5.1515   -2.3262    6.6231 C   0  0  0  0  0  0  0  0  0  0  0  0
    6.4380   -2.0365    5.8561 C   0  0  0  0  0  0  0  0  0  0  0  0
    7.2834   -3.2219    5.8316 N   0  0  0  0  0  0  0  0  0  0  0  0
    0.6130    3.5391   12.5806 N   0  0  0  0  0  0  0  0  0  0  0  0
    4.2079    1.4436   13.5339 C   0  0  0  0  0  0  0  0  0  0  0  0
    4.2485    0.6014   14.2070 O   0  0  0  0  0  0  0  0  0  0  0  0
    3.3803    2.6858   13.3109 C   0  0  2  0  0  0  0  0  0  0  0  0
    4.0508    3.8102   13.7210 O   0  0  0  0  0  0  0  0  0  0  0  0
    2.1469    2.5604   14.1985 C   0  0  0  0  0  0  0  0  0  0  0  0
    1.0299    3.5987   13.9891 C   0  0  0  0  0  0  0  0  0  0  0  0
  1  2  1  6  0  0  0
  1  3  1  0  0  0  0
  3  4  1  6  0  0  0
  3  5  1  0  0  0  0
  5  6  1  1  0  0  0
  5  7  1  0  0  0  0
  7  8  1  6  0  0  0
  9  7  1  0  0  0  0
  9 10  1  0  0  0  0
  9 11  1  1  0  0  0
 10  1  1  0  0  0  0
 11 12  1  0  0  0  0
 13 14  1  1  0  0  0
 13 15  1  0  0  0  0
 13 22  1  0  0  0  0
 14 32  1  0  0  0  0
 15 16  1  6  0  0  0
 15 17  1  0  0  0  0
 16 23  1  0  0  0  0
 17 18  1  6  0  0  0
 17 19  1  0  0  0  0
 19  2  1  6  0  0  0
 19 20  1  0  0  0  0
 20 21  1  1  0  0  0
 20 22  1  0  0  0  0
 23 24  1  0  0  0  0
 24 25  1  0  0  0  0
 25 26  1  0  0  0  0
 26 27  1  0  0  0  0
 27 28  1  0  0  0  0
 28 29  1  0  0  0  0
 29 30  1  0  0  0  0
 31 37  1  0  0  0  0
 32 33  2  0  0  0  0
 34 32  1  1  0  0  0
 34 35  1  0  0  0  0
 34 36  1  0  0  0  0
 36 37  1  0  0  0  0
M  END
>  <CHROM.1>
164.95688088,165.54468480,157.02477211,166.18101513,171.76038888,-96.34313954
-71.16918894,10.64366972,-30.05348382,-80.35139042,-178.78641010,78.62377229
-75.43125970,-170.58558002,56.78463499,6.69707995,-0.55986320,10.52252565
-0.73139398,-0.31954984,0.96640884

>  <Name>
1o9m_lig

>  <RI>
0

>  <Rbt.Current_Directory>
/home/itssahil/PROJECTS/Mol_Feturizer/New_Systems/rnas/1o9m

>  <Rbt.Executable>
rbdock ($Id: //depot/dev/client3/rdock/2013.1/src/exe/rbdock.cxx#4 $)

>  <Rbt.Library>
libRbt.so (2013.1, Build901 2013/11/27)

>  <Rbt.Parameter_File>
/export/apps/rDock/src/rDock_2013.1_src/data/scripts/dock_solv.prm

>  <Rbt.Receptor>
prm/blind_docking_80.prm

>  <SCORE>
-6.2725

>  <SCORE.INTER>
-5.07829

>  <SCORE.INTER.CONST>
1

>  <SCORE.INTER.POLAR>
-1.248

>  <SCORE.INTER.ROT>
15

>  <SCORE.INTER.SOLV>
16.7493

>  <SCORE.INTER.VDW>
-18.4086

>  <SCORE.INTER.norm>
-0.137251

>  <SCORE.INTRA>
-1.19422

>  <SCORE.INTRA.DIHEDRAL>
-7.3409

>  <SCORE.INTRA.DIHEDRAL.0>
21.5987

>  <SCORE.INTRA.POLAR>
0

>  <SCORE.INTRA.POLAR.0>
0

>  <SCORE.INTRA.REPUL>
0

>  <SCORE.INTRA.REPUL.0>
0

>  <SCORE.INTRA.SOLV>
7.7403

>  <SCORE.INTRA.SOLV.lig_0>
-108.715

>  <SCORE.INTRA.VDW>
-1.39391

>  <SCORE.INTRA.VDW.0>
-3.9485

>  <SCORE.INTRA.norm>
-0.0322762

>  <SCORE.RESTR>
0

>  <SCORE.RESTR.CAVITY>
0

>  <SCORE.RESTR.norm>
0

>  <SCORE.SYSTEM>
0

>  <SCORE.SYSTEM.CONST>
0

>  <SCORE.SYSTEM.DIHEDRAL>
0

>  <SCORE.SYSTEM.SOLV>
0

>  <SCORE.SYSTEM.norm>
0

>  <SCORE.heavy>
37

>  <SCORE.norm>
-0.169527

>  <RMSD>
23.215

$$$$
1o9m_lig
 OpenBabel11021811403D
libRbt.so/2013.1/901 2013/11/27
 37 38  0  0  0  0  0  0  0  0999 V2000
   10.4628   -1.3791   10.6319 C   0  0  2  0  0  0  0  0  0  0  0  0
   10.0893    0.0154   10.4123 O   0  0  0  0  0  0  0  0  0  0  0  0
   11.7419   -1.6398    9.7541 C   0  0  2  0  0  0  0  0  0  0  0  0
   12.8539   -0.7410   10.1099 N   0  0  0  0  0  0  0  0  0  0  0  0
   11.3625   -1.4828    8.2325 C   0  0  1  0  0  0  0  0  0  0  0  0
   12.5105   -1.7172    7.4122 O   0  0  0  0  0  0  0  0  0  0  0  0
   10.1969   -2.4775    7.9171 C   0  0  2  0  0  0  0  0  0  0  0  0
    9.7571   -2.4059    6.5509 O   0  0  0  0  0  0  0  0  0  0  0  0
    8.9867   -2.2128    8.8465 C   0  0  2  0  0  0  0  0  0  0  0  0
    9.3770   -2.2785   10.2259 O   0  0  0  0  0  0  0  0  0  0  0  0
    7.8704   -3.1948    8.6010 C   0  0  0  0  0  0  0  0  0  0  0  0
    8.2405   -4.4505    9.0199 N   0  0  0  0  0  0  0  0  0  0  0  0
    6.0911    0.2187   12.0835 C   0  0  1  0  0  0  0  0  0  0  0  0
    4.8114    0.7912   12.5876 N   0  0  0  0  0  0  0  0  0  0  0  0
    6.2751    0.6308   10.6293 C   0  0  2  0  0  0  0  0  0  0  0  0
    5.1647    0.1810    9.9118 O   0  0  0  0  0  0  0  0  0  0  0  0
    7.5982    0.0363   10.0518 C   0  0  1  0  0  0  0  0  0  0  0  0
    7.7743    0.4562    8.6643 O   0  0  0  0  0  0  0  0  0  0  0  0
    8.8288    0.5573   10.9004 C   0  0  1  0  0  0  0  0  0  0  0  0
    8.6656    0.1352   12.3526 C   0  0  1  0  0  0  0  0  0  0  0  0
    9.8130    0.6106   13.1108 N   0  0  0  0  0  0  0  0  0  0  0  0
    7.3405    0.7099   12.9211 C   0  0  0  0  0  0  0  0  0  0  0  0
    3.7876    0.0739    9.4892 C   0  0  0  0  0  0  0  0  0  0  0  0
    3.3985    1.3272    8.7394 C   0  0  0  0  0  0  0  0  0  0  0  0
    2.3670    1.1163    7.7029 N   0  0  0  0  0  0  0  0  0  0  0  0
    1.4386    0.4654    6.7505 C   0  0  0  0  0  0  0  0  0  0  0  0
    2.4259   -0.5603    6.1794 C   0  0  0  0  0  0  0  0  0  0  0  0
    1.7135   -1.7850    5.5753 C   0  0  0  0  0  0  0  0  0  0  0  0
    1.3001   -2.7715    6.6630 C   0  0  0  0  0  0  0  0  0  0  0  0
    0.2686   -2.1834    7.5059 N   0  0  0  0  0  0  0  0  0  0  0  0
    1.7749   -2.2660   14.7009 N   0  0  0  0  0  0  0  0  0  0  0  0
    3.9947   -0.3231   13.7002 C   0  0  0  0  0  0  0  0  0  0  0  0
    4.2153   -1.3016   14.0976 O   0  0  0  0  0  0  0  0  0  0  0  0
    2.9077    0.7208   13.7794 C   0  0  2  0  0  0  0  0  0  0  0  0
    2.9672    1.4116   14.9632 O   0  0  0  0  0  0  0  0  0  0  0  0
    1.5776   -0.0244   13.7709 C   0  0  0  0  0  0  0  0  0  0  0  0
    1.2708   -0.9153   14.9883 C   0  0  0  0  0  0  0  0  0  0  0  0
  1  2  1  6  0  0  0
  1  3  1  0  0  0  0
  3  4  1  1  0  0  0
  3  5  1  0  0  0  0
  5  6  1  6  0  0  0
  5  7  1  0  0  0  0
  7  8  1  6  0  0  0
  9  7  1  0  0  0  0
  9 10  1  0  0  0  0
  9 11  1  1  0  0  0
 10  1  1  0  0  0  0
 11 12  1  0  0  0  0
 13 14  1  1  0  0  0
 13 15  1  0  0  0  0
 13 22  1  0  0  0  0
 14 32  1  0  0  0  0
 15 16  1  6  0  0  0
 15 17  1  0  0  0  0
 16 23  1  0  0  0  0
 17 18  1  6  0  0  0
 17 19  1  0  0  0  0
 19  2  1  6  0  0  0
 19 20  1  0  0  0  0
 20 21  1  1  0  0  0
 20 22  1  0  0  0  0
 23 24  1  0  0  0  0
 24 25  1  0  0  0  0
 25 26  1  0  0  0  0
 26 27  1  0  0  0  0
 27 28  1  0  0  0  0
 28 29  1  0  0  0  0
 29 30  1  0  0  0  0
 31 37  1  0  0  0  0
 32 33  2  0  0  0  0
 34 32  1  1  0  0  0
 34 35  1  0  0  0  0
 34 36  1  0  0  0  0
 36 37  1  0  0  0  0
M  END
>  <CHROM.1>
170.24348816,69.05106303,143.33773452,65.53850823,70.46524345,-73.06555727
150.08251881,-12.31684167,-44.71516002,156.71114724,-80.37607166,66.87189068
-104.34529491,66.05574364,-90.76877999,6.25580784,-0.72332924,10.24037767
-0.24122730,-0.06779956,1.34263728

>  <Name>
1o9m_lig

>  <RI>
0

>  <Rbt.Current_Directory>
/home/itssahil/PROJECTS/Mol_Feturizer/New_Systems/rnas/1o9m

>  <Rbt.Executable>
rbdock ($Id: //depot/dev/client3/rdock/2013.1/src/exe/rbdock.cxx#4 $)

>  <Rbt.Library>
libRbt.so (2013.1, Build901 2013/11/27)

>  <Rbt.Parameter_File>
/export/apps/rDock/src/rDock_2013.1_src/data/scripts/dock_solv.prm

>  <Rbt.Receptor>
prm/blind_docking_100.prm

>  <SCORE>
-6.73457

>  <SCORE.INTER>
-7.53464

>  <SCORE.INTER.CONST>
1

>  <SCORE.INTER.POLAR>
-0.894427

>  <SCORE.INTER.ROT>
15

>  <SCORE.INTER.SOLV>
21.3327

>  <SCORE.INTER.VDW>
-22.7526

>  <SCORE.INTER.norm>
-0.203639

>  <SCORE.INTRA>
0.800067

>  <SCORE.INTRA.DIHEDRAL>
-5.914

>  <SCORE.INTRA.DIHEDRAL.0>
21.5987

>  <SCORE.INTRA.POLAR>
0

>  <SCORE.INTRA.POLAR.0>
0

>  <SCORE.INTRA.REPUL>
0

>  <SCORE.INTRA.REPUL.0>
0

>  <SCORE.INTRA.SOLV>
6.03315

>  <SCORE.INTRA.SOLV.lig_0>
-108.715

>  <SCORE.INTRA.VDW>
0.74049

>  <SCORE.INTRA.VDW.0>
-3.9485

>  <SCORE.INTRA.norm>
0.0216234

>  <SCORE.RESTR>
0

>  <SCORE.RESTR.CAVITY>
0

>  <SCORE.RESTR.norm>
0

>  <SCORE.SYSTEM>
0

>  <SCORE.SYSTEM.CONST>
0

>  <SCORE.SYSTEM.DIHEDRAL>
0

>  <SCORE.SYSTEM.SOLV>
0

>  <SCORE.SYSTEM.norm>
0

>  <SCORE.heavy>
37

>  <SCORE.norm>
-0.182015

>  <RMSD>
23.223

$$$$
1o9m_lig
 OpenBabel11021811403D
libRbt.so/2013.1/901 2013/11/27
 37 38  0  0  0  0  0  0  0  0999 V2000
   11.0567   -1.4323    9.8558 C   0  0  2  0  0  0  0  0  0  0  0  0
   10.6614   -0.0886    9.4428 O   0  0  0  0  0  0  0  0  0  0  0  0
   12.3745   -1.7699    9.0659 C   0  0  2  0  0  0  0  0  0  0  0  0
   13.4517   -0.8030    9.3411 N   0  0  0  0  0  0  0  0  0  0  0  0
   12.0516   -1.8217    7.5242 C   0  0  1  0  0  0  0  0  0  0  0  0
   13.2356   -2.1294    6.7833 O   0  0  0  0  0  0  0  0  0  0  0  0
   10.9215   -2.8800    7.2997 C   0  0  2  0  0  0  0  0  0  0  0  0
   10.5340   -2.9979    5.9210 O   0  0  0  0  0  0  0  0  0  0  0  0
    9.6703   -2.5299    8.1426 C   0  0  2  0  0  0  0  0  0  0  0  0
   10.0078   -2.4057    9.5319 O   0  0  0  0  0  0  0  0  0  0  0  0
    8.5864   -3.5651    7.9875 C   0  0  0  0  0  0  0  0  0  0  0  0
    7.9728   -3.4322    6.7647 N   0  0  0  0  0  0  0  0  0  0  0  0
    6.8486    0.4435   11.4428 C   0  0  1  0  0  0  0  0  0  0  0  0
    5.6144    1.1049   11.9516 N   0  0  0  0  0  0  0  0  0  0  0  0
    6.8763    0.5557    9.9245 C   0  0  2  0  0  0  0  0  0  0  0  0
    5.7090   -0.0296    9.4295 O   0  0  0  0  0  0  0  0  0  0  0  0
    8.1468   -0.1419    9.3440 C   0  0  1  0  0  0  0  0  0  0  0  0
    8.1731   -0.0088    7.8900 O   0  0  0  0  0  0  0  0  0  0  0  0
    9.4452    0.5395    9.9402 C   0  0  1  0  0  0  0  0  0  0  0  0
    9.4383    0.4172   11.4564 C   0  0  1  0  0  0  0  0  0  0  0  0
   10.6460    1.0357   11.9821 N   0  0  0  0  0  0  0  0  0  0  0  0
    8.1654    1.0935   12.0322 C   0  0  0  0  0  0  0  0  0  0  0  0
    4.2978   -0.2301    9.1952 C   0  0  0  0  0  0  0  0  0  0  0  0
    3.7419    0.9647    8.4550 C   0  0  0  0  0  0  0  0  0  0  0  0
    2.5246    0.6764    7.6688 N   0  0  0  0  0  0  0  0  0  0  0  0
    1.6103    0.1545    6.6276 C   0  0  0  0  0  0  0  0  0  0  0  0
    2.4056   -1.1101    6.2796 C   0  0  0  0  0  0  0  0  0  0  0  0
    1.5928   -2.0941    5.4175 C   0  0  0  0  0  0  0  0  0  0  0  0
    0.6881   -2.9651    6.2837 C   0  0  0  0  0  0  0  0  0  0  0  0
   -0.3373   -2.1473    6.9160 N   0  0  0  0  0  0  0  0  0  0  0  0
    1.9469    2.7955   11.5516 N   0  0  0  0  0  0  0  0  0  0  0  0
    5.0766    0.3872   13.4821 C   0  0  0  0  0  0  0  0  0  0  0  0
    5.4401   -0.3999   14.1244 O   0  0  0  0  0  0  0  0  0  0  0  0
    3.9264    1.3618   13.4125 C   0  0  2  0  0  0  0  0  0  0  0  0
    3.3257    1.5102   14.6368 O   0  0  0  0  0  0  0  0  0  0  0  0
    2.8846    0.7503   12.4822 C   0  0  0  0  0  0  0  0  0  0  0  0
    1.5923    1.5563   12.2584 C   0  0  0  0  0  0  0  0  0  0  0  0
  1  2  1  6  0  0  0
  1  3  1  0  0  0  0
  3  4  1  6  0  0  0
  3  5  1  0  0  0  0
  5  6  1  6  0  0  0
  5  7  1  0  0  0  0
  7  8  1  6  0  0  0
  9  7  1  0  0  0  0
  9 10  1  0  0  0  0
  9 11  1  1  0  0  0
 10  1  1  0  0  0  0
 11 12  1  0  0  0  0
 13 14  1  1  0  0  0
 13 15  1  0  0  0  0
 13 22  1  0  0  0  0
 14 32  1  0  0  0  0
 15 16  1  6  0  0  0
 15 17  1  0  0  0  0
 16 23  1  0  0  0  0
 17 18  1  6  0  0  0
 17 19  1  0  0  0  0
 19  2  1  6  0  0  0
 19 20  1  0  0  0  0
 20 21  1  1  0  0  0
 20 22  1  0  0  0  0
 23 24  1  0  0  0  0
 24 25  1  0  0  0  0
 25 26  1  0  0  0  0
 26 27  1  0  0  0  0
 27 28  1  0  0  0  0
 28 29  1  0  0  0  0
 29 30  1  0  0  0  0
 31 37  1  0  0  0  0
 32 33  2  0  0  0  0
 34 32  1  1  0  0  0
 34 35  1  0  0  0  0
 34 36  1  0  0  0  0
 36 37  1  0  0  0  0
M  END
>  <CHROM.1>
177.73152041,-74.71828434,151.96590383,63.62633936,62.65200380,-70.57364555
155.43303795,-69.79862924,27.81725994,167.47384708,-83.18847869,66.18048951
-162.03506109,179.27616712,65.68944117,6.76985357,-0.54032560,9.49493651
-0.21967090,-0.10773645,1.09398677

>  <Name>
1o9m_lig

>  <RI>
0

>  <Rbt.Current_Directory>
/home/itssahil/PROJECTS/Mol_Feturizer/New_Systems/rnas/1o9m

>  <Rbt.Executable>
rbdock ($Id: //depot/dev/client3/rdock/2013.1/src/exe/rbdock.cxx#4 $)

>  <Rbt.Library>
libRbt.so (2013.1, Build901 2013/11/27)

>  <Rbt.Parameter_File>
/export/apps/rDock/src/rDock_2013.1_src/data/scripts/dock_solv.prm

>  <Rbt.Receptor>
prm/blind_docking_60.prm

>  <SCORE>
-16.0743

>  <SCORE.INTER>
-12.0982

>  <SCORE.INTER.CONST>
1

>  <SCORE.INTER.POLAR>
-2.46824

>  <SCORE.INTER.ROT>
15

>  <SCORE.INTER.SOLV>
19.1682

>  <SCORE.INTER.VDW>
-19.8274

>  <SCORE.INTER.norm>
-0.326977

>  <SCORE.INTRA>
-4.07319

>  <SCORE.INTRA.DIHEDRAL>
-12.786

>  <SCORE.INTRA.DIHEDRAL.0>
21.5987

>  <SCORE.INTRA.POLAR>
0

>  <SCORE.INTRA.POLAR.0>
0

>  <SCORE.INTRA.REPUL>
0

>  <SCORE.INTRA.REPUL.0>
0

>  <SCORE.INTRA.SOLV>
4.94123

>  <SCORE.INTRA.SOLV.lig_0>
-108.715

>  <SCORE.INTRA.VDW>
-0.150807

>  <SCORE.INTRA.VDW.0>
-3.9485

>  <SCORE.INTRA.norm>
-0.110086

>  <SCORE.RESTR>
0.0969977

>  <SCORE.RESTR.CAVITY>
0.0969977

>  <SCORE.RESTR.norm>
0.00262156

>  <SCORE.SYSTEM>
0

>  <SCORE.SYSTEM.CONST>
0

>  <SCORE.SYSTEM.DIHEDRAL>
0

>  <SCORE.SYSTEM.SOLV>
0

>  <SCORE.SYSTEM.norm>
0

>  <SCORE.heavy>
37

>  <SCORE.norm>
-0.434442

>  <RMSD>
23.246

$$$$
1o9m_lig
 OpenBabel11021811403D
libRbt.so/2013.1/901 2013/11/27
 37 38  0  0  0  0  0  0  0  0999 V2000
   10.5811   -1.4655   10.5974 C   0  0  2  0  0  0  0  0  0  0  0  0
    9.2979   -1.2946    9.9217 O   0  0  0  0  0  0  0  0  0  0  0  0
   11.6472   -0.7063    9.7247 C   0  0  2  0  0  0  0  0  0  0  0  0
   11.3256    0.7235    9.5725 N   0  0  0  0  0  0  0  0  0  0  0  0
   11.7536   -1.4073    8.3172 C   0  0  1  0  0  0  0  0  0  0  0  0
   12.7197   -0.7353    7.5044 O   0  0  0  0  0  0  0  0  0  0  0  0
   12.1188   -2.9107    8.5494 C   0  0  2  0  0  0  0  0  0  0  0  0
   12.2254   -3.6542    7.3244 O   0  0  0  0  0  0  0  0  0  0  0  0
   11.0680   -3.5936    9.4592 C   0  0  2  0  0  0  0  0  0  0  0  0
   10.9294   -2.8870   10.7005 O   0  0  0  0  0  0  0  0  0  0  0  0
   11.4268   -5.0291    9.7445 C   0  0  0  0  0  0  0  0  0  0  0  0
   12.5732   -5.0919   10.5001 N   0  0  0  0  0  0  0  0  0  0  0  0
    5.6724    0.6368   11.3164 C   0  0  1  0  0  0  0  0  0  0  0  0
    4.7268    1.7141   11.7225 N   0  0  0  0  0  0  0  0  0  0  0  0
    6.0896    0.8682    9.8704 C   0  0  2  0  0  0  0  0  0  0  0  0
    4.9329    0.8920    9.0883 O   0  0  0  0  0  0  0  0  0  0  0  0
    7.0692   -0.2504    9.3942 C   0  0  1  0  0  0  0  0  0  0  0  0
    7.4789   -0.0057    8.0141 O   0  0  0  0  0  0  0  0  0  0  0  0
    8.3577   -0.2539   10.3137 C   0  0  1  0  0  0  0  0  0  0  0  0
    7.9553   -0.5032   11.7593 C   0  0  1  0  0  0  0  0  0  0  0  0
    9.1542   -0.5173   12.5839 N   0  0  0  0  0  0  0  0  0  0  0  0
    6.9660    0.5979   12.2266 C   0  0  0  0  0  0  0  0  0  0  0  0
    3.6726    0.4545    8.5344 C   0  0  0  0  0  0  0  0  0  0  0  0
    3.8519   -0.9085    7.9061 C   0  0  0  0  0  0  0  0  0  0  0  0
    2.6303   -1.4490    7.2749 N   0  0  0  0  0  0  0  0  0  0  0  0
    1.7204   -2.2306    6.4068 C   0  0  0  0  0  0  0  0  0  0  0  0
    0.4107   -1.8810    7.1249 C   0  0  0  0  0  0  0  0  0  0  0  0
    0.1567   -2.7796    8.3497 C   0  0  0  0  0  0  0  0  0  0  0  0
   -0.2507   -4.1866    7.9233 C   0  0  0  0  0  0  0  0  0  0  0  0
   -0.8453   -4.8971    9.0466 N   0  0  0  0  0  0  0  0  0  0  0  0
    0.9670    4.4495   13.0733 N   0  0  0  0  0  0  0  0  0  0  0  0
    4.1413    1.4739   13.3797 C   0  0  0  0  0  0  0  0  0  0  0  0
    4.3196    0.7426   14.1527 O   0  0  0  0  0  0  0  0  0  0  0  0
    3.3152    2.7167   13.1548 C   0  0  2  0  0  0  0  0  0  0  0  0
    3.1156    3.3998   14.3276 O   0  0  0  0  0  0  0  0  0  0  0  0
    1.9435    2.2549   12.6754 C   0  0  0  0  0  0  0  0  0  0  0  0
    1.0017    3.3357   12.1145 C   0  0  0  0  0  0  0  0  0  0  0  0
  1  2  1  6  0  0  0
  1  3  1  0  0  0  0
  3  4  1  6  0  0  0
  3  5  1  0  0  0  0
  5  6  1  6  0  0  0
  5  7  1  0  0  0  0
  7  8  1  6  0  0  0
  9  7  1  0  0  0  0
  9 10  1  0  0  0  0
  9 11  1  1  0  0  0
 10  1  1  0  0  0  0
 11 12  1  0  0  0  0
 13 14  1  1  0  0  0
 13 15  1  0  0  0  0
 13 22  1  0  0  0  0
 14 32  1  0  0  0  0
 15 16  1  6  0  0  0
 15 17  1  0  0  0  0
 16 23  1  0  0  0  0
 17 18  1  6  0  0  0
 17 19  1  0  0  0  0
 19  2  1  6  0  0  0
 19 20  1  0  0  0  0
 20 21  1  1  0  0  0
 20 22  1  0  0  0  0
 23 24  1  0  0  0  0
 24 25  1  0  0  0  0
 25 26  1  0  0  0  0
 26 27  1  0  0  0  0
 27 28  1  0  0  0  0
 28 29  1  0  0  0  0
 29 30  1  0  0  0  0
 31 37  1  0  0  0  0
 32 33  2  0  0  0  0
 34 32  1  1  0  0  0
 34 35  1  0  0  0  0
 34 36  1  0  0  0  0
 36 37  1  0  0  0  0
M  END
>  <CHROM.1>
-96.57411447,66.25935390,177.61803590,-52.92508185,-56.69507041,178.02419376
-178.65241277,156.62623485,169.06232595,-83.34431724,-73.17574578,-163.90918966
-149.93212110,-168.44148725,-49.31349204,6.39681709,-0.66128638,10.08413476
-0.28723375,-0.08965035,0.74252578

>  <Name>
1o9m_lig

>  <RI>
0

>  <Rbt.Current_Directory>
/home/itssahil/PROJECTS/Mol_Feturizer/New_Systems/rnas/1o9m

>  <Rbt.Executable>
rbdock ($Id: //depot/dev/client3/rdock/2013.1/src/exe/rbdock.cxx#4 $)

>  <Rbt.Library>
libRbt.so (2013.1, Build901 2013/11/27)

>  <Rbt.Parameter_File>
/export/apps/rDock/src/rDock_2013.1_src/data/scripts/dock_solv.prm

>  <Rbt.Receptor>
prm/blind_docking_20.prm

>  <SCORE>
-3.36724

>  <SCORE.INTER>
-2.2518

>  <SCORE.INTER.CONST>
1

>  <SCORE.INTER.POLAR>
-0.55137

>  <SCORE.INTER.ROT>
15

>  <SCORE.INTER.SOLV>
19.5789

>  <SCORE.INTER.VDW>
-19.7896

>  <SCORE.INTER.norm>
-0.0608596

>  <SCORE.INTRA>
-1.11543

>  <SCORE.INTRA.DIHEDRAL>
-9.67074

>  <SCORE.INTRA.DIHEDRAL.0>
21.5987

>  <SCORE.INTRA.POLAR>
0

>  <SCORE.INTRA.POLAR.0>
0

>  <SCORE.INTRA.REPUL>
0

>  <SCORE.INTRA.REPUL.0>
0

>  <SCORE.INTRA.SOLV>
4.59889

>  <SCORE.INTRA.SOLV.lig_0>
-108.715

>  <SCORE.INTRA.VDW>
1.42049

>  <SCORE.INTRA.VDW.0>
-3.9485

>  <SCORE.INTRA.norm>
-0.0301468

>  <SCORE.RESTR>
0

>  <SCORE.RESTR.CAVITY>
0

>  <SCORE.RESTR.norm>
0

>  <SCORE.SYSTEM>
0

>  <SCORE.SYSTEM.CONST>
0

>  <SCORE.SYSTEM.DIHEDRAL>
0

>  <SCORE.SYSTEM.SOLV>
0

>  <SCORE.SYSTEM.norm>
0

>  <SCORE.heavy>
37

>  <SCORE.norm>
-0.0910064

>  <RMSD>
23.254

$$$$
1o9m_lig
 OpenBabel11021811403D
libRbt.so/2013.1/901 2013/11/27
 37 38  0  0  0  0  0  0  0  0999 V2000
    8.3500   -1.4072    7.6779 C   0  0  2  0  0  0  0  0  0  0  0  0
    7.6367   -2.4253    8.4442 O   0  0  0  0  0  0  0  0  0  0  0  0
    9.1287   -2.1697    6.5435 C   0  0  2  0  0  0  0  0  0  0  0  0
    8.2263   -2.9408    5.6705 N   0  0  0  0  0  0  0  0  0  0  0  0
   10.2069   -3.1113    7.2027 C   0  0  1  0  0  0  0  0  0  0  0  0
   10.9307   -3.8155    6.1899 O   0  0  0  0  0  0  0  0  0  0  0  0
   11.1426   -2.2294    8.0938 C   0  0  2  0  0  0  0  0  0  0  0  0
   12.1599   -2.9940    8.7611 O   0  0  0  0  0  0  0  0  0  0  0  0
   10.3188   -1.4593    9.1553 C   0  0  2  0  0  0  0  0  0  0  0  0
    9.2899   -0.6751    8.5343 O   0  0  0  0  0  0  0  0  0  0  0  0
   11.1907   -0.5584    9.9913 C   0  0  0  0  0  0  0  0  0  0  0  0
   10.4596   -0.0051   11.0153 N   0  0  0  0  0  0  0  0  0  0  0  0
    4.2035   -1.9272   11.0490 C   0  0  1  0  0  0  0  0  0  0  0  0
    3.3980   -1.5811   12.2536 N   0  0  0  0  0  0  0  0  0  0  0  0
    4.9033   -0.6712   10.5479 C   0  0  2  0  0  0  0  0  0  0  0  0
    3.9245    0.2890   10.2831 O   0  0  0  0  0  0  0  0  0  0  0  0
    5.7471   -0.9829    9.2717 C   0  0  1  0  0  0  0  0  0  0  0  0
    6.4302    0.2237    8.8137 O   0  0  0  0  0  0  0  0  0  0  0  0
    6.8328   -2.0843    9.6096 C   0  0  1  0  0  0  0  0  0  0  0  0
    6.1443   -3.3513   10.0937 C   0  0  1  0  0  0  0  0  0  0  0  0
    7.1581   -4.3541   10.3840 N   0  0  0  0  0  0  0  0  0  0  0  0
    5.2897   -3.0374   11.3509 C   0  0  0  0  0  0  0  0  0  0  0  0
    2.8715    1.2444   10.5379 C   0  0  0  0  0  0  0  0  0  0  0  0
    2.3687    1.7931    9.2224 C   0  0  0  0  0  0  0  0  0  0  0  0
    1.7211    0.7872    8.3554 N   0  0  0  0  0  0  0  0  0  0  0  0
    0.7110    0.0555    7.5575 C   0  0  0  0  0  0  0  0  0  0  0  0
    1.5695   -1.1719    7.2263 C   0  0  0  0  0  0  0  0  0  0  0  0
    2.6327   -0.8703    6.1536 C   0  0  0  0  0  0  0  0  0  0  0  0
    3.4745   -2.1064    5.8520 C   0  0  0  0  0  0  0  0  0  0  0  0
    2.6512   -3.1316    5.2264 N   0  0  0  0  0  0  0  0  0  0  0  0
    0.4172    0.0951   15.0471 N   0  0  0  0  0  0  0  0  0  0  0  0
    4.4307   -1.3163   13.6714 C   0  0  0  0  0  0  0  0  0  0  0  0
    5.4936   -1.3377   13.8551 O   0  0  0  0  0  0  0  0  0  0  0  0
    3.1472   -1.0828   14.4303 C   0  0  2  0  0  0  0  0  0  0  0  0
    2.2119   -2.0409   14.1318 O   0  0  0  0  0  0  0  0  0  0  0  0
    2.5835    0.2486   13.9462 C   0  0  0  0  0  0  0  0  0  0  0  0
    1.5905    0.9648   14.8793 C   0  0  0  0  0  0  0  0  0  0  0  0
  1  2  1  1  0  0  0
  1  3  1  0  0  0  0
  3  4  1  1  0  0  0
  3  5  1  0  0  0  0
  5  6  1  6  0  0  0
  5  7  1  0  0  0  0
  7  8  1  1  0  0  0
  9  7  1  0  0  0  0
  9 10  1  0  0  0  0
  9 11  1  6  0  0  0
 10  1  1  0  0  0  0
 11 12  1  0  0  0  0
 13 14  1  1  0  0  0
 13 15  1  0  0  0  0
 13 22  1  0  0  0  0
 14 32  1  0  0  0  0
 15 16  1  6  0  0  0
 15 17  1  0  0  0  0
 16 23  1  0  0  0  0
 17 18  1  1  0  0  0
 17 19  1  0  0  0  0
 19  2  1  6  0  0  0
 19 20  1  0  0  0  0
 20 21  1  1  0  0  0
 20 22  1  0  0  0  0
 23 24  1  0  0  0  0
 24 25  1  0  0  0  0
 25 26  1  0  0  0  0
 26 27  1  0  0  0  0
 27 28  1  0  0  0  0
 28 29  1  0  0  0  0
 29 30  1  0  0  0  0
 31 37  1  0  0  0  0
 32 33  2  0  0  0  0
 34 32  1  6  0  0  0
 34 35  1  0  0  0  0
 34 36  1  0  0  0  0
 36 37  1  0  0  0  0
M  END
>  <CHROM.1>
178.17412574,-173.30383126,-73.78435745,67.05867746,-176.67590582,54.62428928
64.64218374,116.94407102,-173.44214475,-74.71652781,179.67694152,66.27622349
45.67515404,-158.51211837,-62.06617876,5.71992329,-1.32480328,9.75310812
0.51921597,0.19947625,-1.68063902

>  <Name>
1o9m_lig

>  <RI>
0

>  <Rbt.Current_Directory>
/home/itssahil/PROJECTS/Mol_Feturizer/New_Systems/rnas/1o9m

>  <Rbt.Executable>
rbdock ($Id: //depot/dev/client3/rdock/2013.1/src/exe/rbdock.cxx#4 $)

>  <Rbt.Library>
libRbt.so (2013.1, Build901 2013/11/27)

>  <Rbt.Parameter_File>
/export/apps/rDock/src/rDock_2013.1_src/data/scripts/dock_solv.prm

>  <Rbt.Receptor>
prm/blind_docking_40.prm

>  <SCORE>
-12.4513

>  <SCORE.INTER>
-8.65163

>  <SCORE.INTER.CONST>
1

>  <SCORE.INTER.POLAR>
-1.0198

>  <SCORE.INTER.ROT>
15

>  <SCORE.INTER.SOLV>
10.8334

>  <SCORE.INTER.VDW>
-19.5795

>  <SCORE.INTER.norm>
-0.233828

>  <SCORE.INTRA>
-3.79963

>  <SCORE.INTRA.DIHEDRAL>
-16.1865

>  <SCORE.INTRA.DIHEDRAL.0>
21.5987

>  <SCORE.INTRA.POLAR>
0

>  <SCORE.INTRA.POLAR.0>
0

>  <SCORE.INTRA.REPUL>
0.0174622

>  <SCORE.INTRA.REPUL.0>
0

>  <SCORE.INTRA.SOLV>
2.12713

>  <SCORE.INTRA.SOLV.lig_0>
-108.715

>  <SCORE.INTRA.VDW>
3.14273

>  <SCORE.INTRA.VDW.0>
-3.9485

>  <SCORE.INTRA.norm>
-0.102693

>  <SCORE.RESTR>
0

>  <SCORE.RESTR.CAVITY>
0

>  <SCORE.RESTR.norm>
0

>  <SCORE.SYSTEM>
0

>  <SCORE.SYSTEM.CONST>
0

>  <SCORE.SYSTEM.DIHEDRAL>
0

>  <SCORE.SYSTEM.SOLV>
0

>  <SCORE.SYSTEM.norm>
0

>  <SCORE.heavy>
37

>  <SCORE.norm>
-0.33652

>  <RMSD>
23.255

$$$$
1o9m_lig
 OpenBabel11021811403D
libRbt.so/2013.1/901 2013/11/27
 37 38  0  0  0  0  0  0  0  0999 V2000
    1.5444    1.5102   11.4762 C   0  0  2  0  0  0  0  0  0  0  0  0
    2.7376    2.0731   10.8503 O   0  0  0  0  0  0  0  0  0  0  0  0
    0.8797    2.6774   12.2948 C   0  0  2  0  0  0  0  0  0  0  0  0
    0.5271    3.8255   11.4413 N   0  0  0  0  0  0  0  0  0  0  0  0
    1.8585    3.1194   13.4483 C   0  0  1  0  0  0  0  0  0  0  0  0
    1.2749    4.1804   14.2095 O   0  0  0  0  0  0  0  0  0  0  0  0
    2.1723    1.8638   14.3272 C   0  0  2  0  0  0  0  0  0  0  0  0
    3.0761    2.1508   15.4069 O   0  0  0  0  0  0  0  0  0  0  0  0
    2.7716    0.7277   13.4620 C   0  0  2  0  0  0  0  0  0  0  0  0
    1.8995    0.4021   12.3698 O   0  0  0  0  0  0  0  0  0  0  0  0
    3.0310   -0.5142   14.2751 C   0  0  0  0  0  0  0  0  0  0  0  0
    4.3288   -0.5241   14.7277 N   0  0  0  0  0  0  0  0  0  0  0  0
    4.3488   -1.3105    8.6650 C   0  0  1  0  0  0  0  0  0  0  0  0
    5.2195   -2.1003    7.7498 N   0  0  0  0  0  0  0  0  0  0  0  0
    5.2142   -0.6905    9.7537 C   0  0  2  0  0  0  0  0  0  0  0  0
    5.8860   -1.7246   10.4091 O   0  0  0  0  0  0  0  0  0  0  0  0
    4.3392    0.1339   10.7499 C   0  0  1  0  0  0  0  0  0  0  0  0
    5.1825    0.7409   11.7759 O   0  0  0  0  0  0  0  0  0  0  0  0
    3.5845    1.2840    9.9666 C   0  0  1  0  0  0  0  0  0  0  0  0
    2.7015    0.6754    8.8878 C   0  0  1  0  0  0  0  0  0  0  0  0
    2.0065    1.7474    8.1909 N   0  0  0  0  0  0  0  0  0  0  0  0
    3.5687   -0.1603    7.9086 C   0  0  0  0  0  0  0  0  0  0  0  0
    6.8041   -2.3707   11.3181 C   0  0  0  0  0  0  0  0  0  0  0  0
    8.2216   -2.0365   10.9141 C   0  0  0  0  0  0  0  0  0  0  0  0
    9.2355   -2.9805   11.4277 N   0  0  0  0  0  0  0  0  0  0  0  0
   10.0463   -3.8188   12.3400 C   0  0  0  0  0  0  0  0  0  0  0  0
   11.3710   -3.0618   12.1818 C   0  0  0  0  0  0  0  0  0  0  0  0
   11.3536   -1.6965   12.8944 C   0  0  0  0  0  0  0  0  0  0  0  0
   12.6729   -0.9566   12.6959 C   0  0  0  0  0  0  0  0  0  0  0  0
   12.9611   -0.8206   11.2751 N   0  0  0  0  0  0  0  0  0  0  0  0
    9.6448   -1.4416    7.8008 N   0  0  0  0  0  0  0  0  0  0  0  0
    6.7196   -1.2327    7.3706 C   0  0  0  0  0  0  0  0  0  0  0  0
    7.1437   -0.2826    7.6559 O   0  0  0  0  0  0  0  0  0  0  0  0
    7.0571   -2.4149    6.4953 C   0  0  2  0  0  0  0  0  0  0  0  0
    7.2496   -3.5485    7.2435 O   0  0  0  0  0  0  0  0  0  0  0  0
    8.3884   -2.1005    5.8219 C   0  0  0  0  0  0  0  0  0  0  0  0
    9.6630   -2.3530    6.6475 C   0  0  0  0  0  0  0  0  0  0  0  0
  1  2  1  1  0  0  0
  1  3  1  0  0  0  0
  3  4  1  6  0  0  0
  3  5  1  0  0  0  0
  5  6  1  1  0  0  0
  5  7  1  0  0  0  0
  7  8  1  1  0  0  0
  9  7  1  0  0  0  0
  9 10  1  0  0  0  0
  9 11  1  1  0  0  0
 10  1  1  0  0  0  0
 11 12  1  0  0  0  0
 13 14  1  6  0  0  0
 13 15  1  0  0  0  0
 13 22  1  0  0  0  0
 14 32  1  0  0  0  0
 15 16  1  1  0  0  0
 15 17  1  0  0  0  0
 16 23  1  0  0  0  0
 17 18  1  1  0  0  0
 17 19  1  0  0  0  0
 19  2  1  1  0  0  0
 19 20  1  0  0  0  0
 20 21  1  6  0  0  0
 20 22  1  0  0  0  0
 23 24  1  0  0  0  0
 24 25  1  0  0  0  0
 25 26  1  0  0  0  0
 26 27  1  0  0  0  0
 27 28  1  0  0  0  0
 28 29  1  0  0  0  0
 29 30  1  0  0  0  0
 31 37  1  0  0  0  0
 32 33  2  0  0  0  0
 34 32  1  1  0  0  0
 34 35  1  0  0  0  0
 34 36  1  0  0  0  0
 36 37  1  0  0  0  0
M  END
>  <CHROM.1>
-177.69404754,-93.85856508,-42.89490962,174.10004633,-64.92207528,-67.84981893
-159.30877597,-53.67903548,-112.75732477,72.72342369,-178.86611150,55.64461807
-66.09769069,81.34200932,-64.20317933,5.59105854,-0.29129937,10.73999299
2.72154812,-0.42407800,1.34190189

>  <Name>
1o9m_lig

>  <RI>
0

>  <Rbt.Current_Directory>
/home/itssahil/PROJECTS/Mol_Feturizer/New_Systems/rnas/1o9m

>  <Rbt.Executable>
rbdock ($Id: //depot/dev/client3/rdock/2013.1/src/exe/rbdock.cxx#4 $)

>  <Rbt.Library>
libRbt.so (2013.1, Build901 2013/11/27)

>  <Rbt.Parameter_File>
/export/apps/rDock/src/rDock_2013.1_src/data/scripts/dock_solv.prm

>  <Rbt.Receptor>
prm/blind_docking_100.prm

>  <SCORE>
-2.59567

>  <SCORE.INTER>
-2.08346

>  <SCORE.INTER.CONST>
1

>  <SCORE.INTER.POLAR>
-2.87987

>  <SCORE.INTER.ROT>
15

>  <SCORE.INTER.SOLV>
21.039

>  <SCORE.INTER.VDW>
-12.4024

>  <SCORE.INTER.norm>
-0.0563099

>  <SCORE.INTRA>
-1.468

>  <SCORE.INTRA.DIHEDRAL>
-11.9783

>  <SCORE.INTRA.DIHEDRAL.0>
21.5987

>  <SCORE.INTRA.POLAR>
0

>  <SCORE.INTRA.POLAR.0>
0

>  <SCORE.INTRA.REPUL>
0

>  <SCORE.INTRA.REPUL.0>
0

>  <SCORE.INTRA.SOLV>
8.38491

>  <SCORE.INTRA.SOLV.lig_0>
-108.715

>  <SCORE.INTRA.VDW>
0.328688

>  <SCORE.INTRA.VDW.0>
-3.9485

>  <SCORE.INTRA.norm>
-0.0396758

>  <SCORE.RESTR>
0.955803

>  <SCORE.RESTR.CAVITY>
0.955803

>  <SCORE.RESTR.norm>
0.0258325

>  <SCORE.SYSTEM>
0

>  <SCORE.SYSTEM.CONST>
0

>  <SCORE.SYSTEM.DIHEDRAL>
0

>  <SCORE.SYSTEM.SOLV>
0

>  <SCORE.SYSTEM.norm>
0

>  <SCORE.heavy>
37

>  <SCORE.norm>
-0.0701531

>  <RMSD>
23.264

$$$$
1o9m_lig
 OpenBabel11021811403D
libRbt.so/2013.1/901 2013/11/27
 37 38  0  0  0  0  0  0  0  0999 V2000
    9.6995   -1.6401    9.7763 C   0  0  2  0  0  0  0  0  0  0  0  0
    9.0983   -0.3176    9.6289 O   0  0  0  0  0  0  0  0  0  0  0  0
   11.1912   -1.5060    9.2954 C   0  0  2  0  0  0  0  0  0  0  0  0
   11.9395   -0.5044   10.0750 N   0  0  0  0  0  0  0  0  0  0  0  0
   11.2069   -1.1446    7.7614 C   0  0  1  0  0  0  0  0  0  0  0  0
   12.5544   -1.0187    7.2990 O   0  0  0  0  0  0  0  0  0  0  0  0
   10.4188   -2.2558    6.9923 C   0  0  2  0  0  0  0  0  0  0  0  0
   10.3552   -2.0160    5.5769 O   0  0  0  0  0  0  0  0  0  0  0  0
    8.9770   -2.3833    7.5431 C   0  0  2  0  0  0  0  0  0  0  0  0
    8.9893   -2.6285    8.9570 O   0  0  0  0  0  0  0  0  0  0  0  0
    8.2137   -3.4862    6.8564 C   0  0  0  0  0  0  0  0  0  0  0  0
    7.9243   -3.1294    5.5609 N   0  0  0  0  0  0  0  0  0  0  0  0
    5.2782   -0.7879   11.6303 C   0  0  1  0  0  0  0  0  0  0  0  0
    3.9226   -0.4616   12.1551 N   0  0  0  0  0  0  0  0  0  0  0  0
    5.2718   -0.6247   10.1165 C   0  0  2  0  0  0  0  0  0  0  0  0
    4.2791   -1.4594    9.5988 O   0  0  0  0  0  0  0  0  0  0  0  0
    6.6711   -0.9752    9.5190 C   0  0  1  0  0  0  0  0  0  0  0  0
    6.6586   -0.7940    8.0700 O   0  0  0  0  0  0  0  0  0  0  0  0
    7.7682   -0.0187   10.1412 C   0  0  1  0  0  0  0  0  0  0  0  0
    7.7972   -0.1867   11.6528 C   0  0  1  0  0  0  0  0  0  0  0  0
    8.8212    0.6892   12.2023 N   0  0  0  0  0  0  0  0  0  0  0  0
    6.4007    0.1427   12.2448 C   0  0  0  0  0  0  0  0  0  0  0  0
    3.5414   -2.6738    9.3387 C   0  0  0  0  0  0  0  0  0  0  0  0
    2.3760   -2.3623    8.4280 C   0  0  0  0  0  0  0  0  0  0  0  0
    2.7674   -1.9465    7.0654 N   0  0  0  0  0  0  0  0  0  0  0  0
    2.7089   -1.4407    5.6750 C   0  0  0  0  0  0  0  0  0  0  0  0
    1.8413   -2.5630    5.0911 C   0  0  0  0  0  0  0  0  0  0  0  0
    0.4482   -2.6262    5.7447 C   0  0  0  0  0  0  0  0  0  0  0  0
   -0.4512   -3.6263    5.0248 C   0  0  0  0  0  0  0  0  0  0  0  0
   -1.7886   -3.6008    5.6003 N   0  0  0  0  0  0  0  0  0  0  0  0
    1.7565    2.5001   15.2132 N   0  0  0  0  0  0  0  0  0  0  0  0
    3.8854   -0.5014   13.9282 C   0  0  0  0  0  0  0  0  0  0  0  0
    4.6122   -0.6944   14.7018 O   0  0  0  0  0  0  0  0  0  0  0  0
    2.4188   -0.1694   13.7991 C   0  0  2  0  0  0  0  0  0  0  0  0
    1.7959   -1.0074   12.9093 O   0  0  0  0  0  0  0  0  0  0  0  0
    2.3336    1.2359   13.2139 C   0  0  0  0  0  0  0  0  0  0  0  0
    2.7484    2.3992   14.1329 C   0  0  0  0  0  0  0  0  0  0  0  0
  1  2  1  6  0  0  0
  1  3  1  0  0  0  0
  3  4  1  1  0  0  0
  3  5  1  0  0  0  0
  5  6  1  6  0  0  0
  5  7  1  0  0  0  0
  7  8  1  6  0  0  0
  9  7  1  0  0  0  0
  9 10  1  0  0  0  0
  9 11  1  6  0  0  0
 10  1  1  0  0  0  0
 11 12  1  0  0  0  0
 13 14  1  1  0  0  0
 13 15  1  0  0  0  0
 13 22  1  0  0  0  0
 14 32  1  0  0  0  0
 15 16  1  6  0  0  0
 15 17  1  0  0  0  0
 16 23  1  0  0  0  0
 17 18  1  6  0  0  0
 17 19  1  0  0  0  0
 19  2  1  6  0  0  0
 19 20  1  0  0  0  0
 20 21  1  1  0  0  0
 20 22  1  0  0  0  0
 23 24  1  0  0  0  0
 24 25  1  0  0  0  0
 25 26  1  0  0  0  0
 26 27  1  0  0  0  0
 27 28  1  0  0  0  0
 28 29  1  0  0  0  0
 29 30  1  0  0  0  0
 31 37  1  0  0  0  0
 32 33  2  0  0  0  0
 34 32  1  6  0  0  0
 34 35  1  0  0  0  0
 34 36  1  0  0  0  0
 36 37  1  0  0  0  0
M  END
>  <CHROM.1>
-171.90005031,-70.66412801,-175.38345610,-55.38780258,-178.94778177,-58.09381020
66.72252594,-171.46296453,-65.07719226,62.31067724,172.64256613,-176.04552061
49.83639564,-71.00701177,-67.78166888,5.80398780,-1.18500682,9.50585747,-0.25504412
0.04424153,1.16358052

>  <Name>
1o9m_lig

>  <RI>
0

>  <Rbt.Current_Directory>
/home/itssahil/PROJECTS/Mol_Feturizer/New_Systems/rnas/1o9m

>  <Rbt.Executable>
rbdock ($Id: //depot/dev/client3/rdock/2013.1/src/exe/rbdock.cxx#4 $)

>  <Rbt.Library>
libRbt.so (2013.1, Build901 2013/11/27)

>  <Rbt.Parameter_File>
/export/apps/rDock/src/rDock_2013.1_src/data/scripts/dock_solv.prm

>  <Rbt.Receptor>
prm/blind_docking_40.prm

>  <SCORE>
-6.70209

>  <SCORE.INTER>
-3.444

>  <SCORE.INTER.CONST>
1

>  <SCORE.INTER.POLAR>
-1.00972

>  <SCORE.INTER.ROT>
15

>  <SCORE.INTER.SOLV>
13.3336

>  <SCORE.INTER.VDW>
-16.9748

>  <SCORE.INTER.norm>
-0.093081

>  <SCORE.INTRA>
-3.28523

>  <SCORE.INTRA.DIHEDRAL>
-18.6878

>  <SCORE.INTRA.DIHEDRAL.0>
21.5987

>  <SCORE.INTRA.POLAR>
0

>  <SCORE.INTRA.POLAR.0>
0

>  <SCORE.INTRA.REPUL>
0.00303309

>  <SCORE.INTRA.REPUL.0>
0

>  <SCORE.INTRA.SOLV>
3.15231

>  <SCORE.INTRA.SOLV.lig_0>
-108.715

>  <SCORE.INTRA.VDW>
4.46735

>  <SCORE.INTRA.VDW.0>
-3.9485

>  <SCORE.INTRA.norm>
-0.0887899

>  <SCORE.RESTR>
0.02713

>  <SCORE.RESTR.CAVITY>
0.02713

>  <SCORE.RESTR.norm>
0.000733243

>  <SCORE.SYSTEM>
0

>  <SCORE.SYSTEM.CONST>
0

>  <SCORE.SYSTEM.DIHEDRAL>
0

>  <SCORE.SYSTEM.SOLV>
0

>  <SCORE.SYSTEM.norm>
0

>  <SCORE.heavy>
37

>  <SCORE.norm>
-0.181138

>  <RMSD>
23.299

$$$$
1o9m_lig
 OpenBabel11021811403D
libRbt.so/2013.1/901 2013/11/27
 37 38  0  0  0  0  0  0  0  0999 V2000
   10.4456   -1.4077   10.2301 C   0  0  2  0  0  0  0  0  0  0  0  0
    9.7768   -0.1800    9.8086 O   0  0  0  0  0  0  0  0  0  0  0  0
   11.4234   -1.8039    9.0632 C   0  0  2  0  0  0  0  0  0  0  0  0
   12.4086   -0.7458    8.7791 N   0  0  0  0  0  0  0  0  0  0  0  0
   10.5787   -2.1402    7.7758 C   0  0  1  0  0  0  0  0  0  0  0  0
   11.4465   -2.5057    6.6993 O   0  0  0  0  0  0  0  0  0  0  0  0
    9.5730   -3.2821    8.1390 C   0  0  2  0  0  0  0  0  0  0  0  0
    8.7345   -3.6587    7.0345 O   0  0  0  0  0  0  0  0  0  0  0  0
    8.6746   -2.8608    9.3280 C   0  0  2  0  0  0  0  0  0  0  0  0
    9.4698   -2.4790   10.4599 O   0  0  0  0  0  0  0  0  0  0  0  0
    7.7339   -3.9656    9.7344 C   0  0  0  0  0  0  0  0  0  0  0  0
    8.4426   -5.0438   10.2083 N   0  0  0  0  0  0  0  0  0  0  0  0
    6.7012    0.3133   12.8282 C   0  0  1  0  0  0  0  0  0  0  0  0
    5.5937    0.9293   13.6115 N   0  0  0  0  0  0  0  0  0  0  0  0
    6.2574    0.1690   11.3788 C   0  0  2  0  0  0  0  0  0  0  0  0
    5.0926   -0.6011   11.3612 O   0  0  0  0  0  0  0  0  0  0  0  0
    7.3828   -0.4911   10.5214 C   0  0  1  0  0  0  0  0  0  0  0  0
    6.9538   -0.6041    9.1301 O   0  0  0  0  0  0  0  0  0  0  0  0
    8.6877    0.4031   10.5798 C   0  0  1  0  0  0  0  0  0  0  0  0
    9.1520    0.5390   12.0219 C   0  0  1  0  0  0  0  0  0  0  0  0
   10.3593    1.3510   12.0512 N   0  0  0  0  0  0  0  0  0  0  0  0
    8.0259    1.1773   12.8785 C   0  0  0  0  0  0  0  0  0  0  0  0
    3.9646   -1.3246   10.8220 C   0  0  0  0  0  0  0  0  0  0  0  0
    4.4669   -2.4271    9.9182 C   0  0  0  0  0  0  0  0  0  0  0  0
    3.4786   -2.8901    8.9222 N   0  0  0  0  0  0  0  0  0  0  0  0
    2.4372   -2.9000    7.8697 C   0  0  0  0  0  0  0  0  0  0  0  0
    1.2217   -2.7328    8.7904 C   0  0  0  0  0  0  0  0  0  0  0  0
   -0.1084   -2.7597    8.0144 C   0  0  0  0  0  0  0  0  0  0  0  0
   -0.3591   -4.1342    7.4019 C   0  0  0  0  0  0  0  0  0  0  0  0
   -1.4714   -4.0687    6.4644 N   0  0  0  0  0  0  0  0  0  0  0  0
    2.0820    3.0965   11.2681 N   0  0  0  0  0  0  0  0  0  0  0  0
    4.5869    1.9800   12.5973 C   0  0  0  0  0  0  0  0  0  0  0  0
    4.5870    2.2620   11.5558 O   0  0  0  0  0  0  0  0  0  0  0  0
    3.8039    2.2657   13.8554 C   0  0  2  0  0  0  0  0  0  0  0  0
    3.0014    1.2055   14.1930 O   0  0  0  0  0  0  0  0  0  0  0  0
    2.8783    3.4366   13.5437 C   0  0  0  0  0  0  0  0  0  0  0  0
    1.6459    3.1369   12.6714 C   0  0  0  0  0  0  0  0  0  0  0  0
  1  2  1  6  0  0  0
  1  3  1  0  0  0  0
  3  4  1  6  0  0  0
  3  5  1  0  0  0  0
  5  6  1  6  0  0  0
  5  7  1  0  0  0  0
  7  8  1  6  0  0  0
  9  7  1  0  0  0  0
  9 10  1  0  0  0  0
  9 11  1  1  0  0  0
 10  1  1  0  0  0  0
 11 12  1  0  0  0  0
 13 14  1  1  0  0  0
 13 15  1  0  0  0  0
 13 22  1  0  0  0  0
 14 32  1  0  0  0  0
 15 16  1  1  0  0  0
 15 17  1  0  0  0  0
 16 23  1  0  0  0  0
 17 18  1  6  0  0  0
 17 19  1  0  0  0  0
 19  2  1  6  0  0  0
 19 20  1  0  0  0  0
 20 21  1  6  0  0  0
 20 22  1  0  0  0  0
 23 24  1  0  0  0  0
 24 25  1  0  0  0  0
 25 26  1  0  0  0  0
 26 27  1  0  0  0  0
 27 28  1  0  0  0  0
 28 29  1  0  0  0  0
 29 30  1  0  0  0  0
 31 37  1  0  0  0  0
 32 33  2  0  0  0  0
 34 32  1  6  0  0  0
 34 35  1  0  0  0  0
 34 36  1  0  0  0  0
 36 37  1  0  0  0  0
M  END
>  <CHROM.1>
173.15329801,64.45856588,-28.78166464,-177.12217476,59.36804363,-69.08568312
-157.54069251,46.33002264,-83.88815674,-177.54059982,66.38188658,-168.84043390
-74.96991200,74.71395838,-80.10922175,6.18755837,-0.89676072,10.28935028
-0.20850235,-0.00169397,0.73987985

>  <Name>
1o9m_lig

>  <RI>
0

>  <Rbt.Current_Directory>
/home/itssahil/PROJECTS/Mol_Feturizer/New_Systems/rnas/1o9m

>  <Rbt.Executable>
rbdock ($Id: //depot/dev/client3/rdock/2013.1/src/exe/rbdock.cxx#4 $)

>  <Rbt.Library>
libRbt.so (2013.1, Build901 2013/11/27)

>  <Rbt.Parameter_File>
/export/apps/rDock/src/rDock_2013.1_src/data/scripts/dock_solv.prm

>  <Rbt.Receptor>
prm/blind_docking_100.prm

>  <SCORE>
-7.97594

>  <SCORE.INTER>
-5.60214

>  <SCORE.INTER.CONST>
1

>  <SCORE.INTER.POLAR>
-0.942474

>  <SCORE.INTER.ROT>
15

>  <SCORE.INTER.SOLV>
20.4462

>  <SCORE.INTER.VDW>
-21.0086

>  <SCORE.INTER.norm>
-0.151409

>  <SCORE.INTRA>
-2.3738

>  <SCORE.INTRA.DIHEDRAL>
-14.2436

>  <SCORE.INTRA.DIHEDRAL.0>
21.5987

>  <SCORE.INTRA.POLAR>
0

>  <SCORE.INTRA.POLAR.0>
0

>  <SCORE.INTRA.REPUL>
0

>  <SCORE.INTRA.REPUL.0>
0

>  <SCORE.INTRA.SOLV>
5.36889

>  <SCORE.INTRA.SOLV.lig_0>
-108.715

>  <SCORE.INTRA.VDW>
2.06354

>  <SCORE.INTRA.VDW.0>
-3.9485

>  <SCORE.INTRA.norm>
-0.0641567

>  <SCORE.RESTR>
0

>  <SCORE.RESTR.CAVITY>
0

>  <SCORE.RESTR.norm>
0

>  <SCORE.SYSTEM>
0

>  <SCORE.SYSTEM.CONST>
0

>  <SCORE.SYSTEM.DIHEDRAL>
0

>  <SCORE.SYSTEM.SOLV>
0

>  <SCORE.SYSTEM.norm>
0

>  <SCORE.heavy>
37

>  <SCORE.norm>
-0.215566

>  <RMSD>
23.315

$$$$
1o9m_lig
 OpenBabel11021811403D
libRbt.so/2013.1/901 2013/11/27
 37 38  0  0  0  0  0  0  0  0999 V2000
    8.6967   -1.2805    7.9505 C   0  0  2  0  0  0  0  0  0  0  0  0
    7.8780   -2.3349    8.5423 O   0  0  0  0  0  0  0  0  0  0  0  0
    9.8519   -2.0034    7.1647 C   0  0  2  0  0  0  0  0  0  0  0  0
    9.3350   -2.9077    6.1225 N   0  0  0  0  0  0  0  0  0  0  0  0
   10.7563   -2.7903    8.1878 C   0  0  1  0  0  0  0  0  0  0  0  0
   11.8168   -3.4559    7.4967 O   0  0  0  0  0  0  0  0  0  0  0  0
   11.2891   -1.7716    9.2488 C   0  0  2  0  0  0  0  0  0  0  0  0
   12.1174   -2.3890   10.2477 O   0  0  0  0  0  0  0  0  0  0  0  0
   10.1130   -1.0492    9.9511 C   0  0  2  0  0  0  0  0  0  0  0  0
    9.2577   -0.4116    8.9912 O   0  0  0  0  0  0  0  0  0  0  0  0
   10.6005   -0.0212   10.9390 C   0  0  0  0  0  0  0  0  0  0  0  0
   11.3703   -0.6197   11.9078 N   0  0  0  0  0  0  0  0  0  0  0  0
    4.2378   -2.1046   10.8909 C   0  0  1  0  0  0  0  0  0  0  0  0
    3.3259   -1.8357   12.0380 N   0  0  0  0  0  0  0  0  0  0  0  0
    4.8942   -0.7975   10.4677 C   0  0  2  0  0  0  0  0  0  0  0  0
    3.8804    0.1083   10.1484 O   0  0  0  0  0  0  0  0  0  0  0  0
    5.8474   -1.0281    9.2528 C   0  0  1  0  0  0  0  0  0  0  0  0
    6.4870    0.2277    8.8704 O   0  0  0  0  0  0  0  0  0  0  0  0
    6.9708   -2.0701    9.6503 C   0  0  1  0  0  0  0  0  0  0  0  0
    6.3276   -3.3872   10.0573 C   0  0  1  0  0  0  0  0  0  0  0  0
    7.3770   -4.3339   10.4038 N   0  0  0  0  0  0  0  0  0  0  0  0
    5.3650   -3.1546   11.2525 C   0  0  0  0  0  0  0  0  0  0  0  0
    2.6661    0.8769   10.2944 C   0  0  0  0  0  0  0  0  0  0  0  0
    2.5944    1.9078    9.1914 C   0  0  0  0  0  0  0  0  0  0  0  0
    2.6508    1.3402    7.8285 N   0  0  0  0  0  0  0  0  0  0  0  0
    2.2667    0.6807    6.5596 C   0  0  0  0  0  0  0  0  0  0  0  0
    2.5385   -0.7645    6.9960 C   0  0  0  0  0  0  0  0  0  0  0  0
    1.3268   -1.4003    7.7029 C   0  0  0  0  0  0  0  0  0  0  0  0
    1.6874   -2.7591    8.2953 C   0  0  0  0  0  0  0  0  0  0  0  0
    0.4818   -3.4529    8.7257 N   0  0  0  0  0  0  0  0  0  0  0  0
    2.1604    1.3173   15.5874 N   0  0  0  0  0  0  0  0  0  0  0  0
    4.2331   -1.4424   13.5107 C   0  0  0  0  0  0  0  0  0  0  0  0
    5.2785   -1.3442   13.7588 O   0  0  0  0  0  0  0  0  0  0  0  0
    2.8871   -1.3433   14.1860 C   0  0  2  0  0  0  0  0  0  0  0  0
    2.0952   -2.4200   13.8768 O   0  0  0  0  0  0  0  0  0  0  0  0
    2.1958   -0.1100   13.6151 C   0  0  0  0  0  0  0  0  0  0  0  0
    1.2979    0.6918   14.5746 C   0  0  0  0  0  0  0  0  0  0  0  0
  1  2  1  1  0  0  0
  1  3  1  0  0  0  0
  3  4  1  6  0  0  0
  3  5  1  0  0  0  0
  5  6  1  6  0  0  0
  5  7  1  0  0  0  0
  7  8  1  1  0  0  0
  9  7  1  0  0  0  0
  9 10  1  0  0  0  0
  9 11  1  1  0  0  0
 10  1  1  0  0  0  0
 11 12  1  0  0  0  0
 13 14  1  1  0  0  0
 13 15  1  0  0  0  0
 13 22  1  0  0  0  0
 14 32  1  0  0  0  0
 15 16  1  6  0  0  0
 15 17  1  0  0  0  0
 16 23  1  0  0  0  0
 17 18  1  1  0  0  0
 17 19  1  0  0  0  0
 19  2  1  6  0  0  0
 19 20  1  0  0  0  0
 20 21  1  1  0  0  0
 20 22  1  0  0  0  0
 23 24  1  0  0  0  0
 24 25  1  0  0  0  0
 25 26  1  0  0  0  0
 26 27  1  0  0  0  0
 27 28  1  0  0  0  0
 28 29  1  0  0  0  0
 29 30  1  0  0  0  0
 31 37  1  0  0  0  0
 32 33  2  0  0  0  0
 34 32  1  6  0  0  0
 34 35  1  0  0  0  0
 34 36  1  0  0  0  0
 36 37  1  0  0  0  0
M  END
>  <CHROM.1>
161.26925860,-59.91965226,-70.19929780,50.19086966,170.53971737,61.70495756
57.38458541,78.51590706,-86.72253401,86.57794011,-172.07666835,-169.00786353
47.25708169,-145.35685042,67.87572008,5.80629514,-1.28266295,10.12005261
0.32050046,0.15166995,-1.64483686

>  <Name>
1o9m_lig

>  <RI>
0

>  <Rbt.Current_Directory>
/home/itssahil/PROJECTS/Mol_Feturizer/New_Systems/rnas/1o9m

>  <Rbt.Executable>
rbdock ($Id: //depot/dev/client3/rdock/2013.1/src/exe/rbdock.cxx#4 $)

>  <Rbt.Library>
libRbt.so (2013.1, Build901 2013/11/27)

>  <Rbt.Parameter_File>
/export/apps/rDock/src/rDock_2013.1_src/data/scripts/dock_solv.prm

>  <Rbt.Receptor>
prm/blind_docking_100.prm

>  <SCORE>
-14.0026

>  <SCORE.INTER>
-11.9672

>  <SCORE.INTER.CONST>
1

>  <SCORE.INTER.POLAR>
-1.896

>  <SCORE.INTER.ROT>
15

>  <SCORE.INTER.SOLV>
15.4411

>  <SCORE.INTER.VDW>
-20.4052

>  <SCORE.INTER.norm>
-0.323437

>  <SCORE.INTRA>
-2.03548

>  <SCORE.INTRA.DIHEDRAL>
-10.9399

>  <SCORE.INTRA.DIHEDRAL.0>
21.5987

>  <SCORE.INTRA.POLAR>
0

>  <SCORE.INTRA.POLAR.0>
0

>  <SCORE.INTRA.REPUL>
0

>  <SCORE.INTRA.REPUL.0>
0

>  <SCORE.INTRA.SOLV>
2.42802

>  <SCORE.INTRA.SOLV.lig_0>
-108.715

>  <SCORE.INTRA.VDW>
2.22044

>  <SCORE.INTRA.VDW.0>
-3.9485

>  <SCORE.INTRA.norm>
-0.0550129

>  <SCORE.RESTR>
0

>  <SCORE.RESTR.CAVITY>
0

>  <SCORE.RESTR.norm>
0

>  <SCORE.SYSTEM>
0

>  <SCORE.SYSTEM.CONST>
0

>  <SCORE.SYSTEM.DIHEDRAL>
0

>  <SCORE.SYSTEM.SOLV>
0

>  <SCORE.SYSTEM.norm>
0

>  <SCORE.heavy>
37

>  <SCORE.norm>
-0.37845

>  <RMSD>
23.322

$$$$
1o9m_lig
 OpenBabel11021811403D
libRbt.so/2013.1/901 2013/11/27
 37 38  0  0  0  0  0  0  0  0999 V2000
    9.9282   -1.7339   12.6333 C   0  0  2  0  0  0  0  0  0  0  0  0
    9.0977   -0.6392   12.1393 O   0  0  0  0  0  0  0  0  0  0  0  0
   11.0776   -1.9307   11.5776 C   0  0  2  0  0  0  0  0  0  0  0  0
   11.8812   -0.7092   11.3954 N   0  0  0  0  0  0  0  0  0  0  0  0
   10.4463   -2.3925   10.2094 C   0  0  1  0  0  0  0  0  0  0  0  0
   11.4732   -2.5802    9.2318 O   0  0  0  0  0  0  0  0  0  0  0  0
    9.6295   -3.7014   10.4683 C   0  0  2  0  0  0  0  0  0  0  0  0
    8.9922   -4.2046    9.2828 O   0  0  0  0  0  0  0  0  0  0  0  0
    8.5508   -3.4660   11.5544 C   0  0  2  0  0  0  0  0  0  0  0  0
    9.1419   -2.9658   12.7626 O   0  0  0  0  0  0  0  0  0  0  0  0
    7.7864   -4.7274   11.8631 C   0  0  0  0  0  0  0  0  0  0  0  0
    8.5143   -5.5301   12.7088 N   0  0  0  0  0  0  0  0  0  0  0  0
    5.4212   -0.0077    9.9246 C   0  0  1  0  0  0  0  0  0  0  0  0
    4.2870   -0.2603    8.9921 N   0  0  0  0  0  0  0  0  0  0  0  0
    5.4293   -1.0918   10.9938 C   0  0  2  0  0  0  0  0  0  0  0  0
    4.1895   -1.0706   11.6362 O   0  0  0  0  0  0  0  0  0  0  0  0
    6.5934   -0.8568   12.0074 C   0  0  1  0  0  0  0  0  0  0  0  0
    6.6041   -1.9141   13.0145 O   0  0  0  0  0  0  0  0  0  0  0  0
    7.9772   -0.8731   11.2389 C   0  0  1  0  0  0  0  0  0  0  0  0
    7.9884    0.2188   10.1798 C   0  0  1  0  0  0  0  0  0  0  0  0
    9.2731    0.1960    9.4966 N   0  0  0  0  0  0  0  0  0  0  0  0
    6.8192   -0.0036    9.1835 C   0  0  0  0  0  0  0  0  0  0  0  0
    3.1635   -1.4097   12.5948 C   0  0  0  0  0  0  0  0  0  0  0  0
    3.5390   -0.8453   13.9457 C   0  0  0  0  0  0  0  0  0  0  0  0
    3.5395    0.6309   14.0056 N   0  0  0  0  0  0  0  0  0  0  0  0
    3.1438    2.0481   13.8400 C   0  0  0  0  0  0  0  0  0  0  0  0
    1.6858    1.8016   13.4322 C   0  0  0  0  0  0  0  0  0  0  0  0
    1.3489    2.4182   12.0617 C   0  0  0  0  0  0  0  0  0  0  0  0
    1.9422    1.5899   10.9262 C   0  0  0  0  0  0  0  0  0  0  0  0
    2.6266    2.4581    9.9785 N   0  0  0  0  0  0  0  0  0  0  0  0
    0.6577   -2.2597    5.9133 N   0  0  0  0  0  0  0  0  0  0  0  0
    4.4445   -1.8340    8.1888 C   0  0  0  0  0  0  0  0  0  0  0  0
    5.1578   -2.6425    8.2291 O   0  0  0  0  0  0  0  0  0  0  0  0
    3.1715   -1.4720    7.4635 C   0  0  2  0  0  0  0  0  0  0  0  0
    2.0699   -1.7001    8.2487 O   0  0  0  0  0  0  0  0  0  0  0  0
    3.0619   -2.4113    6.2675 C   0  0  0  0  0  0  0  0  0  0  0  0
    1.9560   -2.1056    5.2412 C   0  0  0  0  0  0  0  0  0  0  0  0
  1  2  1  6  0  0  0
  1  3  1  0  0  0  0
  3  4  1  6  0  0  0
  3  5  1  0  0  0  0
  5  6  1  6  0  0  0
  5  7  1  0  0  0  0
  7  8  1  6  0  0  0
  9  7  1  0  0  0  0
  9 10  1  0  0  0  0
  9 11  1  1  0  0  0
 10  1  1  0  0  0  0
 11 12  1  0  0  0  0
 13 14  1  6  0  0  0
 13 15  1  0  0  0  0
 13 22  1  0  0  0  0
 14 32  1  0  0  0  0
 15 16  1  1  0  0  0
 15 17  1  0  0  0  0
 16 23  1  0  0  0  0
 17 18  1  1  0  0  0
 17 19  1  0  0  0  0
 19  2  1  1  0  0  0
 19 20  1  0  0  0  0
 20 21  1  6  0  0  0
 20 22  1  0  0  0  0
 23 24  1  0  0  0  0
 24 25  1  0  0  0  0
 25 26  1  0  0  0  0
 26 27  1  0  0  0  0
 27 28  1  0  0  0  0
 28 29  1  0  0  0  0
 29 30  1  0  0  0  0
 31 37  1  0  0  0  0
 32 33  2  0  0  0  0
 34 32  1  1  0  0  0
 34 35  1  0  0  0  0
 34 36  1  0  0  0  0
 36 37  1  0  0  0  0
M  END
>  <CHROM.1>
88.48892944,79.81725758,-60.59626085,-174.61383076,71.12057272,100.62132838
66.56982334,44.83403764,14.03326684,-122.42997511,75.13953787,-132.45766527
-80.24437261,-170.92555344,-64.12665832,6.01641949,-1.26285387,10.62220259
0.02001228,-0.35987842,1.10815782

>  <Name>
1o9m_lig

>  <RI>
0

>  <Rbt.Current_Directory>
/home/itssahil/PROJECTS/Mol_Feturizer/New_Systems/rnas/1o9m

>  <Rbt.Executable>
rbdock ($Id: //depot/dev/client3/rdock/2013.1/src/exe/rbdock.cxx#4 $)

>  <Rbt.Library>
libRbt.so (2013.1, Build901 2013/11/27)

>  <Rbt.Parameter_File>
/export/apps/rDock/src/rDock_2013.1_src/data/scripts/dock_solv.prm

>  <Rbt.Receptor>
prm/blind_docking_20.prm

>  <SCORE>
-2.8234

>  <SCORE.INTER>
-9.4616

>  <SCORE.INTER.CONST>
1

>  <SCORE.INTER.POLAR>
-2.97557

>  <SCORE.INTER.ROT>
15

>  <SCORE.INTER.SOLV>
20.5487

>  <SCORE.INTER.VDW>
-16.8387

>  <SCORE.INTER.norm>
-0.255719

>  <SCORE.INTRA>
6.6382

>  <SCORE.INTRA.DIHEDRAL>
3.44362

>  <SCORE.INTRA.DIHEDRAL.0>
21.5987

>  <SCORE.INTRA.POLAR>
0

>  <SCORE.INTRA.POLAR.0>
0

>  <SCORE.INTRA.REPUL>
0

>  <SCORE.INTRA.REPUL.0>
0

>  <SCORE.INTRA.SOLV>
10.5331

>  <SCORE.INTRA.SOLV.lig_0>
-108.715

>  <SCORE.INTRA.VDW>
-0.350174

>  <SCORE.INTRA.VDW.0>
-3.9485

>  <SCORE.INTRA.norm>
0.179411

>  <SCORE.RESTR>
0

>  <SCORE.RESTR.CAVITY>
0

>  <SCORE.RESTR.norm>
0

>  <SCORE.SYSTEM>
0

>  <SCORE.SYSTEM.CONST>
0

>  <SCORE.SYSTEM.DIHEDRAL>
0

>  <SCORE.SYSTEM.SOLV>
0

>  <SCORE.SYSTEM.norm>
0

>  <SCORE.heavy>
37

>  <SCORE.norm>
-0.076308

>  <RMSD>
23.332

$$$$
1o9m_lig
 OpenBabel11021811403D
libRbt.so/2013.1/901 2013/11/27
 37 38  0  0  0  0  0  0  0  0999 V2000
   10.2251   -1.8183   11.8737 C   0  0  2  0  0  0  0  0  0  0  0  0
    9.8949   -1.0754   10.6607 O   0  0  0  0  0  0  0  0  0  0  0  0
   11.7665   -1.6149   12.1133 C   0  0  2  0  0  0  0  0  0  0  0  0
   12.1242   -0.1932   12.2602 N   0  0  0  0  0  0  0  0  0  0  0  0
   12.5634   -2.2706   10.9221 C   0  0  1  0  0  0  0  0  0  0  0  0
   13.9699   -2.1003   11.1179 O   0  0  0  0  0  0  0  0  0  0  0  0
   12.1562   -3.7787   10.8369 C   0  0  2  0  0  0  0  0  0  0  0  0
   12.8154   -4.4746    9.7663 O   0  0  0  0  0  0  0  0  0  0  0  0
   10.6246   -3.9215   10.6578 C   0  0  2  0  0  0  0  0  0  0  0  0
    9.9212   -3.2442   11.7094 O   0  0  0  0  0  0  0  0  0  0  0  0
   10.1992   -5.3668   10.6291 C   0  0  0  0  0  0  0  0  0  0  0  0
    8.8283   -5.4588   10.5919 N   0  0  0  0  0  0  0  0  0  0  0  0
    6.3427    1.1021    9.4524 C   0  0  1  0  0  0  0  0  0  0  0  0
    4.9303    1.3717    9.0625 N   0  0  0  0  0  0  0  0  0  0  0  0
    6.3595    0.4867   10.8450 C   0  0  2  0  0  0  0  0  0  0  0  0
    5.7213    1.3741   11.7142 O   0  0  0  0  0  0  0  0  0  0  0  0
    7.8246    0.2034   11.3042 C   0  0  1  0  0  0  0  0  0  0  0  0
    7.8264   -0.4062   12.6311 O   0  0  0  0  0  0  0  0  0  0  0  0
    8.5162   -0.7924   10.2865 C   0  0  1  0  0  0  0  0  0  0  0  0
    8.5225   -0.1801    8.8941 C   0  0  1  0  0  0  0  0  0  0  0  0
    9.1751   -1.1040    7.9786 N   0  0  0  0  0  0  0  0  0  0  0  0
    7.0671    0.1197    8.4455 C   0  0  0  0  0  0  0  0  0  0  0  0
    4.6411    2.0528   12.3918 C   0  0  0  0  0  0  0  0  0  0  0  0
    3.8448    1.0465   13.1904 C   0  0  0  0  0  0  0  0  0  0  0  0
    2.7105    1.6283   13.9373 N   0  0  0  0  0  0  0  0  0  0  0  0
    1.6938    1.8816   14.9835 C   0  0  0  0  0  0  0  0  0  0  0  0
    1.5382    0.4335   15.4650 C   0  0  0  0  0  0  0  0  0  0  0  0
    0.8992   -0.4732   14.3963 C   0  0  0  0  0  0  0  0  0  0  0  0
    1.6424   -1.8010   14.2871 C   0  0  0  0  0  0  0  0  0  0  0  0
    1.5197   -2.5467   15.5317 N   0  0  0  0  0  0  0  0  0  0  0  0
    0.6610   -1.2749    7.6139 N   0  0  0  0  0  0  0  0  0  0  0  0
    4.0932   -0.1169    8.5829 C   0  0  0  0  0  0  0  0  0  0  0  0
    4.3663   -1.1588    8.5206 O   0  0  0  0  0  0  0  0  0  0  0  0
    2.9006    0.7672    8.3113 C   0  0  2  0  0  0  0  0  0  0  0  0
    1.9035    0.5526    9.2287 O   0  0  0  0  0  0  0  0  0  0  0  0
    2.3450    0.3547    6.9527 C   0  0  0  0  0  0  0  0  0  0  0  0
    1.8771   -1.1045    6.8057 C   0  0  0  0  0  0  0  0  0  0  0  0
  1  2  1  6  0  0  0
  1  3  1  0  0  0  0
  3  4  1  6  0  0  0
  3  5  1  0  0  0  0
  5  6  1  1  0  0  0
  5  7  1  0  0  0  0
  7  8  1  6  0  0  0
  9  7  1  0  0  0  0
  9 10  1  0  0  0  0
  9 11  1  1  0  0  0
 10  1  1  0  0  0  0
 11 12  1  0  0  0  0
 13 14  1  6  0  0  0
 13 15  1  0  0  0  0
 13 22  1  0  0  0  0
 14 32  1  0  0  0  0
 15 16  1  1  0  0  0
 15 17  1  0  0  0  0
 16 23  1  0  0  0  0
 17 18  1  1  0  0  0
 17 19  1  0  0  0  0
 19  2  1  1  0  0  0
 19 20  1  0  0  0  0
 20 21  1  6  0  0  0
 20 22  1  0  0  0  0
 23 24  1  0  0  0  0
 24 25  1  0  0  0  0
 25 26  1  0  0  0  0
 26 27  1  0  0  0  0
 27 28  1  0  0  0  0
 28 29  1  0  0  0  0
 29 30  1  0  0  0  0
 31 37  1  0  0  0  0
 32 33  2  0  0  0  0
 34 32  1  1  0  0  0
 34 35  1  0  0  0  0
 34 36  1  0  0  0  0
 36 37  1  0  0  0  0
M  END
>  <CHROM.1>
-166.46559459,174.54026831,-76.53985046,80.68943821,62.04915843,66.85835168
179.68779839,-145.76496072,-31.75209391,-67.19665193,135.26068244,64.28193219
-110.05407829,59.82797950,69.52193770,6.60765552,-0.90115116,10.92798054
-0.08977511,-0.30391066,1.56496707

>  <Name>
1o9m_lig

>  <RI>
0

>  <Rbt.Current_Directory>
/home/itssahil/PROJECTS/Mol_Feturizer/New_Systems/rnas/1o9m

>  <Rbt.Executable>
rbdock ($Id: //depot/dev/client3/rdock/2013.1/src/exe/rbdock.cxx#4 $)

>  <Rbt.Library>
libRbt.so (2013.1, Build901 2013/11/27)

>  <Rbt.Parameter_File>
/export/apps/rDock/src/rDock_2013.1_src/data/scripts/dock_solv.prm

>  <Rbt.Receptor>
prm/blind_docking_100.prm

>  <SCORE>
-3.0442

>  <SCORE.INTER>
-0.988706

>  <SCORE.INTER.CONST>
1

>  <SCORE.INTER.POLAR>
0

>  <SCORE.INTER.ROT>
15

>  <SCORE.INTER.SOLV>
20.7369

>  <SCORE.INTER.VDW>
-21.1715

>  <SCORE.INTER.norm>
-0.0267218

>  <SCORE.INTRA>
-2.05933

>  <SCORE.INTRA.DIHEDRAL>
-8.93776

>  <SCORE.INTRA.DIHEDRAL.0>
21.5987

>  <SCORE.INTRA.POLAR>
0

>  <SCORE.INTRA.POLAR.0>
0

>  <SCORE.INTRA.REPUL>
0

>  <SCORE.INTRA.REPUL.0>
0

>  <SCORE.INTRA.SOLV>
2.84836

>  <SCORE.INTRA.SOLV.lig_0>
-108.715

>  <SCORE.INTRA.VDW>
0.98537

>  <SCORE.INTRA.VDW.0>
-3.9485

>  <SCORE.INTRA.norm>
-0.0556575

>  <SCORE.RESTR>
0.00383281

>  <SCORE.RESTR.CAVITY>
0.00383281

>  <SCORE.RESTR.norm>
0.00010359

>  <SCORE.SYSTEM>
0

>  <SCORE.SYSTEM.CONST>
0

>  <SCORE.SYSTEM.DIHEDRAL>
0

>  <SCORE.SYSTEM.SOLV>
0

>  <SCORE.SYSTEM.norm>
0

>  <SCORE.heavy>
37

>  <SCORE.norm>
-0.0822757

>  <RMSD>
23.371

$$$$
1o9m_lig
 OpenBabel11021811403D
libRbt.so/2013.1/901 2013/11/27
 37 38  0  0  0  0  0  0  0  0999 V2000
    9.4311   -1.3779   10.3808 C   0  0  2  0  0  0  0  0  0  0  0  0
    8.4900   -0.8507    9.3966 O   0  0  0  0  0  0  0  0  0  0  0  0
    9.9746   -0.1391   11.1836 C   0  0  2  0  0  0  0  0  0  0  0  0
    8.8942    0.6118   11.8469 N   0  0  0  0  0  0  0  0  0  0  0  0
   10.7832    0.7943   10.2044 C   0  0  1  0  0  0  0  0  0  0  0  0
   11.2900    1.9290   10.9123 O   0  0  0  0  0  0  0  0  0  0  0  0
   11.9244   -0.0557    9.5544 C   0  0  2  0  0  0  0  0  0  0  0  0
   12.7197    0.6973    8.6241 O   0  0  0  0  0  0  0  0  0  0  0  0
   11.3384   -1.2906    8.8263 C   0  0  2  0  0  0  0  0  0  0  0  0
   10.5375   -2.0785    9.7191 O   0  0  0  0  0  0  0  0  0  0  0  0
   12.4221   -2.1572    8.2387 C   0  0  0  0  0  0  0  0  0  0  0  0
   13.1702   -2.7284    9.2404 N   0  0  0  0  0  0  0  0  0  0  0  0
    4.4299   -2.0765    8.4833 C   0  0  1  0  0  0  0  0  0  0  0  0
    3.2965   -2.8945    7.9678 N   0  0  0  0  0  0  0  0  0  0  0  0
    5.2099   -2.9013    9.4981 C   0  0  2  0  0  0  0  0  0  0  0  0
    4.3251   -3.2906   10.5060 O   0  0  0  0  0  0  0  0  0  0  0  0
    6.4000   -2.0755   10.0807 C   0  0  1  0  0  0  0  0  0  0  0  0
    7.1528   -2.8840   11.0358 O   0  0  0  0  0  0  0  0  0  0  0  0
    7.3695   -1.6417    8.9069 C   0  0  1  0  0  0  0  0  0  0  0  0
    6.6057   -0.8006    7.8955 C   0  0  1  0  0  0  0  0  0  0  0  0
    7.5177   -0.4005    6.8344 N   0  0  0  0  0  0  0  0  0  0  0  0
    5.4108   -1.6146    7.3308 C   0  0  0  0  0  0  0  0  0  0  0  0
    3.4339   -3.1694   11.6363 C   0  0  0  0  0  0  0  0  0  0  0  0
    2.3727   -2.1393   11.3247 C   0  0  0  0  0  0  0  0  0  0  0  0
    1.4281   -1.8897   12.4330 N   0  0  0  0  0  0  0  0  0  0  0  0
    0.8764   -1.5674   13.7687 C   0  0  0  0  0  0  0  0  0  0  0  0
    1.3705   -0.1172   13.8438 C   0  0  0  0  0  0  0  0  0  0  0  0
    0.7050    0.6694   14.9887 C   0  0  0  0  0  0  0  0  0  0  0  0
    1.3052    0.2879   16.3383 C   0  0  0  0  0  0  0  0  0  0  0  0
    0.6650    1.0474   17.4030 N   0  0  0  0  0  0  0  0  0  0  0  0
   -0.1188   -5.1663    8.6047 N   0  0  0  0  0  0  0  0  0  0  0  0
    2.3570   -2.0091    6.7511 C   0  0  0  0  0  0  0  0  0  0  0  0
    2.4247   -1.0322    6.2982 O   0  0  0  0  0  0  0  0  0  0  0  0
    1.4731   -3.2312    6.6985 C   0  0  2  0  0  0  0  0  0  0  0  0
    0.9424   -3.4073    5.4458 O   0  0  0  0  0  0  0  0  0  0  0  0
    0.3024   -2.9708    7.6399 C   0  0  0  0  0  0  0  0  0  0  0  0
   -0.7303   -4.1017    7.7962 C   0  0  0  0  0  0  0  0  0  0  0  0
  1  2  1  6  0  0  0
  1  3  1  0  0  0  0
  3  4  1  6  0  0  0
  3  5  1  0  0  0  0
  5  6  1  1  0  0  0
  5  7  1  0  0  0  0
  7  8  1  6  0  0  0
  9  7  1  0  0  0  0
  9 10  1  0  0  0  0
  9 11  1  1  0  0  0
 10  1  1  0  0  0  0
 11 12  1  0  0  0  0
 13 14  1  6  0  0  0
 13 15  1  0  0  0  0
 13 22  1  0  0  0  0
 14 32  1  0  0  0  0
 15 16  1  1  0  0  0
 15 17  1  0  0  0  0
 16 23  1  0  0  0  0
 17 18  1  1  0  0  0
 17 19  1  0  0  0  0
 19  2  1  1  0  0  0
 19 20  1  0  0  0  0
 20 21  1  6  0  0  0
 20 22  1  0  0  0  0
 23 24  1  0  0  0  0
 24 25  1  0  0  0  0
 25 26  1  0  0  0  0
 26 27  1  0  0  0  0
 27 28  1  0  0  0  0
 28 29  1  0  0  0  0
 29 30  1  0  0  0  0
 31 37  1  0  0  0  0
 32 33  2  0  0  0  0
 34 32  1  6  0  0  0
 34 35  1  0  0  0  0
 34 36  1  0  0  0  0
 36 37  1  0  0  0  0
M  END
>  <CHROM.1>
-151.45998478,66.67211589,-178.83530739,-68.43099367,54.03438052,59.64143552
-177.76959375,53.76009616,64.06125313,166.91470262,76.38405130,179.76360086
-148.47350796,-178.17611633,73.34299572,5.62516932,-1.51124358,9.93438480
-0.07295521,0.17958255,1.19811282

>  <Name>
1o9m_lig

>  <RI>
0

>  <Rbt.Current_Directory>
/home/itssahil/PROJECTS/Mol_Feturizer/New_Systems/rnas/1o9m

>  <Rbt.Executable>
rbdock ($Id: //depot/dev/client3/rdock/2013.1/src/exe/rbdock.cxx#4 $)

>  <Rbt.Library>
libRbt.so (2013.1, Build901 2013/11/27)

>  <Rbt.Parameter_File>
/export/apps/rDock/src/rDock_2013.1_src/data/scripts/dock_solv.prm

>  <Rbt.Receptor>
prm/blind_docking_20.prm

>  <SCORE>
-6.94124

>  <SCORE.INTER>
-0.91445

>  <SCORE.INTER.CONST>
1

>  <SCORE.INTER.POLAR>
0

>  <SCORE.INTER.ROT>
15

>  <SCORE.INTER.SOLV>
24.5643

>  <SCORE.INTER.VDW>
-22.3977

>  <SCORE.INTER.norm>
-0.0247149

>  <SCORE.INTRA>
-6.03116

>  <SCORE.INTRA.DIHEDRAL>
-13.2903

>  <SCORE.INTRA.DIHEDRAL.0>
21.5987

>  <SCORE.INTRA.POLAR>
0

>  <SCORE.INTRA.POLAR.0>
0

>  <SCORE.INTRA.REPUL>
0

>  <SCORE.INTRA.REPUL.0>
0

>  <SCORE.INTRA.SOLV>
0.885828

>  <SCORE.INTRA.SOLV.lig_0>
-108.715

>  <SCORE.INTRA.VDW>
0.171067

>  <SCORE.INTRA.VDW.0>
-3.9485

>  <SCORE.INTRA.norm>
-0.163004

>  <SCORE.RESTR>
0.00436831

>  <SCORE.RESTR.CAVITY>
0.00436831

>  <SCORE.RESTR.norm>
0.000118062

>  <SCORE.SYSTEM>
0

>  <SCORE.SYSTEM.CONST>
0

>  <SCORE.SYSTEM.DIHEDRAL>
0

>  <SCORE.SYSTEM.SOLV>
0

>  <SCORE.SYSTEM.norm>
0

>  <SCORE.heavy>
37

>  <SCORE.norm>
-0.187601

>  <RMSD>
23.374

$$$$
1o9m_lig
 OpenBabel11021811403D
libRbt.so/2013.1/901 2013/11/27
 37 38  0  0  0  0  0  0  0  0999 V2000
    9.3380   -3.8107    9.8516 C   0  0  2  0  0  0  0  0  0  0  0  0
    8.3773   -2.7636   10.1874 O   0  0  0  0  0  0  0  0  0  0  0  0
   10.5293   -3.6631   10.8683 C   0  0  2  0  0  0  0  0  0  0  0  0
   10.0862   -3.7927   12.2675 N   0  0  0  0  0  0  0  0  0  0  0  0
   11.2373   -2.2748   10.6335 C   0  0  1  0  0  0  0  0  0  0  0  0
   12.3270   -2.1173   11.5463 O   0  0  0  0  0  0  0  0  0  0  0  0
   11.7020   -2.2125    9.1410 C   0  0  2  0  0  0  0  0  0  0  0  0
   12.3498   -0.9733    8.8100 O   0  0  0  0  0  0  0  0  0  0  0  0
   10.5005   -2.4194    8.1859 C   0  0  2  0  0  0  0  0  0  0  0  0
    9.8225   -3.6504    8.4760 O   0  0  0  0  0  0  0  0  0  0  0  0
   10.9304   -2.4198    6.7417 C   0  0  0  0  0  0  0  0  0  0  0  0
   11.8373   -3.4277    6.5154 N   0  0  0  0  0  0  0  0  0  0  0  0
    4.3197   -1.6521    9.1286 C   0  0  1  0  0  0  0  0  0  0  0  0
    2.8822   -1.7846    8.7604 N   0  0  0  0  0  0  0  0  0  0  0  0
    4.5446   -2.3175   10.4796 C   0  0  2  0  0  0  0  0  0  0  0  0
    3.6938   -1.7090   11.4048 O   0  0  0  0  0  0  0  0  0  0  0  0
    6.0380   -2.1868   10.9160 C   0  0  1  0  0  0  0  0  0  0  0  0
    6.2455   -2.8472   12.2018 O   0  0  0  0  0  0  0  0  0  0  0  0
    6.9685   -2.8744    9.8356 C   0  0  1  0  0  0  0  0  0  0  0  0
    6.7665   -2.2052    8.4846 C   0  0  1  0  0  0  0  0  0  0  0  0
    7.6408   -2.8415    7.5108 N   0  0  0  0  0  0  0  0  0  0  0  0
    5.2778   -2.3178    8.0598 C   0  0  0  0  0  0  0  0  0  0  0  0
    2.4598   -1.3243   12.0496 C   0  0  0  0  0  0  0  0  0  0  0  0
    2.7749   -0.4806   13.2634 C   0  0  0  0  0  0  0  0  0  0  0  0
    3.3158    0.8572   12.9463 N   0  0  0  0  0  0  0  0  0  0  0  0
    3.9236    2.2003   13.0840 C   0  0  0  0  0  0  0  0  0  0  0  0
    2.9191    2.7712   14.0930 C   0  0  0  0  0  0  0  0  0  0  0  0
    2.2488    4.0616   13.5855 C   0  0  0  0  0  0  0  0  0  0  0  0
    1.1567    3.7491   12.5671 C   0  0  0  0  0  0  0  0  0  0  0  0
    1.7531    3.3174   11.3108 N   0  0  0  0  0  0  0  0  0  0  0  0
   -1.2207   -3.5699    6.5963 N   0  0  0  0  0  0  0  0  0  0  0  0
    2.1866   -3.2903    9.3893 C   0  0  0  0  0  0  0  0  0  0  0  0
    2.5586   -4.1144    9.9780 O   0  0  0  0  0  0  0  0  0  0  0  0
    0.9100   -2.8601    8.7090 C   0  0  2  0  0  0  0  0  0  0  0  0
   -0.1541   -3.6214    9.1216 O   0  0  0  0  0  0  0  0  0  0  0  0
    1.0913   -3.1277    7.2190 C   0  0  0  0  0  0  0  0  0  0  0  0
   -0.0654   -2.7135    6.2914 C   0  0  0  0  0  0  0  0  0  0  0  0
  1  2  1  1  0  0  0
  1  3  1  0  0  0  0
  3  4  1  1  0  0  0
  3  5  1  0  0  0  0
  5  6  1  1  0  0  0
  5  7  1  0  0  0  0
  7  8  1  6  0  0  0
  9  7  1  0  0  0  0
  9 10  1  0  0  0  0
  9 11  1  6  0  0  0
 10  1  1  0  0  0  0
 11 12  1  0  0  0  0
 13 14  1  6  0  0  0
 13 15  1  0  0  0  0
 13 22  1  0  0  0  0
 14 32  1  0  0  0  0
 15 16  1  1  0  0  0
 15 17  1  0  0  0  0
 16 23  1  0  0  0  0
 17 18  1  1  0  0  0
 17 19  1  0  0  0  0
 19  2  1  1  0  0  0
 19 20  1  0  0  0  0
 20 21  1  6  0  0  0
 20 22  1  0  0  0  0
 23 24  1  0  0  0  0
 24 25  1  0  0  0  0
 25 26  1  0  0  0  0
 26 27  1  0  0  0  0
 27 28  1  0  0  0  0
 28 29  1  0  0  0  0
 29 30  1  0  0  0  0
 31 37  1  0  0  0  0
 32 33  2  0  0  0  0
 34 32  1  1  0  0  0
 34 35  1  0  0  0  0
 34 36  1  0  0  0  0
 36 37  1  0  0  0  0
M  END
>  <CHROM.1>
-156.36709709,59.65238825,-32.11973099,67.24908979,178.61639972,146.70241791
69.47097592,-171.42050407,-56.58600715,-123.13759288,77.73407332,-72.33049340
-167.36063976,-177.50444881,-66.84610812,5.66740504,-1.74651134,10.02200624
0.26336258,0.07855570,-2.34550378

>  <Name>
1o9m_lig

>  <RI>
0

>  <Rbt.Current_Directory>
/home/itssahil/PROJECTS/Mol_Feturizer/New_Systems/rnas/1o9m

>  <Rbt.Executable>
rbdock ($Id: //depot/dev/client3/rdock/2013.1/src/exe/rbdock.cxx#4 $)

>  <Rbt.Library>
libRbt.so (2013.1, Build901 2013/11/27)

>  <Rbt.Parameter_File>
/export/apps/rDock/src/rDock_2013.1_src/data/scripts/dock_solv.prm

>  <Rbt.Receptor>
prm/blind_docking_80.prm

>  <SCORE>
-2.65565

>  <SCORE.INTER>
-6.3119

>  <SCORE.INTER.CONST>
1

>  <SCORE.INTER.POLAR>
-1.80075

>  <SCORE.INTER.ROT>
15

>  <SCORE.INTER.SOLV>
12.3381

>  <SCORE.INTER.VDW>
-15.9181

>  <SCORE.INTER.norm>
-0.170592

>  <SCORE.INTRA>
3.57589

>  <SCORE.INTRA.DIHEDRAL>
-5.17047

>  <SCORE.INTRA.DIHEDRAL.0>
21.5987

>  <SCORE.INTRA.POLAR>
0

>  <SCORE.INTRA.POLAR.0>
0

>  <SCORE.INTRA.REPUL>
0

>  <SCORE.INTRA.REPUL.0>
0

>  <SCORE.INTRA.SOLV>
9.37953

>  <SCORE.INTRA.SOLV.lig_0>
-108.715

>  <SCORE.INTRA.VDW>
1.47136

>  <SCORE.INTRA.VDW.0>
-3.9485

>  <SCORE.INTRA.norm>
0.0966457

>  <SCORE.RESTR>
0.0803648

>  <SCORE.RESTR.CAVITY>
0.0803648

>  <SCORE.RESTR.norm>
0.00217202

>  <SCORE.SYSTEM>
0

>  <SCORE.SYSTEM.CONST>
0

>  <SCORE.SYSTEM.DIHEDRAL>
0

>  <SCORE.SYSTEM.SOLV>
0

>  <SCORE.SYSTEM.norm>
0

>  <SCORE.heavy>
37

>  <SCORE.norm>
-0.0717743

>  <RMSD>
23.377

$$$$
1o9m_lig
 OpenBabel11021811403D
libRbt.so/2013.1/901 2013/11/27
 37 38  0  0  0  0  0  0  0  0999 V2000
    9.8992   -1.8591   10.4048 C   0  0  2  0  0  0  0  0  0  0  0  0
    8.5251   -1.9631    9.9218 O   0  0  0  0  0  0  0  0  0  0  0  0
   10.8126   -2.4739    9.2814 C   0  0  2  0  0  0  0  0  0  0  0  0
   10.6592   -1.7736    7.9941 N   0  0  0  0  0  0  0  0  0  0  0  0
   10.4774   -4.0060    9.1265 C   0  0  1  0  0  0  0  0  0  0  0  0
   11.2976   -4.5891    8.1103 O   0  0  0  0  0  0  0  0  0  0  0  0
   10.6823   -4.6913   10.5178 C   0  0  2  0  0  0  0  0  0  0  0  0
   10.3859   -6.0972   10.4959 O   0  0  0  0  0  0  0  0  0  0  0  0
    9.8028   -4.0116   11.5962 C   0  0  2  0  0  0  0  0  0  0  0  0
   10.0674   -2.6025   11.6585 O   0  0  0  0  0  0  0  0  0  0  0  0
   10.0236   -4.6171   12.9582 C   0  0  0  0  0  0  0  0  0  0  0  0
    9.4688   -5.8734   13.0161 N   0  0  0  0  0  0  0  0  0  0  0  0
    4.5411   -0.4887   10.8018 C   0  0  1  0  0  0  0  0  0  0  0  0
    3.4526    0.3317   11.4033 N   0  0  0  0  0  0  0  0  0  0  0  0
    5.4873    0.4309   10.0419 C   0  0  2  0  0  0  0  0  0  0  0  0
    4.7399    1.1190    9.0837 O   0  0  0  0  0  0  0  0  0  0  0  0
    6.6372   -0.3898    9.3772 C   0  0  1  0  0  0  0  0  0  0  0  0
    7.5494    0.5048    8.6701 O   0  0  0  0  0  0  0  0  0  0  0  0
    7.4492   -1.1651   10.4932 C   0  0  1  0  0  0  0  0  0  0  0  0
    6.5177   -2.1018   11.2474 C   0  0  1  0  0  0  0  0  0  0  0  0
    7.2862   -2.8144   12.2569 N   0  0  0  0  0  0  0  0  0  0  0  0
    5.3635   -1.2882   11.8919 C   0  0  0  0  0  0  0  0  0  0  0  0
    3.8208    1.3300    7.9895 C   0  0  0  0  0  0  0  0  0  0  0  0
    2.4712    0.7567    8.3560 C   0  0  0  0  0  0  0  0  0  0  0  0
    1.8655   -0.0849    7.3035 N   0  0  0  0  0  0  0  0  0  0  0  0
    1.3487   -1.2560    6.5591 C   0  0  0  0  0  0  0  0  0  0  0  0
    2.6250   -2.1052    6.6126 C   0  0  0  0  0  0  0  0  0  0  0  0
    3.5578   -1.8359    5.4170 C   0  0  0  0  0  0  0  0  0  0  0  0
    4.7082   -2.8373    5.3816 C   0  0  0  0  0  0  0  0  0  0  0  0
    5.5373   -2.6887    6.5693 N   0  0  0  0  0  0  0  0  0  0  0  0
    1.9563    3.0675   16.3282 N   0  0  0  0  0  0  0  0  0  0  0  0
    4.1038    1.6156   12.4397 C   0  0  0  0  0  0  0  0  0  0  0  0
    5.0937    1.9399   12.7209 O   0  0  0  0  0  0  0  0  0  0  0  0
    2.6647    1.9768   12.7156 C   0  0  2  0  0  0  0  0  0  0  0  0
    2.1617    2.7969   11.7377 O   0  0  0  0  0  0  0  0  0  0  0  0
    2.6510    2.7783   14.0125 C   0  0  0  0  0  0  0  0  0  0  0  0
    1.6377    2.3457   15.0877 C   0  0  0  0  0  0  0  0  0  0  0  0
  1  2  1  6  0  0  0
  1  3  1  0  0  0  0
  3  4  1  6  0  0  0
  3  5  1  0  0  0  0
  5  6  1  6  0  0  0
  5  7  1  0  0  0  0
  7  8  1  6  0  0  0
  9  7  1  0  0  0  0
  9 10  1  0  0  0  0
  9 11  1  1  0  0  0
 10  1  1  0  0  0  0
 11 12  1  0  0  0  0
 13 14  1  1  0  0  0
 13 15  1  0  0  0  0
 13 22  1  0  0  0  0
 14 32  1  0  0  0  0
 15 16  1  6  0  0  0
 15 17  1  0  0  0  0
 16 23  1  0  0  0  0
 17 18  1  1  0  0  0
 17 19  1  0  0  0  0
 19  2  1  6  0  0  0
 19 20  1  0  0  0  0
 20 21  1  1  0  0  0
 20 22  1  0  0  0  0
 23 24  1  0  0  0  0
 24 25  1  0  0  0  0
 25 26  1  0  0  0  0
 26 27  1  0  0  0  0
 27 28  1  0  0  0  0
 28 29  1  0  0  0  0
 29 30  1  0  0  0  0
 31 37  1  0  0  0  0
 32 33  2  0  0  0  0
 34 32  1  6  0  0  0
 34 35  1  0  0  0  0
 34 36  1  0  0  0  0
 36 37  1  0  0  0  0
M  END
>  <CHROM.1>
-161.77642956,-71.90981917,-56.04115263,-51.20792664,57.78901669,127.97531789
-132.54293847,110.94539899,-55.09817517,-89.44804224,-171.37090427,-63.26901016
-84.26317104,-130.73227111,169.56131458,6.15878431,-1.14949243,10.24628463
-0.32923514,-0.57441038,1.25021007

>  <Name>
1o9m_lig

>  <RI>
0

>  <Rbt.Current_Directory>
/home/itssahil/PROJECTS/Mol_Feturizer/New_Systems/rnas/1o9m

>  <Rbt.Executable>
rbdock ($Id: //depot/dev/client3/rdock/2013.1/src/exe/rbdock.cxx#4 $)

>  <Rbt.Library>
libRbt.so (2013.1, Build901 2013/11/27)

>  <Rbt.Parameter_File>
/export/apps/rDock/src/rDock_2013.1_src/data/scripts/dock_solv.prm

>  <Rbt.Receptor>
prm/blind_docking_60.prm

>  <SCORE>
-9.33919

>  <SCORE.INTER>
-12.1143

>  <SCORE.INTER.CONST>
1

>  <SCORE.INTER.POLAR>
-3.31957

>  <SCORE.INTER.ROT>
15

>  <SCORE.INTER.SOLV>
20.6922

>  <SCORE.INTER.VDW>
-17.5084

>  <SCORE.INTER.norm>
-0.327414

>  <SCORE.INTRA>
2.77515

>  <SCORE.INTRA.DIHEDRAL>
3.19416

>  <SCORE.INTRA.DIHEDRAL.0>
21.5987

>  <SCORE.INTRA.POLAR>
0

>  <SCORE.INTRA.POLAR.0>
0

>  <SCORE.INTRA.REPUL>
0

>  <SCORE.INTRA.REPUL.0>
0

>  <SCORE.INTRA.SOLV>
5.29

>  <SCORE.INTRA.SOLV.lig_0>
-108.715

>  <SCORE.INTRA.VDW>
-1.46693

>  <SCORE.INTRA.VDW.0>
-3.9485

>  <SCORE.INTRA.norm>
0.075004

>  <SCORE.RESTR>
0

>  <SCORE.RESTR.CAVITY>
0

>  <SCORE.RESTR.norm>
0

>  <SCORE.SYSTEM>
0

>  <SCORE.SYSTEM.CONST>
0

>  <SCORE.SYSTEM.DIHEDRAL>
0

>  <SCORE.SYSTEM.SOLV>
0

>  <SCORE.SYSTEM.norm>
0

>  <SCORE.heavy>
37

>  <SCORE.norm>
-0.25241

>  <RMSD>
23.384

$$$$
1o9m_lig
 OpenBabel11021811403D
libRbt.so/2013.1/901 2013/11/27
 37 38  0  0  0  0  0  0  0  0999 V2000
   10.5438   -1.6823   10.1361 C   0  0  2  0  0  0  0  0  0  0  0  0
   10.0595   -0.3139   10.2949 O   0  0  0  0  0  0  0  0  0  0  0  0
   11.8107   -1.6001    9.2073 C   0  0  2  0  0  0  0  0  0  0  0  0
   12.8624   -0.7385    9.7754 N   0  0  0  0  0  0  0  0  0  0  0  0
   11.3731   -1.0822    7.7846 C   0  0  1  0  0  0  0  0  0  0  0  0
   12.5091   -1.0003    6.9197 O   0  0  0  0  0  0  0  0  0  0  0  0
   10.2765   -2.0509    7.2309 C   0  0  2  0  0  0  0  0  0  0  0  0
    9.7900   -1.6606    5.9364 O   0  0  0  0  0  0  0  0  0  0  0  0
    9.0795   -2.1372    8.2098 C   0  0  2  0  0  0  0  0  0  0  0  0
    9.5167   -2.5292    9.5193 O   0  0  0  0  0  0  0  0  0  0  0  0
    8.0333   -3.1080    7.7264 C   0  0  0  0  0  0  0  0  0  0  0  0
    7.0470   -3.2547    8.6724 N   0  0  0  0  0  0  0  0  0  0  0  0
    6.4964   -0.7891   12.7237 C   0  0  1  0  0  0  0  0  0  0  0  0
    5.3552   -0.4463   13.6180 N   0  0  0  0  0  0  0  0  0  0  0  0
    6.3799    0.0266   11.4433 C   0  0  2  0  0  0  0  0  0  0  0  0
    5.1401   -0.2556   10.8658 O   0  0  0  0  0  0  0  0  0  0  0  0
    7.5481   -0.3143   10.4651 C   0  0  1  0  0  0  0  0  0  0  0  0
    7.4377    0.4895    9.2509 O   0  0  0  0  0  0  0  0  0  0  0  0
    8.9333    0.0050   11.1616 C   0  0  1  0  0  0  0  0  0  0  0  0
    9.0697   -0.8187   12.4331 C   0  0  1  0  0  0  0  0  0  0  0  0
   10.3545   -0.5216   13.0485 N   0  0  0  0  0  0  0  0  0  0  0  0
    7.8975   -0.4944   13.3974 C   0  0  0  0  0  0  0  0  0  0  0  0
    3.9816   -0.0952   10.0180 C   0  0  0  0  0  0  0  0  0  0  0  0
    4.4330    0.2773    8.6244 C   0  0  0  0  0  0  0  0  0  0  0  0
    3.3371    0.3676    7.6376 N   0  0  0  0  0  0  0  0  0  0  0  0
    2.1458    0.8364    6.8936 C   0  0  0  0  0  0  0  0  0  0  0  0
    1.3858   -0.4959    6.8744 C   0  0  0  0  0  0  0  0  0  0  0  0
    2.0447   -1.5323    5.9450 C   0  0  0  0  0  0  0  0  0  0  0  0
    1.2059   -2.8036    5.8581 C   0  0  0  0  0  0  0  0  0  0  0  0
    1.8111   -3.7390    4.9205 N   0  0  0  0  0  0  0  0  0  0  0  0
    2.7085    2.5857   12.1586 N   0  0  0  0  0  0  0  0  0  0  0  0
    3.8774   -1.3053   13.1437 C   0  0  0  0  0  0  0  0  0  0  0  0
    3.6231   -2.0169   12.3736 O   0  0  0  0  0  0  0  0  0  0  0  0
    3.2104   -0.5655   14.2774 C   0  0  2  0  0  0  0  0  0  0  0  0
    2.1873   -1.3023   14.8181 O   0  0  0  0  0  0  0  0  0  0  0  0
    2.5815    0.6876   13.6782 C   0  0  0  0  0  0  0  0  0  0  0  0
    3.5284    1.6677   12.9623 C   0  0  0  0  0  0  0  0  0  0  0  0
  1  2  1  6  0  0  0
  1  3  1  0  0  0  0
  3  4  1  1  0  0  0
  3  5  1  0  0  0  0
  5  6  1  6  0  0  0
  5  7  1  0  0  0  0
  7  8  1  6  0  0  0
  9  7  1  0  0  0  0
  9 10  1  0  0  0  0
  9 11  1  6  0  0  0
 10  1  1  0  0  0  0
 11 12  1  0  0  0  0
 13 14  1  1  0  0  0
 13 15  1  0  0  0  0
 13 22  1  0  0  0  0
 14 32  1  0  0  0  0
 15 16  1  6  0  0  0
 15 17  1  0  0  0  0
 16 23  1  0  0  0  0
 17 18  1  6  0  0  0
 17 19  1  0  0  0  0
 19  2  1  6  0  0  0
 19 20  1  0  0  0  0
 20 21  1  1  0  0  0
 20 22  1  0  0  0  0
 23 24  1  0  0  0  0
 24 25  1  0  0  0  0
 25 26  1  0  0  0  0
 26 27  1  0  0  0  0
 27 28  1  0  0  0  0
 28 29  1  0  0  0  0
 29 30  1  0  0  0  0
 31 37  1  0  0  0  0
 32 33  2  0  0  0  0
 34 32  1  6  0  0  0
 34 35  1  0  0  0  0
 34 36  1  0  0  0  0
 36 37  1  0  0  0  0
M  END
>  <CHROM.1>
-176.42396871,174.45083609,80.35989315,162.22158613,45.27851989,-79.66211039
175.54466852,71.56138759,-130.84509323,-70.67729552,-175.33732431,176.99459776
-149.53495579,-58.95295270,164.77241567,6.47172539,-0.85880949,9.97809054
-0.20495668,-0.06212024,1.33895357

>  <Name>
1o9m_lig

>  <RI>
0

>  <Rbt.Current_Directory>
/home/itssahil/PROJECTS/Mol_Feturizer/New_Systems/rnas/1o9m

>  <Rbt.Executable>
rbdock ($Id: //depot/dev/client3/rdock/2013.1/src/exe/rbdock.cxx#4 $)

>  <Rbt.Library>
libRbt.so (2013.1, Build901 2013/11/27)

>  <Rbt.Parameter_File>
/export/apps/rDock/src/rDock_2013.1_src/data/scripts/dock_solv.prm

>  <Rbt.Receptor>
prm/blind_docking_20.prm

>  <SCORE>
-12.6291

>  <SCORE.INTER>
-7.58457

>  <SCORE.INTER.CONST>
1

>  <SCORE.INTER.POLAR>
-1.43111

>  <SCORE.INTER.ROT>
15

>  <SCORE.INTER.SOLV>
15.6091

>  <SCORE.INTER.VDW>
-19.089

>  <SCORE.INTER.norm>
-0.204988

>  <SCORE.INTRA>
-5.04451

>  <SCORE.INTRA.DIHEDRAL>
-12.394

>  <SCORE.INTRA.DIHEDRAL.0>
21.5987

>  <SCORE.INTRA.POLAR>
0

>  <SCORE.INTRA.POLAR.0>
0

>  <SCORE.INTRA.REPUL>
0

>  <SCORE.INTRA.REPUL.0>
0

>  <SCORE.INTRA.SOLV>
3.96714

>  <SCORE.INTRA.SOLV.lig_0>
-108.715

>  <SCORE.INTRA.VDW>
-0.831091

>  <SCORE.INTRA.VDW.0>
-3.9485

>  <SCORE.INTRA.norm>
-0.136338

>  <SCORE.RESTR>
0

>  <SCORE.RESTR.CAVITY>
0

>  <SCORE.RESTR.norm>
0

>  <SCORE.SYSTEM>
0

>  <SCORE.SYSTEM.CONST>
0

>  <SCORE.SYSTEM.DIHEDRAL>
0

>  <SCORE.SYSTEM.SOLV>
0

>  <SCORE.SYSTEM.norm>
0

>  <SCORE.heavy>
37

>  <SCORE.norm>
-0.341327

>  <RMSD>
23.395

$$$$
1o9m_lig
 OpenBabel11021811403D
libRbt.so/2013.1/901 2013/11/27
 37 38  0  0  0  0  0  0  0  0999 V2000
    9.6286   -1.3263   10.0780 C   0  0  2  0  0  0  0  0  0  0  0  0
    8.7976   -0.9196    8.9483 O   0  0  0  0  0  0  0  0  0  0  0  0
   10.0620   -0.0029   10.8097 C   0  0  2  0  0  0  0  0  0  0  0  0
    8.9041    0.7825   11.2716 N   0  0  0  0  0  0  0  0  0  0  0  0
   10.9635    0.8505    9.8387 C   0  0  1  0  0  0  0  0  0  0  0  0
   11.3726    2.0602   10.4827 O   0  0  0  0  0  0  0  0  0  0  0  0
   12.1817   -0.0308    9.4065 C   0  0  2  0  0  0  0  0  0  0  0  0
   13.0669    0.6475    8.5002 O   0  0  0  0  0  0  0  0  0  0  0  0
   11.6977   -1.3441    8.7437 C   0  0  2  0  0  0  0  0  0  0  0  0
   10.8116   -2.0609    9.6157 O   0  0  0  0  0  0  0  0  0  0  0  0
   12.8519   -2.2372    8.3684 C   0  0  0  0  0  0  0  0  0  0  0  0
   12.3889   -3.3981    7.7963 N   0  0  0  0  0  0  0  0  0  0  0  0
    4.8315   -2.1389    7.6819 C   0  0  1  0  0  0  0  0  0  0  0  0
    3.7259   -3.0000    7.1761 N   0  0  0  0  0  0  0  0  0  0  0  0
    5.3913   -2.7558    8.9565 C   0  0  2  0  0  0  0  0  0  0  0  0
    4.3429   -2.8777    9.8709 O   0  0  0  0  0  0  0  0  0  0  0  0
    6.5437   -1.8750    9.5343 C   0  0  1  0  0  0  0  0  0  0  0  0
    7.0867   -2.4877   10.7436 O   0  0  0  0  0  0  0  0  0  0  0  0
    7.7031   -1.7493    8.4639 C   0  0  1  0  0  0  0  0  0  0  0  0
    7.1600   -1.1166    7.1917 C   0  0  1  0  0  0  0  0  0  0  0  0
    8.2438   -0.9968    6.2281 N   0  0  0  0  0  0  0  0  0  0  0  0
    6.0012   -1.9818    6.6279 C   0  0  0  0  0  0  0  0  0  0  0  0
    3.0305   -3.2027   10.3794 C   0  0  0  0  0  0  0  0  0  0  0  0
    3.0824   -3.2605   11.8889 C   0  0  0  0  0  0  0  0  0  0  0  0
    3.1449   -1.9372   12.5430 N   0  0  0  0  0  0  0  0  0  0  0  0
    2.7608   -0.6152   13.0882 C   0  0  0  0  0  0  0  0  0  0  0  0
    3.9859    0.1665   12.5970 C   0  0  0  0  0  0  0  0  0  0  0  0
    4.0757    1.5695   13.2260 C   0  0  0  0  0  0  0  0  0  0  0  0
    2.8088    2.3749   12.9550 C   0  0  0  0  0  0  0  0  0  0  0  0
    2.6677    2.6197   11.5265 N   0  0  0  0  0  0  0  0  0  0  0  0
   -1.6073   -3.2973    6.8991 N   0  0  0  0  0  0  0  0  0  0  0  0
    3.0010   -2.3280    5.7031 C   0  0  0  0  0  0  0  0  0  0  0  0
    3.1826   -1.4569    5.0931 O   0  0  0  0  0  0  0  0  0  0  0  0
    2.0604   -3.5070    5.7555 C   0  0  2  0  0  0  0  0  0  0  0  0
    1.8354   -4.0195    4.5030 O   0  0  0  0  0  0  0  0  0  0  0  0
    0.7219   -2.9824    6.2634 C   0  0  0  0  0  0  0  0  0  0  0  0
   -0.4064   -4.0137    6.4453 C   0  0  0  0  0  0  0  0  0  0  0  0
  1  2  1  6  0  0  0
  1  3  1  0  0  0  0
  3  4  1  6  0  0  0
  3  5  1  0  0  0  0
  5  6  1  1  0  0  0
  5  7  1  0  0  0  0
  7  8  1  6  0  0  0
  9  7  1  0  0  0  0
  9 10  1  0  0  0  0
  9 11  1  1  0  0  0
 10  1  1  0  0  0  0
 11 12  1  0  0  0  0
 13 14  1  6  0  0  0
 13 15  1  0  0  0  0
 13 22  1  0  0  0  0
 14 32  1  0  0  0  0
 15 16  1  1  0  0  0
 15 17  1  0  0  0  0
 16 23  1  0  0  0  0
 17 18  1  1  0  0  0
 17 19  1  0  0  0  0
 19  2  1  1  0  0  0
 19 20  1  0  0  0  0
 20 21  1  6  0  0  0
 20 22  1  0  0  0  0
 23 24  1  0  0  0  0
 24 25  1  0  0  0  0
 25 26  1  0  0  0  0
 26 27  1  0  0  0  0
 27 28  1  0  0  0  0
 28 29  1  0  0  0  0
 29 30  1  0  0  0  0
 31 37  1  0  0  0  0
 32 33  2  0  0  0  0
 34 32  1  6  0  0  0
 34 35  1  0  0  0  0
 34 36  1  0  0  0  0
 36 37  1  0  0  0  0
M  END
>  <CHROM.1>
-148.09410566,179.37767992,178.96941469,46.98308924,161.91666643,65.81078415
75.29183907,76.58576976,-137.58455873,-168.64074707,-56.67503306,-64.53222942
-139.69369222,-178.28200379,-178.34308490,6.18019280,-1.39819619,9.06078996
0.23018930,0.10880609,1.06018641

>  <Name>
1o9m_lig

>  <RI>
0

>  <Rbt.Current_Directory>
/home/itssahil/PROJECTS/Mol_Feturizer/New_Systems/rnas/1o9m

>  <Rbt.Executable>
rbdock ($Id: //depot/dev/client3/rdock/2013.1/src/exe/rbdock.cxx#4 $)

>  <Rbt.Library>
libRbt.so (2013.1, Build901 2013/11/27)

>  <Rbt.Parameter_File>
/export/apps/rDock/src/rDock_2013.1_src/data/scripts/dock_solv.prm

>  <Rbt.Receptor>
prm/blind_docking_20.prm

>  <SCORE>
-8.43889

>  <SCORE.INTER>
-4.50983

>  <SCORE.INTER.CONST>
1

>  <SCORE.INTER.POLAR>
-0.875831

>  <SCORE.INTER.ROT>
15

>  <SCORE.INTER.SOLV>
18.3299

>  <SCORE.INTER.VDW>
-19.7971

>  <SCORE.INTER.norm>
-0.121887

>  <SCORE.INTRA>
-4.33604

>  <SCORE.INTRA.DIHEDRAL>
-10.3246

>  <SCORE.INTRA.DIHEDRAL.0>
21.5987

>  <SCORE.INTRA.POLAR>
0

>  <SCORE.INTRA.POLAR.0>
0

>  <SCORE.INTRA.REPUL>
0

>  <SCORE.INTRA.REPUL.0>
0

>  <SCORE.INTRA.SOLV>
0.414833

>  <SCORE.INTRA.SOLV.lig_0>
-108.715

>  <SCORE.INTRA.VDW>
0.61886

>  <SCORE.INTRA.VDW.0>
-3.9485

>  <SCORE.INTRA.norm>
-0.11719

>  <SCORE.RESTR>
0.406978

>  <SCORE.RESTR.CAVITY>
0.406978

>  <SCORE.RESTR.norm>
0.0109994

>  <SCORE.SYSTEM>
0

>  <SCORE.SYSTEM.CONST>
0

>  <SCORE.SYSTEM.DIHEDRAL>
0

>  <SCORE.SYSTEM.SOLV>
0

>  <SCORE.SYSTEM.norm>
0

>  <SCORE.heavy>
37

>  <SCORE.norm>
-0.228078

>  <RMSD>
23.408

$$$$
1o9m_lig
 OpenBabel11021811403D
libRbt.so/2013.1/901 2013/11/27
 37 38  0  0  0  0  0  0  0  0999 V2000
    9.2570   -2.9021    9.8274 C   0  0  2  0  0  0  0  0  0  0  0  0
    8.2208   -3.9097    9.6195 O   0  0  0  0  0  0  0  0  0  0  0  0
   10.3325   -3.5588   10.7689 C   0  0  2  0  0  0  0  0  0  0  0  0
   10.9076   -4.7842   10.1872 N   0  0  0  0  0  0  0  0  0  0  0  0
    9.6750   -3.8610   12.1690 C   0  0  1  0  0  0  0  0  0  0  0  0
   10.6350   -4.4579   13.0451 O   0  0  0  0  0  0  0  0  0  0  0  0
    9.1075   -2.5193   12.7392 C   0  0  2  0  0  0  0  0  0  0  0  0
    8.4659   -2.6825   14.0146 O   0  0  0  0  0  0  0  0  0  0  0  0
    8.0977   -1.8888   11.7486 C   0  0  2  0  0  0  0  0  0  0  0  0
    8.6962   -1.7017   10.4578 O   0  0  0  0  0  0  0  0  0  0  0  0
    7.5780   -0.5659   12.2492 C   0  0  0  0  0  0  0  0  0  0  0  0
    8.5734    0.3812   12.2124 N   0  0  0  0  0  0  0  0  0  0  0  0
    4.9372   -1.6525    7.9038 C   0  0  1  0  0  0  0  0  0  0  0  0
    3.6716   -1.3550    7.1762 N   0  0  0  0  0  0  0  0  0  0  0  0
    4.6277   -2.5830    9.0686 C   0  0  2  0  0  0  0  0  0  0  0  0
    3.6765   -1.9570    9.8771 O   0  0  0  0  0  0  0  0  0  0  0  0
    5.9254   -2.9082    9.8734 C   0  0  1  0  0  0  0  0  0  0  0  0
    5.6196   -3.8180   10.9740 O   0  0  0  0  0  0  0  0  0  0  0  0
    6.9814   -3.6016    8.9195 C   0  0  1  0  0  0  0  0  0  0  0  0
    7.3131   -2.6733    7.7611 C   0  0  1  0  0  0  0  0  0  0  0  0
    8.2951   -3.3230    6.9060 N   0  0  0  0  0  0  0  0  0  0  0  0
    6.0198   -2.3341    6.9726 C   0  0  0  0  0  0  0  0  0  0  0  0
    2.4196   -1.3568   10.2597 C   0  0  0  0  0  0  0  0  0  0  0  0
    2.4475   -1.0438   11.7382 C   0  0  0  0  0  0  0  0  0  0  0  0
    3.0123    0.2817   12.0653 N   0  0  0  0  0  0  0  0  0  0  0  0
    3.9711    1.3755   12.3424 C   0  0  0  0  0  0  0  0  0  0  0  0
    3.1672    2.0696   13.4491 C   0  0  0  0  0  0  0  0  0  0  0  0
    2.0130    2.9212   12.8879 C   0  0  0  0  0  0  0  0  0  0  0  0
    1.0826    3.3882   14.0031 C   0  0  0  0  0  0  0  0  0  0  0  0
    1.8536    4.0113   15.0697 N   0  0  0  0  0  0  0  0  0  0  0  0
   -0.6462   -3.5123    6.2971 N   0  0  0  0  0  0  0  0  0  0  0  0
    3.0506   -2.7905    6.3392 C   0  0  0  0  0  0  0  0  0  0  0  0
    3.3698   -3.8170    6.2472 O   0  0  0  0  0  0  0  0  0  0  0  0
    1.9417   -1.8930    5.8469 C   0  0  2  0  0  0  0  0  0  0  0  0
    1.0868   -1.5548    6.8651 O   0  0  0  0  0  0  0  0  0  0  0  0
    1.1305   -2.7034    4.8419 C   0  0  0  0  0  0  0  0  0  0  0  0
    0.4105   -3.9549    5.3759 C   0  0  0  0  0  0  0  0  0  0  0  0
  1  2  1  1  0  0  0
  1  3  1  0  0  0  0
  3  4  1  6  0  0  0
  3  5  1  0  0  0  0
  5  6  1  1  0  0  0
  5  7  1  0  0  0  0
  7  8  1  1  0  0  0
  9  7  1  0  0  0  0
  9 10  1  0  0  0  0
  9 11  1  1  0  0  0
 10  1  1  0  0  0  0
 11 12  1  0  0  0  0
 13 14  1  6  0  0  0
 13 15  1  0  0  0  0
 13 22  1  0  0  0  0
 14 32  1  0  0  0  0
 15 16  1  1  0  0  0
 15 17  1  0  0  0  0
 16 23  1  0  0  0  0
 17 18  1  1  0  0  0
 17 19  1  0  0  0  0
 19  2  1  1  0  0  0
 19 20  1  0  0  0  0
 20 21  1  6  0  0  0
 20 22  1  0  0  0  0
 23 24  1  0  0  0  0
 24 25  1  0  0  0  0
 25 26  1  0  0  0  0
 26 27  1  0  0  0  0
 27 28  1  0  0  0  0
 28 29  1  0  0  0  0
 29 30  1  0  0  0  0
 31 37  1  0  0  0  0
 32 33  2  0  0  0  0
 34 32  1  1  0  0  0
 34 35  1  0  0  0  0
 34 36  1  0  0  0  0
 36 37  1  0  0  0  0
M  END
>  <CHROM.1>
172.80206277,69.69108808,-68.48638806,62.11180275,174.03755808,-82.00368840
87.61086149,-81.45694554,-142.54413751,-77.76477088,169.59120981,51.06032430
-70.77112492,63.25911950,67.08593186,5.32035661,-1.82956359,9.97373583,-0.21101782
0.40580560,-2.17968435

>  <Name>
1o9m_lig

>  <RI>
0

>  <Rbt.Current_Directory>
/home/itssahil/PROJECTS/Mol_Feturizer/New_Systems/rnas/1o9m

>  <Rbt.Executable>
rbdock ($Id: //depot/dev/client3/rdock/2013.1/src/exe/rbdock.cxx#4 $)

>  <Rbt.Library>
libRbt.so (2013.1, Build901 2013/11/27)

>  <Rbt.Parameter_File>
/export/apps/rDock/src/rDock_2013.1_src/data/scripts/dock_solv.prm

>  <Rbt.Receptor>
prm/blind_docking_80.prm

>  <SCORE>
-3.00995

>  <SCORE.INTER>
-0.487439

>  <SCORE.INTER.CONST>
1

>  <SCORE.INTER.POLAR>
-0.928125

>  <SCORE.INTER.ROT>
15

>  <SCORE.INTER.SOLV>
13.0283

>  <SCORE.INTER.VDW>
-15.174

>  <SCORE.INTER.norm>
-0.013174

>  <SCORE.INTRA>
-2.55756

>  <SCORE.INTRA.DIHEDRAL>
-12.0868

>  <SCORE.INTRA.DIHEDRAL.0>
21.5987

>  <SCORE.INTRA.POLAR>
0

>  <SCORE.INTRA.POLAR.0>
0

>  <SCORE.INTRA.REPUL>
0

>  <SCORE.INTRA.REPUL.0>
0

>  <SCORE.INTRA.SOLV>
5.51504

>  <SCORE.INTRA.SOLV.lig_0>
-108.715

>  <SCORE.INTRA.VDW>
0.728322

>  <SCORE.INTRA.VDW.0>
-3.9485

>  <SCORE.INTRA.norm>
-0.0691233

>  <SCORE.RESTR>
0.0350485

>  <SCORE.RESTR.CAVITY>
0.0350485

>  <SCORE.RESTR.norm>
0.000947256

>  <SCORE.SYSTEM>
0

>  <SCORE.SYSTEM.CONST>
0

>  <SCORE.SYSTEM.DIHEDRAL>
0

>  <SCORE.SYSTEM.SOLV>
0

>  <SCORE.SYSTEM.norm>
0

>  <SCORE.heavy>
37

>  <SCORE.norm>
-0.08135

>  <RMSD>
23.419

$$$$
1o9m_lig
 OpenBabel11021811403D
libRbt.so/2013.1/901 2013/11/27
 37 38  0  0  0  0  0  0  0  0999 V2000
   10.8757   -0.2864    9.1411 C   0  0  2  0  0  0  0  0  0  0  0  0
    9.4668   -0.6378    9.2947 O   0  0  0  0  0  0  0  0  0  0  0  0
   11.4892   -1.3366    8.1436 C   0  0  2  0  0  0  0  0  0  0  0  0
   10.8059   -1.3295    6.8382 N   0  0  0  0  0  0  0  0  0  0  0  0
   11.4247   -2.7682    8.7994 C   0  0  1  0  0  0  0  0  0  0  0  0
   11.9792   -3.7422    7.9110 O   0  0  0  0  0  0  0  0  0  0  0  0
   12.1858   -2.7118   10.1651 C   0  0  2  0  0  0  0  0  0  0  0  0
   12.1748   -3.9685   10.8618 O   0  0  0  0  0  0  0  0  0  0  0  0
   11.5771   -1.6248   11.0850 C   0  0  2  0  0  0  0  0  0  0  0  0
   11.5706   -0.3469   10.4320 O   0  0  0  0  0  0  0  0  0  0  0  0
   12.3283   -1.5114   12.3863 C   0  0  0  0  0  0  0  0  0  0  0  0
   11.8645   -0.4401   13.1118 N   0  0  0  0  0  0  0  0  0  0  0  0
    5.8763    1.0334   11.0657 C   0  0  1  0  0  0  0  0  0  0  0  0
    4.8814    2.0414   11.5280 N   0  0  0  0  0  0  0  0  0  0  0  0
    6.0600    1.1779    9.5611 C   0  0  2  0  0  0  0  0  0  0  0  0
    4.8105    1.0163    8.9587 O   0  0  0  0  0  0  0  0  0  0  0  0
    7.0833    0.1262    9.0278 C   0  0  1  0  0  0  0  0  0  0  0  0
    7.2671    0.2890    7.5883 O   0  0  0  0  0  0  0  0  0  0  0  0
    8.4792    0.3333    9.7449 C   0  0  1  0  0  0  0  0  0  0  0  0
    8.3121    0.1725   11.2483 C   0  0  1  0  0  0  0  0  0  0  0  0
    9.6079    0.3517   11.8858 N   0  0  0  0  0  0  0  0  0  0  0  0
    7.2800    1.2051   11.7756 C   0  0  0  0  0  0  0  0  0  0  0  0
    3.3986    1.2010    8.7156 C   0  0  0  0  0  0  0  0  0  0  0  0
    2.9991    0.4181    7.4861 C   0  0  0  0  0  0  0  0  0  0  0  0
    3.4761   -0.9802    7.4779 N   0  0  0  0  0  0  0  0  0  0  0  0
    3.8891   -2.3255    7.0175 C   0  0  0  0  0  0  0  0  0  0  0  0
    5.2987   -2.3192    7.6226 C   0  0  0  0  0  0  0  0  0  0  0  0
    6.1907   -3.4314    7.0400 C   0  0  0  0  0  0  0  0  0  0  0  0
    7.4969   -3.5521    7.8189 C   0  0  0  0  0  0  0  0  0  0  0  0
    7.2294   -4.0035    9.1772 N   0  0  0  0  0  0  0  0  0  0  0  0
    0.7771    1.6690   15.4946 N   0  0  0  0  0  0  0  0  0  0  0  0
    4.3070    1.6827   13.1675 C   0  0  0  0  0  0  0  0  0  0  0  0
    4.5187    0.9188   13.8994 O   0  0  0  0  0  0  0  0  0  0  0  0
    3.4239    2.8963   13.0093 C   0  0  2  0  0  0  0  0  0  0  0  0
    3.9192    3.9663   13.7106 O   0  0  0  0  0  0  0  0  0  0  0  0
    2.0769    2.5470   13.6322 C   0  0  0  0  0  0  0  0  0  0  0  0
    2.0524    2.3162   15.1541 C   0  0  0  0  0  0  0  0  0  0  0  0
  1  2  1  1  0  0  0
  1  3  1  0  0  0  0
  3  4  1  6  0  0  0
  3  5  1  0  0  0  0
  5  6  1  6  0  0  0
  5  7  1  0  0  0  0
  7  8  1  1  0  0  0
  9  7  1  0  0  0  0
  9 10  1  0  0  0  0
  9 11  1  1  0  0  0
 10  1  1  0  0  0  0
 11 12  1  0  0  0  0
 13 14  1  1  0  0  0
 13 15  1  0  0  0  0
 13 22  1  0  0  0  0
 14 32  1  0  0  0  0
 15 16  1  6  0  0  0
 15 17  1  0  0  0  0
 16 23  1  0  0  0  0
 17 18  1  6  0  0  0
 17 19  1  0  0  0  0
 19  2  1  6  0  0  0
 19 20  1  0  0  0  0
 20 21  1  1  0  0  0
 20 22  1  0  0  0  0
 23 24  1  0  0  0  0
 24 25  1  0  0  0  0
 25 26  1  0  0  0  0
 26 27  1  0  0  0  0
 27 28  1  0  0  0  0
 28 29  1  0  0  0  0
 29 30  1  0  0  0  0
 31 37  1  0  0  0  0
 32 33  2  0  0  0  0
 34 32  1  1  0  0  0
 34 35  1  0  0  0  0
 34 36  1  0  0  0  0
 36 37  1  0  0  0  0
M  END
>  <CHROM.1>
-158.14658363,173.04193718,165.67374632,48.94203420,175.81761867,144.08979533
48.54635117,-158.24742764,123.24563840,-165.00529221,-170.45989823,65.81478786
-103.89540508,66.08138477,-165.77089240,7.26317647,-0.33160057,10.29092601
-0.52227087,-0.25477792,1.07828827

>  <Name>
1o9m_lig

>  <RI>
0

>  <Rbt.Current_Directory>
/home/itssahil/PROJECTS/Mol_Feturizer/New_Systems/rnas/1o9m

>  <Rbt.Executable>
rbdock ($Id: //depot/dev/client3/rdock/2013.1/src/exe/rbdock.cxx#4 $)

>  <Rbt.Library>
libRbt.so (2013.1, Build901 2013/11/27)

>  <Rbt.Parameter_File>
/export/apps/rDock/src/rDock_2013.1_src/data/scripts/dock_solv.prm

>  <Rbt.Receptor>
prm/blind_docking_80.prm

>  <SCORE>
-6.66055

>  <SCORE.INTER>
-5.29168

>  <SCORE.INTER.CONST>
1

>  <SCORE.INTER.POLAR>
-0.450469

>  <SCORE.INTER.ROT>
15

>  <SCORE.INTER.SOLV>
16.3172

>  <SCORE.INTER.VDW>
-21.0653

>  <SCORE.INTER.norm>
-0.143018

>  <SCORE.INTRA>
-1.49309

>  <SCORE.INTRA.DIHEDRAL>
-7.56407

>  <SCORE.INTRA.DIHEDRAL.0>
21.5987

>  <SCORE.INTRA.POLAR>
0

>  <SCORE.INTRA.POLAR.0>
0

>  <SCORE.INTRA.REPUL>
0.00036851

>  <SCORE.INTRA.REPUL.0>
0

>  <SCORE.INTRA.SOLV>
7.47938

>  <SCORE.INTRA.SOLV.lig_0>
-108.715

>  <SCORE.INTRA.VDW>
-1.45258

>  <SCORE.INTRA.VDW.0>
-3.9485

>  <SCORE.INTRA.norm>
-0.0403537

>  <SCORE.RESTR>
0.124217

>  <SCORE.RESTR.CAVITY>
0.124217

>  <SCORE.RESTR.norm>
0.00335722

>  <SCORE.SYSTEM>
0

>  <SCORE.SYSTEM.CONST>
0

>  <SCORE.SYSTEM.DIHEDRAL>
0

>  <SCORE.SYSTEM.SOLV>
0

>  <SCORE.SYSTEM.norm>
0

>  <SCORE.heavy>
37

>  <SCORE.norm>
-0.180015

>  <RMSD>
23.419

$$$$
1o9m_lig
 OpenBabel11021811403D
libRbt.so/2013.1/901 2013/11/27
 37 38  0  0  0  0  0  0  0  0999 V2000
    8.6282   -3.4095   11.3495 C   0  0  2  0  0  0  0  0  0  0  0  0
    7.6519   -2.8504   12.2803 O   0  0  0  0  0  0  0  0  0  0  0  0
    9.5278   -4.3917   12.1865 C   0  0  2  0  0  0  0  0  0  0  0  0
    8.7407   -5.4635   12.8210 N   0  0  0  0  0  0  0  0  0  0  0  0
   10.3214   -3.5663   13.2695 C   0  0  1  0  0  0  0  0  0  0  0  0
   11.1495   -4.4383   14.0436 O   0  0  0  0  0  0  0  0  0  0  0  0
   11.1506   -2.4651   12.5298 C   0  0  2  0  0  0  0  0  0  0  0  0
   11.9051   -1.6367   13.4295 O   0  0  0  0  0  0  0  0  0  0  0  0
   10.2234   -1.5632   11.6782 C   0  0  2  0  0  0  0  0  0  0  0  0
    9.4504   -2.3478   10.7583 O   0  0  0  0  0  0  0  0  0  0  0  0
   11.0045   -0.5282   10.9106 C   0  0  0  0  0  0  0  0  0  0  0  0
   10.1550    0.2490   10.1598 N   0  0  0  0  0  0  0  0  0  0  0  0
    3.7262   -1.0572   11.8395 C   0  0  1  0  0  0  0  0  0  0  0  0
    2.6526   -0.1327   11.3788 N   0  0  0  0  0  0  0  0  0  0  0  0
    4.3298   -1.7529   10.6270 C   0  0  2  0  0  0  0  0  0  0  0  0
    3.3002   -2.4158    9.9557 O   0  0  0  0  0  0  0  0  0  0  0  0
    5.4502   -2.7484   11.0644 C   0  0  1  0  0  0  0  0  0  0  0  0
    6.0358   -3.3927    9.8921 O   0  0  0  0  0  0  0  0  0  0  0  0
    6.5884   -1.9615   11.8334 C   0  0  1  0  0  0  0  0  0  0  0  0
    6.0008   -1.2772   13.0583 C   0  0  1  0  0  0  0  0  0  0  0  0
    7.0651   -0.5732   13.7577 N   0  0  0  0  0  0  0  0  0  0  0  0
    4.8735   -0.3021   12.6252 C   0  0  0  0  0  0  0  0  0  0  0  0
    2.1779   -3.3017    9.7504 C   0  0  0  0  0  0  0  0  0  0  0  0
    1.6350   -3.1012    8.3541 C   0  0  0  0  0  0  0  0  0  0  0  0
    1.7997   -1.7288    7.8324 N   0  0  0  0  0  0  0  0  0  0  0  0
    1.5057   -0.3629    7.3421 C   0  0  0  0  0  0  0  0  0  0  0  0
    2.3728   -0.4140    6.0778 C   0  0  0  0  0  0  0  0  0  0  0  0
    2.0262   -1.6154    5.1785 C   0  0  0  0  0  0  0  0  0  0  0  0
    3.2257   -2.0327    4.3333 C   0  0  0  0  0  0  0  0  0  0  0  0
    3.0563   -3.4013    3.8658 N   0  0  0  0  0  0  0  0  0  0  0  0
    1.0770    3.3928   14.0262 N   0  0  0  0  0  0  0  0  0  0  0  0
    3.3171    1.4297   10.8649 C   0  0  0  0  0  0  0  0  0  0  0  0
    4.3075    1.8529   10.8006 O   0  0  0  0  0  0  0  0  0  0  0  0
    1.8863    1.8322   10.6035 C   0  0  2  0  0  0  0  0  0  0  0  0
    1.7669    2.4958    9.4088 O   0  0  0  0  0  0  0  0  0  0  0  0
    1.4986    2.8214   11.6972 C   0  0  0  0  0  0  0  0  0  0  0  0
    1.5018    2.2961   13.1442 C   0  0  0  0  0  0  0  0  0  0  0  0
  1  2  1  1  0  0  0
  1  3  1  0  0  0  0
  3  4  1  1  0  0  0
  3  5  1  0  0  0  0
  5  6  1  6  0  0  0
  5  7  1  0  0  0  0
  7  8  1  1  0  0  0
  9  7  1  0  0  0  0
  9 10  1  0  0  0  0
  9 11  1  6  0  0  0
 10  1  1  0  0  0  0
 11 12  1  0  0  0  0
 13 14  1  6  0  0  0
 13 15  1  0  0  0  0
 13 22  1  0  0  0  0
 14 32  1  0  0  0  0
 15 16  1  1  0  0  0
 15 17  1  0  0  0  0
 16 23  1  0  0  0  0
 17 18  1  6  0  0  0
 17 19  1  0  0  0  0
 19  2  1  1  0  0  0
 19 20  1  0  0  0  0
 20 21  1  6  0  0  0
 20 22  1  0  0  0  0
 23 24  1  0  0  0  0
 24 25  1  0  0  0  0
 25 26  1  0  0  0  0
 26 27  1  0  0  0  0
 27 28  1  0  0  0  0
 28 29  1  0  0  0  0
 29 30  1  0  0  0  0
 31 37  1  0  0  0  0
 32 33  2  0  0  0  0
 34 32  1  1  0  0  0
 34 35  1  0  0  0  0
 34 36  1  0  0  0  0
 36 37  1  0  0  0  0
M  END
>  <CHROM.1>
-175.73248271,179.61369617,-83.80313867,-54.23179213,173.22599824,74.24810331
-30.69895945,-113.10593333,-130.92369410,54.62829302,-153.66640941,159.95559943
-136.20575677,-63.04419562,-178.90211696,5.50770600,-1.29745637,10.66284215
-0.17696121,0.49767032,-2.17956120

>  <Name>
1o9m_lig

>  <RI>
0

>  <Rbt.Current_Directory>
/home/itssahil/PROJECTS/Mol_Feturizer/New_Systems/rnas/1o9m

>  <Rbt.Executable>
rbdock ($Id: //depot/dev/client3/rdock/2013.1/src/exe/rbdock.cxx#4 $)

>  <Rbt.Library>
libRbt.so (2013.1, Build901 2013/11/27)

>  <Rbt.Parameter_File>
/export/apps/rDock/src/rDock_2013.1_src/data/scripts/dock_solv.prm

>  <Rbt.Receptor>
prm/blind_docking_40.prm

>  <SCORE>
-6.79961

>  <SCORE.INTER>
-4.01539

>  <SCORE.INTER.CONST>
1

>  <SCORE.INTER.POLAR>
-1.76917

>  <SCORE.INTER.ROT>
15

>  <SCORE.INTER.SOLV>
20.6002

>  <SCORE.INTER.VDW>
-17.2464

>  <SCORE.INTER.norm>
-0.108524

>  <SCORE.INTRA>
-3.57625

>  <SCORE.INTRA.DIHEDRAL>
-8.5094

>  <SCORE.INTRA.DIHEDRAL.0>
21.5987

>  <SCORE.INTRA.POLAR>
0

>  <SCORE.INTRA.POLAR.0>
0

>  <SCORE.INTRA.REPUL>
0

>  <SCORE.INTRA.REPUL.0>
0

>  <SCORE.INTRA.SOLV>
0.482367

>  <SCORE.INTRA.SOLV.lig_0>
-108.715

>  <SCORE.INTRA.VDW>
0.437263

>  <SCORE.INTRA.VDW.0>
-3.9485

>  <SCORE.INTRA.norm>
-0.0966555

>  <SCORE.RESTR>
0.792038

>  <SCORE.RESTR.CAVITY>
0.792038

>  <SCORE.RESTR.norm>
0.0214064

>  <SCORE.SYSTEM>
0

>  <SCORE.SYSTEM.CONST>
0

>  <SCORE.SYSTEM.DIHEDRAL>
0

>  <SCORE.SYSTEM.SOLV>
0

>  <SCORE.SYSTEM.norm>
0

>  <SCORE.heavy>
37

>  <SCORE.norm>
-0.183773

>  <RMSD>
23.441

$$$$
1o9m_lig
 OpenBabel11021811403D
libRbt.so/2013.1/901 2013/11/27
 37 38  0  0  0  0  0  0  0  0999 V2000
   10.5355   -2.4583   11.0153 C   0  0  2  0  0  0  0  0  0  0  0  0
   10.1191   -2.0886    9.6654 O   0  0  0  0  0  0  0  0  0  0  0  0
   11.9977   -3.0245   10.8896 C   0  0  2  0  0  0  0  0  0  0  0  0
   12.9279   -2.0399   10.3096 N   0  0  0  0  0  0  0  0  0  0  0  0
   11.9673   -4.3409   10.0237 C   0  0  1  0  0  0  0  0  0  0  0  0
   13.2872   -4.8768    9.8962 O   0  0  0  0  0  0  0  0  0  0  0  0
   10.9831   -5.3481   10.7051 C   0  0  2  0  0  0  0  0  0  0  0  0
   10.8647   -6.5858    9.9847 O   0  0  0  0  0  0  0  0  0  0  0  0
    9.5755   -4.7198   10.8543 C   0  0  2  0  0  0  0  0  0  0  0  0
    9.6423   -3.4798   11.5736 O   0  0  0  0  0  0  0  0  0  0  0  0
    8.6220   -5.6497   11.5592 C   0  0  0  0  0  0  0  0  0  0  0  0
    9.0346   -5.8632   12.8528 N   0  0  0  0  0  0  0  0  0  0  0  0
    6.9663    0.6910    8.5910 C   0  0  1  0  0  0  0  0  0  0  0  0
    5.6032    1.2206    8.3064 N   0  0  0  0  0  0  0  0  0  0  0  0
    7.0065    0.1821   10.0256 C   0  0  2  0  0  0  0  0  0  0  0  0
    6.6537    1.2398   10.8664 O   0  0  0  0  0  0  0  0  0  0  0  0
    8.4256   -0.3670   10.3754 C   0  0  1  0  0  0  0  0  0  0  0  0
    8.4454   -0.8717   11.7456 O   0  0  0  0  0  0  0  0  0  0  0  0
    8.7931   -1.5519    9.3922 C   0  0  1  0  0  0  0  0  0  0  0  0
    8.7748   -1.0507    7.9561 C   0  0  1  0  0  0  0  0  0  0  0  0
    9.1295   -2.1503    7.0713 N   0  0  0  0  0  0  0  0  0  0  0  0
    7.3696   -0.4868    7.6144 C   0  0  0  0  0  0  0  0  0  0  0  0
    5.8148    2.2118   11.5284 C   0  0  0  0  0  0  0  0  0  0  0  0
    4.7655    1.4905   12.3427 C   0  0  0  0  0  0  0  0  0  0  0  0
    3.9151    2.3815   13.1587 N   0  0  0  0  0  0  0  0  0  0  0  0
    2.8738    3.3530   13.5642 C   0  0  0  0  0  0  0  0  0  0  0  0
    1.6881    2.3800   13.5784 C   0  0  0  0  0  0  0  0  0  0  0  0
    1.7911    1.3483   14.7174 C   0  0  0  0  0  0  0  0  0  0  0  0
    1.3942    1.9655   16.0548 C   0  0  0  0  0  0  0  0  0  0  0  0
    2.2626    3.0930   16.3627 N   0  0  0  0  0  0  0  0  0  0  0  0
    2.9319   -1.6620    6.3264 N   0  0  0  0  0  0  0  0  0  0  0  0
    4.3768   -0.0575    8.4016 C   0  0  0  0  0  0  0  0  0  0  0  0
    4.3912   -1.1127    8.6260 O   0  0  0  0  0  0  0  0  0  0  0  0
    3.3846    1.0127    8.0171 C   0  0  2  0  0  0  0  0  0  0  0  0
    3.0153    1.7623    9.1050 O   0  0  0  0  0  0  0  0  0  0  0  0
    2.1297    0.2972    7.5291 C   0  0  0  0  0  0  0  0  0  0  0  0
    2.2111   -0.3923    6.1551 C   0  0  0  0  0  0  0  0  0  0  0  0
  1  2  1  6  0  0  0
  1  3  1  0  0  0  0
  3  4  1  6  0  0  0
  3  5  1  0  0  0  0
  5  6  1  1  0  0  0
  5  7  1  0  0  0  0
  7  8  1  6  0  0  0
  9  7  1  0  0  0  0
  9 10  1  0  0  0  0
  9 11  1  1  0  0  0
 10  1  1  0  0  0  0
 11 12  1  0  0  0  0
 13 14  1  6  0  0  0
 13 15  1  0  0  0  0
 13 22  1  0  0  0  0
 14 32  1  0  0  0  0
 15 16  1  1  0  0  0
 15 17  1  0  0  0  0
 16 23  1  0  0  0  0
 17 18  1  1  0  0  0
 17 19  1  0  0  0  0
 19  2  1  1  0  0  0
 19 20  1  0  0  0  0
 20 21  1  6  0  0  0
 20 22  1  0  0  0  0
 23 24  1  0  0  0  0
 24 25  1  0  0  0  0
 25 26  1  0  0  0  0
 26 27  1  0  0  0  0
 27 28  1  0  0  0  0
 28 29  1  0  0  0  0
 29 30  1  0  0  0  0
 31 37  1  0  0  0  0
 32 33  2  0  0  0  0
 34 32  1  1  0  0  0
 34 35  1  0  0  0  0
 34 36  1  0  0  0  0
 36 37  1  0  0  0  0
M  END
>  <CHROM.1>
178.51302086,64.65307511,-63.61359196,73.97239516,60.47412981,49.42985321
175.12111084,76.17665919,79.37136419,68.68170857,77.67788344,-59.39979528
-81.35883507,-72.54483119,78.07934755,6.86496192,-0.97572783,10.46597186
-0.24984693,-0.60059655,1.42933548

>  <Name>
1o9m_lig

>  <RI>
0

>  <Rbt.Current_Directory>
/home/itssahil/PROJECTS/Mol_Feturizer/New_Systems/rnas/1o9m

>  <Rbt.Executable>
rbdock ($Id: //depot/dev/client3/rdock/2013.1/src/exe/rbdock.cxx#4 $)

>  <Rbt.Library>
libRbt.so (2013.1, Build901 2013/11/27)

>  <Rbt.Parameter_File>
/export/apps/rDock/src/rDock_2013.1_src/data/scripts/dock_solv.prm

>  <Rbt.Receptor>
prm/blind_docking_60.prm

>  <SCORE>
-16.2091

>  <SCORE.INTER>
-12.5881

>  <SCORE.INTER.CONST>
1

>  <SCORE.INTER.POLAR>
-1.91652

>  <SCORE.INTER.ROT>
15

>  <SCORE.INTER.SOLV>
21.218

>  <SCORE.INTER.VDW>
-22.6763

>  <SCORE.INTER.norm>
-0.340219

>  <SCORE.INTRA>
-3.62596

>  <SCORE.INTRA.DIHEDRAL>
-15.1452

>  <SCORE.INTRA.DIHEDRAL.0>
21.5987

>  <SCORE.INTRA.POLAR>
0

>  <SCORE.INTRA.POLAR.0>
0

>  <SCORE.INTRA.REPUL>
0

>  <SCORE.INTRA.REPUL.0>
0

>  <SCORE.INTRA.SOLV>
6.10645

>  <SCORE.INTRA.SOLV.lig_0>
-108.715

>  <SCORE.INTRA.VDW>
0.893397

>  <SCORE.INTRA.VDW.0>
-3.9485

>  <SCORE.INTRA.norm>
-0.0979988

>  <SCORE.RESTR>
0.00497473

>  <SCORE.RESTR.CAVITY>
0.00497473

>  <SCORE.RESTR.norm>
0.000134452

>  <SCORE.SYSTEM>
0

>  <SCORE.SYSTEM.CONST>
0

>  <SCORE.SYSTEM.DIHEDRAL>
0

>  <SCORE.SYSTEM.SOLV>
0

>  <SCORE.SYSTEM.norm>
0

>  <SCORE.heavy>
37

>  <SCORE.norm>
-0.438083

>  <RMSD>
23.452

$$$$
1o9m_lig
 OpenBabel11021811403D
libRbt.so/2013.1/901 2013/11/27
 37 38  0  0  0  0  0  0  0  0999 V2000
   10.3201   -1.5576   10.2201 C   0  0  2  0  0  0  0  0  0  0  0  0
   10.2139   -0.1065   10.0959 O   0  0  0  0  0  0  0  0  0  0  0  0
   11.8574   -1.8909   10.2332 C   0  0  2  0  0  0  0  0  0  0  0  0
   12.5628   -1.2209   11.3398 N   0  0  0  0  0  0  0  0  0  0  0  0
   12.4838   -1.4850    8.8451 C   0  0  1  0  0  0  0  0  0  0  0  0
   13.8831   -1.7804    8.8314 O   0  0  0  0  0  0  0  0  0  0  0  0
   11.7073   -2.2463    7.7204 C   0  0  2  0  0  0  0  0  0  0  0  0
   12.1880   -1.9352    6.4024 O   0  0  0  0  0  0  0  0  0  0  0  0
   10.1937   -1.9260    7.7891 C   0  0  2  0  0  0  0  0  0  0  0  0
    9.6658   -2.2256    9.0895 O   0  0  0  0  0  0  0  0  0  0  0  0
    9.4145   -2.6911    6.7507 C   0  0  0  0  0  0  0  0  0  0  0  0
    8.0726   -2.4163    6.8646 N   0  0  0  0  0  0  0  0  0  0  0  0
    6.4070    0.7270   12.0021 C   0  0  1  0  0  0  0  0  0  0  0  0
    5.2361    1.4909   12.5168 N   0  0  0  0  0  0  0  0  0  0  0  0
    6.5101    0.9396   10.4979 C   0  0  2  0  0  0  0  0  0  0  0  0
    5.3052    0.5299    9.9228 O   0  0  0  0  0  0  0  0  0  0  0  0
    7.7157    0.1404    9.9102 C   0  0  1  0  0  0  0  0  0  0  0  0
    7.8172    0.3695    8.4715 O   0  0  0  0  0  0  0  0  0  0  0  0
    9.0576    0.6232   10.5974 C   0  0  1  0  0  0  0  0  0  0  0  0
    8.9740    0.3982   12.0995 C   0  0  1  0  0  0  0  0  0  0  0  0
   10.2215    0.8341   12.7089 N   0  0  0  0  0  0  0  0  0  0  0  0
    7.7637    1.1769   12.6809 C   0  0  0  0  0  0  0  0  0  0  0  0
    4.3506    0.1936    8.8922 C   0  0  0  0  0  0  0  0  0  0  0  0
    4.7806   -1.0874    8.2150 C   0  0  0  0  0  0  0  0  0  0  0  0
    3.7221   -1.7303    7.4091 N   0  0  0  0  0  0  0  0  0  0  0  0
    2.7239   -1.9955    6.3482 C   0  0  0  0  0  0  0  0  0  0  0  0
    1.5193   -2.2425    7.2651 C   0  0  0  0  0  0  0  0  0  0  0  0
    0.2282   -2.5216    6.4730 C   0  0  0  0  0  0  0  0  0  0  0  0
    0.3163   -3.8513    5.7304 C   0  0  0  0  0  0  0  0  0  0  0  0
   -0.9224   -4.1035    5.0077 N   0  0  0  0  0  0  0  0  0  0  0  0
    2.1152    0.6723   15.9210 N   0  0  0  0  0  0  0  0  0  0  0  0
    3.8809    0.4159   12.9100 C   0  0  0  0  0  0  0  0  0  0  0  0
    3.7175   -0.6499   12.8722 O   0  0  0  0  0  0  0  0  0  0  0  0
    3.1295    1.6720   13.2775 C   0  0  2  0  0  0  0  0  0  0  0  0
    3.6377    2.2395   14.4184 O   0  0  0  0  0  0  0  0  0  0  0  0
    1.6977    1.2540   13.5938 C   0  0  0  0  0  0  0  0  0  0  0  0
    1.5102    0.1759   14.6765 C   0  0  0  0  0  0  0  0  0  0  0  0
  1  2  1  6  0  0  0
  1  3  1  0  0  0  0
  3  4  1  1  0  0  0
  3  5  1  0  0  0  0
  5  6  1  1  0  0  0
  5  7  1  0  0  0  0
  7  8  1  6  0  0  0
  9  7  1  0  0  0  0
  9 10  1  0  0  0  0
  9 11  1  6  0  0  0
 10  1  1  0  0  0  0
 11 12  1  0  0  0  0
 13 14  1  1  0  0  0
 13 15  1  0  0  0  0
 13 22  1  0  0  0  0
 14 32  1  0  0  0  0
 15 16  1  6  0  0  0
 15 17  1  0  0  0  0
 16 23  1  0  0  0  0
 17 18  1  6  0  0  0
 17 19  1  0  0  0  0
 19  2  1  6  0  0  0
 19 20  1  0  0  0  0
 20 21  1  1  0  0  0
 20 22  1  0  0  0  0
 23 24  1  0  0  0  0
 24 25  1  0  0  0  0
 25 26  1  0  0  0  0
 26 27  1  0  0  0  0
 27 28  1  0  0  0  0
 28 29  1  0  0  0  0
 29 30  1  0  0  0  0
 31 37  1  0  0  0  0
 32 33  2  0  0  0  0
 34 32  1  1  0  0  0
 34 35  1  0  0  0  0
 34 36  1  0  0  0  0
 36 37  1  0  0  0  0
M  END
>  <CHROM.1>
-153.59845720,178.16776904,105.61124326,-172.12445684,69.61486137,-59.60147288
164.23870110,67.20382736,-126.93172290,178.25240351,67.31702832,179.06342469
-69.60599834,55.60905323,58.51586551,6.60652426,-0.70011687,9.94526684,-0.13844449
0.00402303,1.09292279

>  <Name>
1o9m_lig

>  <RI>
0

>  <Rbt.Current_Directory>
/home/itssahil/PROJECTS/Mol_Feturizer/New_Systems/rnas/1o9m

>  <Rbt.Executable>
rbdock ($Id: //depot/dev/client3/rdock/2013.1/src/exe/rbdock.cxx#4 $)

>  <Rbt.Library>
libRbt.so (2013.1, Build901 2013/11/27)

>  <Rbt.Parameter_File>
/export/apps/rDock/src/rDock_2013.1_src/data/scripts/dock_solv.prm

>  <Rbt.Receptor>
prm/blind_docking_80.prm

>  <SCORE>
-9.04762

>  <SCORE.INTER>
-5.81483

>  <SCORE.INTER.CONST>
1

>  <SCORE.INTER.POLAR>
-1.10067

>  <SCORE.INTER.ROT>
15

>  <SCORE.INTER.SOLV>
13.0944

>  <SCORE.INTER.VDW>
-18.1725

>  <SCORE.INTER.norm>
-0.157158

>  <SCORE.INTRA>
-3.2363

>  <SCORE.INTRA.DIHEDRAL>
-13.6162

>  <SCORE.INTRA.DIHEDRAL.0>
21.5987

>  <SCORE.INTRA.POLAR>
0

>  <SCORE.INTRA.POLAR.0>
0

>  <SCORE.INTRA.REPUL>
0

>  <SCORE.INTRA.REPUL.0>
0

>  <SCORE.INTRA.SOLV>
6.12429

>  <SCORE.INTRA.SOLV.lig_0>
-108.715

>  <SCORE.INTRA.VDW>
0.509651

>  <SCORE.INTRA.VDW.0>
-3.9485

>  <SCORE.INTRA.norm>
-0.0874677

>  <SCORE.RESTR>
0.00351559

>  <SCORE.RESTR.CAVITY>
0.00351559

>  <SCORE.RESTR.norm>
9.5016e-05

>  <SCORE.SYSTEM>
0

>  <SCORE.SYSTEM.CONST>
0

>  <SCORE.SYSTEM.DIHEDRAL>
0

>  <SCORE.SYSTEM.SOLV>
0

>  <SCORE.SYSTEM.norm>
0

>  <SCORE.heavy>
37

>  <SCORE.norm>
-0.24453

>  <RMSD>
23.461

$$$$
1o9m_lig
 OpenBabel11021811403D
libRbt.so/2013.1/901 2013/11/27
 37 38  0  0  0  0  0  0  0  0999 V2000
   10.4381   -2.5309   10.4570 C   0  0  2  0  0  0  0  0  0  0  0  0
    9.6467   -2.9509   11.6100 O   0  0  0  0  0  0  0  0  0  0  0  0
   11.9042   -2.3084   10.9819 C   0  0  2  0  0  0  0  0  0  0  0  0
   12.4704   -3.5275   11.5854 N   0  0  0  0  0  0  0  0  0  0  0  0
   11.9053   -1.1207   12.0179 C   0  0  1  0  0  0  0  0  0  0  0  0
   13.2297   -0.8972   12.5092 O   0  0  0  0  0  0  0  0  0  0  0  0
   11.3162    0.1433   11.3087 C   0  0  2  0  0  0  0  0  0  0  0  0
   11.2544    1.2895   12.1731 O   0  0  0  0  0  0  0  0  0  0  0  0
    9.8966   -0.1487   10.7630 C   0  0  2  0  0  0  0  0  0  0  0  0
    9.9086   -1.2863    9.8883 O   0  0  0  0  0  0  0  0  0  0  0  0
    9.3285    1.0363   10.0256 C   0  0  0  0  0  0  0  0  0  0  0  0
    8.0136    0.8068    9.6975 N   0  0  0  0  0  0  0  0  0  0  0  0
    5.5602   -2.4314   10.2493 C   0  0  1  0  0  0  0  0  0  0  0  0
    4.0759   -2.5480   10.1977 N   0  0  0  0  0  0  0  0  0  0  0  0
    5.9571   -1.7849   11.5695 C   0  0  2  0  0  0  0  0  0  0  0  0
    5.3169   -0.5465   11.6507 O   0  0  0  0  0  0  0  0  0  0  0  0
    7.5076   -1.6251   11.6602 C   0  0  1  0  0  0  0  0  0  0  0  0
    7.8770   -1.0244   12.9390 O   0  0  0  0  0  0  0  0  0  0  0  0
    8.1948   -3.0469   11.5493 C   0  0  1  0  0  0  0  0  0  0  0  0
    7.8207   -3.6952   10.2251 C   0  0  1  0  0  0  0  0  0  0  0  0
    8.4740   -4.9926   10.1373 N   0  0  0  0  0  0  0  0  0  0  0  0
    6.2781   -3.8362   10.1264 C   0  0  0  0  0  0  0  0  0  0  0  0
    4.8942    0.7169   12.2090 C   0  0  0  0  0  0  0  0  0  0  0  0
    4.2082    1.5303   11.1355 C   0  0  0  0  0  0  0  0  0  0  0  0
    2.9771    2.2114   11.5866 N   0  0  0  0  0  0  0  0  0  0  0  0
    1.9117    2.7712   12.4491 C   0  0  0  0  0  0  0  0  0  0  0  0
    1.3569    1.4395   12.9705 C   0  0  0  0  0  0  0  0  0  0  0  0
    2.0535    0.9823   14.2658 C   0  0  0  0  0  0  0  0  0  0  0  0
    1.5875    1.8082   15.4608 C   0  0  0  0  0  0  0  0  0  0  0  0
    2.1093    3.1643   15.3655 N   0  0  0  0  0  0  0  0  0  0  0  0
    2.6017   -0.3997    7.1246 N   0  0  0  0  0  0  0  0  0  0  0  0
    3.5009   -2.7948    8.5379 C   0  0  0  0  0  0  0  0  0  0  0  0
    3.9745   -2.8892    7.5731 O   0  0  0  0  0  0  0  0  0  0  0  0
    2.1129   -2.7854    9.1303 C   0  0  2  0  0  0  0  0  0  0  0  0
    1.6461   -4.0609    9.3233 O   0  0  0  0  0  0  0  0  0  0  0  0
    1.1972   -2.1327    8.1005 C   0  0  0  0  0  0  0  0  0  0  0  0
    1.3617   -0.6176    7.8836 C   0  0  0  0  0  0  0  0  0  0  0  0
  1  2  1  1  0  0  0
  1  3  1  0  0  0  0
  3  4  1  1  0  0  0
  3  5  1  0  0  0  0
  5  6  1  6  0  0  0
  5  7  1  0  0  0  0
  7  8  1  1  0  0  0
  9  7  1  0  0  0  0
  9 10  1  0  0  0  0
  9 11  1  6  0  0  0
 10  1  1  0  0  0  0
 11 12  1  0  0  0  0
 13 14  1  1  0  0  0
 13 15  1  0  0  0  0
 13 22  1  0  0  0  0
 14 32  1  0  0  0  0
 15 16  1  6  0  0  0
 15 17  1  0  0  0  0
 16 23  1  0  0  0  0
 17 18  1  1  0  0  0
 17 19  1  0  0  0  0
 19  2  1  6  0  0  0
 19 20  1  0  0  0  0
 20 21  1  1  0  0  0
 20 22  1  0  0  0  0
 23 24  1  0  0  0  0
 24 25  1  0  0  0  0
 25 26  1  0  0  0  0
 26 27  1  0  0  0  0
 27 28  1  0  0  0  0
 28 29  1  0  0  0  0
 29 30  1  0  0  0  0
 31 37  1  0  0  0  0
 32 33  2  0  0  0  0
 34 32  1  6  0  0  0
 34 35  1  0  0  0  0
 34 36  1  0  0  0  0
 36 37  1  0  0  0  0
M  END
>  <CHROM.1>
170.21111561,-172.64511277,161.80265343,176.42212654,170.88036685,-78.09463026
137.02108609,12.72913272,-67.05146867,90.17775744,74.53578857,-70.45740976
-98.24517381,-70.94982898,73.98304954,6.33366154,-1.01877597,10.99530719
0.11518183,0.13958780,-2.40780776

>  <Name>
1o9m_lig

>  <RI>
0

>  <Rbt.Current_Directory>
/home/itssahil/PROJECTS/Mol_Feturizer/New_Systems/rnas/1o9m

>  <Rbt.Executable>
rbdock ($Id: //depot/dev/client3/rdock/2013.1/src/exe/rbdock.cxx#4 $)

>  <Rbt.Library>
libRbt.so (2013.1, Build901 2013/11/27)

>  <Rbt.Parameter_File>
/export/apps/rDock/src/rDock_2013.1_src/data/scripts/dock_solv.prm

>  <Rbt.Receptor>
prm/blind_docking_80.prm

>  <SCORE>
-4.89277

>  <SCORE.INTER>
-5.48084

>  <SCORE.INTER.CONST>
1

>  <SCORE.INTER.POLAR>
-1.65703

>  <SCORE.INTER.ROT>
15

>  <SCORE.INTER.SOLV>
16.0268

>  <SCORE.INTER.VDW>
-17.0727

>  <SCORE.INTER.norm>
-0.148131

>  <SCORE.INTRA>
0.527349

>  <SCORE.INTRA.DIHEDRAL>
-6.14531

>  <SCORE.INTRA.DIHEDRAL.0>
21.5987

>  <SCORE.INTRA.POLAR>
0

>  <SCORE.INTRA.POLAR.0>
0

>  <SCORE.INTRA.REPUL>
0

>  <SCORE.INTRA.REPUL.0>
0

>  <SCORE.INTRA.SOLV>
8.38664

>  <SCORE.INTRA.SOLV.lig_0>
-108.715

>  <SCORE.INTRA.VDW>
-0.593315

>  <SCORE.INTRA.VDW.0>
-3.9485

>  <SCORE.INTRA.norm>
0.0142527

>  <SCORE.RESTR>
0.0607268

>  <SCORE.RESTR.CAVITY>
0.0607268

>  <SCORE.RESTR.norm>
0.00164127

>  <SCORE.SYSTEM>
0

>  <SCORE.SYSTEM.CONST>
0

>  <SCORE.SYSTEM.DIHEDRAL>
0

>  <SCORE.SYSTEM.SOLV>
0

>  <SCORE.SYSTEM.norm>
0

>  <SCORE.heavy>
37

>  <SCORE.norm>
-0.132237

>  <RMSD>
23.475

$$$$
1o9m_lig
 OpenBabel11021811403D
libRbt.so/2013.1/901 2013/11/27
 37 38  0  0  0  0  0  0  0  0999 V2000
    8.3736   -3.2847    9.4264 C   0  0  2  0  0  0  0  0  0  0  0  0
    8.4020   -2.4623   10.6327 O   0  0  0  0  0  0  0  0  0  0  0  0
    8.9843   -4.6785    9.8247 C   0  0  2  0  0  0  0  0  0  0  0  0
    8.2313   -5.3256   10.9134 N   0  0  0  0  0  0  0  0  0  0  0  0
   10.4943   -4.4817   10.2309 C   0  0  1  0  0  0  0  0  0  0  0  0
   11.0735   -5.7374   10.5962 O   0  0  0  0  0  0  0  0  0  0  0  0
   11.2384   -3.8148    9.0272 C   0  0  2  0  0  0  0  0  0  0  0  0
   12.6289   -3.5721    9.2966 O   0  0  0  0  0  0  0  0  0  0  0  0
   10.5626   -2.4758    8.6417 C   0  0  2  0  0  0  0  0  0  0  0  0
    9.1691   -2.6689    8.3583 O   0  0  0  0  0  0  0  0  0  0  0  0
   11.2266   -1.8399    7.4478 C   0  0  0  0  0  0  0  0  0  0  0  0
   10.9352   -2.5495    6.3072 N   0  0  0  0  0  0  0  0  0  0  0  0
    5.4252    0.4175   11.9236 C   0  0  1  0  0  0  0  0  0  0  0  0
    4.6608    1.6923   12.0231 N   0  0  0  0  0  0  0  0  0  0  0  0
    5.3458   -0.0930   10.4913 C   0  0  2  0  0  0  0  0  0  0  0  0
    3.9968   -0.2476   10.1648 O   0  0  0  0  0  0  0  0  0  0  0  0
    6.1196   -1.4410   10.3434 C   0  0  1  0  0  0  0  0  0  0  0  0
    6.0545   -1.9089    8.9616 O   0  0  0  0  0  0  0  0  0  0  0  0
    7.6380   -1.2267   10.7363 C   0  0  1  0  0  0  0  0  0  0  0  0
    7.7315   -0.7344   12.1725 C   0  0  1  0  0  0  0  0  0  0  0  0
    9.1342   -0.5586   12.5175 N   0  0  0  0  0  0  0  0  0  0  0  0
    6.9456    0.5955   12.3242 C   0  0  0  0  0  0  0  0  0  0  0  0
    2.8296   -0.5392    9.3654 C   0  0  0  0  0  0  0  0  0  0  0  0
    2.8342    0.3432    8.1382 C   0  0  0  0  0  0  0  0  0  0  0  0
    2.6959   -0.3920    6.8641 N   0  0  0  0  0  0  0  0  0  0  0  0
    2.1478   -1.2283    5.7721 C   0  0  0  0  0  0  0  0  0  0  0  0
    3.4638   -1.8949    5.3518 C   0  0  0  0  0  0  0  0  0  0  0  0
    4.0123   -2.8422    6.4352 C   0  0  0  0  0  0  0  0  0  0  0  0
    5.3996   -3.3567    6.0635 C   0  0  0  0  0  0  0  0  0  0  0  0
    5.3084   -4.2674    4.9311 N   0  0  0  0  0  0  0  0  0  0  0  0
    1.0248    1.0729   13.9935 N   0  0  0  0  0  0  0  0  0  0  0  0
    3.7922    1.8103   13.5653 C   0  0  0  0  0  0  0  0  0  0  0  0
    3.7014    1.1838   14.4390 O   0  0  0  0  0  0  0  0  0  0  0  0
    3.2729    3.1304   13.0503 C   0  0  2  0  0  0  0  0  0  0  0  0
    4.0458    4.1747   13.4909 O   0  0  0  0  0  0  0  0  0  0  0  0
    1.8857    3.3248   13.6523 C   0  0  0  0  0  0  0  0  0  0  0  0
    0.7997    2.3147   13.2396 C   0  0  0  0  0  0  0  0  0  0  0  0
  1  2  1  1  0  0  0
  1  3  1  0  0  0  0
  3  4  1  1  0  0  0
  3  5  1  0  0  0  0
  5  6  1  6  0  0  0
  5  7  1  0  0  0  0
  7  8  1  1  0  0  0
  9  7  1  0  0  0  0
  9 10  1  0  0  0  0
  9 11  1  6  0  0  0
 10  1  1  0  0  0  0
 11 12  1  0  0  0  0
 13 14  1  6  0  0  0
 13 15  1  0  0  0  0
 13 22  1  0  0  0  0
 14 32  1  0  0  0  0
 15 16  1  1  0  0  0
 15 17  1  0  0  0  0
 16 23  1  0  0  0  0
 17 18  1  6  0  0  0
 17 19  1  0  0  0  0
 19  2  1  1  0  0  0
 19 20  1  0  0  0  0
 20 21  1  6  0  0  0
 20 22  1  0  0  0  0
 23 24  1  0  0  0  0
 24 25  1  0  0  0  0
 25 26  1  0  0  0  0
 26 27  1  0  0  0  0
 27 28  1  0  0  0  0
 28 29  1  0  0  0  0
 29 30  1  0  0  0  0
 31 37  1  0  0  0  0
 32 33  2  0  0  0  0
 34 32  1  1  0  0  0
 34 35  1  0  0  0  0
 34 36  1  0  0  0  0
 36 37  1  0  0  0  0
M  END
>  <CHROM.1>
-165.25027577,71.59017158,142.24548949,177.36165372,-57.31306036,51.17926547
127.01404408,64.24402418,-144.72236762,67.38978032,-173.08605000,-69.39555370
-94.90000205,-64.24633379,77.45712867,6.27115210,-1.18462293,10.01664902
-0.65169183,-0.40533631,1.07205947

>  <Name>
1o9m_lig

>  <RI>
0

>  <Rbt.Current_Directory>
/home/itssahil/PROJECTS/Mol_Feturizer/New_Systems/rnas/1o9m

>  <Rbt.Executable>
rbdock ($Id: //depot/dev/client3/rdock/2013.1/src/exe/rbdock.cxx#4 $)

>  <Rbt.Library>
libRbt.so (2013.1, Build901 2013/11/27)

>  <Rbt.Parameter_File>
/export/apps/rDock/src/rDock_2013.1_src/data/scripts/dock_solv.prm

>  <Rbt.Receptor>
prm/blind_docking_20.prm

>  <SCORE>
-3.83929

>  <SCORE.INTER>
-1.52542

>  <SCORE.INTER.CONST>
1

>  <SCORE.INTER.POLAR>
-0.646298

>  <SCORE.INTER.ROT>
15

>  <SCORE.INTER.SOLV>
13.0062

>  <SCORE.INTER.VDW>
-16.798

>  <SCORE.INTER.norm>
-0.0412275

>  <SCORE.INTRA>
-2.60341

>  <SCORE.INTRA.DIHEDRAL>
-9.15936

>  <SCORE.INTRA.DIHEDRAL.0>
21.5987

>  <SCORE.INTRA.POLAR>
0

>  <SCORE.INTRA.POLAR.0>
0

>  <SCORE.INTRA.REPUL>
0

>  <SCORE.INTRA.REPUL.0>
0

>  <SCORE.INTRA.SOLV>
3.7152

>  <SCORE.INTRA.SOLV.lig_0>
-108.715

>  <SCORE.INTRA.VDW>
0.118675

>  <SCORE.INTRA.VDW.0>
-3.9485

>  <SCORE.INTRA.norm>
-0.0703623

>  <SCORE.RESTR>
0.289538

>  <SCORE.RESTR.CAVITY>
0.289538

>  <SCORE.RESTR.norm>
0.00782535

>  <SCORE.SYSTEM>
0

>  <SCORE.SYSTEM.CONST>
0

>  <SCORE.SYSTEM.DIHEDRAL>
0

>  <SCORE.SYSTEM.SOLV>
0

>  <SCORE.SYSTEM.norm>
0

>  <SCORE.heavy>
37

>  <SCORE.norm>
-0.103765

>  <RMSD>
23.478

$$$$
1o9m_lig
 OpenBabel11021811403D
libRbt.so/2013.1/901 2013/11/27
 37 38  0  0  0  0  0  0  0  0999 V2000
    9.5902   -2.3360    9.5397 C   0  0  2  0  0  0  0  0  0  0  0  0
    9.4162   -0.9324    9.9029 O   0  0  0  0  0  0  0  0  0  0  0  0
   11.0187   -2.4532    8.8916 C   0  0  2  0  0  0  0  0  0  0  0  0
   12.0845   -2.0177    9.8110 N   0  0  0  0  0  0  0  0  0  0  0  0
   11.0508   -1.6098    7.5606 C   0  0  1  0  0  0  0  0  0  0  0  0
   12.3411   -1.7019    6.9504 O   0  0  0  0  0  0  0  0  0  0  0  0
    9.9142   -2.1369    6.6237 C   0  0  2  0  0  0  0  0  0  0  0  0
    9.8410   -1.4220    5.3793 O   0  0  0  0  0  0  0  0  0  0  0  0
    8.5394   -2.0509    7.3314 C   0  0  2  0  0  0  0  0  0  0  0  0
    8.5622   -2.7564    8.5809 O   0  0  0  0  0  0  0  0  0  0  0  0
    7.4339   -2.6052    6.4705 C   0  0  0  0  0  0  0  0  0  0  0  0
    7.2675   -1.8267    5.3500 N   0  0  0  0  0  0  0  0  0  0  0  0
    5.3650   -0.8065   11.4498 C   0  0  1  0  0  0  0  0  0  0  0  0
    4.1496   -0.3098   12.1539 N   0  0  0  0  0  0  0  0  0  0  0  0
    5.7390    0.1845   10.3559 C   0  0  2  0  0  0  0  0  0  0  0  0
    4.6406    0.3183    9.5040 O   0  0  0  0  0  0  0  0  0  0  0  0
    7.0003   -0.3055    9.5769 C   0  0  1  0  0  0  0  0  0  0  0  0
    7.3617    0.6631    8.5455 O   0  0  0  0  0  0  0  0  0  0  0  0
    8.2163   -0.4585   10.5787 C   0  0  1  0  0  0  0  0  0  0  0  0
    7.8615   -1.4610   11.6663 C   0  0  1  0  0  0  0  0  0  0  0  0
    8.9967   -1.5977   12.5664 N   0  0  0  0  0  0  0  0  0  0  0  0
    6.5960   -0.9839   12.4281 C   0  0  0  0  0  0  0  0  0  0  0  0
    3.8214    0.8399    8.4347 C   0  0  0  0  0  0  0  0  0  0  0  0
    2.4900    0.1245    8.4340 C   0  0  0  0  0  0  0  0  0  0  0  0
    2.5914   -1.3421    8.2865 N   0  0  0  0  0  0  0  0  0  0  0  0
    2.2484   -2.7821    8.2539 C   0  0  0  0  0  0  0  0  0  0  0  0
    2.1704   -2.9340    6.7294 C   0  0  0  0  0  0  0  0  0  0  0  0
    3.5520   -2.8197    6.0583 C   0  0  0  0  0  0  0  0  0  0  0  0
    3.4578   -3.0853    4.5590 C   0  0  0  0  0  0  0  0  0  0  0  0
    2.7513   -1.9951    3.9014 N   0  0  0  0  0  0  0  0  0  0  0  0
    1.4080   -1.9461   12.2224 N   0  0  0  0  0  0  0  0  0  0  0  0
    4.1958   -0.7002   13.8837 C   0  0  0  0  0  0  0  0  0  0  0  0
    4.8977   -1.1981   14.5344 O   0  0  0  0  0  0  0  0  0  0  0  0
    2.8402   -0.0414   13.9601 C   0  0  2  0  0  0  0  0  0  0  0  0
    2.8318    0.9732   14.8834 O   0  0  0  0  0  0  0  0  0  0  0  0
    1.8623   -1.0992   14.4596 C   0  0  0  0  0  0  0  0  0  0  0  0
    1.7075   -2.3662   13.5990 C   0  0  0  0  0  0  0  0  0  0  0  0
  1  2  1  6  0  0  0
  1  3  1  0  0  0  0
  3  4  1  1  0  0  0
  3  5  1  0  0  0  0
  5  6  1  6  0  0  0
  5  7  1  0  0  0  0
  7  8  1  6  0  0  0
  9  7  1  0  0  0  0
  9 10  1  0  0  0  0
  9 11  1  6  0  0  0
 10  1  1  0  0  0  0
 11 12  1  0  0  0  0
 13 14  1  1  0  0  0
 13 15  1  0  0  0  0
 13 22  1  0  0  0  0
 14 32  1  0  0  0  0
 15 16  1  6  0  0  0
 15 17  1  0  0  0  0
 16 23  1  0  0  0  0
 17 18  1  6  0  0  0
 17 19  1  0  0  0  0
 19  2  1  6  0  0  0
 19 20  1  0  0  0  0
 20 21  1  1  0  0  0
 20 22  1  0  0  0  0
 23 24  1  0  0  0  0
 24 25  1  0  0  0  0
 25 26  1  0  0  0  0
 26 27  1  0  0  0  0
 27 28  1  0  0  0  0
 28 29  1  0  0  0  0
 29 30  1  0  0  0  0
 31 37  1  0  0  0  0
 32 33  2  0  0  0  0
 34 32  1  1  0  0  0
 34 35  1  0  0  0  0
 34 36  1  0  0  0  0
 36 37  1  0  0  0  0
M  END
>  <CHROM.1>
-177.72559158,-65.48788517,-144.74158919,172.00824931,-176.71690490,-77.70916499
-57.87882719,168.72391840,103.36161434,69.60044860,175.46083785,69.52531191
-123.91642823,-59.87428259,-52.70569425,6.11375935,-1.31101509,9.53748579
-0.66350962,-0.01268913,1.39054996

>  <Name>
1o9m_lig

>  <RI>
0

>  <Rbt.Current_Directory>
/home/itssahil/PROJECTS/Mol_Feturizer/New_Systems/rnas/1o9m

>  <Rbt.Executable>
rbdock ($Id: //depot/dev/client3/rdock/2013.1/src/exe/rbdock.cxx#4 $)

>  <Rbt.Library>
libRbt.so (2013.1, Build901 2013/11/27)

>  <Rbt.Parameter_File>
/export/apps/rDock/src/rDock_2013.1_src/data/scripts/dock_solv.prm

>  <Rbt.Receptor>
prm/blind_docking_60.prm

>  <SCORE>
-11.6199

>  <SCORE.INTER>
-9.97469

>  <SCORE.INTER.CONST>
1

>  <SCORE.INTER.POLAR>
-1.65508

>  <SCORE.INTER.ROT>
15

>  <SCORE.INTER.SOLV>
12.9851

>  <SCORE.INTER.VDW>
-19.0612

>  <SCORE.INTER.norm>
-0.269586

>  <SCORE.INTRA>
-2.21355

>  <SCORE.INTRA.DIHEDRAL>
-14.3686

>  <SCORE.INTRA.DIHEDRAL.0>
21.5987

>  <SCORE.INTRA.POLAR>
0

>  <SCORE.INTRA.POLAR.0>
0

>  <SCORE.INTRA.REPUL>
0.0433026

>  <SCORE.INTRA.REPUL.0>
0

>  <SCORE.INTRA.SOLV>
6.90711

>  <SCORE.INTRA.SOLV.lig_0>
-108.715

>  <SCORE.INTRA.VDW>
1.30069

>  <SCORE.INTRA.VDW.0>
-3.9485

>  <SCORE.INTRA.norm>
-0.0598257

>  <SCORE.RESTR>
0.568359

>  <SCORE.RESTR.CAVITY>
0.568359

>  <SCORE.RESTR.norm>
0.0153611

>  <SCORE.SYSTEM>
0

>  <SCORE.SYSTEM.CONST>
0

>  <SCORE.SYSTEM.DIHEDRAL>
0

>  <SCORE.SYSTEM.SOLV>
0

>  <SCORE.SYSTEM.norm>
0

>  <SCORE.heavy>
37

>  <SCORE.norm>
-0.314051

>  <RMSD>
23.480

$$$$
1o9m_lig
 OpenBabel11021811403D
libRbt.so/2013.1/901 2013/11/27
 37 38  0  0  0  0  0  0  0  0999 V2000
   10.0868   -1.3804   10.0338 C   0  0  2  0  0  0  0  0  0  0  0  0
    9.3625   -0.2377    9.4843 O   0  0  0  0  0  0  0  0  0  0  0  0
   11.3084   -1.6343    9.0758 C   0  0  2  0  0  0  0  0  0  0  0  0
   12.1907   -0.4585    8.9752 N   0  0  0  0  0  0  0  0  0  0  0  0
   10.7699   -2.0511    7.6545 C   0  0  1  0  0  0  0  0  0  0  0  0
   11.8635   -2.2896    6.7642 O   0  0  0  0  0  0  0  0  0  0  0  0
    9.8631   -3.3139    7.8295 C   0  0  2  0  0  0  0  0  0  0  0  0
    9.3011   -3.7729    6.5892 O   0  0  0  0  0  0  0  0  0  0  0  0
    8.7116   -3.0256    8.8241 C   0  0  2  0  0  0  0  0  0  0  0  0
    9.2256   -2.5672   10.0830 O   0  0  0  0  0  0  0  0  0  0  0  0
    7.8554   -4.2442    9.0535 C   0  0  0  0  0  0  0  0  0  0  0  0
    7.1221   -4.1002   10.2072 N   0  0  0  0  0  0  0  0  0  0  0  0
    5.8541   -0.0110   12.0260 C   0  0  1  0  0  0  0  0  0  0  0  0
    4.6018    0.5114   12.6411 N   0  0  0  0  0  0  0  0  0  0  0  0
    5.6368   -0.1700   10.5274 C   0  0  2  0  0  0  0  0  0  0  0  0
    4.5481   -1.0243   10.3397 O   0  0  0  0  0  0  0  0  0  0  0  0
    6.9209   -0.7343    9.8415 C   0  0  1  0  0  0  0  0  0  0  0  0
    6.7074   -0.8617    8.4025 O   0  0  0  0  0  0  0  0  0  0  0  0
    8.1326    0.2536   10.0900 C   0  0  1  0  0  0  0  0  0  0  0  0
    8.3718    0.4059   11.5844 C   0  0  1  0  0  0  0  0  0  0  0  0
    9.4976    1.3048   11.7898 N   0  0  0  0  0  0  0  0  0  0  0  0
    7.0888    0.9482   12.2693 C   0  0  0  0  0  0  0  0  0  0  0  0
    3.1805   -1.4887   10.3662 C   0  0  0  0  0  0  0  0  0  0  0  0
    2.3442   -0.6251    9.4500 C   0  0  0  0  0  0  0  0  0  0  0  0
    2.4351   -0.9933    8.0220 N   0  0  0  0  0  0  0  0  0  0  0  0
    2.9466   -1.1831    6.6455 C   0  0  0  0  0  0  0  0  0  0  0  0
    4.1243   -2.1015    6.9953 C   0  0  0  0  0  0  0  0  0  0  0  0
    4.8529   -2.6220    5.7422 C   0  0  0  0  0  0  0  0  0  0  0  0
    5.9248   -3.6419    6.1142 C   0  0  0  0  0  0  0  0  0  0  0  0
    6.4297   -4.2966    4.9156 N   0  0  0  0  0  0  0  0  0  0  0  0
    0.8036    1.0962   16.2768 N   0  0  0  0  0  0  0  0  0  0  0  0
    3.8008   -0.7228   13.6320 C   0  0  0  0  0  0  0  0  0  0  0  0
    4.0161   -1.7465   13.8957 O   0  0  0  0  0  0  0  0  0  0  0  0
    2.7361    0.3181   13.8784 C   0  0  2  0  0  0  0  0  0  0  0  0
    3.1584    1.2559   14.7863 O   0  0  0  0  0  0  0  0  0  0  0  0
    1.5505   -0.4032   14.5098 C   0  0  0  0  0  0  0  0  0  0  0  0
    0.3888    0.4735   15.0115 C   0  0  0  0  0  0  0  0  0  0  0  0
  1  2  1  6  0  0  0
  1  3  1  0  0  0  0
  3  4  1  6  0  0  0
  3  5  1  0  0  0  0
  5  6  1  6  0  0  0
  5  7  1  0  0  0  0
  7  8  1  6  0  0  0
  9  7  1  0  0  0  0
  9 10  1  0  0  0  0
  9 11  1  1  0  0  0
 10  1  1  0  0  0  0
 11 12  1  0  0  0  0
 13 14  1  1  0  0  0
 13 15  1  0  0  0  0
 13 22  1  0  0  0  0
 14 32  1  0  0  0  0
 15 16  1  1  0  0  0
 15 17  1  0  0  0  0
 16 23  1  0  0  0  0
 17 18  1  6  0  0  0
 17 19  1  0  0  0  0
 19  2  1  6  0  0  0
 19 20  1  0  0  0  0
 20 21  1  6  0  0  0
 20 22  1  0  0  0  0
 23 24  1  0  0  0  0
 24 25  1  0  0  0  0
 25 26  1  0  0  0  0
 26 27  1  0  0  0  0
 27 28  1  0  0  0  0
 28 29  1  0  0  0  0
 29 30  1  0  0  0  0
 31 37  1  0  0  0  0
 32 33  2  0  0  0  0
 34 32  1  1  0  0  0
 34 35  1  0  0  0  0
 34 36  1  0  0  0  0
 36 37  1  0  0  0  0
M  END
>  <CHROM.1>
177.61780320,161.61587635,109.53016009,66.74698297,65.17243674,-71.94499770
81.28794082,-71.16292649,60.99696280,175.06122294,-174.17732925,169.70809879
-76.34090364,173.02079304,-76.15061227,6.31872869,-1.23145368,10.10090340
-0.74598525,0.04135861,1.11674108

>  <Name>
1o9m_lig

>  <RI>
0

>  <Rbt.Current_Directory>
/home/itssahil/PROJECTS/Mol_Feturizer/New_Systems/rnas/1o9m

>  <Rbt.Executable>
rbdock ($Id: //depot/dev/client3/rdock/2013.1/src/exe/rbdock.cxx#4 $)

>  <Rbt.Library>
libRbt.so (2013.1, Build901 2013/11/27)

>  <Rbt.Parameter_File>
/export/apps/rDock/src/rDock_2013.1_src/data/scripts/dock_solv.prm

>  <Rbt.Receptor>
prm/blind_docking_60.prm

>  <SCORE>
-10.4474

>  <SCORE.INTER>
-3.97706

>  <SCORE.INTER.CONST>
1

>  <SCORE.INTER.POLAR>
-0.883076

>  <SCORE.INTER.ROT>
15

>  <SCORE.INTER.SOLV>
15.3246

>  <SCORE.INTER.VDW>
-18.416

>  <SCORE.INTER.norm>
-0.107488

>  <SCORE.INTRA>
-6.50475

>  <SCORE.INTRA.DIHEDRAL>
-13.966

>  <SCORE.INTRA.DIHEDRAL.0>
21.5987

>  <SCORE.INTRA.POLAR>
0

>  <SCORE.INTRA.POLAR.0>
0

>  <SCORE.INTRA.REPUL>
0

>  <SCORE.INTRA.REPUL.0>
0

>  <SCORE.INTRA.SOLV>
5.41956

>  <SCORE.INTRA.SOLV.lig_0>
-108.715

>  <SCORE.INTRA.VDW>
-2.23151

>  <SCORE.INTRA.VDW.0>
-3.9485

>  <SCORE.INTRA.norm>
-0.175804

>  <SCORE.RESTR>
0.0343641

>  <SCORE.RESTR.CAVITY>
0.0343641

>  <SCORE.RESTR.norm>
0.000928759

>  <SCORE.SYSTEM>
0

>  <SCORE.SYSTEM.CONST>
0

>  <SCORE.SYSTEM.DIHEDRAL>
0

>  <SCORE.SYSTEM.SOLV>
0

>  <SCORE.SYSTEM.norm>
0

>  <SCORE.heavy>
37

>  <SCORE.norm>
-0.282363

>  <RMSD>
23.486

$$$$
1o9m_lig
 OpenBabel11021811403D
libRbt.so/2013.1/901 2013/11/27
 37 38  0  0  0  0  0  0  0  0999 V2000
    9.5485   -0.6508    9.1610 C   0  0  2  0  0  0  0  0  0  0  0  0
    9.2668   -2.0797    9.2656 O   0  0  0  0  0  0  0  0  0  0  0  0
   11.0930   -0.4834    9.4084 C   0  0  2  0  0  0  0  0  0  0  0  0
   11.8981   -1.2449    8.4374 N   0  0  0  0  0  0  0  0  0  0  0  0
   11.4292   -0.9279   10.8826 C   0  0  1  0  0  0  0  0  0  0  0  0
   12.8298   -0.7830   11.1331 O   0  0  0  0  0  0  0  0  0  0  0  0
   10.5613   -0.0677   11.8595 C   0  0  2  0  0  0  0  0  0  0  0  0
   10.7768   -0.4039   13.2398 O   0  0  0  0  0  0  0  0  0  0  0  0
    9.0552   -0.2262   11.5354 C   0  0  2  0  0  0  0  0  0  0  0  0
    8.7894    0.1038   10.1644 O   0  0  0  0  0  0  0  0  0  0  0  0
    8.1996    0.6364   12.4267 C   0  0  0  0  0  0  0  0  0  0  0  0
    6.8680    0.3912   12.1904 N   0  0  0  0  0  0  0  0  0  0  0  0
    5.1423   -2.3481    7.9477 C   0  0  1  0  0  0  0  0  0  0  0  0
    3.8491   -2.9413    7.5058 N   0  0  0  0  0  0  0  0  0  0  0  0
    5.4825   -2.8853    9.3312 C   0  0  2  0  0  0  0  0  0  0  0  0
    4.4251   -2.5688   10.1866 O   0  0  0  0  0  0  0  0  0  0  0  0
    6.8248   -2.2748    9.8441 C   0  0  1  0  0  0  0  0  0  0  0  0
    7.1512   -2.8139   11.1615 O   0  0  0  0  0  0  0  0  0  0  0  0
    7.9927   -2.6430    8.8410 C   0  0  1  0  0  0  0  0  0  0  0  0
    7.6729   -2.0948    7.4585 C   0  0  1  0  0  0  0  0  0  0  0  0
    8.7646   -2.4309    6.5569 N   0  0  0  0  0  0  0  0  0  0  0  0
    6.3285   -2.6866    6.9567 C   0  0  0  0  0  0  0  0  0  0  0  0
    3.6287   -2.5444   11.3915 C   0  0  0  0  0  0  0  0  0  0  0  0
    2.3289   -1.8247   11.1140 C   0  0  0  0  0  0  0  0  0  0  0  0
    1.4169   -1.7541   12.2742 N   0  0  0  0  0  0  0  0  0  0  0  0
    0.5882   -2.1356   13.4405 C   0  0  0  0  0  0  0  0  0  0  0  0
    1.7314   -2.3129   14.4478 C   0  0  0  0  0  0  0  0  0  0  0  0
    2.4327   -0.9818   14.7774 C   0  0  0  0  0  0  0  0  0  0  0  0
    1.4941   -0.0356   15.5197 C   0  0  0  0  0  0  0  0  0  0  0  0
    2.1689    1.2251   15.7940 N   0  0  0  0  0  0  0  0  0  0  0  0
   -0.6551   -4.0728    8.1112 N   0  0  0  0  0  0  0  0  0  0  0  0
    2.7418   -1.7000    6.8896 C   0  0  0  0  0  0  0  0  0  0  0  0
    2.7945   -0.6310    6.7536 O   0  0  0  0  0  0  0  0  0  0  0  0
    1.7590   -2.8276    6.6885 C   0  0  2  0  0  0  0  0  0  0  0  0
    1.8136   -3.3118    5.4061 O   0  0  0  0  0  0  0  0  0  0  0  0
    0.3656   -2.2384    6.8777 C   0  0  0  0  0  0  0  0  0  0  0  0
   -0.8107   -3.2308    6.9163 C   0  0  0  0  0  0  0  0  0  0  0  0
  1  2  1  1  0  0  0
  1  3  1  0  0  0  0
  3  4  1  6  0  0  0
  3  5  1  0  0  0  0
  5  6  1  1  0  0  0
  5  7  1  0  0  0  0
  7  8  1  1  0  0  0
  9  7  1  0  0  0  0
  9 10  1  0  0  0  0
  9 11  1  1  0  0  0
 10  1  1  0  0  0  0
 11 12  1  0  0  0  0
 13 14  1  6  0  0  0
 13 15  1  0  0  0  0
 13 22  1  0  0  0  0
 14 32  1  0  0  0  0
 15 16  1  1  0  0  0
 15 17  1  0  0  0  0
 16 23  1  0  0  0  0
 17 18  1  1  0  0  0
 17 19  1  0  0  0  0
 19  2  1  1  0  0  0
 19 20  1  0  0  0  0
 20 21  1  6  0  0  0
 20 22  1  0  0  0  0
 23 24  1  0  0  0  0
 24 25  1  0  0  0  0
 25 26  1  0  0  0  0
 26 27  1  0  0  0  0
 27 28  1  0  0  0  0
 28 29  1  0  0  0  0
 29 30  1  0  0  0  0
 31 37  1  0  0  0  0
 32 33  2  0  0  0  0
 34 32  1  6  0  0  0
 34 35  1  0  0  0  0
 34 36  1  0  0  0  0
 36 37  1  0  0  0  0
M  END
>  <CHROM.1>
-167.84503086,-175.02809849,131.51950784,173.62965114,-174.22473987,-72.68873786
179.12184075,-51.16763508,76.02615401,66.99875625,66.25745727,-178.75256021
-94.83321587,-171.74614225,65.12150150,5.62707756,-1.61491148,10.06642892
-0.12171587,-0.12839574,-1.84971982

>  <Name>
1o9m_lig

>  <RI>
0

>  <Rbt.Current_Directory>
/home/itssahil/PROJECTS/Mol_Feturizer/New_Systems/rnas/1o9m

>  <Rbt.Executable>
rbdock ($Id: //depot/dev/client3/rdock/2013.1/src/exe/rbdock.cxx#4 $)

>  <Rbt.Library>
libRbt.so (2013.1, Build901 2013/11/27)

>  <Rbt.Parameter_File>
/export/apps/rDock/src/rDock_2013.1_src/data/scripts/dock_solv.prm

>  <Rbt.Receptor>
prm/blind_docking_20.prm

>  <SCORE>
-14.5682

>  <SCORE.INTER>
-8.12222

>  <SCORE.INTER.CONST>
1

>  <SCORE.INTER.POLAR>
-0.78219

>  <SCORE.INTER.ROT>
15

>  <SCORE.INTER.SOLV>
12.9133

>  <SCORE.INTER.VDW>
-20.712

>  <SCORE.INTER.norm>
-0.219519

>  <SCORE.INTRA>
-6.52932

>  <SCORE.INTRA.DIHEDRAL>
-15.9611

>  <SCORE.INTRA.DIHEDRAL.0>
21.5987

>  <SCORE.INTRA.POLAR>
0

>  <SCORE.INTRA.POLAR.0>
0

>  <SCORE.INTRA.REPUL>
0

>  <SCORE.INTRA.REPUL.0>
0

>  <SCORE.INTRA.SOLV>
3.01947

>  <SCORE.INTRA.SOLV.lig_0>
-108.715

>  <SCORE.INTRA.VDW>
-0.0584915

>  <SCORE.INTRA.VDW.0>
-3.9485

>  <SCORE.INTRA.norm>
-0.176468

>  <SCORE.RESTR>
0.0833631

>  <SCORE.RESTR.CAVITY>
0.0833631

>  <SCORE.RESTR.norm>
0.00225306

>  <SCORE.SYSTEM>
0

>  <SCORE.SYSTEM.CONST>
0

>  <SCORE.SYSTEM.DIHEDRAL>
0

>  <SCORE.SYSTEM.SOLV>
0

>  <SCORE.SYSTEM.norm>
0

>  <SCORE.heavy>
37

>  <SCORE.norm>
-0.393734

>  <RMSD>
23.489

$$$$
1o9m_lig
 OpenBabel11021811403D
libRbt.so/2013.1/901 2013/11/27
 37 38  0  0  0  0  0  0  0  0999 V2000
    9.7815   -1.4472   11.9344 C   0  0  2  0  0  0  0  0  0  0  0  0
    8.7063   -1.0265   11.0404 O   0  0  0  0  0  0  0  0  0  0  0  0
   11.1096   -1.3797   11.0941 C   0  0  2  0  0  0  0  0  0  0  0  0
   11.3682   -0.0273   10.5695 N   0  0  0  0  0  0  0  0  0  0  0  0
   11.0296   -2.4279    9.9199 C   0  0  1  0  0  0  0  0  0  0  0  0
   12.2284   -2.3870    9.1410 O   0  0  0  0  0  0  0  0  0  0  0  0
   10.7781   -3.8397   10.5451 C   0  0  2  0  0  0  0  0  0  0  0  0
   10.6704   -4.8764    9.5559 O   0  0  0  0  0  0  0  0  0  0  0  0
    9.4908   -3.8342   11.4060 C   0  0  2  0  0  0  0  0  0  0  0  0
    9.5538   -2.8149   12.4141 O   0  0  0  0  0  0  0  0  0  0  0  0
    9.2559   -5.1685   12.0656 C   0  0  0  0  0  0  0  0  0  0  0  0
    8.2880   -5.0563   13.0351 N   0  0  0  0  0  0  0  0  0  0  0  0
    5.1928   -0.2297   13.4573 C   0  0  1  0  0  0  0  0  0  0  0  0
    3.9647    0.4451   13.9632 N   0  0  0  0  0  0  0  0  0  0  0  0
    4.9804   -0.6074   11.9976 C   0  0  2  0  0  0  0  0  0  0  0  0
    3.8494   -1.4235   11.9255 O   0  0  0  0  0  0  0  0  0  0  0  0
    6.2386   -1.3361   11.4287 C   0  0  1  0  0  0  0  0  0  0  0  0
    6.0313   -1.6735   10.0231 O   0  0  0  0  0  0  0  0  0  0  0  0
    7.4990   -0.3851   11.5423 C   0  0  1  0  0  0  0  0  0  0  0  0
    7.7328   -0.0158   12.9993 C   0  0  1  0  0  0  0  0  0  0  0  0
    8.9030    0.8452   13.0826 N   0  0  0  0  0  0  0  0  0  0  0  0
    6.4746    0.6911   13.5706 C   0  0  0  0  0  0  0  0  0  0  0  0
    3.0399   -2.6153   12.0296 C   0  0  0  0  0  0  0  0  0  0  0  0
    3.3757   -3.5459   10.8869 C   0  0  0  0  0  0  0  0  0  0  0  0
    3.3960   -2.8936    9.5614 N   0  0  0  0  0  0  0  0  0  0  0  0
    3.1544   -1.9357    8.4584 C   0  0  0  0  0  0  0  0  0  0  0  0
    2.3803   -2.8856    7.5356 C   0  0  0  0  0  0  0  0  0  0  0  0
    0.8764   -2.9260    7.8658 C   0  0  0  0  0  0  0  0  0  0  0  0
    0.1278   -3.8445    6.9048 C   0  0  0  0  0  0  0  0  0  0  0  0
   -1.3014   -3.7972    7.1790 N   0  0  0  0  0  0  0  0  0  0  0  0
    1.6636    3.2497   11.3134 N   0  0  0  0  0  0  0  0  0  0  0  0
    3.5628    1.8751   12.9936 C   0  0  0  0  0  0  0  0  0  0  0  0
    3.9922    2.3541   12.1274 O   0  0  0  0  0  0  0  0  0  0  0  0
    2.4097    2.0671   13.9481 C   0  0  2  0  0  0  0  0  0  0  0  0
    1.3774    1.2110   13.6592 O   0  0  0  0  0  0  0  0  0  0  0  0
    1.8839    3.4811   13.7272 C   0  0  0  0  0  0  0  0  0  0  0  0
    0.9533    3.6973   12.5201 C   0  0  0  0  0  0  0  0  0  0  0  0
  1  2  1  6  0  0  0
  1  3  1  0  0  0  0
  3  4  1  6  0  0  0
  3  5  1  0  0  0  0
  5  6  1  1  0  0  0
  5  7  1  0  0  0  0
  7  8  1  6  0  0  0
  9  7  1  0  0  0  0
  9 10  1  0  0  0  0
  9 11  1  1  0  0  0
 10  1  1  0  0  0  0
 11 12  1  0  0  0  0
 13 14  1  6  0  0  0
 13 15  1  0  0  0  0
 13 22  1  0  0  0  0
 14 32  1  0  0  0  0
 15 16  1  1  0  0  0
 15 17  1  0  0  0  0
 16 23  1  0  0  0  0
 17 18  1  6  0  0  0
 17 19  1  0  0  0  0
 19  2  1  1  0  0  0
 19 20  1  0  0  0  0
 20 21  1  6  0  0  0
 20 22  1  0  0  0  0
 23 24  1  0  0  0  0
 24 25  1  0  0  0  0
 25 26  1  0  0  0  0
 26 27  1  0  0  0  0
 27 28  1  0  0  0  0
 28 29  1  0  0  0  0
 29 30  1  0  0  0  0
 31 37  1  0  0  0  0
 32 33  2  0  0  0  0
 34 32  1  6  0  0  0
 34 35  1  0  0  0  0
 34 36  1  0  0  0  0
 36 37  1  0  0  0  0
M  END
>  <CHROM.1>
-151.45103306,167.10740985,-57.44084178,-77.77871191,-75.10449347,-109.37978329
-48.46129551,-21.28889517,-116.47905306,85.82730269,178.23380233,-176.20383195
-78.07522189,80.06482796,-56.37201556,5.78768309,-1.21764550,11.26174038
-0.24525633,-0.18959884,0.66102716

>  <Name>
1o9m_lig

>  <RI>
0

>  <Rbt.Current_Directory>
/home/itssahil/PROJECTS/Mol_Feturizer/New_Systems/rnas/1o9m

>  <Rbt.Executable>
rbdock ($Id: //depot/dev/client3/rdock/2013.1/src/exe/rbdock.cxx#4 $)

>  <Rbt.Library>
libRbt.so (2013.1, Build901 2013/11/27)

>  <Rbt.Parameter_File>
/export/apps/rDock/src/rDock_2013.1_src/data/scripts/dock_solv.prm

>  <Rbt.Receptor>
prm/blind_docking_40.prm

>  <SCORE>
-4.7518

>  <SCORE.INTER>
-9.75975

>  <SCORE.INTER.CONST>
1

>  <SCORE.INTER.POLAR>
-2.63639

>  <SCORE.INTER.ROT>
15

>  <SCORE.INTER.SOLV>
23.2019

>  <SCORE.INTER.VDW>
-19.0525

>  <SCORE.INTER.norm>
-0.263777

>  <SCORE.INTRA>
4.98235

>  <SCORE.INTRA.DIHEDRAL>
-1.3982

>  <SCORE.INTRA.DIHEDRAL.0>
21.5987

>  <SCORE.INTRA.POLAR>
0

>  <SCORE.INTRA.POLAR.0>
0

>  <SCORE.INTRA.REPUL>
0

>  <SCORE.INTRA.REPUL.0>
0

>  <SCORE.INTRA.SOLV>
7.30289

>  <SCORE.INTRA.SOLV.lig_0>
-108.715

>  <SCORE.INTRA.VDW>
2.03001

>  <SCORE.INTRA.VDW.0>
-3.9485

>  <SCORE.INTRA.norm>
0.134658

>  <SCORE.RESTR>
0.0255989

>  <SCORE.RESTR.CAVITY>
0.0255989

>  <SCORE.RESTR.norm>
0.000691862

>  <SCORE.SYSTEM>
0

>  <SCORE.SYSTEM.CONST>
0

>  <SCORE.SYSTEM.DIHEDRAL>
0

>  <SCORE.SYSTEM.SOLV>
0

>  <SCORE.SYSTEM.norm>
0

>  <SCORE.heavy>
37

>  <SCORE.norm>
-0.128427

>  <RMSD>
23.495

$$$$
1o9m_lig
 OpenBabel11021811403D
libRbt.so/2013.1/901 2013/11/27
 37 38  0  0  0  0  0  0  0  0999 V2000
    9.9609   -2.9068   10.1879 C   0  0  2  0  0  0  0  0  0  0  0  0
    8.6967   -2.1781   10.2430 O   0  0  0  0  0  0  0  0  0  0  0  0
   10.8744   -2.2970   11.3141 C   0  0  2  0  0  0  0  0  0  0  0  0
   10.2641   -2.4140   12.6500 N   0  0  0  0  0  0  0  0  0  0  0  0
   11.1789   -0.7895   10.9697 C   0  0  1  0  0  0  0  0  0  0  0  0
   12.0108   -0.2122   11.9797 O   0  0  0  0  0  0  0  0  0  0  0  0
   11.8444   -0.7390    9.5548 C   0  0  2  0  0  0  0  0  0  0  0  0
   12.1511    0.5991    9.1303 O   0  0  0  0  0  0  0  0  0  0  0  0
   10.9283   -1.4018    8.4965 C   0  0  2  0  0  0  0  0  0  0  0  0
   10.5974   -2.7457    8.8759 O   0  0  0  0  0  0  0  0  0  0  0  0
   11.5711   -1.4165    7.1338 C   0  0  0  0  0  0  0  0  0  0  0  0
   12.6850   -2.2218    7.1417 N   0  0  0  0  0  0  0  0  0  0  0  0
    4.6792   -2.4138    8.6230 C   0  0  1  0  0  0  0  0  0  0  0  0
    3.4355   -2.9920    8.0411 N   0  0  0  0  0  0  0  0  0  0  0  0
    4.9404   -3.0676    9.9731 C   0  0  2  0  0  0  0  0  0  0  0  0
    3.8195   -2.8534   10.7780 O   0  0  0  0  0  0  0  0  0  0  0  0
    6.2277   -2.4777   10.6307 C   0  0  1  0  0  0  0  0  0  0  0  0
    6.4796   -3.1276   11.9140 O   0  0  0  0  0  0  0  0  0  0  0  0
    7.4701   -2.7275    9.6821 C   0  0  1  0  0  0  0  0  0  0  0  0
    7.2289   -2.0625    8.3355 C   0  0  1  0  0  0  0  0  0  0  0  0
    8.3876   -2.2913    7.4854 N   0  0  0  0  0  0  0  0  0  0  0  0
    5.9383   -2.6348    7.6906 C   0  0  0  0  0  0  0  0  0  0  0  0
    2.8454   -2.1354   11.5668 C   0  0  0  0  0  0  0  0  0  0  0  0
    2.2648   -1.0124   10.7384 C   0  0  0  0  0  0  0  0  0  0  0  0
    3.2694   -0.0608   10.2207 N   0  0  0  0  0  0  0  0  0  0  0  0
    3.9404    1.1912    9.8025 C   0  0  0  0  0  0  0  0  0  0  0  0
    4.9389    1.2796   10.9636 C   0  0  0  0  0  0  0  0  0  0  0  0
    4.2611    1.6714   12.2900 C   0  0  0  0  0  0  0  0  0  0  0  0
    4.0595    0.4523   13.1846 C   0  0  0  0  0  0  0  0  0  0  0  0
    3.3110    0.8250   14.3767 N   0  0  0  0  0  0  0  0  0  0  0  0
    1.2314   -0.2211    7.6267 N   0  0  0  0  0  0  0  0  0  0  0  0
    2.9568   -2.1440    6.5584 C   0  0  0  0  0  0  0  0  0  0  0  0
    3.3608   -1.3244    5.9846 O   0  0  0  0  0  0  0  0  0  0  0  0
    1.7736   -3.0804    6.5313 C   0  0  2  0  0  0  0  0  0  0  0  0
    1.8010   -3.8840    5.4198 O   0  0  0  0  0  0  0  0  0  0  0  0
    0.5255   -2.2123    6.4162 C   0  0  0  0  0  0  0  0  0  0  0  0
    0.2132   -1.2812    7.6017 C   0  0  0  0  0  0  0  0  0  0  0  0
  1  2  1  6  0  0  0
  1  3  1  0  0  0  0
  3  4  1  1  0  0  0
  3  5  1  0  0  0  0
  5  6  1  1  0  0  0
  5  7  1  0  0  0  0
  7  8  1  6  0  0  0
  9  7  1  0  0  0  0
  9 10  1  0  0  0  0
  9 11  1  6  0  0  0
 10  1  1  0  0  0  0
 11 12  1  0  0  0  0
 13 14  1  6  0  0  0
 13 15  1  0  0  0  0
 13 22  1  0  0  0  0
 14 32  1  0  0  0  0
 15 16  1  1  0  0  0
 15 17  1  0  0  0  0
 16 23  1  0  0  0  0
 17 18  1  1  0  0  0
 17 19  1  0  0  0  0
 19  2  1  1  0  0  0
 19 20  1  0  0  0  0
 20 21  1  6  0  0  0
 20 22  1  0  0  0  0
 23 24  1  0  0  0  0
 24 25  1  0  0  0  0
 25 26  1  0  0  0  0
 26 27  1  0  0  0  0
 27 28  1  0  0  0  0
 28 29  1  0  0  0  0
 29 30  1  0  0  0  0
 31 37  1  0  0  0  0
 32 33  2  0  0  0  0
 34 32  1  6  0  0  0
 34 35  1  0  0  0  0
 34 36  1  0  0  0  0
 36 37  1  0  0  0  0
M  END
>  <CHROM.1>
-159.18665337,65.56246693,173.17479155,-67.53793287,54.10597367,137.87553323
-57.38314373,-141.51946925,107.37030922,-72.42255808,101.69948613,-174.88738404
-116.65906482,-64.96662664,69.48065480,6.28450627,-1.54585105,9.46807761
-0.14120700,0.04697419,-1.97023939

>  <Name>
1o9m_lig

>  <RI>
0

>  <Rbt.Current_Directory>
/home/itssahil/PROJECTS/Mol_Feturizer/New_Systems/rnas/1o9m

>  <Rbt.Executable>
rbdock ($Id: //depot/dev/client3/rdock/2013.1/src/exe/rbdock.cxx#4 $)

>  <Rbt.Library>
libRbt.so (2013.1, Build901 2013/11/27)

>  <Rbt.Parameter_File>
/export/apps/rDock/src/rDock_2013.1_src/data/scripts/dock_solv.prm

>  <Rbt.Receptor>
prm/blind_docking_60.prm

>  <SCORE>
-4.28072

>  <SCORE.INTER>
-6.32033

>  <SCORE.INTER.CONST>
1

>  <SCORE.INTER.POLAR>
-1.76621

>  <SCORE.INTER.ROT>
15

>  <SCORE.INTER.SOLV>
11.0706

>  <SCORE.INTER.VDW>
-15.6164

>  <SCORE.INTER.norm>
-0.17082

>  <SCORE.INTRA>
2.02577

>  <SCORE.INTRA.DIHEDRAL>
-3.0681

>  <SCORE.INTRA.DIHEDRAL.0>
21.5987

>  <SCORE.INTRA.POLAR>
0

>  <SCORE.INTRA.POLAR.0>
0

>  <SCORE.INTRA.REPUL>
0

>  <SCORE.INTRA.REPUL.0>
0

>  <SCORE.INTRA.SOLV>
12.6039

>  <SCORE.INTRA.SOLV.lig_0>
-108.715

>  <SCORE.INTRA.VDW>
-2.74213

>  <SCORE.INTRA.VDW.0>
-3.9485

>  <SCORE.INTRA.norm>
0.0547506

>  <SCORE.RESTR>
0.0138379

>  <SCORE.RESTR.CAVITY>
0.0138379

>  <SCORE.RESTR.norm>
0.000373998

>  <SCORE.SYSTEM>
0

>  <SCORE.SYSTEM.CONST>
0

>  <SCORE.SYSTEM.DIHEDRAL>
0

>  <SCORE.SYSTEM.SOLV>
0

>  <SCORE.SYSTEM.norm>
0

>  <SCORE.heavy>
37

>  <SCORE.norm>
-0.115695

>  <RMSD>
23.495

$$$$
1o9m_lig
 OpenBabel11021811403D
libRbt.so/2013.1/901 2013/11/27
 37 38  0  0  0  0  0  0  0  0999 V2000
    9.1710   -3.3505   10.1388 C   0  0  2  0  0  0  0  0  0  0  0  0
    7.9511   -2.7337   10.6522 O   0  0  0  0  0  0  0  0  0  0  0  0
    9.5620   -4.4799   11.1615 C   0  0  2  0  0  0  0  0  0  0  0  0
    8.4956   -5.4851   11.3154 N   0  0  0  0  0  0  0  0  0  0  0  0
    9.9106   -3.8194   12.5493 C   0  0  1  0  0  0  0  0  0  0  0  0
   10.2717   -4.8274   13.4975 O   0  0  0  0  0  0  0  0  0  0  0  0
   11.0607   -2.7841   12.3195 C   0  0  2  0  0  0  0  0  0  0  0  0
   11.4489   -2.1053   13.5251 O   0  0  0  0  0  0  0  0  0  0  0  0
   10.6438   -1.7301   11.2643 C   0  0  2  0  0  0  0  0  0  0  0  0
   10.2506   -2.3622   10.0374 O   0  0  0  0  0  0  0  0  0  0  0  0
   11.7559   -0.7530   10.9830 C   0  0  0  0  0  0  0  0  0  0  0  0
   11.3281    0.2156   10.1066 N   0  0  0  0  0  0  0  0  0  0  0  0
    4.0913   -1.8901    8.8604 C   0  0  1  0  0  0  0  0  0  0  0  0
    2.7785   -2.1137    8.1924 N   0  0  0  0  0  0  0  0  0  0  0  0
    4.1118   -2.6595   10.1742 C   0  0  2  0  0  0  0  0  0  0  0  0
    3.0338   -2.2204   10.9457 O   0  0  0  0  0  0  0  0  0  0  0  0
    5.4656   -2.4393   10.9201 C   0  0  1  0  0  0  0  0  0  0  0  0
    5.4817   -3.1989   12.1672 O   0  0  0  0  0  0  0  0  0  0  0  0
    6.6606   -2.9348   10.0079 C   0  0  1  0  0  0  0  0  0  0  0  0
    6.6620   -2.1597    8.6990 C   0  0  1  0  0  0  0  0  0  0  0  0
    7.7756   -2.6196    7.8830 N   0  0  0  0  0  0  0  0  0  0  0  0
    5.3086   -2.3627    7.9667 C   0  0  0  0  0  0  0  0  0  0  0  0
    2.1423   -2.1146   12.0774 C   0  0  0  0  0  0  0  0  0  0  0  0
    2.9305   -1.6824   13.2926 C   0  0  0  0  0  0  0  0  0  0  0  0
    3.1585   -0.2252   13.3787 N   0  0  0  0  0  0  0  0  0  0  0  0
    3.8056    1.1055   13.3242 C   0  0  0  0  0  0  0  0  0  0  0  0
    2.5854    1.9009   12.8429 C   0  0  0  0  0  0  0  0  0  0  0  0
    1.3828    1.7608   13.7948 C   0  0  0  0  0  0  0  0  0  0  0  0
    1.7189    2.2898   15.1857 C   0  0  0  0  0  0  0  0  0  0  0  0
    2.0668    3.7018   15.1132 N   0  0  0  0  0  0  0  0  0  0  0  0
    2.5724   -2.9490    3.9317 N   0  0  0  0  0  0  0  0  0  0  0  0
    2.1422   -0.6134    7.4918 C   0  0  0  0  0  0  0  0  0  0  0  0
    2.4889    0.4064    7.4306 O   0  0  0  0  0  0  0  0  0  0  0  0
    0.9490   -1.4386    7.0760 C   0  0  2  0  0  0  0  0  0  0  0  0
    0.4702   -2.1835    8.1239 O   0  0  0  0  0  0  0  0  0  0  0  0
    1.4395   -2.4254    6.0224 C   0  0  0  0  0  0  0  0  0  0  0  0
    2.2308   -1.8426    4.8374 C   0  0  0  0  0  0  0  0  0  0  0  0
  1  2  1  1  0  0  0
  1  3  1  0  0  0  0
  3  4  1  1  0  0  0
  3  5  1  0  0  0  0
  5  6  1  1  0  0  0
  5  7  1  0  0  0  0
  7  8  1  1  0  0  0
  9  7  1  0  0  0  0
  9 10  1  0  0  0  0
  9 11  1  6  0  0  0
 10  1  1  0  0  0  0
 11 12  1  0  0  0  0
 13 14  1  6  0  0  0
 13 15  1  0  0  0  0
 13 22  1  0  0  0  0
 14 32  1  0  0  0  0
 15 16  1  1  0  0  0
 15 17  1  0  0  0  0
 16 23  1  0  0  0  0
 17 18  1  1  0  0  0
 17 19  1  0  0  0  0
 19  2  1  1  0  0  0
 19 20  1  0  0  0  0
 20 21  1  6  0  0  0
 20 22  1  0  0  0  0
 23 24  1  0  0  0  0
 24 25  1  0  0  0  0
 25 26  1  0  0  0  0
 26 27  1  0  0  0  0
 27 28  1  0  0  0  0
 28 29  1  0  0  0  0
 29 30  1  0  0  0  0
 31 37  1  0  0  0  0
 32 33  2  0  0  0  0
 34 32  1  1  0  0  0
 34 35  1  0  0  0  0
 34 36  1  0  0  0  0
 36 37  1  0  0  0  0
M  END
>  <CHROM.1>
-108.59972531,-176.30358020,138.02272590,-178.01185136,59.14376205,167.31567187
82.53198400,-103.54052379,144.10936851,57.32536259,61.00664447,60.67143310
48.97058742,-51.40410021,-178.47842339,5.55509326,-1.71034165,10.49274137
-0.12945940,0.33028589,-1.99229325

>  <Name>
1o9m_lig

>  <RI>
0

>  <Rbt.Current_Directory>
/home/itssahil/PROJECTS/Mol_Feturizer/New_Systems/rnas/1o9m

>  <Rbt.Executable>
rbdock ($Id: //depot/dev/client3/rdock/2013.1/src/exe/rbdock.cxx#4 $)

>  <Rbt.Library>
libRbt.so (2013.1, Build901 2013/11/27)

>  <Rbt.Parameter_File>
/export/apps/rDock/src/rDock_2013.1_src/data/scripts/dock_solv.prm

>  <Rbt.Receptor>
prm/blind_docking_60.prm

>  <SCORE>
-2.2479

>  <SCORE.INTER>
-5.63772

>  <SCORE.INTER.CONST>
1

>  <SCORE.INTER.POLAR>
-1.71171

>  <SCORE.INTER.ROT>
15

>  <SCORE.INTER.SOLV>
13.6112

>  <SCORE.INTER.VDW>
-16.1898

>  <SCORE.INTER.norm>
-0.152371

>  <SCORE.INTRA>
3.35224

>  <SCORE.INTRA.DIHEDRAL>
-8.57854

>  <SCORE.INTRA.DIHEDRAL.0>
21.5987

>  <SCORE.INTRA.POLAR>
0

>  <SCORE.INTRA.POLAR.0>
0

>  <SCORE.INTRA.REPUL>
0

>  <SCORE.INTRA.REPUL.0>
0

>  <SCORE.INTRA.SOLV>
3.82643

>  <SCORE.INTRA.SOLV.lig_0>
-108.715

>  <SCORE.INTRA.VDW>
5.72829

>  <SCORE.INTRA.VDW.0>
-3.9485

>  <SCORE.INTRA.norm>
0.0906011

>  <SCORE.RESTR>
0.0375789

>  <SCORE.RESTR.CAVITY>
0.0375789

>  <SCORE.RESTR.norm>
0.00101565

>  <SCORE.SYSTEM>
0

>  <SCORE.SYSTEM.CONST>
0

>  <SCORE.SYSTEM.DIHEDRAL>
0

>  <SCORE.SYSTEM.SOLV>
0

>  <SCORE.SYSTEM.norm>
0

>  <SCORE.heavy>
37

>  <SCORE.norm>
-0.0607541

>  <RMSD>
23.499

$$$$
1o9m_lig
 OpenBabel11021811403D
libRbt.so/2013.1/901 2013/11/27
 37 38  0  0  0  0  0  0  0  0999 V2000
    9.6014   -2.8170   11.3063 C   0  0  2  0  0  0  0  0  0  0  0  0
    9.0954   -1.9608   10.2371 O   0  0  0  0  0  0  0  0  0  0  0  0
   10.7249   -1.9953   12.0391 C   0  0  2  0  0  0  0  0  0  0  0  0
   10.2181   -0.7245   12.5860 N   0  0  0  0  0  0  0  0  0  0  0  0
   11.9116   -1.7368   11.0347 C   0  0  1  0  0  0  0  0  0  0  0  0
   12.9484   -0.9916   11.6790 O   0  0  0  0  0  0  0  0  0  0  0  0
   12.4162   -3.1222   10.5117 C   0  0  2  0  0  0  0  0  0  0  0  0
   13.4943   -3.0033    9.5691 O   0  0  0  0  0  0  0  0  0  0  0  0
   11.2588   -3.9109    9.8508 C   0  0  2  0  0  0  0  0  0  0  0  0
   10.1572   -4.0595   10.7585 O   0  0  0  0  0  0  0  0  0  0  0  0
   11.7058   -5.2735    9.3883 C   0  0  0  0  0  0  0  0  0  0  0  0
   12.1614   -6.0121   10.4542 N   0  0  0  0  0  0  0  0  0  0  0  0
    5.0901   -0.5997    9.2751 C   0  0  1  0  0  0  0  0  0  0  0  0
    3.6614   -0.6376    8.8545 N   0  0  0  0  0  0  0  0  0  0  0  0
    5.2646   -1.4826   10.5033 C   0  0  2  0  0  0  0  0  0  0  0  0
    4.3992   -1.0153   11.4946 O   0  0  0  0  0  0  0  0  0  0  0  0
    6.7472   -1.4589   10.9923 C   0  0  1  0  0  0  0  0  0  0  0  0
    6.9064   -2.3258   12.1566 O   0  0  0  0  0  0  0  0  0  0  0  0
    7.6953   -1.9806    9.8369 C   0  0  1  0  0  0  0  0  0  0  0  0
    7.5437   -1.0945    8.6099 C   0  0  1  0  0  0  0  0  0  0  0  0
    8.4335   -1.5820    7.5667 N   0  0  0  0  0  0  0  0  0  0  0  0
    6.0658   -1.1024    8.1354 C   0  0  0  0  0  0  0  0  0  0  0  0
    3.8078   -0.1021   12.4449 C   0  0  0  0  0  0  0  0  0  0  0  0
    3.5011    1.2061   11.7528 C   0  0  0  0  0  0  0  0  0  0  0  0
    2.9436    2.2452   12.6430 N   0  0  0  0  0  0  0  0  0  0  0  0
    2.1461    3.3833   13.1538 C   0  0  0  0  0  0  0  0  0  0  0  0
    1.8608    2.8160   14.5502 C   0  0  0  0  0  0  0  0  0  0  0  0
    0.9220    1.5958   14.5056 C   0  0  0  0  0  0  0  0  0  0  0  0
    0.9380    0.8420   15.8319 C   0  0  0  0  0  0  0  0  0  0  0  0
    2.2506    0.2530   16.0565 N   0  0  0  0  0  0  0  0  0  0  0  0
    2.6024   -1.6307    4.3120 N   0  0  0  0  0  0  0  0  0  0  0  0
    3.1818   -2.2626    8.3290 C   0  0  0  0  0  0  0  0  0  0  0  0
    3.6782   -3.2177    8.2560 O   0  0  0  0  0  0  0  0  0  0  0  0
    1.8301   -1.6556    8.0424 C   0  0  2  0  0  0  0  0  0  0  0  0
    0.8246   -2.3819    8.6284 O   0  0  0  0  0  0  0  0  0  0  0  0
    1.6164   -1.7442    6.5354 C   0  0  0  0  0  0  0  0  0  0  0  0
    2.6329   -1.0085    5.6435 C   0  0  0  0  0  0  0  0  0  0  0  0
  1  2  1  6  0  0  0
  1  3  1  0  0  0  0
  3  4  1  6  0  0  0
  3  5  1  0  0  0  0
  5  6  1  1  0  0  0
  5  7  1  0  0  0  0
  7  8  1  6  0  0  0
  9  7  1  0  0  0  0
  9 10  1  0  0  0  0
  9 11  1  1  0  0  0
 10  1  1  0  0  0  0
 11 12  1  0  0  0  0
 13 14  1  6  0  0  0
 13 15  1  0  0  0  0
 13 22  1  0  0  0  0
 14 32  1  0  0  0  0
 15 16  1  1  0  0  0
 15 17  1  0  0  0  0
 16 23  1  0  0  0  0
 17 18  1  1  0  0  0
 17 19  1  0  0  0  0
 19  2  1  1  0  0  0
 19 20  1  0  0  0  0
 20 21  1  6  0  0  0
 20 22  1  0  0  0  0
 23 24  1  0  0  0  0
 24 25  1  0  0  0  0
 25 26  1  0  0  0  0
 26 27  1  0  0  0  0
 27 28  1  0  0  0  0
 28 29  1  0  0  0  0
 29 30  1  0  0  0  0
 31 37  1  0  0  0  0
 32 33  2  0  0  0  0
 34 32  1  6  0  0  0
 34 35  1  0  0  0  0
 34 36  1  0  0  0  0
 36 37  1  0  0  0  0
M  END
>  <CHROM.1>
-145.62320674,60.21426478,-64.46972081,-60.49714724,50.71071683,65.40037141
-177.47878520,-144.12458684,140.47451786,-68.24102745,165.46454705,-65.95335580
-128.75593888,-60.50244727,157.39641955,6.29075593,-1.37994823,10.48436502
-0.23461124,-0.28472865,1.16056938

>  <Name>
1o9m_lig

>  <RI>
0

>  <Rbt.Current_Directory>
/home/itssahil/PROJECTS/Mol_Feturizer/New_Systems/rnas/1o9m

>  <Rbt.Executable>
rbdock ($Id: //depot/dev/client3/rdock/2013.1/src/exe/rbdock.cxx#4 $)

>  <Rbt.Library>
libRbt.so (2013.1, Build901 2013/11/27)

>  <Rbt.Parameter_File>
/export/apps/rDock/src/rDock_2013.1_src/data/scripts/dock_solv.prm

>  <Rbt.Receptor>
prm/blind_docking_80.prm

>  <SCORE>
-4.77428

>  <SCORE.INTER>
-1.50769

>  <SCORE.INTER.CONST>
1

>  <SCORE.INTER.POLAR>
-1.75668

>  <SCORE.INTER.ROT>
15

>  <SCORE.INTER.SOLV>
19.4233

>  <SCORE.INTER.VDW>
-15.224

>  <SCORE.INTER.norm>
-0.0407482

>  <SCORE.INTRA>
-3.3497

>  <SCORE.INTRA.DIHEDRAL>
-9.51286

>  <SCORE.INTRA.DIHEDRAL.0>
21.5987

>  <SCORE.INTRA.POLAR>
0

>  <SCORE.INTRA.POLAR.0>
0

>  <SCORE.INTRA.REPUL>
0

>  <SCORE.INTRA.REPUL.0>
0

>  <SCORE.INTRA.SOLV>
3.42988

>  <SCORE.INTRA.SOLV.lig_0>
-108.715

>  <SCORE.INTRA.VDW>
-0.308207

>  <SCORE.INTRA.VDW.0>
-3.9485

>  <SCORE.INTRA.norm>
-0.0905324

>  <SCORE.RESTR>
0.0831054

>  <SCORE.RESTR.CAVITY>
0.0831054

>  <SCORE.RESTR.norm>
0.00224609

>  <SCORE.SYSTEM>
0

>  <SCORE.SYSTEM.CONST>
0

>  <SCORE.SYSTEM.DIHEDRAL>
0

>  <SCORE.SYSTEM.SOLV>
0

>  <SCORE.SYSTEM.norm>
0

>  <SCORE.heavy>
37

>  <SCORE.norm>
-0.129035

>  <RMSD>
23.520

$$$$
1o9m_lig
 OpenBabel11021811403D
libRbt.so/2013.1/901 2013/11/27
 37 38  0  0  0  0  0  0  0  0999 V2000
   10.0503   -1.1368    9.8843 C   0  0  2  0  0  0  0  0  0  0  0  0
    9.3560   -0.8775    8.6261 O   0  0  0  0  0  0  0  0  0  0  0  0
   11.2320   -0.1013    9.9611 C   0  0  2  0  0  0  0  0  0  0  0  0
   10.7555    1.2920    9.9072 N   0  0  0  0  0  0  0  0  0  0  0  0
   12.2462   -0.3899    8.7898 C   0  0  1  0  0  0  0  0  0  0  0  0
   13.3325    0.5390    8.8392 O   0  0  0  0  0  0  0  0  0  0  0  0
   12.7289   -1.8724    8.9193 C   0  0  2  0  0  0  0  0  0  0  0  0
   13.6510   -2.2509    7.8842 O   0  0  0  0  0  0  0  0  0  0  0  0
   11.5229   -2.8436    8.8943 C   0  0  2  0  0  0  0  0  0  0  0  0
   10.5738   -2.5071    9.9167 O   0  0  0  0  0  0  0  0  0  0  0  0
   11.9567   -4.2754    9.0739 C   0  0  0  0  0  0  0  0  0  0  0  0
   12.7550   -4.6659    8.0254 N   0  0  0  0  0  0  0  0  0  0  0  0
    5.3660   -2.0348    7.3768 C   0  0  1  0  0  0  0  0  0  0  0  0
    4.2352   -2.8884    6.9162 N   0  0  0  0  0  0  0  0  0  0  0  0
    5.8784   -2.5728    8.7059 C   0  0  2  0  0  0  0  0  0  0  0  0
    4.8104   -2.5826    9.6056 O   0  0  0  0  0  0  0  0  0  0  0  0
    7.0555   -1.6958    9.2378 C   0  0  1  0  0  0  0  0  0  0  0  0
    7.5523   -2.2341   10.5012 O   0  0  0  0  0  0  0  0  0  0  0  0
    8.2373   -1.6987    8.1846 C   0  0  1  0  0  0  0  0  0  0  0  0
    7.7421   -1.1453    6.8570 C   0  0  1  0  0  0  0  0  0  0  0  0
    8.8462   -1.1429    5.9091 N   0  0  0  0  0  0  0  0  0  0  0  0
    6.5590   -2.0054    6.3378 C   0  0  0  0  0  0  0  0  0  0  0  0
    4.0875   -2.8104   10.8353 C   0  0  0  0  0  0  0  0  0  0  0  0
    2.7439   -2.1225   10.7570 C   0  0  0  0  0  0  0  0  0  0  0  0
    2.8185   -0.6469   10.7651 N   0  0  0  0  0  0  0  0  0  0  0  0
    3.1863    0.7436   11.1168 C   0  0  0  0  0  0  0  0  0  0  0  0
    2.4076    0.8281   12.4357 C   0  0  0  0  0  0  0  0  0  0  0  0
    2.6348    2.1656   13.1649 C   0  0  0  0  0  0  0  0  0  0  0  0
    1.9157    2.1866   14.5102 C   0  0  0  0  0  0  0  0  0  0  0  0
    1.9960    3.5157   15.0996 N   0  0  0  0  0  0  0  0  0  0  0  0
    0.0805   -3.3004    8.1783 N   0  0  0  0  0  0  0  0  0  0  0  0
    2.9101   -1.9108    6.2565 C   0  0  0  0  0  0  0  0  0  0  0  0
    2.7433   -0.8556    6.1051 O   0  0  0  0  0  0  0  0  0  0  0  0
    2.1877   -3.2199    6.0516 C   0  0  2  0  0  0  0  0  0  0  0  0
    2.6027   -3.8419    4.9014 O   0  0  0  0  0  0  0  0  0  0  0  0
    0.7120   -2.8858    5.8636 C   0  0  0  0  0  0  0  0  0  0  0  0
   -0.0358   -2.3234    7.0860 C   0  0  0  0  0  0  0  0  0  0  0  0
  1  2  1  6  0  0  0
  1  3  1  0  0  0  0
  3  4  1  6  0  0  0
  3  5  1  0  0  0  0
  5  6  1  1  0  0  0
  5  7  1  0  0  0  0
  7  8  1  6  0  0  0
  9  7  1  0  0  0  0
  9 10  1  0  0  0  0
  9 11  1  1  0  0  0
 10  1  1  0  0  0  0
 11 12  1  0  0  0  0
 13 14  1  6  0  0  0
 13 15  1  0  0  0  0
 13 22  1  0  0  0  0
 14 32  1  0  0  0  0
 15 16  1  1  0  0  0
 15 17  1  0  0  0  0
 16 23  1  0  0  0  0
 17 18  1  1  0  0  0
 17 19  1  0  0  0  0
 19  2  1  1  0  0  0
 19 20  1  0  0  0  0
 20 21  1  6  0  0  0
 20 22  1  0  0  0  0
 23 24  1  0  0  0  0
 24 25  1  0  0  0  0
 25 26  1  0  0  0  0
 26 27  1  0  0  0  0
 27 28  1  0  0  0  0
 28 29  1  0  0  0  0
 29 30  1  0  0  0  0
 31 37  1  0  0  0  0
 32 33  2  0  0  0  0
 34 32  1  6  0  0  0
 34 35  1  0  0  0  0
 34 36  1  0  0  0  0
 36 37  1  0  0  0  0
M  END
>  <CHROM.1>
176.85133695,-63.43172342,137.80159549,176.96737281,170.12669385,58.45020348
-68.71333946,-45.79576631,-72.89377872,176.29962864,-176.59880504,-172.51959141
-81.42342615,-67.73951406,-57.68568379,6.48914705,-1.45216283,8.96026547
-0.10592433,-0.01704061,0.97103869

>  <Name>
1o9m_lig

>  <RI>
0

>  <Rbt.Current_Directory>
/home/itssahil/PROJECTS/Mol_Feturizer/New_Systems/rnas/1o9m

>  <Rbt.Executable>
rbdock ($Id: //depot/dev/client3/rdock/2013.1/src/exe/rbdock.cxx#4 $)

>  <Rbt.Library>
libRbt.so (2013.1, Build901 2013/11/27)

>  <Rbt.Parameter_File>
/export/apps/rDock/src/rDock_2013.1_src/data/scripts/dock_solv.prm

>  <Rbt.Receptor>
prm/blind_docking_20.prm

>  <SCORE>
-10.6118

>  <SCORE.INTER>
-2.368

>  <SCORE.INTER.CONST>
1

>  <SCORE.INTER.POLAR>
-0.877239

>  <SCORE.INTER.ROT>
15

>  <SCORE.INTER.SOLV>
19.9003

>  <SCORE.INTER.VDW>
-18.888

>  <SCORE.INTER.norm>
-0.064

>  <SCORE.INTRA>
-8.25963

>  <SCORE.INTRA.DIHEDRAL>
-17.781

>  <SCORE.INTRA.DIHEDRAL.0>
21.5987

>  <SCORE.INTRA.POLAR>
0

>  <SCORE.INTRA.POLAR.0>
0

>  <SCORE.INTRA.REPUL>
0

>  <SCORE.INTRA.REPUL.0>
0

>  <SCORE.INTRA.SOLV>
1.436

>  <SCORE.INTRA.SOLV.lig_0>
-108.715

>  <SCORE.INTRA.VDW>
-0.0871132

>  <SCORE.INTRA.VDW.0>
-3.9485

>  <SCORE.INTRA.norm>
-0.223233

>  <SCORE.RESTR>
0.0158442

>  <SCORE.RESTR.CAVITY>
0.0158442

>  <SCORE.RESTR.norm>
0.000428221

>  <SCORE.SYSTEM>
0

>  <SCORE.SYSTEM.CONST>
0

>  <SCORE.SYSTEM.DIHEDRAL>
0

>  <SCORE.SYSTEM.SOLV>
0

>  <SCORE.SYSTEM.norm>
0

>  <SCORE.heavy>
37

>  <SCORE.norm>
-0.286805

>  <RMSD>
23.524

$$$$
1o9m_lig
 OpenBabel11021811403D
libRbt.so/2013.1/901 2013/11/27
 37 38  0  0  0  0  0  0  0  0999 V2000
    9.9540   -1.4412    9.9773 C   0  0  2  0  0  0  0  0  0  0  0  0
    9.1163   -1.1445    8.8187 O   0  0  0  0  0  0  0  0  0  0  0  0
   11.1033   -0.3672    9.9810 C   0  0  2  0  0  0  0  0  0  0  0  0
   10.5798    1.0081   10.0560 N   0  0  0  0  0  0  0  0  0  0  0  0
   11.9897   -0.5573    8.6918 C   0  0  1  0  0  0  0  0  0  0  0  0
   13.0447    0.4082    8.6729 O   0  0  0  0  0  0  0  0  0  0  0  0
   12.5308   -2.0252    8.6862 C   0  0  2  0  0  0  0  0  0  0  0  0
   13.3436   -2.3154    7.5373 O   0  0  0  0  0  0  0  0  0  0  0  0
   11.3609   -3.0386    8.7401 C   0  0  2  0  0  0  0  0  0  0  0  0
   10.5212   -2.7906    9.8770 O   0  0  0  0  0  0  0  0  0  0  0  0
   11.8573   -4.4603    8.7924 C   0  0  0  0  0  0  0  0  0  0  0  0
   12.5504   -4.7650    7.6452 N   0  0  0  0  0  0  0  0  0  0  0  0
    4.9183   -1.9383    8.0655 C   0  0  1  0  0  0  0  0  0  0  0  0
    3.6621   -2.6924    7.7955 N   0  0  0  0  0  0  0  0  0  0  0  0
    5.5069   -2.4197    9.3847 C   0  0  2  0  0  0  0  0  0  0  0  0
    4.5433   -2.2335   10.3782 O   0  0  0  0  0  0  0  0  0  0  0  0
    6.8187   -1.6418    9.7187 C   0  0  1  0  0  0  0  0  0  0  0  0
    7.3850   -2.1272   10.9742 O   0  0  0  0  0  0  0  0  0  0  0  0
    7.8774   -1.8663    8.5634 C   0  0  1  0  0  0  0  0  0  0  0  0
    7.3076   -1.3714    7.2427 C   0  0  1  0  0  0  0  0  0  0  0  0
    8.3011   -1.5730    6.1987 N   0  0  0  0  0  0  0  0  0  0  0  0
    5.9929   -2.1309    6.9202 C   0  0  0  0  0  0  0  0  0  0  0  0
    3.6346   -1.5375   11.2593 C   0  0  0  0  0  0  0  0  0  0  0  0
    3.0100   -2.5292   12.2137 C   0  0  0  0  0  0  0  0  0  0  0  0
    2.2825   -1.9087   13.3401 N   0  0  0  0  0  0  0  0  0  0  0  0
    1.3201   -1.0978   14.1202 C   0  0  0  0  0  0  0  0  0  0  0  0
    1.9187    0.2791   13.8057 C   0  0  0  0  0  0  0  0  0  0  0  0
    1.0787    1.4300   14.3905 C   0  0  0  0  0  0  0  0  0  0  0  0
    1.4422    1.6888   15.8494 C   0  0  0  0  0  0  0  0  0  0  0  0
    1.9934    3.0284   15.9974 N   0  0  0  0  0  0  0  0  0  0  0  0
   -0.1468   -4.1432    8.8576 N   0  0  0  0  0  0  0  0  0  0  0  0
    2.7802   -2.0124    6.4147 C   0  0  0  0  0  0  0  0  0  0  0  0
    2.9489   -1.1963    5.7294 O   0  0  0  0  0  0  0  0  0  0  0  0
    1.7440   -3.0747    6.6892 C   0  0  2  0  0  0  0  0  0  0  0  0
    1.2864   -3.6357    5.5238 O   0  0  0  0  0  0  0  0  0  0  0  0
    0.5546   -2.3751    7.3376 C   0  0  0  0  0  0  0  0  0  0  0  0
   -0.6215   -3.2653    7.7782 C   0  0  0  0  0  0  0  0  0  0  0  0
  1  2  1  6  0  0  0
  1  3  1  0  0  0  0
  3  4  1  6  0  0  0
  3  5  1  0  0  0  0
  5  6  1  1  0  0  0
  5  7  1  0  0  0  0
  7  8  1  6  0  0  0
  9  7  1  0  0  0  0
  9 10  1  0  0  0  0
  9 11  1  1  0  0  0
 10  1  1  0  0  0  0
 11 12  1  0  0  0  0
 13 14  1  6  0  0  0
 13 15  1  0  0  0  0
 13 22  1  0  0  0  0
 14 32  1  0  0  0  0
 15 16  1  1  0  0  0
 15 17  1  0  0  0  0
 16 23  1  0  0  0  0
 17 18  1  1  0  0  0
 17 19  1  0  0  0  0
 19  2  1  1  0  0  0
 19 20  1  0  0  0  0
 20 21  1  6  0  0  0
 20 22  1  0  0  0  0
 23 24  1  0  0  0  0
 24 25  1  0  0  0  0
 25 26  1  0  0  0  0
 26 27  1  0  0  0  0
 27 28  1  0  0  0  0
 28 29  1  0  0  0  0
 29 30  1  0  0  0  0
 31 37  1  0  0  0  0
 32 33  2  0  0  0  0
 34 32  1  6  0  0  0
 34 35  1  0  0  0  0
 34 36  1  0  0  0  0
 36 37  1  0  0  0  0
M  END
>  <CHROM.1>
-174.37616193,-63.20576041,170.86391872,-63.47675381,-174.72095374,62.73832124
167.90491388,58.18808525,-71.77837686,175.58859397,84.18112283,116.86886669
-138.43790824,-177.20064563,65.38806681,6.11159684,-1.67354362,9.51072844
-0.26134821,0.04899480,1.11147184

>  <Name>
1o9m_lig

>  <RI>
0

>  <Rbt.Current_Directory>
/home/itssahil/PROJECTS/Mol_Feturizer/New_Systems/rnas/1o9m

>  <Rbt.Executable>
rbdock ($Id: //depot/dev/client3/rdock/2013.1/src/exe/rbdock.cxx#4 $)

>  <Rbt.Library>
libRbt.so (2013.1, Build901 2013/11/27)

>  <Rbt.Parameter_File>
/export/apps/rDock/src/rDock_2013.1_src/data/scripts/dock_solv.prm

>  <Rbt.Receptor>
prm/blind_docking_80.prm

>  <SCORE>
-7.13879

>  <SCORE.INTER>
-2.48595

>  <SCORE.INTER.CONST>
1

>  <SCORE.INTER.POLAR>
-0.916515

>  <SCORE.INTER.ROT>
15

>  <SCORE.INTER.SOLV>
22.5961

>  <SCORE.INTER.VDW>
-19.7343

>  <SCORE.INTER.norm>
-0.0671879

>  <SCORE.INTRA>
-4.6702

>  <SCORE.INTRA.DIHEDRAL>
-10.3719

>  <SCORE.INTRA.DIHEDRAL.0>
21.5987

>  <SCORE.INTRA.POLAR>
0

>  <SCORE.INTRA.POLAR.0>
0

>  <SCORE.INTRA.REPUL>
0

>  <SCORE.INTRA.REPUL.0>
0

>  <SCORE.INTRA.SOLV>
0.270036

>  <SCORE.INTRA.SOLV.lig_0>
-108.715

>  <SCORE.INTRA.VDW>
0.380754

>  <SCORE.INTRA.VDW.0>
-3.9485

>  <SCORE.INTRA.norm>
-0.126222

>  <SCORE.RESTR>
0.0173615

>  <SCORE.RESTR.CAVITY>
0.0173615

>  <SCORE.RESTR.norm>
0.000469229

>  <SCORE.SYSTEM>
0

>  <SCORE.SYSTEM.CONST>
0

>  <SCORE.SYSTEM.DIHEDRAL>
0

>  <SCORE.SYSTEM.SOLV>
0

>  <SCORE.SYSTEM.norm>
0

>  <SCORE.heavy>
37

>  <SCORE.norm>
-0.19294

>  <RMSD>
23.549

$$$$
1o9m_lig
 OpenBabel11021811403D
libRbt.so/2013.1/901 2013/11/27
 37 38  0  0  0  0  0  0  0  0999 V2000
   10.6433   -2.4392   12.0110 C   0  0  2  0  0  0  0  0  0  0  0  0
   10.4416   -1.4470   10.9588 O   0  0  0  0  0  0  0  0  0  0  0  0
   12.1413   -2.9062   11.8998 C   0  0  2  0  0  0  0  0  0  0  0  0
   13.0863   -1.7862   12.0527 N   0  0  0  0  0  0  0  0  0  0  0  0
   12.3533   -3.6303   10.5161 C   0  0  1  0  0  0  0  0  0  0  0  0
   13.7096   -4.0667   10.3916 O   0  0  0  0  0  0  0  0  0  0  0  0
   11.3391   -4.8183   10.4289 C   0  0  2  0  0  0  0  0  0  0  0  0
   11.4341   -5.5427    9.1916 O   0  0  0  0  0  0  0  0  0  0  0  0
    9.8864   -4.3099   10.6005 C   0  0  2  0  0  0  0  0  0  0  0  0
    9.7409   -3.5816   11.8285 O   0  0  0  0  0  0  0  0  0  0  0  0
    8.8931   -5.4427   10.5766 C   0  0  0  0  0  0  0  0  0  0  0  0
    7.6119   -4.9507   10.4993 N   0  0  0  0  0  0  0  0  0  0  0  0
    6.9077    0.6792   12.3047 C   0  0  1  0  0  0  0  0  0  0  0  0
    5.8416    1.7172   12.3798 N   0  0  0  0  0  0  0  0  0  0  0  0
    6.8644    0.0286   10.9288 C   0  0  2  0  0  0  0  0  0  0  0  0
    5.5850   -0.4996   10.7437 O   0  0  0  0  0  0  0  0  0  0  0  0
    7.9554   -1.0820   10.8103 C   0  0  1  0  0  0  0  0  0  0  0  0
    7.9183   -1.6831    9.4800 O   0  0  0  0  0  0  0  0  0  0  0  0
    9.3867   -0.4463   11.0408 C   0  0  1  0  0  0  0  0  0  0  0  0
    9.4485    0.1909   12.4207 C   0  0  1  0  0  0  0  0  0  0  0  0
   10.7753    0.7552   12.6175 N   0  0  0  0  0  0  0  0  0  0  0  0
    8.3510    1.2815   12.5454 C   0  0  0  0  0  0  0  0  0  0  0  0
    4.5389   -1.3372   10.2045 C   0  0  0  0  0  0  0  0  0  0  0  0
    3.1950   -0.7322   10.5397 C   0  0  0  0  0  0  0  0  0  0  0  0
    2.9581    0.5915    9.9277 N   0  0  0  0  0  0  0  0  0  0  0  0
    2.3045    1.7330    9.2478 C   0  0  0  0  0  0  0  0  0  0  0  0
    2.8833    1.4895    7.8483 C   0  0  0  0  0  0  0  0  0  0  0  0
    2.0182    0.5237    7.0170 C   0  0  0  0  0  0  0  0  0  0  0  0
    2.2903   -0.9272    7.4022 C   0  0  0  0  0  0  0  0  0  0  0  0
    1.5256   -1.8236    6.5467 N   0  0  0  0  0  0  0  0  0  0  0  0
    0.0313    3.0687   12.5200 N   0  0  0  0  0  0  0  0  0  0  0  0
    4.4190    1.1250   13.2585 C   0  0  0  0  0  0  0  0  0  0  0  0
    4.1579    0.2023   13.7529 O   0  0  0  0  0  0  0  0  0  0  0  0
    3.8063    2.4717   12.9606 C   0  0  2  0  0  0  0  0  0  0  0  0
    4.0731    3.3715   13.9612 O   0  0  0  0  0  0  0  0  0  0  0  0
    2.2946    2.2742   12.9378 C   0  0  0  0  0  0  0  0  0  0  0  0
    1.4394    3.4906   12.5395 C   0  0  0  0  0  0  0  0  0  0  0  0
  1  2  1  6  0  0  0
  1  3  1  0  0  0  0
  3  4  1  6  0  0  0
  3  5  1  0  0  0  0
  5  6  1  1  0  0  0
  5  7  1  0  0  0  0
  7  8  1  6  0  0  0
  9  7  1  0  0  0  0
  9 10  1  0  0  0  0
  9 11  1  1  0  0  0
 10  1  1  0  0  0  0
 11 12  1  0  0  0  0
 13 14  1  6  0  0  0
 13 15  1  0  0  0  0
 13 22  1  0  0  0  0
 14 32  1  0  0  0  0
 15 16  1  1  0  0  0
 15 17  1  0  0  0  0
 16 23  1  0  0  0  0
 17 18  1  6  0  0  0
 17 19  1  0  0  0  0
 19  2  1  1  0  0  0
 19 20  1  0  0  0  0
 20 21  1  6  0  0  0
 20 22  1  0  0  0  0
 23 24  1  0  0  0  0
 24 25  1  0  0  0  0
 25 26  1  0  0  0  0
 26 27  1  0  0  0  0
 27 28  1  0  0  0  0
 28 29  1  0  0  0  0
 29 30  1  0  0  0  0
 31 37  1  0  0  0  0
 32 33  2  0  0  0  0
 34 32  1  1  0  0  0
 34 35  1  0  0  0  0
 34 36  1  0  0  0  0
 36 37  1  0  0  0  0
M  END
>  <CHROM.1>
-156.69854337,-169.68344816,100.72497310,-157.95206733,-163.21870219,-72.44564517
63.57470421,138.44516202,-99.73419713,87.68589469,-80.06647004,-176.40932629
-90.72084436,-175.22472453,177.35714572,6.82469023,-0.78833744,10.98758149
-0.34620971,-0.38028116,0.78909491

>  <Name>
1o9m_lig

>  <RI>
0

>  <Rbt.Current_Directory>
/home/itssahil/PROJECTS/Mol_Feturizer/New_Systems/rnas/1o9m

>  <Rbt.Executable>
rbdock ($Id: //depot/dev/client3/rdock/2013.1/src/exe/rbdock.cxx#4 $)

>  <Rbt.Library>
libRbt.so (2013.1, Build901 2013/11/27)

>  <Rbt.Parameter_File>
/export/apps/rDock/src/rDock_2013.1_src/data/scripts/dock_solv.prm

>  <Rbt.Receptor>
prm/blind_docking_100.prm

>  <SCORE>
-3.80465

>  <SCORE.INTER>
-2.07184

>  <SCORE.INTER.CONST>
1

>  <SCORE.INTER.POLAR>
-0.155578

>  <SCORE.INTER.ROT>
15

>  <SCORE.INTER.SOLV>
15.3196

>  <SCORE.INTER.VDW>
-19.5692

>  <SCORE.INTER.norm>
-0.0559956

>  <SCORE.INTRA>
-2.76365

>  <SCORE.INTRA.DIHEDRAL>
-6.25939

>  <SCORE.INTRA.DIHEDRAL.0>
21.5987

>  <SCORE.INTRA.POLAR>
0

>  <SCORE.INTRA.POLAR.0>
0

>  <SCORE.INTRA.REPUL>
0

>  <SCORE.INTRA.REPUL.0>
0

>  <SCORE.INTRA.SOLV>
4.96494

>  <SCORE.INTRA.SOLV.lig_0>
-108.715

>  <SCORE.INTRA.VDW>
-2.11642

>  <SCORE.INTRA.VDW.0>
-3.9485

>  <SCORE.INTRA.norm>
-0.0746932

>  <SCORE.RESTR>
1.03083

>  <SCORE.RESTR.CAVITY>
1.03083

>  <SCORE.RESTR.norm>
0.0278604

>  <SCORE.SYSTEM>
0

>  <SCORE.SYSTEM.CONST>
0

>  <SCORE.SYSTEM.DIHEDRAL>
0

>  <SCORE.SYSTEM.SOLV>
0

>  <SCORE.SYSTEM.norm>
0

>  <SCORE.heavy>
37

>  <SCORE.norm>
-0.102828

>  <RMSD>
23.569

$$$$
1o9m_lig
 OpenBabel11021811403D
libRbt.so/2013.1/901 2013/11/27
 37 38  0  0  0  0  0  0  0  0999 V2000
    8.8196   -4.2428    9.6891 C   0  0  2  0  0  0  0  0  0  0  0  0
    8.0064   -3.0337    9.7822 O   0  0  0  0  0  0  0  0  0  0  0  0
    8.3349   -5.1942   10.8443 C   0  0  2  0  0  0  0  0  0  0  0  0
    6.9025   -5.5206   10.7323 N   0  0  0  0  0  0  0  0  0  0  0  0
    8.6461   -4.5173   12.2331 C   0  0  1  0  0  0  0  0  0  0  0  0
    8.2155   -5.3651   13.3014 O   0  0  0  0  0  0  0  0  0  0  0  0
   10.1807   -4.2197   12.2957 C   0  0  2  0  0  0  0  0  0  0  0  0
   10.5754   -3.5821   13.5215 O   0  0  0  0  0  0  0  0  0  0  0  0
   10.6128   -3.3272   11.1061 C   0  0  2  0  0  0  0  0  0  0  0  0
   10.2426   -3.9267    9.8559 O   0  0  0  0  0  0  0  0  0  0  0  0
   12.0978   -3.0718   11.1118 C   0  0  0  0  0  0  0  0  0  0  0  0
   12.4039   -2.0631   11.9938 N   0  0  0  0  0  0  0  0  0  0  0  0
    4.5171   -1.6117    7.6319 C   0  0  1  0  0  0  0  0  0  0  0  0
    3.1363   -1.5711    7.0741 N   0  0  0  0  0  0  0  0  0  0  0  0
    4.4320   -1.6926    9.1500 C   0  0  2  0  0  0  0  0  0  0  0  0
    3.7027   -0.5893    9.5985 O   0  0  0  0  0  0  0  0  0  0  0  0
    5.8599   -1.7188    9.7809 C   0  0  1  0  0  0  0  0  0  0  0  0
    5.7653   -1.8183   11.2347 O   0  0  0  0  0  0  0  0  0  0  0  0
    6.6574   -2.9732    9.2366 C   0  0  1  0  0  0  0  0  0  0  0  0
    6.7655   -2.8940    7.7214 C   0  0  1  0  0  0  0  0  0  0  0  0
    7.5139   -4.0470    7.2439 N   0  0  0  0  0  0  0  0  0  0  0  0
    5.3460   -2.8481    7.0951 C   0  0  0  0  0  0  0  0  0  0  0  0
    2.7177    0.4672    9.5909 C   0  0  0  0  0  0  0  0  0  0  0  0
    2.2331    0.7054   11.0026 C   0  0  0  0  0  0  0  0  0  0  0  0
    3.2894    1.1406   11.9395 N   0  0  0  0  0  0  0  0  0  0  0  0
    4.2633    1.9802   12.6736 C   0  0  0  0  0  0  0  0  0  0  0  0
    3.2648    3.0028   13.2308 C   0  0  0  0  0  0  0  0  0  0  0  0
    2.5655    2.5018   14.5083 C   0  0  0  0  0  0  0  0  0  0  0  0
    1.5049    1.4557   14.1795 C   0  0  0  0  0  0  0  0  0  0  0  0
    0.9003    0.9539   15.4054 N   0  0  0  0  0  0  0  0  0  0  0  0
   -1.7473   -4.8254    7.7664 N   0  0  0  0  0  0  0  0  0  0  0  0
    2.0886   -2.7775    7.8445 C   0  0  0  0  0  0  0  0  0  0  0  0
    2.2185   -3.5155    8.6208 O   0  0  0  0  0  0  0  0  0  0  0  0
    1.0120   -2.2849    6.9086 C   0  0  2  0  0  0  0  0  0  0  0  0
    0.3683   -1.1888    7.4244 O   0  0  0  0  0  0  0  0  0  0  0  0
   -0.0261   -3.3968    6.8048 C   0  0  0  0  0  0  0  0  0  0  0  0
   -0.7839   -3.7643    8.0934 C   0  0  0  0  0  0  0  0  0  0  0  0
  1  2  1  1  0  0  0
  1  3  1  0  0  0  0
  3  4  1  6  0  0  0
  3  5  1  0  0  0  0
  5  6  1  1  0  0  0
  5  7  1  0  0  0  0
  7  8  1  1  0  0  0
  9  7  1  0  0  0  0
  9 10  1  0  0  0  0
  9 11  1  6  0  0  0
 10  1  1  0  0  0  0
 11 12  1  0  0  0  0
 13 14  1  6  0  0  0
 13 15  1  0  0  0  0
 13 22  1  0  0  0  0
 14 32  1  0  0  0  0
 15 16  1  1  0  0  0
 15 17  1  0  0  0  0
 16 23  1  0  0  0  0
 17 18  1  1  0  0  0
 17 19  1  0  0  0  0
 19  2  1  1  0  0  0
 19 20  1  0  0  0  0
 20 21  1  6  0  0  0
 20 22  1  0  0  0  0
 23 24  1  0  0  0  0
 24 25  1  0  0  0  0
 25 26  1  0  0  0  0
 26 27  1  0  0  0  0
 27 28  1  0  0  0  0
 28 29  1  0  0  0  0
 29 30  1  0  0  0  0
 31 37  1  0  0  0  0
 32 33  2  0  0  0  0
 34 32  1  1  0  0  0
 34 35  1  0  0  0  0
 34 36  1  0  0  0  0
 36 37  1  0  0  0  0
M  END
>  <CHROM.1>
-80.55827778,-81.03028154,-45.21273468,31.80314926,146.58623299,165.23458739
61.57915568,80.10797691,57.78121519,82.40442725,-75.25026605,177.45723594
-85.21395425,63.79126718,178.73192694,5.20997935,-2.14350606,10.24875152
0.04519494,0.34206841,-2.26477719

>  <Name>
1o9m_lig

>  <RI>
0

>  <Rbt.Current_Directory>
/home/itssahil/PROJECTS/Mol_Feturizer/New_Systems/rnas/1o9m

>  <Rbt.Executable>
rbdock ($Id: //depot/dev/client3/rdock/2013.1/src/exe/rbdock.cxx#4 $)

>  <Rbt.Library>
libRbt.so (2013.1, Build901 2013/11/27)

>  <Rbt.Parameter_File>
/export/apps/rDock/src/rDock_2013.1_src/data/scripts/dock_solv.prm

>  <Rbt.Receptor>
prm/blind_docking_40.prm

>  <SCORE>
-3.77135

>  <SCORE.INTER>
-4.76399

>  <SCORE.INTER.CONST>
1

>  <SCORE.INTER.POLAR>
-1

>  <SCORE.INTER.ROT>
15

>  <SCORE.INTER.SOLV>
13.2938

>  <SCORE.INTER.VDW>
-17.8739

>  <SCORE.INTER.norm>
-0.128757

>  <SCORE.INTRA>
0.960899

>  <SCORE.INTRA.DIHEDRAL>
-5.31993

>  <SCORE.INTRA.DIHEDRAL.0>
21.5987

>  <SCORE.INTRA.POLAR>
0

>  <SCORE.INTRA.POLAR.0>
0

>  <SCORE.INTRA.REPUL>
0

>  <SCORE.INTRA.REPUL.0>
0

>  <SCORE.INTRA.SOLV>
5.25703

>  <SCORE.INTRA.SOLV.lig_0>
-108.715

>  <SCORE.INTRA.VDW>
0.99235

>  <SCORE.INTRA.VDW.0>
-3.9485

>  <SCORE.INTRA.norm>
0.0259702

>  <SCORE.RESTR>
0.031738

>  <SCORE.RESTR.CAVITY>
0.031738

>  <SCORE.RESTR.norm>
0.000857784

>  <SCORE.SYSTEM>
0

>  <SCORE.SYSTEM.CONST>
0

>  <SCORE.SYSTEM.DIHEDRAL>
0

>  <SCORE.SYSTEM.SOLV>
0

>  <SCORE.SYSTEM.norm>
0

>  <SCORE.heavy>
37

>  <SCORE.norm>
-0.101929

>  <RMSD>
23.570

$$$$
1o9m_lig
 OpenBabel11021811403D
libRbt.so/2013.1/901 2013/11/27
 37 38  0  0  0  0  0  0  0  0999 V2000
   11.2735   -1.5165    8.7455 C   0  0  2  0  0  0  0  0  0  0  0  0
   10.2494   -1.9545    7.8013 O   0  0  0  0  0  0  0  0  0  0  0  0
   12.6587   -1.9117    8.1133 C   0  0  2  0  0  0  0  0  0  0  0  0
   12.8665   -1.2889    6.7943 N   0  0  0  0  0  0  0  0  0  0  0  0
   12.7477   -3.4818    8.0093 C   0  0  1  0  0  0  0  0  0  0  0  0
   14.0010   -3.8670    7.4382 O   0  0  0  0  0  0  0  0  0  0  0  0
   12.5427   -4.0761    9.4419 C   0  0  2  0  0  0  0  0  0  0  0  0
   12.5881   -5.5122    9.4614 O   0  0  0  0  0  0  0  0  0  0  0  0
   11.1914   -3.6103   10.0381 C   0  0  2  0  0  0  0  0  0  0  0  0
   11.1011   -2.1781   10.0437 O   0  0  0  0  0  0  0  0  0  0  0  0
   10.9947   -4.1238   11.4410 C   0  0  0  0  0  0  0  0  0  0  0  0
   10.7886   -5.4827   11.4259 N   0  0  0  0  0  0  0  0  0  0  0  0
    5.9852   -1.1579    7.8505 C   0  0  1  0  0  0  0  0  0  0  0  0
    4.5488   -1.2443    8.2363 N   0  0  0  0  0  0  0  0  0  0  0  0
    6.7985   -0.7494    9.0713 C   0  0  2  0  0  0  0  0  0  0  0  0
    6.2924    0.4659    9.5373 O   0  0  0  0  0  0  0  0  0  0  0  0
    8.3123   -0.6279    8.7089 C   0  0  1  0  0  0  0  0  0  0  0  0
    9.0841   -0.2571    9.8918 O   0  0  0  0  0  0  0  0  0  0  0  0
    8.8425   -2.0194    8.1718 C   0  0  1  0  0  0  0  0  0  0  0  0
    8.0496   -2.4294    6.9401 C   0  0  1  0  0  0  0  0  0  0  0  0
    8.5624   -3.7018    6.4546 N   0  0  0  0  0  0  0  0  0  0  0  0
    6.5421   -2.5311    7.2955 C   0  0  0  0  0  0  0  0  0  0  0  0
    6.2026    1.6746   10.3230 C   0  0  0  0  0  0  0  0  0  0  0  0
    6.2331    1.3168   11.7912 C   0  0  0  0  0  0  0  0  0  0  0  0
    4.8979    1.1388   12.3982 N   0  0  0  0  0  0  0  0  0  0  0  0
    3.4579    1.2939   12.7062 C   0  0  0  0  0  0  0  0  0  0  0  0
    3.5329    2.7041   13.3050 C   0  0  0  0  0  0  0  0  0  0  0  0
    2.1423    3.2658   13.6557 C   0  0  0  0  0  0  0  0  0  0  0  0
    1.5376    2.5303   14.8477 C   0  0  0  0  0  0  0  0  0  0  0  0
    2.2565    2.8761   16.0658 N   0  0  0  0  0  0  0  0  0  0  0  0
    2.3640    1.3287    8.1300 N   0  0  0  0  0  0  0  0  0  0  0  0
    3.5431   -1.7862    6.8793 C   0  0  0  0  0  0  0  0  0  0  0  0
    3.7329   -2.0737    5.8568 O   0  0  0  0  0  0  0  0  0  0  0  0
    2.3743   -1.6295    7.8210 C   0  0  2  0  0  0  0  0  0  0  0  0
    1.7150   -2.8195    7.9976 O   0  0  0  0  0  0  0  0  0  0  0  0
    1.3909   -0.6768    7.1503 C   0  0  0  0  0  0  0  0  0  0  0  0
    1.8899    0.7511    6.8640 C   0  0  0  0  0  0  0  0  0  0  0  0
  1  2  1  6  0  0  0
  1  3  1  0  0  0  0
  3  4  1  6  0  0  0
  3  5  1  0  0  0  0
  5  6  1  1  0  0  0
  5  7  1  0  0  0  0
  7  8  1  6  0  0  0
  9  7  1  0  0  0  0
  9 10  1  0  0  0  0
  9 11  1  1  0  0  0
 10  1  1  0  0  0  0
 11 12  1  0  0  0  0
 13 14  1  1  0  0  0
 13 15  1  0  0  0  0
 13 22  1  0  0  0  0
 14 32  1  0  0  0  0
 15 16  1  6  0  0  0
 15 17  1  0  0  0  0
 16 23  1  0  0  0  0
 17 18  1  1  0  0  0
 17 19  1  0  0  0  0
 19  2  1  6  0  0  0
 19 20  1  0  0  0  0
 20 21  1  1  0  0  0
 20 22  1  0  0  0  0
 23 24  1  0  0  0  0
 24 25  1  0  0  0  0
 25 26  1  0  0  0  0
 26 27  1  0  0  0  0
 27 28  1  0  0  0  0
 28 29  1  0  0  0  0
 29 30  1  0  0  0  0
 31 37  1  0  0  0  0
 32 33  2  0  0  0  0
 34 32  1  6  0  0  0
 34 35  1  0  0  0  0
 34 36  1  0  0  0  0
 36 37  1  0  0  0  0
M  END
>  <CHROM.1>
166.49305541,-69.95305841,-177.49472924,-171.86194865,-55.00317650,55.85165316
-92.93911125,-34.08783548,-67.15799715,175.42541903,70.05561892,70.51637345
-119.96653319,-61.91068832,-55.45340977,7.13123365,-1.18305217,9.37325688
-0.42222068,-0.30742548,1.10261415

>  <Name>
1o9m_lig

>  <RI>
0

>  <Rbt.Current_Directory>
/home/itssahil/PROJECTS/Mol_Feturizer/New_Systems/rnas/1o9m

>  <Rbt.Executable>
rbdock ($Id: //depot/dev/client3/rdock/2013.1/src/exe/rbdock.cxx#4 $)

>  <Rbt.Library>
libRbt.so (2013.1, Build901 2013/11/27)

>  <Rbt.Parameter_File>
/export/apps/rDock/src/rDock_2013.1_src/data/scripts/dock_solv.prm

>  <Rbt.Receptor>
prm/blind_docking_80.prm

>  <SCORE>
-8.8319

>  <SCORE.INTER>
-4.6851

>  <SCORE.INTER.CONST>
1

>  <SCORE.INTER.POLAR>
-0.916515

>  <SCORE.INTER.ROT>
15

>  <SCORE.INTER.SOLV>
19.0809

>  <SCORE.INTER.VDW>
-20.0287

>  <SCORE.INTER.norm>
-0.126624

>  <SCORE.INTRA>
-4.15486

>  <SCORE.INTRA.DIHEDRAL>
-12.7247

>  <SCORE.INTRA.DIHEDRAL.0>
21.5987

>  <SCORE.INTRA.POLAR>
0

>  <SCORE.INTRA.POLAR.0>
0

>  <SCORE.INTRA.REPUL>
0.00106226

>  <SCORE.INTRA.REPUL.0>
0

>  <SCORE.INTRA.SOLV>
3.10175

>  <SCORE.INTRA.SOLV.lig_0>
-108.715

>  <SCORE.INTRA.VDW>
0.651293

>  <SCORE.INTRA.VDW.0>
-3.9485

>  <SCORE.INTRA.norm>
-0.112293

>  <SCORE.RESTR>
0.00806664

>  <SCORE.RESTR.CAVITY>
0.00806664

>  <SCORE.RESTR.norm>
0.000218017

>  <SCORE.SYSTEM>
0

>  <SCORE.SYSTEM.CONST>
0

>  <SCORE.SYSTEM.DIHEDRAL>
0

>  <SCORE.SYSTEM.SOLV>
0

>  <SCORE.SYSTEM.norm>
0

>  <SCORE.heavy>
37

>  <SCORE.norm>
-0.2387

>  <RMSD>
23.577

$$$$
1o9m_lig
 OpenBabel11021811403D
libRbt.so/2013.1/901 2013/11/27
 37 38  0  0  0  0  0  0  0  0999 V2000
   10.3837   -0.7202    9.0904 C   0  0  2  0  0  0  0  0  0  0  0  0
    9.1823   -1.4401    9.5032 O   0  0  0  0  0  0  0  0  0  0  0  0
   11.0588   -1.5901    7.9670 C   0  0  2  0  0  0  0  0  0  0  0  0
   10.1626   -1.8084    6.8181 N   0  0  0  0  0  0  0  0  0  0  0  0
   11.5172   -2.9649    8.5864 C   0  0  1  0  0  0  0  0  0  0  0  0
   12.1367   -3.7746    7.5833 O   0  0  0  0  0  0  0  0  0  0  0  0
   12.4808   -2.6625    9.7811 C   0  0  2  0  0  0  0  0  0  0  0  0
   12.9495   -3.8534   10.4346 O   0  0  0  0  0  0  0  0  0  0  0  0
   11.7852   -1.7581   10.8283 C   0  0  2  0  0  0  0  0  0  0  0  0
   11.3027   -0.5505   10.2215 O   0  0  0  0  0  0  0  0  0  0  0  0
   12.7116   -1.4056   11.9633 C   0  0  0  0  0  0  0  0  0  0  0  0
   13.9338   -1.0099   11.4745 N   0  0  0  0  0  0  0  0  0  0  0  0
    5.5674   -0.8541   11.8290 C   0  0  1  0  0  0  0  0  0  0  0  0
    4.6104   -0.2600   12.8042 N   0  0  0  0  0  0  0  0  0  0  0  0
    5.9157    0.1941   10.7810 C   0  0  2  0  0  0  0  0  0  0  0  0
    4.7263    0.6129   10.1809 O   0  0  0  0  0  0  0  0  0  0  0  0
    6.9047   -0.3913    9.7242 C   0  0  1  0  0  0  0  0  0  0  0  0
    7.2480    0.6291    8.7376 O   0  0  0  0  0  0  0  0  0  0  0  0
    8.2310   -0.8672   10.4455 C   0  0  1  0  0  0  0  0  0  0  0  0
    7.8980   -1.9291   11.4825 C   0  0  1  0  0  0  0  0  0  0  0  0
    9.1311   -2.3628   12.1221 N   0  0  0  0  0  0  0  0  0  0  0  0
    6.8994   -1.3533   12.5220 C   0  0  0  0  0  0  0  0  0  0  0  0
    3.3389    0.9983   10.0657 C   0  0  0  0  0  0  0  0  0  0  0  0
    3.0966    1.5791    8.6915 C   0  0  0  0  0  0  0  0  0  0  0  0
    2.8895    0.5673    7.6350 N   0  0  0  0  0  0  0  0  0  0  0  0
    2.4088   -0.1149    6.4119 C   0  0  0  0  0  0  0  0  0  0  0  0
    2.4027   -1.5437    6.9699 C   0  0  0  0  0  0  0  0  0  0  0  0
    1.1674   -1.8248    7.8458 C   0  0  0  0  0  0  0  0  0  0  0  0
    1.2222   -3.2298    8.4377 C   0  0  0  0  0  0  0  0  0  0  0  0
   -0.0440   -3.5513    9.0808 N   0  0  0  0  0  0  0  0  0  0  0  0
    2.1699    2.9554   11.9830 N   0  0  0  0  0  0  0  0  0  0  0  0
    3.2287   -1.3338   13.0950 C   0  0  0  0  0  0  0  0  0  0  0  0
    2.9332   -2.3090   12.7404 O   0  0  0  0  0  0  0  0  0  0  0  0
    2.7141   -0.2493   14.0097 C   0  0  2  0  0  0  0  0  0  0  0  0
    1.7335   -0.7253   14.8426 O   0  0  0  0  0  0  0  0  0  0  0  0
    2.0638    0.8060   13.1219 C   0  0  0  0  0  0  0  0  0  0  0  0
    2.6880    2.2130   13.1412 C   0  0  0  0  0  0  0  0  0  0  0  0
  1  2  1  1  0  0  0
  1  3  1  0  0  0  0
  3  4  1  6  0  0  0
  3  5  1  0  0  0  0
  5  6  1  6  0  0  0
  5  7  1  0  0  0  0
  7  8  1  1  0  0  0
  9  7  1  0  0  0  0
  9 10  1  0  0  0  0
  9 11  1  1  0  0  0
 10  1  1  0  0  0  0
 11 12  1  0  0  0  0
 13 14  1  1  0  0  0
 13 15  1  0  0  0  0
 13 22  1  0  0  0  0
 14 32  1  0  0  0  0
 15 16  1  6  0  0  0
 15 17  1  0  0  0  0
 16 23  1  0  0  0  0
 17 18  1  6  0  0  0
 17 19  1  0  0  0  0
 19  2  1  6  0  0  0
 19 20  1  0  0  0  0
 20 21  1  1  0  0  0
 20 22  1  0  0  0  0
 23 24  1  0  0  0  0
 24 25  1  0  0  0  0
 25 26  1  0  0  0  0
 26 27  1  0  0  0  0
 27 28  1  0  0  0  0
 28 29  1  0  0  0  0
 29 30  1  0  0  0  0
 31 37  1  0  0  0  0
 32 33  2  0  0  0  0
 34 32  1  6  0  0  0
 34 35  1  0  0  0  0
 34 36  1  0  0  0  0
 36 37  1  0  0  0  0
M  END
>  <CHROM.1>
-174.07561099,46.52075841,132.01523577,38.92614258,169.43004199,105.96828672
81.60370036,147.55948998,-146.79364984,79.01688347,-177.36892370,-170.94003578
-163.56232450,-117.56672028,164.88853227,6.51374796,-0.97622079,10.34364526
0.13710955,0.15191031,-1.79189232

>  <Name>
1o9m_lig

>  <RI>
0

>  <Rbt.Current_Directory>
/home/itssahil/PROJECTS/Mol_Feturizer/New_Systems/rnas/1o9m

>  <Rbt.Executable>
rbdock ($Id: //depot/dev/client3/rdock/2013.1/src/exe/rbdock.cxx#4 $)

>  <Rbt.Library>
libRbt.so (2013.1, Build901 2013/11/27)

>  <Rbt.Parameter_File>
/export/apps/rDock/src/rDock_2013.1_src/data/scripts/dock_solv.prm

>  <Rbt.Receptor>
prm/blind_docking_80.prm

>  <SCORE>
0.216002

>  <SCORE.INTER>
-1.87834

>  <SCORE.INTER.CONST>
1

>  <SCORE.INTER.POLAR>
-0.723106

>  <SCORE.INTER.ROT>
15

>  <SCORE.INTER.SOLV>
13.5307

>  <SCORE.INTER.VDW>
-16.9521

>  <SCORE.INTER.norm>
-0.050766

>  <SCORE.INTRA>
2.01517

>  <SCORE.INTRA.DIHEDRAL>
0.797177

>  <SCORE.INTRA.DIHEDRAL.0>
21.5987

>  <SCORE.INTRA.POLAR>
0

>  <SCORE.INTRA.POLAR.0>
0

>  <SCORE.INTRA.REPUL>
0.0187668

>  <SCORE.INTRA.REPUL.0>
0

>  <SCORE.INTRA.SOLV>
5.06054

>  <SCORE.INTRA.SOLV.lig_0>
-108.715

>  <SCORE.INTRA.VDW>
-1.00752

>  <SCORE.INTRA.VDW.0>
-3.9485

>  <SCORE.INTRA.norm>
0.0544641

>  <SCORE.RESTR>
0.0791721

>  <SCORE.RESTR.CAVITY>
0.0791721

>  <SCORE.RESTR.norm>
0.00213979

>  <SCORE.SYSTEM>
0

>  <SCORE.SYSTEM.CONST>
0

>  <SCORE.SYSTEM.DIHEDRAL>
0

>  <SCORE.SYSTEM.SOLV>
0

>  <SCORE.SYSTEM.norm>
0

>  <SCORE.heavy>
37

>  <SCORE.norm>
0.00583789

>  <RMSD>
23.586

$$$$
1o9m_lig
 OpenBabel11021811403D
libRbt.so/2013.1/901 2013/11/27
 37 38  0  0  0  0  0  0  0  0999 V2000
    9.3034   -2.2032    9.9242 C   0  0  2  0  0  0  0  0  0  0  0  0
    8.8829   -2.5136    8.5608 O   0  0  0  0  0  0  0  0  0  0  0  0
   10.8600   -2.4258    9.9705 C   0  0  2  0  0  0  0  0  0  0  0  0
   11.5728   -1.5767    9.0000 N   0  0  0  0  0  0  0  0  0  0  0  0
   11.1699   -3.9494    9.7122 C   0  0  1  0  0  0  0  0  0  0  0  0
   12.5811   -4.1781    9.7511 O   0  0  0  0  0  0  0  0  0  0  0  0
   10.4044   -4.7899   10.7869 C   0  0  2  0  0  0  0  0  0  0  0  0
   10.6037   -6.2048   10.6338 O   0  0  0  0  0  0  0  0  0  0  0  0
    8.8859   -4.4903   10.7345 C   0  0  2  0  0  0  0  0  0  0  0  0
    8.6360   -3.0855   10.8879 O   0  0  0  0  0  0  0  0  0  0  0  0
    8.1318   -5.2459   11.7980 C   0  0  0  0  0  0  0  0  0  0  0  0
    6.8703   -4.7218   11.9502 N   0  0  0  0  0  0  0  0  0  0  0  0
    4.8836   -2.6973    6.8897 C   0  0  1  0  0  0  0  0  0  0  0  0
    3.5138   -3.1992    6.5875 N   0  0  0  0  0  0  0  0  0  0  0  0
    5.0168   -2.5073    8.3945 C   0  0  2  0  0  0  0  0  0  0  0  0
    4.0170   -1.6235    8.8059 O   0  0  0  0  0  0  0  0  0  0  0  0
    6.4346   -1.9632    8.7574 C   0  0  1  0  0  0  0  0  0  0  0  0
    6.5574   -1.8059   10.2041 O   0  0  0  0  0  0  0  0  0  0  0  0
    7.5376   -2.9847    8.2620 C   0  0  1  0  0  0  0  0  0  0  0  0
    7.4268   -3.1685    6.7560 C   0  0  1  0  0  0  0  0  0  0  0  0
    8.4578   -4.0983    6.3201 N   0  0  0  0  0  0  0  0  0  0  0  0
    6.0108   -3.6908    6.3933 C   0  0  0  0  0  0  0  0  0  0  0  0
    3.2653   -0.7528    9.6796 C   0  0  0  0  0  0  0  0  0  0  0  0
    2.8529   -1.5220   10.9136 C   0  0  0  0  0  0  0  0  0  0  0  0
    2.5114   -0.6701   12.0714 N   0  0  0  0  0  0  0  0  0  0  0  0
    1.8826    0.3664   12.9214 C   0  0  0  0  0  0  0  0  0  0  0  0
    2.0257    1.5398   11.9439 C   0  0  0  0  0  0  0  0  0  0  0  0
    1.6108    2.8819   12.5754 C   0  0  0  0  0  0  0  0  0  0  0  0
    2.7153    3.4309   13.4732 C   0  0  0  0  0  0  0  0  0  0  0  0
    2.2981    3.3804   14.8673 N   0  0  0  0  0  0  0  0  0  0  0  0
   -1.0697   -3.1126    8.5584 N   0  0  0  0  0  0  0  0  0  0  0  0
    2.6122   -2.0565    5.5736 C   0  0  0  0  0  0  0  0  0  0  0  0
    2.8301   -1.1005    5.1236 O   0  0  0  0  0  0  0  0  0  0  0  0
    1.4663   -3.0332    5.6767 C   0  0  2  0  0  0  0  0  0  0  0  0
    0.6168   -2.9177    4.6058 O   0  0  0  0  0  0  0  0  0  0  0  0
    0.6669   -2.6474    6.9164 C   0  0  0  0  0  0  0  0  0  0  0  0
   -0.5994   -3.4712    7.2125 C   0  0  0  0  0  0  0  0  0  0  0  0
  1  2  1  6  0  0  0
  1  3  1  0  0  0  0
  3  4  1  6  0  0  0
  3  5  1  0  0  0  0
  5  6  1  1  0  0  0
  5  7  1  0  0  0  0
  7  8  1  6  0  0  0
  9  7  1  0  0  0  0
  9 10  1  0  0  0  0
  9 11  1  1  0  0  0
 10  1  1  0  0  0  0
 11 12  1  0  0  0  0
 13 14  1  1  0  0  0
 13 15  1  0  0  0  0
 13 22  1  0  0  0  0
 14 32  1  0  0  0  0
 15 16  1  6  0  0  0
 15 17  1  0  0  0  0
 16 23  1  0  0  0  0
 17 18  1  1  0  0  0
 17 19  1  0  0  0  0
 19  2  1  6  0  0  0
 19 20  1  0  0  0  0
 20 21  1  1  0  0  0
 20 22  1  0  0  0  0
 23 24  1  0  0  0  0
 24 25  1  0  0  0  0
 25 26  1  0  0  0  0
 26 27  1  0  0  0  0
 27 28  1  0  0  0  0
 28 29  1  0  0  0  0
 29 30  1  0  0  0  0
 31 37  1  0  0  0  0
 32 33  2  0  0  0  0
 34 32  1  6  0  0  0
 34 35  1  0  0  0  0
 34 36  1  0  0  0  0
 36 37  1  0  0  0  0
M  END
>  <CHROM.1>
152.82973534,164.99654492,117.79889413,-171.96480762,-55.58650310,57.53266815
159.52630552,54.84374367,-48.02843370,-173.06696629,78.71114487,-111.13699698
-154.70072821,177.73855592,169.53286705,5.50615065,-2.24118860,9.28025134
-0.15869869,-0.32417810,1.00436592

>  <Name>
1o9m_lig

>  <RI>
0

>  <Rbt.Current_Directory>
/home/itssahil/PROJECTS/Mol_Feturizer/New_Systems/rnas/1o9m

>  <Rbt.Executable>
rbdock ($Id: //depot/dev/client3/rdock/2013.1/src/exe/rbdock.cxx#4 $)

>  <Rbt.Library>
libRbt.so (2013.1, Build901 2013/11/27)

>  <Rbt.Parameter_File>
/export/apps/rDock/src/rDock_2013.1_src/data/scripts/dock_solv.prm

>  <Rbt.Receptor>
prm/blind_docking_80.prm

>  <SCORE>
-6.35811

>  <SCORE.INTER>
-4.07239

>  <SCORE.INTER.CONST>
1

>  <SCORE.INTER.POLAR>
-1.17416

>  <SCORE.INTER.ROT>
15

>  <SCORE.INTER.SOLV>
17.4357

>  <SCORE.INTER.VDW>
-18.213

>  <SCORE.INTER.norm>
-0.110065

>  <SCORE.INTRA>
-2.30109

>  <SCORE.INTRA.DIHEDRAL>
-5.75036

>  <SCORE.INTRA.DIHEDRAL.0>
21.5987

>  <SCORE.INTRA.POLAR>
0

>  <SCORE.INTRA.POLAR.0>
0

>  <SCORE.INTRA.REPUL>
0

>  <SCORE.INTRA.REPUL.0>
0

>  <SCORE.INTRA.SOLV>
0.659626

>  <SCORE.INTRA.SOLV.lig_0>
-108.715

>  <SCORE.INTRA.VDW>
0.244273

>  <SCORE.INTRA.VDW.0>
-3.9485

>  <SCORE.INTRA.norm>
-0.0621918

>  <SCORE.RESTR>
0.0153769

>  <SCORE.RESTR.CAVITY>
0.0153769

>  <SCORE.RESTR.norm>
0.000415593

>  <SCORE.SYSTEM>
0

>  <SCORE.SYSTEM.CONST>
0

>  <SCORE.SYSTEM.DIHEDRAL>
0

>  <SCORE.SYSTEM.SOLV>
0

>  <SCORE.SYSTEM.norm>
0

>  <SCORE.heavy>
37

>  <SCORE.norm>
-0.171841

>  <RMSD>
23.588

$$$$
1o9m_lig
 OpenBabel11021811403D
libRbt.so/2013.1/901 2013/11/27
 37 38  0  0  0  0  0  0  0  0999 V2000
   10.0839   -1.5825    9.6239 C   0  0  2  0  0  0  0  0  0  0  0  0
    9.1707   -1.1099    8.5871 O   0  0  0  0  0  0  0  0  0  0  0  0
   11.0452   -0.3809    9.9505 C   0  0  2  0  0  0  0  0  0  0  0  0
   10.3103    0.8113   10.4084 N   0  0  0  0  0  0  0  0  0  0  0  0
   11.9065   -0.0490    8.6731 C   0  0  1  0  0  0  0  0  0  0  0  0
   12.7914    1.0411    8.9456 O   0  0  0  0  0  0  0  0  0  0  0  0
   12.6760   -1.3455    8.2555 C   0  0  2  0  0  0  0  0  0  0  0  0
   13.4856   -1.1601    7.0829 O   0  0  0  0  0  0  0  0  0  0  0  0
   11.6867   -2.5096    8.0011 C   0  0  2  0  0  0  0  0  0  0  0  0
   10.8569   -2.7360    9.1498 O   0  0  0  0  0  0  0  0  0  0  0  0
   12.4066   -3.7863    7.6516 C   0  0  0  0  0  0  0  0  0  0  0  0
   11.5898   -4.6052    6.9088 N   0  0  0  0  0  0  0  0  0  0  0  0
    5.0678   -2.1830    7.6735 C   0  0  1  0  0  0  0  0  0  0  0  0
    3.8962   -2.9926    7.2360 N   0  0  0  0  0  0  0  0  0  0  0  0
    5.7428   -2.8868    8.8429 C   0  0  2  0  0  0  0  0  0  0  0  0
    4.7925   -3.0482    9.8534 O   0  0  0  0  0  0  0  0  0  0  0  0
    6.9687   -2.0627    9.3483 C   0  0  1  0  0  0  0  0  0  0  0  0
    7.6202   -2.7581   10.4548 O   0  0  0  0  0  0  0  0  0  0  0  0
    8.0132   -1.8898    8.1714 C   0  0  1  0  0  0  0  0  0  0  0  0
    7.3555   -1.1704    7.0037 C   0  0  1  0  0  0  0  0  0  0  0  0
    8.3357   -1.0089    5.9404 N   0  0  0  0  0  0  0  0  0  0  0  0
    6.1249   -1.9798    6.5138 C   0  0  0  0  0  0  0  0  0  0  0  0
    3.8305   -2.6847   10.8678 C   0  0  0  0  0  0  0  0  0  0  0  0
    4.5266   -1.8969   11.9538 C   0  0  0  0  0  0  0  0  0  0  0  0
    3.6711   -1.5842   13.1171 N   0  0  0  0  0  0  0  0  0  0  0  0
    3.1267   -0.9369   14.3324 C   0  0  0  0  0  0  0  0  0  0  0  0
    2.4720    0.2659   13.6413 C   0  0  0  0  0  0  0  0  0  0  0  0
    1.9820    1.3239   14.6477 C   0  0  0  0  0  0  0  0  0  0  0  0
    1.9432    2.7101   14.0118 C   0  0  0  0  0  0  0  0  0  0  0  0
    1.9039    3.7340   15.0464 N   0  0  0  0  0  0  0  0  0  0  0  0
   -0.6076   -5.0612    6.0844 N   0  0  0  0  0  0  0  0  0  0  0  0
    2.6418   -1.9760    6.5014 C   0  0  0  0  0  0  0  0  0  0  0  0
    2.5400   -0.9224    6.2925 O   0  0  0  0  0  0  0  0  0  0  0  0
    1.8471   -3.2501    6.3506 C   0  0  2  0  0  0  0  0  0  0  0  0
    1.9842   -3.7753    5.0907 O   0  0  0  0  0  0  0  0  0  0  0  0
    0.3779   -2.8766    6.5143 C   0  0  0  0  0  0  0  0  0  0  0  0
   -0.5604   -3.9661    7.0641 C   0  0  0  0  0  0  0  0  0  0  0  0
  1  2  1  6  0  0  0
  1  3  1  0  0  0  0
  3  4  1  6  0  0  0
  3  5  1  0  0  0  0
  5  6  1  1  0  0  0
  5  7  1  0  0  0  0
  7  8  1  6  0  0  0
  9  7  1  0  0  0  0
  9 10  1  0  0  0  0
  9 11  1  1  0  0  0
 10  1  1  0  0  0  0
 11 12  1  0  0  0  0
 13 14  1  6  0  0  0
 13 15  1  0  0  0  0
 13 22  1  0  0  0  0
 14 32  1  0  0  0  0
 15 16  1  1  0  0  0
 15 17  1  0  0  0  0
 16 23  1  0  0  0  0
 17 18  1  1  0  0  0
 17 19  1  0  0  0  0
 19  2  1  1  0  0  0
 19 20  1  0  0  0  0
 20 21  1  6  0  0  0
 20 22  1  0  0  0  0
 23 24  1  0  0  0  0
 24 25  1  0  0  0  0
 25 26  1  0  0  0  0
 26 27  1  0  0  0  0
 27 28  1  0  0  0  0
 28 29  1  0  0  0  0
 29 30  1  0  0  0  0
 31 37  1  0  0  0  0
 32 33  2  0  0  0  0
 34 32  1  6  0  0  0
 34 35  1  0  0  0  0
 34 36  1  0  0  0  0
 36 37  1  0  0  0  0
M  END
>  <CHROM.1>
-170.91105487,-154.70350796,152.08106336,-62.52065784,-61.98973686,64.03750131
-174.16638578,-157.39684400,77.61004048,-170.36534264,153.80342481,-161.76708162
-97.14070188,-151.71861539,-64.68350332,6.33188766,-1.63086719,9.07368866
-0.14502716,0.08336139,1.03449229

>  <Name>
1o9m_lig

>  <RI>
0

>  <Rbt.Current_Directory>
/home/itssahil/PROJECTS/Mol_Feturizer/New_Systems/rnas/1o9m

>  <Rbt.Executable>
rbdock ($Id: //depot/dev/client3/rdock/2013.1/src/exe/rbdock.cxx#4 $)

>  <Rbt.Library>
libRbt.so (2013.1, Build901 2013/11/27)

>  <Rbt.Parameter_File>
/export/apps/rDock/src/rDock_2013.1_src/data/scripts/dock_solv.prm

>  <Rbt.Receptor>
prm/blind_docking_80.prm

>  <SCORE>
-7.42679

>  <SCORE.INTER>
-2.03191

>  <SCORE.INTER.CONST>
1

>  <SCORE.INTER.POLAR>
-0.809841

>  <SCORE.INTER.ROT>
15

>  <SCORE.INTER.SOLV>
19.9668

>  <SCORE.INTER.VDW>
-18.9107

>  <SCORE.INTER.norm>
-0.0549166

>  <SCORE.INTRA>
-5.72576

>  <SCORE.INTRA.DIHEDRAL>
-9.65303

>  <SCORE.INTRA.DIHEDRAL.0>
21.5987

>  <SCORE.INTRA.POLAR>
0

>  <SCORE.INTRA.POLAR.0>
0

>  <SCORE.INTRA.REPUL>
0

>  <SCORE.INTRA.REPUL.0>
0

>  <SCORE.INTRA.SOLV>
-0.831909

>  <SCORE.INTRA.SOLV.lig_0>
-108.715

>  <SCORE.INTRA.VDW>
-0.483288

>  <SCORE.INTRA.VDW.0>
-3.9485

>  <SCORE.INTRA.norm>
-0.15475

>  <SCORE.RESTR>
0.330884

>  <SCORE.RESTR.CAVITY>
0.330884

>  <SCORE.RESTR.norm>
0.00894282

>  <SCORE.SYSTEM>
0

>  <SCORE.SYSTEM.CONST>
0

>  <SCORE.SYSTEM.DIHEDRAL>
0

>  <SCORE.SYSTEM.SOLV>
0

>  <SCORE.SYSTEM.norm>
0

>  <SCORE.heavy>
37

>  <SCORE.norm>
-0.200724

>  <RMSD>
23.605

$$$$
1o9m_lig
 OpenBabel11021811403D
libRbt.so/2013.1/901 2013/11/27
 37 38  0  0  0  0  0  0  0  0999 V2000
   10.7513   -1.5805    9.9628 C   0  0  2  0  0  0  0  0  0  0  0  0
   10.5404   -0.1446    9.8026 O   0  0  0  0  0  0  0  0  0  0  0  0
   12.2941   -1.8261    9.7783 C   0  0  2  0  0  0  0  0  0  0  0  0
   13.0987   -1.0700   10.7539 N   0  0  0  0  0  0  0  0  0  0  0  0
   12.7030   -1.4467    8.3043 C   0  0  1  0  0  0  0  0  0  0  0  0
   14.1034   -1.6634    8.1106 O   0  0  0  0  0  0  0  0  0  0  0  0
   11.8313   -2.2987    7.3236 C   0  0  2  0  0  0  0  0  0  0  0  0
   12.1113   -2.0189    5.9422 O   0  0  0  0  0  0  0  0  0  0  0  0
   10.3237   -2.0612    7.5863 C   0  0  2  0  0  0  0  0  0  0  0  0
    9.9940   -2.3330    8.9563 O   0  0  0  0  0  0  0  0  0  0  0  0
    9.4611   -2.9134    6.6916 C   0  0  0  0  0  0  0  0  0  0  0  0
    8.1420   -2.5464    6.8122 N   0  0  0  0  0  0  0  0  0  0  0  0
    6.6774    0.4580   11.6825 C   0  0  1  0  0  0  0  0  0  0  0  0
    5.4483    1.1459   12.1682 N   0  0  0  0  0  0  0  0  0  0  0  0
    6.7640    0.6156   10.1705 C   0  0  2  0  0  0  0  0  0  0  0  0
    5.5966    0.0866    9.6161 O   0  0  0  0  0  0  0  0  0  0  0  0
    8.0306   -0.1075    9.6133 C   0  0  1  0  0  0  0  0  0  0  0  0
    8.1143    0.0690    8.1661 O   0  0  0  0  0  0  0  0  0  0  0  0
    9.3287    0.5098   10.2764 C   0  0  1  0  0  0  0  0  0  0  0  0
    9.2625    0.3415   11.7867 C   0  0  1  0  0  0  0  0  0  0  0  0
   10.4704    0.9014   12.3742 N   0  0  0  0  0  0  0  0  0  0  0  0
    7.9929    1.0436   12.3385 C   0  0  0  0  0  0  0  0  0  0  0  0
    4.1930   -0.0375    9.2982 C   0  0  0  0  0  0  0  0  0  0  0  0
    3.9532   -1.3645    8.6154 C   0  0  0  0  0  0  0  0  0  0  0  0
    2.5904   -1.9035    8.8026 N   0  0  0  0  0  0  0  0  0  0  0  0
    1.3114   -2.3166    9.4239 C   0  0  0  0  0  0  0  0  0  0  0  0
    1.0035   -3.4899    8.4851 C   0  0  0  0  0  0  0  0  0  0  0  0
   -0.3454   -4.1595    8.8079 C   0  0  0  0  0  0  0  0  0  0  0  0
   -0.6079   -5.3413    7.8796 C   0  0  0  0  0  0  0  0  0  0  0  0
   -1.8704   -5.9788    8.2261 N   0  0  0  0  0  0  0  0  0  0  0  0
    1.9444    2.8511   11.6050 N   0  0  0  0  0  0  0  0  0  0  0  0
    4.8073    0.3746   13.6314 C   0  0  0  0  0  0  0  0  0  0  0  0
    5.1062   -0.4598   14.2467 O   0  0  0  0  0  0  0  0  0  0  0  0
    3.7033    1.4011   13.5608 C   0  0  2  0  0  0  0  0  0  0  0  0
    3.1813    1.6561   14.8035 O   0  0  0  0  0  0  0  0  0  0  0  0
    2.5819    0.7877   12.7296 C   0  0  0  0  0  0  0  0  0  0  0  0
    1.4061    1.7094   12.3586 C   0  0  0  0  0  0  0  0  0  0  0  0
  1  2  1  6  0  0  0
  1  3  1  0  0  0  0
  3  4  1  1  0  0  0
  3  5  1  0  0  0  0
  5  6  1  1  0  0  0
  5  7  1  0  0  0  0
  7  8  1  6  0  0  0
  9  7  1  0  0  0  0
  9 10  1  0  0  0  0
  9 11  1  6  0  0  0
 10  1  1  0  0  0  0
 11 12  1  0  0  0  0
 13 14  1  1  0  0  0
 13 15  1  0  0  0  0
 13 22  1  0  0  0  0
 14 32  1  0  0  0  0
 15 16  1  6  0  0  0
 15 17  1  0  0  0  0
 16 23  1  0  0  0  0
 17 18  1  6  0  0  0
 17 19  1  0  0  0  0
 19  2  1  6  0  0  0
 19 20  1  0  0  0  0
 20 21  1  1  0  0  0
 20 22  1  0  0  0  0
 23 24  1  0  0  0  0
 24 25  1  0  0  0  0
 25 26  1  0  0  0  0
 26 27  1  0  0  0  0
 27 28  1  0  0  0  0
 28 29  1  0  0  0  0
 29 30  1  0  0  0  0
 31 37  1  0  0  0  0
 32 33  2  0  0  0  0
 34 32  1  1  0  0  0
 34 35  1  0  0  0  0
 34 36  1  0  0  0  0
 36 37  1  0  0  0  0
M  END
>  <CHROM.1>
-161.98777325,-171.49432999,150.48185922,67.40473413,-171.39291708,-58.35832628
152.62187058,-45.24918417,-149.75649044,-177.65839876,-178.67582221,178.51985450
-153.12286897,-172.45814133,58.59782848,6.65968712,-0.89831405,10.00310053
0.10298113,-0.12834385,-2.28313753

>  <Name>
1o9m_lig

>  <RI>
0

>  <Rbt.Current_Directory>
/home/itssahil/PROJECTS/Mol_Feturizer/New_Systems/rnas/1o9m

>  <Rbt.Executable>
rbdock ($Id: //depot/dev/client3/rdock/2013.1/src/exe/rbdock.cxx#4 $)

>  <Rbt.Library>
libRbt.so (2013.1, Build901 2013/11/27)

>  <Rbt.Parameter_File>
/export/apps/rDock/src/rDock_2013.1_src/data/scripts/dock_solv.prm

>  <Rbt.Receptor>
prm/blind_docking_80.prm

>  <SCORE>
-15.2659

>  <SCORE.INTER>
-9.34466

>  <SCORE.INTER.CONST>
1

>  <SCORE.INTER.POLAR>
-2.01272

>  <SCORE.INTER.ROT>
15

>  <SCORE.INTER.SOLV>
15.1131

>  <SCORE.INTER.VDW>
-18.1584

>  <SCORE.INTER.norm>
-0.252558

>  <SCORE.INTRA>
-6.50504

>  <SCORE.INTRA.DIHEDRAL>
-13.5278

>  <SCORE.INTRA.DIHEDRAL.0>
21.5987

>  <SCORE.INTRA.POLAR>
0

>  <SCORE.INTRA.POLAR.0>
0

>  <SCORE.INTRA.REPUL>
0

>  <SCORE.INTRA.REPUL.0>
0

>  <SCORE.INTRA.SOLV>
3.04212

>  <SCORE.INTRA.SOLV.lig_0>
-108.715

>  <SCORE.INTRA.VDW>
-1.26222

>  <SCORE.INTRA.VDW.0>
-3.9485

>  <SCORE.INTRA.norm>
-0.175812

>  <SCORE.RESTR>
0.583804

>  <SCORE.RESTR.CAVITY>
0.583804

>  <SCORE.RESTR.norm>
0.0157785

>  <SCORE.SYSTEM>
0

>  <SCORE.SYSTEM.CONST>
0

>  <SCORE.SYSTEM.DIHEDRAL>
0

>  <SCORE.SYSTEM.SOLV>
0

>  <SCORE.SYSTEM.norm>
0

>  <SCORE.heavy>
37

>  <SCORE.norm>
-0.412592

>  <RMSD>
23.617

$$$$
1o9m_lig
 OpenBabel11021811403D
libRbt.so/2013.1/901 2013/11/27
 37 38  0  0  0  0  0  0  0  0999 V2000
   10.8922   -0.7003    9.8872 C   0  0  2  0  0  0  0  0  0  0  0  0
   10.1642    0.4678    9.3995 O   0  0  0  0  0  0  0  0  0  0  0  0
   12.1327   -0.8792    8.9367 C   0  0  2  0  0  0  0  0  0  0  0  0
   13.0030    0.3097    8.9274 N   0  0  0  0  0  0  0  0  0  0  0  0
   11.6233   -1.2092    7.4822 C   0  0  1  0  0  0  0  0  0  0  0  0
   12.7346   -1.3785    6.5980 O   0  0  0  0  0  0  0  0  0  0  0  0
   10.7284   -2.4900    7.5597 C   0  0  2  0  0  0  0  0  0  0  0  0
   10.1928   -2.8740    6.2827 O   0  0  0  0  0  0  0  0  0  0  0  0
    9.5568   -2.2785    8.5501 C   0  0  2  0  0  0  0  0  0  0  0  0
   10.0440   -1.8967    9.8448 O   0  0  0  0  0  0  0  0  0  0  0  0
    8.7109   -3.5181    8.6857 C   0  0  0  0  0  0  0  0  0  0  0  0
    8.0555   -3.7783    7.5058 N   0  0  0  0  0  0  0  0  0  0  0  0
    6.2789    0.0995   11.2939 C   0  0  1  0  0  0  0  0  0  0  0  0
    4.9315    0.4711   11.8097 N   0  0  0  0  0  0  0  0  0  0  0  0
    6.3164    0.3489    9.7923 C   0  0  2  0  0  0  0  0  0  0  0  0
    5.2915   -0.3978    9.2073 O   0  0  0  0  0  0  0  0  0  0  0  0
    7.7077   -0.0450    9.2033 C   0  0  1  0  0  0  0  0  0  0  0  0
    7.7386    0.2189    7.7674 O   0  0  0  0  0  0  0  0  0  0  0  0
    8.8411    0.8113    9.9018 C   0  0  1  0  0  0  0  0  0  0  0  0
    8.8259    0.5560   11.4013 C   0  0  1  0  0  0  0  0  0  0  0  0
    9.8836    1.3402   12.0211 N   0  0  0  0  0  0  0  0  0  0  0  0
    7.4363    0.9291   11.9837 C   0  0  0  0  0  0  0  0  0  0  0  0
    4.4438   -0.9416    8.1718 C   0  0  0  0  0  0  0  0  0  0  0  0
    3.4635   -1.9117    8.7900 C   0  0  0  0  0  0  0  0  0  0  0  0
    2.6207   -2.6271    7.8098 N   0  0  0  0  0  0  0  0  0  0  0  0
    1.7226   -2.9155    6.6684 C   0  0  0  0  0  0  0  0  0  0  0  0
    0.4032   -2.5346    7.3517 C   0  0  0  0  0  0  0  0  0  0  0  0
   -0.8222   -2.8416    6.4707 C   0  0  0  0  0  0  0  0  0  0  0  0
   -1.0567   -4.3451    6.3610 C   0  0  0  0  0  0  0  0  0  0  0  0
   -1.4813   -4.8802    7.6469 N   0  0  0  0  0  0  0  0  0  0  0  0
    1.3933   -0.8518   15.4788 N   0  0  0  0  0  0  0  0  0  0  0  0
    4.6602   -0.1719   13.4405 C   0  0  0  0  0  0  0  0  0  0  0  0
    5.2437   -0.7527   14.1378 O   0  0  0  0  0  0  0  0  0  0  0  0
    3.2893    0.4517   13.3434 C   0  0  2  0  0  0  0  0  0  0  0  0
    2.9710    1.1338   14.4903 O   0  0  0  0  0  0  0  0  0  0  0  0
    2.2904   -0.6936   13.2208 C   0  0  0  0  0  0  0  0  0  0  0  0
    2.1229   -1.6060   14.4493 C   0  0  0  0  0  0  0  0  0  0  0  0
  1  2  1  6  0  0  0
  1  3  1  0  0  0  0
  3  4  1  6  0  0  0
  3  5  1  0  0  0  0
  5  6  1  6  0  0  0
  5  7  1  0  0  0  0
  7  8  1  6  0  0  0
  9  7  1  0  0  0  0
  9 10  1  0  0  0  0
  9 11  1  1  0  0  0
 10  1  1  0  0  0  0
 11 12  1  0  0  0  0
 13 14  1  1  0  0  0
 13 15  1  0  0  0  0
 13 22  1  0  0  0  0
 14 32  1  0  0  0  0
 15 16  1  6  0  0  0
 15 17  1  0  0  0  0
 16 23  1  0  0  0  0
 17 18  1  6  0  0  0
 17 19  1  0  0  0  0
 19  2  1  6  0  0  0
 19 20  1  0  0  0  0
 20 21  1  1  0  0  0
 20 22  1  0  0  0  0
 23 24  1  0  0  0  0
 24 25  1  0  0  0  0
 25 26  1  0  0  0  0
 26 27  1  0  0  0  0
 27 28  1  0  0  0  0
 28 29  1  0  0  0  0
 29 30  1  0  0  0  0
 31 37  1  0  0  0  0
 32 33  2  0  0  0  0
 34 32  1  1  0  0  0
 34 35  1  0  0  0  0
 34 36  1  0  0  0  0
 36 37  1  0  0  0  0
M  END
>  <CHROM.1>
169.94064213,-66.89118012,165.21821184,-179.44068528,176.93908471,-80.99869879
-174.74151925,-48.24647770,-80.78397315,-174.53386351,70.97382979,68.33188311
-134.29005821,67.35481322,72.42208661,6.28741323,-1.12233363,9.76459389,-0.07097045
0.17122662,1.12260420

>  <Name>
1o9m_lig

>  <RI>
0

>  <Rbt.Current_Directory>
/home/itssahil/PROJECTS/Mol_Feturizer/New_Systems/rnas/1o9m

>  <Rbt.Executable>
rbdock ($Id: //depot/dev/client3/rdock/2013.1/src/exe/rbdock.cxx#4 $)

>  <Rbt.Library>
libRbt.so (2013.1, Build901 2013/11/27)

>  <Rbt.Parameter_File>
/export/apps/rDock/src/rDock_2013.1_src/data/scripts/dock_solv.prm

>  <Rbt.Receptor>
prm/blind_docking_80.prm

>  <SCORE>
-14.3524

>  <SCORE.INTER>
-10.2102

>  <SCORE.INTER.CONST>
1

>  <SCORE.INTER.POLAR>
-1.91319

>  <SCORE.INTER.ROT>
15

>  <SCORE.INTER.SOLV>
21.2302

>  <SCORE.INTER.VDW>
-21.1062

>  <SCORE.INTER.norm>
-0.275951

>  <SCORE.INTRA>
-4.14218

>  <SCORE.INTRA.DIHEDRAL>
-14.2584

>  <SCORE.INTRA.DIHEDRAL.0>
21.5987

>  <SCORE.INTRA.POLAR>
0

>  <SCORE.INTRA.POLAR.0>
0

>  <SCORE.INTRA.REPUL>
0

>  <SCORE.INTRA.REPUL.0>
0

>  <SCORE.INTRA.SOLV>
4.39468

>  <SCORE.INTRA.SOLV.lig_0>
-108.715

>  <SCORE.INTRA.VDW>
0.789677

>  <SCORE.INTRA.VDW.0>
-3.9485

>  <SCORE.INTRA.norm>
-0.111951

>  <SCORE.RESTR>
0

>  <SCORE.RESTR.CAVITY>
0

>  <SCORE.RESTR.norm>
0

>  <SCORE.SYSTEM>
0

>  <SCORE.SYSTEM.CONST>
0

>  <SCORE.SYSTEM.DIHEDRAL>
0

>  <SCORE.SYSTEM.SOLV>
0

>  <SCORE.SYSTEM.norm>
0

>  <SCORE.heavy>
37

>  <SCORE.norm>
-0.387902

>  <RMSD>
23.620

$$$$
1o9m_lig
 OpenBabel11021811403D
libRbt.so/2013.1/901 2013/11/27
 37 38  0  0  0  0  0  0  0  0999 V2000
    9.9100   -1.7831   12.4512 C   0  0  2  0  0  0  0  0  0  0  0  0
    9.6213   -0.8905   11.3322 O   0  0  0  0  0  0  0  0  0  0  0  0
   11.3481   -2.3664   12.1944 C   0  0  2  0  0  0  0  0  0  0  0  0
   12.3687   -1.3082   12.0961 N   0  0  0  0  0  0  0  0  0  0  0  0
   11.3224   -3.2404   10.8831 C   0  0  1  0  0  0  0  0  0  0  0  0
   12.6204   -3.7844   10.6285 O   0  0  0  0  0  0  0  0  0  0  0  0
   10.2388   -4.3544   11.0626 C   0  0  2  0  0  0  0  0  0  0  0  0
   10.1178   -5.2053    9.9111 O   0  0  0  0  0  0  0  0  0  0  0  0
    8.8563   -3.7271   11.3684 C   0  0  2  0  0  0  0  0  0  0  0  0
    8.9262   -2.8697   12.5170 O   0  0  0  0  0  0  0  0  0  0  0  0
    7.8053   -4.7814   11.6014 C   0  0  0  0  0  0  0  0  0  0  0  0
    8.1288   -5.5412   12.7002 N   0  0  0  0  0  0  0  0  0  0  0  0
    5.4774    0.2887   11.8402 C   0  0  1  0  0  0  0  0  0  0  0  0
    4.2403    1.1170   11.7854 N   0  0  0  0  0  0  0  0  0  0  0  0
    5.9845    0.0678   10.4216 C   0  0  2  0  0  0  0  0  0  0  0  0
    4.9619   -0.5398    9.6898 O   0  0  0  0  0  0  0  0  0  0  0  0
    7.2732   -0.8135   10.4284 C   0  0  1  0  0  0  0  0  0  0  0  0
    7.7619   -0.9999    9.0650 O   0  0  0  0  0  0  0  0  0  0  0  0
    8.4005   -0.0981   11.2789 C   0  0  1  0  0  0  0  0  0  0  0  0
    7.9124    0.1111   12.7043 C   0  0  1  0  0  0  0  0  0  0  0  0
    8.9678    0.7554   13.4714 N   0  0  0  0  0  0  0  0  0  0  0  0
    6.6200    0.9708   12.6962 C   0  0  0  0  0  0  0  0  0  0  0  0
    4.2632   -1.0858    8.5495 C   0  0  0  0  0  0  0  0  0  0  0  0
    5.0045   -2.3041    8.0487 C   0  0  0  0  0  0  0  0  0  0  0  0
    4.6115   -2.7357    6.6915 N   0  0  0  0  0  0  0  0  0  0  0  0
    3.8283   -2.9558    5.4543 C   0  0  0  0  0  0  0  0  0  0  0  0
    2.4501   -3.0958    6.1131 C   0  0  0  0  0  0  0  0  0  0  0  0
    1.8514   -1.7342    6.5128 C   0  0  0  0  0  0  0  0  0  0  0  0
    0.4785   -1.9056    7.1555 C   0  0  0  0  0  0  0  0  0  0  0  0
    0.6070   -2.5887    8.4350 N   0  0  0  0  0  0  0  0  0  0  0  0
    1.8637    3.8700   15.0906 N   0  0  0  0  0  0  0  0  0  0  0  0
    3.4847    1.2627   13.3838 C   0  0  0  0  0  0  0  0  0  0  0  0
    3.7192    0.9029   14.3735 O   0  0  0  0  0  0  0  0  0  0  0  0
    2.4178    2.0724   12.6883 C   0  0  2  0  0  0  0  0  0  0  0  0
    2.8003    3.3824   12.5479 O   0  0  0  0  0  0  0  0  0  0  0  0
    1.1946    2.0661   13.5983 C   0  0  0  0  0  0  0  0  0  0  0  0
    1.4174    2.4695   15.0672 C   0  0  0  0  0  0  0  0  0  0  0  0
  1  2  1  6  0  0  0
  1  3  1  0  0  0  0
  3  4  1  6  0  0  0
  3  5  1  0  0  0  0
  5  6  1  1  0  0  0
  5  7  1  0  0  0  0
  7  8  1  6  0  0  0
  9  7  1  0  0  0  0
  9 10  1  0  0  0  0
  9 11  1  1  0  0  0
 10  1  1  0  0  0  0
 11 12  1  0  0  0  0
 13 14  1  6  0  0  0
 13 15  1  0  0  0  0
 13 22  1  0  0  0  0
 14 32  1  0  0  0  0
 15 16  1  6  0  0  0
 15 17  1  0  0  0  0
 16 23  1  0  0  0  0
 17 18  1  6  0  0  0
 17 19  1  0  0  0  0
 19  2  1  1  0  0  0
 19 20  1  0  0  0  0
 20 21  1  1  0  0  0
 20 22  1  0  0  0  0
 23 24  1  0  0  0  0
 24 25  1  0  0  0  0
 25 26  1  0  0  0  0
 26 27  1  0  0  0  0
 27 28  1  0  0  0  0
 28 29  1  0  0  0  0
 29 30  1  0  0  0  0
 31 37  1  0  0  0  0
 32 33  2  0  0  0  0
 34 32  1  1  0  0  0
 34 35  1  0  0  0  0
 34 36  1  0  0  0  0
 36 37  1  0  0  0  0
M  END
>  <CHROM.1>
-175.84202118,62.36914343,173.48054627,174.38312393,65.52701945,-95.89882683
-164.33738376,-25.73983051,-33.95475953,77.91602342,179.60461941,66.83567215
-83.38459524,51.39673393,63.55832915,6.19683938,-1.12844948,10.95498330,-0.26930083
-0.36258996,0.91171104

>  <Name>
1o9m_lig

>  <RI>
0

>  <Rbt.Current_Directory>
/home/itssahil/PROJECTS/Mol_Feturizer/New_Systems/rnas/1o9m

>  <Rbt.Executable>
rbdock ($Id: //depot/dev/client3/rdock/2013.1/src/exe/rbdock.cxx#4 $)

>  <Rbt.Library>
libRbt.so (2013.1, Build901 2013/11/27)

>  <Rbt.Parameter_File>
/export/apps/rDock/src/rDock_2013.1_src/data/scripts/dock_solv.prm

>  <Rbt.Receptor>
prm/blind_docking_80.prm

>  <SCORE>
-7.51322

>  <SCORE.INTER>
-6.73193

>  <SCORE.INTER.CONST>
1

>  <SCORE.INTER.POLAR>
-2.45529

>  <SCORE.INTER.ROT>
15

>  <SCORE.INTER.SOLV>
20.5266

>  <SCORE.INTER.VDW>
-16.7459

>  <SCORE.INTER.norm>
-0.181944

>  <SCORE.INTRA>
-0.781291

>  <SCORE.INTRA.DIHEDRAL>
-11.5623

>  <SCORE.INTRA.DIHEDRAL.0>
21.5987

>  <SCORE.INTRA.POLAR>
0

>  <SCORE.INTRA.POLAR.0>
0

>  <SCORE.INTRA.REPUL>
0

>  <SCORE.INTRA.REPUL.0>
0

>  <SCORE.INTRA.SOLV>
6.08871

>  <SCORE.INTRA.SOLV.lig_0>
-108.715

>  <SCORE.INTRA.VDW>
1.95552

>  <SCORE.INTRA.VDW.0>
-3.9485

>  <SCORE.INTRA.norm>
-0.021116

>  <SCORE.RESTR>
0

>  <SCORE.RESTR.CAVITY>
0

>  <SCORE.RESTR.norm>
0

>  <SCORE.SYSTEM>
0

>  <SCORE.SYSTEM.CONST>
0

>  <SCORE.SYSTEM.DIHEDRAL>
0

>  <SCORE.SYSTEM.SOLV>
0

>  <SCORE.SYSTEM.norm>
0

>  <SCORE.heavy>
37

>  <SCORE.norm>
-0.20306

>  <RMSD>
23.632

$$$$
1o9m_lig
 OpenBabel11021811403D
libRbt.so/2013.1/901 2013/11/27
 37 38  0  0  0  0  0  0  0  0999 V2000
    9.7111   -2.1902    9.2004 C   0  0  2  0  0  0  0  0  0  0  0  0
    8.7045   -2.6236   10.1654 O   0  0  0  0  0  0  0  0  0  0  0  0
   10.9786   -3.0885    9.4471 C   0  0  2  0  0  0  0  0  0  0  0  0
   10.6846   -4.5230    9.2834 N   0  0  0  0  0  0  0  0  0  0  0  0
   11.5443   -2.7958   10.8886 C   0  0  1  0  0  0  0  0  0  0  0  0
   12.7003   -3.6006   11.1366 O   0  0  0  0  0  0  0  0  0  0  0  0
   11.8563   -1.2659   10.9868 C   0  0  2  0  0  0  0  0  0  0  0  0
   12.3653   -0.8822   12.2746 O   0  0  0  0  0  0  0  0  0  0  0  0
   10.5895   -0.4295   10.6803 C   0  0  2  0  0  0  0  0  0  0  0  0
   10.0458   -0.7754    9.3981 O   0  0  0  0  0  0  0  0  0  0  0  0
   10.8767    1.0494   10.7132 C   0  0  0  0  0  0  0  0  0  0  0  0
   11.6030    1.4178    9.6059 N   0  0  0  0  0  0  0  0  0  0  0  0
    4.7957   -1.3890   11.5858 C   0  0  1  0  0  0  0  0  0  0  0  0
    3.6596   -0.5040   11.9675 N   0  0  0  0  0  0  0  0  0  0  0  0
    5.1204   -1.1656   10.1150 C   0  0  2  0  0  0  0  0  0  0  0  0
    3.9643   -1.4250    9.3759 O   0  0  0  0  0  0  0  0  0  0  0  0
    6.2964   -2.0884    9.6645 C   0  0  1  0  0  0  0  0  0  0  0  0
    6.6127   -1.8495    8.2590 O   0  0  0  0  0  0  0  0  0  0  0  0
    7.5808   -1.7741   10.5348 C   0  0  1  0  0  0  0  0  0  0  0  0
    7.2742   -2.0120   12.0056 C   0  0  1  0  0  0  0  0  0  0  0  0
    8.4707   -1.7320   12.7851 N   0  0  0  0  0  0  0  0  0  0  0  0
    6.0921   -1.1089   12.4486 C   0  0  0  0  0  0  0  0  0  0  0  0
    2.5899   -1.7777    9.1050 C   0  0  0  0  0  0  0  0  0  0  0  0
    2.3443   -3.2006    9.5518 C   0  0  0  0  0  0  0  0  0  0  0  0
    1.1405   -3.8208    8.9610 N   0  0  0  0  0  0  0  0  0  0  0  0
   -0.2501   -4.2887    8.7619 C   0  0  0  0  0  0  0  0  0  0  0  0
   -0.5406   -3.5081    7.4738 C   0  0  0  0  0  0  0  0  0  0  0  0
    0.3161   -3.9933    6.2895 C   0  0  0  0  0  0  0  0  0  0  0  0
    0.0904   -3.1242    5.0561 C   0  0  0  0  0  0  0  0  0  0  0  0
    0.9794   -3.5411    3.9810 N   0  0  0  0  0  0  0  0  0  0  0  0
    1.8256    4.1174   15.0759 N   0  0  0  0  0  0  0  0  0  0  0  0
    4.1353    1.2049   11.9568 C   0  0  0  0  0  0  0  0  0  0  0  0
    5.0430    1.7421   11.7298 O   0  0  0  0  0  0  0  0  0  0  0  0
    2.7254    1.4905   12.4131 C   0  0  2  0  0  0  0  0  0  0  0  0
    1.9391    1.9051   11.3681 O   0  0  0  0  0  0  0  0  0  0  0  0
    2.8055    2.6557   13.3931 C   0  0  0  0  0  0  0  0  0  0  0  0
    1.5138    3.0223   14.1460 C   0  0  0  0  0  0  0  0  0  0  0  0
  1  2  1  1  0  0  0
  1  3  1  0  0  0  0
  3  4  1  1  0  0  0
  3  5  1  0  0  0  0
  5  6  1  6  0  0  0
  5  7  1  0  0  0  0
  7  8  1  1  0  0  0
  9  7  1  0  0  0  0
  9 10  1  0  0  0  0
  9 11  1  6  0  0  0
 10  1  1  0  0  0  0
 11 12  1  0  0  0  0
 13 14  1  1  0  0  0
 13 15  1  0  0  0  0
 13 22  1  0  0  0  0
 14 32  1  0  0  0  0
 15 16  1  6  0  0  0
 15 17  1  0  0  0  0
 16 23  1  0  0  0  0
 17 18  1  6  0  0  0
 17 19  1  0  0  0  0
 19  2  1  6  0  0  0
 19 20  1  0  0  0  0
 20 21  1  1  0  0  0
 20 22  1  0  0  0  0
 23 24  1  0  0  0  0
 24 25  1  0  0  0  0
 25 26  1  0  0  0  0
 26 27  1  0  0  0  0
 27 28  1  0  0  0  0
 28 29  1  0  0  0  0
 29 30  1  0  0  0  0
 31 37  1  0  0  0  0
 32 33  2  0  0  0  0
 34 32  1  6  0  0  0
 34 35  1  0  0  0  0
 34 36  1  0  0  0  0
 36 37  1  0  0  0  0
M  END
>  <CHROM.1>
160.00390568,72.91577895,-68.50895573,1.06489319,-63.23878624,94.34079343
-161.70767696,-94.25108269,120.11327399,66.28629990,-175.25813363,175.93663800
-100.37373926,-172.22585662,177.33173037,5.91189391,-1.23419801,10.30882248
-0.12388761,0.11467776,-2.35457400

>  <Name>
1o9m_lig

>  <RI>
0

>  <Rbt.Current_Directory>
/home/itssahil/PROJECTS/Mol_Feturizer/New_Systems/rnas/1o9m

>  <Rbt.Executable>
rbdock ($Id: //depot/dev/client3/rdock/2013.1/src/exe/rbdock.cxx#4 $)

>  <Rbt.Library>
libRbt.so (2013.1, Build901 2013/11/27)

>  <Rbt.Parameter_File>
/export/apps/rDock/src/rDock_2013.1_src/data/scripts/dock_solv.prm

>  <Rbt.Receptor>
prm/blind_docking_40.prm

>  <SCORE>
2.04393

>  <SCORE.INTER>
2.43373

>  <SCORE.INTER.CONST>
1

>  <SCORE.INTER.POLAR>
-0.838834

>  <SCORE.INTER.ROT>
15

>  <SCORE.INTER.SOLV>
21.2058

>  <SCORE.INTER.VDW>
-16.25

>  <SCORE.INTER.norm>
0.0657764

>  <SCORE.INTRA>
-0.439598

>  <SCORE.INTRA.DIHEDRAL>
-1.96509

>  <SCORE.INTRA.DIHEDRAL.0>
21.5987

>  <SCORE.INTRA.POLAR>
0

>  <SCORE.INTRA.POLAR.0>
0

>  <SCORE.INTRA.REPUL>
0

>  <SCORE.INTRA.REPUL.0>
0

>  <SCORE.INTRA.SOLV>
2.2291

>  <SCORE.INTRA.SOLV.lig_0>
-108.715

>  <SCORE.INTRA.VDW>
-0.571604

>  <SCORE.INTRA.VDW.0>
-3.9485

>  <SCORE.INTRA.norm>
-0.011881

>  <SCORE.RESTR>
0.0498002

>  <SCORE.RESTR.CAVITY>
0.0498002

>  <SCORE.RESTR.norm>
0.00134595

>  <SCORE.SYSTEM>
0

>  <SCORE.SYSTEM.CONST>
0

>  <SCORE.SYSTEM.DIHEDRAL>
0

>  <SCORE.SYSTEM.SOLV>
0

>  <SCORE.SYSTEM.norm>
0

>  <SCORE.heavy>
37

>  <SCORE.norm>
0.0552414

>  <RMSD>
23.672

$$$$
1o9m_lig
 OpenBabel11021811403D
libRbt.so/2013.1/901 2013/11/27
 37 38  0  0  0  0  0  0  0  0999 V2000
   10.5036   -1.8680   10.1977 C   0  0  2  0  0  0  0  0  0  0  0  0
    9.9306   -0.5460   10.4345 O   0  0  0  0  0  0  0  0  0  0  0  0
   11.4887   -1.7137    8.9811 C   0  0  2  0  0  0  0  0  0  0  0  0
   12.5500   -0.7265    9.2460 N   0  0  0  0  0  0  0  0  0  0  0  0
   10.6640   -1.3158    7.6984 C   0  0  1  0  0  0  0  0  0  0  0  0
   11.5388   -1.1710    6.5761 O   0  0  0  0  0  0  0  0  0  0  0  0
    9.5744   -2.4131    7.4615 C   0  0  2  0  0  0  0  0  0  0  0  0
    8.7474   -2.1401    6.3184 O   0  0  0  0  0  0  0  0  0  0  0  0
    8.6693   -2.5622    8.7093 C   0  0  2  0  0  0  0  0  0  0  0  0
    9.4525   -2.8409    9.8790 O   0  0  0  0  0  0  0  0  0  0  0  0
    7.6456   -3.6529    8.5280 C   0  0  0  0  0  0  0  0  0  0  0  0
    6.9104   -3.8115    9.6785 N   0  0  0  0  0  0  0  0  0  0  0  0
    6.2635   -1.1934   12.6602 C   0  0  1  0  0  0  0  0  0  0  0  0
    5.1606   -0.9722   13.6371 N   0  0  0  0  0  0  0  0  0  0  0  0
    6.3118   -0.0145   11.6978 C   0  0  2  0  0  0  0  0  0  0  0  0
    5.0619    0.0899   11.0837 O   0  0  0  0  0  0  0  0  0  0  0  0
    7.4443   -0.2122   10.6414 C   0  0  1  0  0  0  0  0  0  0  0  0
    7.4947    0.9342    9.7381 O   0  0  0  0  0  0  0  0  0  0  0  0
    8.8398   -0.3409   11.3774 C   0  0  1  0  0  0  0  0  0  0  0  0
    8.8102   -1.5277   12.3285 C   0  0  1  0  0  0  0  0  0  0  0  0
   10.1056   -1.6367   12.9825 N   0  0  0  0  0  0  0  0  0  0  0  0
    7.6716   -1.3406   13.3668 C   0  0  0  0  0  0  0  0  0  0  0  0
    4.0271    0.5992   10.2140 C   0  0  0  0  0  0  0  0  0  0  0  0
    4.3916    0.2985    8.7783 C   0  0  0  0  0  0  0  0  0  0  0  0
    4.5709   -1.1391    8.4881 N   0  0  0  0  0  0  0  0  0  0  0  0
    4.3197   -2.5925    8.3584 C   0  0  0  0  0  0  0  0  0  0  0  0
    3.4123   -2.5285    7.1232 C   0  0  0  0  0  0  0  0  0  0  0  0
    2.0027   -2.0064    7.4588 C   0  0  0  0  0  0  0  0  0  0  0  0
    1.0593   -2.1704    6.2712 C   0  0  0  0  0  0  0  0  0  0  0  0
    0.8360   -3.5838    6.0013 N   0  0  0  0  0  0  0  0  0  0  0  0
    2.9300    1.9504   14.5954 N   0  0  0  0  0  0  0  0  0  0  0  0
    3.6574   -1.7507   13.1070 C   0  0  0  0  0  0  0  0  0  0  0  0
    3.3669   -2.3481   12.2568 O   0  0  0  0  0  0  0  0  0  0  0  0
    3.0413   -1.1715   14.3570 C   0  0  2  0  0  0  0  0  0  0  0  0
    2.3995   -2.1382   15.0888 O   0  0  0  0  0  0  0  0  0  0  0  0
    1.9745   -0.1802   13.9055 C   0  0  0  0  0  0  0  0  0  0  0  0
    2.4637    1.1971   13.4223 C   0  0  0  0  0  0  0  0  0  0  0  0
  1  2  1  6  0  0  0
  1  3  1  0  0  0  0
  3  4  1  1  0  0  0
  3  5  1  0  0  0  0
  5  6  1  6  0  0  0
  5  7  1  0  0  0  0
  7  8  1  6  0  0  0
  9  7  1  0  0  0  0
  9 10  1  0  0  0  0
  9 11  1  6  0  0  0
 10  1  1  0  0  0  0
 11 12  1  0  0  0  0
 13 14  1  1  0  0  0
 13 15  1  0  0  0  0
 13 22  1  0  0  0  0
 14 32  1  0  0  0  0
 15 16  1  6  0  0  0
 15 17  1  0  0  0  0
 16 23  1  0  0  0  0
 17 18  1  6  0  0  0
 17 19  1  0  0  0  0
 19  2  1  6  0  0  0
 19 20  1  0  0  0  0
 20 21  1  1  0  0  0
 20 22  1  0  0  0  0
 23 24  1  0  0  0  0
 24 25  1  0  0  0  0
 25 26  1  0  0  0  0
 26 27  1  0  0  0  0
 27 28  1  0  0  0  0
 28 29  1  0  0  0  0
 29 30  1  0  0  0  0
 31 37  1  0  0  0  0
 32 33  2  0  0  0  0
 34 32  1  6  0  0  0
 34 35  1  0  0  0  0
 34 36  1  0  0  0  0
 36 37  1  0  0  0  0
M  END
>  <CHROM.1>
171.82731254,176.55129253,93.87663626,-179.29605023,69.48267544,-100.87626176
58.79111906,57.13824178,75.16617174,-74.44755235,-170.58225199,66.26339927
-127.94668559,-78.00089118,-71.81323539,6.35482238,-1.30908727,10.32138726
-0.40449315,0.01939634,1.29979999

>  <Name>
1o9m_lig

>  <RI>
0

>  <Rbt.Current_Directory>
/home/itssahil/PROJECTS/Mol_Feturizer/New_Systems/rnas/1o9m

>  <Rbt.Executable>
rbdock ($Id: //depot/dev/client3/rdock/2013.1/src/exe/rbdock.cxx#4 $)

>  <Rbt.Library>
libRbt.so (2013.1, Build901 2013/11/27)

>  <Rbt.Parameter_File>
/export/apps/rDock/src/rDock_2013.1_src/data/scripts/dock_solv.prm

>  <Rbt.Receptor>
prm/blind_docking_100.prm

>  <SCORE>
-7.38941

>  <SCORE.INTER>
-5.07956

>  <SCORE.INTER.CONST>
1

>  <SCORE.INTER.POLAR>
-1.60145

>  <SCORE.INTER.ROT>
15

>  <SCORE.INTER.SOLV>
15.2248

>  <SCORE.INTER.VDW>
-16.7231

>  <SCORE.INTER.norm>
-0.137285

>  <SCORE.INTRA>
-2.30985

>  <SCORE.INTRA.DIHEDRAL>
-9.05463

>  <SCORE.INTRA.DIHEDRAL.0>
21.5987

>  <SCORE.INTRA.POLAR>
0

>  <SCORE.INTRA.POLAR.0>
0

>  <SCORE.INTRA.REPUL>
0

>  <SCORE.INTRA.REPUL.0>
0

>  <SCORE.INTRA.SOLV>
7.73834

>  <SCORE.INTRA.SOLV.lig_0>
-108.715

>  <SCORE.INTRA.VDW>
-1.6517

>  <SCORE.INTRA.VDW.0>
-3.9485

>  <SCORE.INTRA.norm>
-0.0624284

>  <SCORE.RESTR>
0

>  <SCORE.RESTR.CAVITY>
0

>  <SCORE.RESTR.norm>
0

>  <SCORE.SYSTEM>
0

>  <SCORE.SYSTEM.CONST>
0

>  <SCORE.SYSTEM.DIHEDRAL>
0

>  <SCORE.SYSTEM.SOLV>
0

>  <SCORE.SYSTEM.norm>
0

>  <SCORE.heavy>
37

>  <SCORE.norm>
-0.199714

>  <RMSD>
23.686

$$$$
1o9m_lig
 OpenBabel11021811403D
libRbt.so/2013.1/901 2013/11/27
 37 38  0  0  0  0  0  0  0  0999 V2000
    9.6295   -3.3796    9.8135 C   0  0  2  0  0  0  0  0  0  0  0  0
    9.9634   -1.9803   10.0638 O   0  0  0  0  0  0  0  0  0  0  0  0
   10.9963   -4.1368    9.6319 C   0  0  2  0  0  0  0  0  0  0  0  0
   11.8631   -4.0127   10.8170 N   0  0  0  0  0  0  0  0  0  0  0  0
   11.7242   -3.5843    8.3479 C   0  0  1  0  0  0  0  0  0  0  0  0
   12.9709   -4.2595    8.1599 O   0  0  0  0  0  0  0  0  0  0  0  0
   10.7624   -3.7671    7.1276 C   0  0  2  0  0  0  0  0  0  0  0  0
   11.3224   -3.2777    5.8981 O   0  0  0  0  0  0  0  0  0  0  0  0
    9.4137   -3.0500    7.3831 C   0  0  2  0  0  0  0  0  0  0  0  0
    8.8123   -3.5106    8.6020 O   0  0  0  0  0  0  0  0  0  0  0  0
    8.4477   -3.2580    6.2455 C   0  0  0  0  0  0  0  0  0  0  0  0
    8.8157   -2.4948    5.1632 N   0  0  0  0  0  0  0  0  0  0  0  0
    6.1495   -0.3023   11.2715 C   0  0  1  0  0  0  0  0  0  0  0  0
    5.1417    0.6887   11.7424 N   0  0  0  0  0  0  0  0  0  0  0  0
    6.7717    0.2059    9.9780 C   0  0  2  0  0  0  0  0  0  0  0  0
    5.7421    0.4060    9.0560 O   0  0  0  0  0  0  0  0  0  0  0  0
    7.8239   -0.8123    9.4360 C   0  0  1  0  0  0  0  0  0  0  0  0
    8.4288   -0.3041    8.2079 O   0  0  0  0  0  0  0  0  0  0  0  0
    8.9634   -1.0223   10.5145 C   0  0  1  0  0  0  0  0  0  0  0  0
    8.3561   -1.5482   11.8062 C   0  0  1  0  0  0  0  0  0  0  0  0
    9.4211   -1.7481   12.7776 N   0  0  0  0  0  0  0  0  0  0  0  0
    7.2959   -0.5453   12.3347 C   0  0  0  0  0  0  0  0  0  0  0  0
    4.4941    0.8928    8.5156 C   0  0  0  0  0  0  0  0  0  0  0  0
    3.3496    0.1306    9.1429 C   0  0  0  0  0  0  0  0  0  0  0  0
    3.0555   -1.1628    8.4921 N   0  0  0  0  0  0  0  0  0  0  0  0
    3.1496   -2.3537    7.6172 C   0  0  0  0  0  0  0  0  0  0  0  0
    1.7510   -2.2548    6.9949 C   0  0  0  0  0  0  0  0  0  0  0  0
    1.5370   -3.2844    5.8696 C   0  0  0  0  0  0  0  0  0  0  0  0
    0.1436   -3.1527    5.2627 C   0  0  0  0  0  0  0  0  0  0  0  0
   -0.8693   -3.4403    6.2685 N   0  0  0  0  0  0  0  0  0  0  0  0
    0.9351    2.5592   12.7436 N   0  0  0  0  0  0  0  0  0  0  0  0
    4.7135    0.4219   13.4430 C   0  0  0  0  0  0  0  0  0  0  0  0
    5.0199   -0.2770   14.2057 O   0  0  0  0  0  0  0  0  0  0  0  0
    3.7591    1.5787   13.2740 C   0  0  2  0  0  0  0  0  0  0  0  0
    4.2640    2.7255   13.8325 O   0  0  0  0  0  0  0  0  0  0  0  0
    2.4969    1.2279   14.0540 C   0  0  0  0  0  0  0  0  0  0  0  0
    1.3955    2.3017   14.1158 C   0  0  0  0  0  0  0  0  0  0  0  0
  1  2  1  6  0  0  0
  1  3  1  0  0  0  0
  3  4  1  1  0  0  0
  3  5  1  0  0  0  0
  5  6  1  6  0  0  0
  5  7  1  0  0  0  0
  7  8  1  6  0  0  0
  9  7  1  0  0  0  0
  9 10  1  0  0  0  0
  9 11  1  6  0  0  0
 10  1  1  0  0  0  0
 11 12  1  0  0  0  0
 13 14  1  1  0  0  0
 13 15  1  0  0  0  0
 13 22  1  0  0  0  0
 14 32  1  0  0  0  0
 15 16  1  6  0  0  0
 15 17  1  0  0  0  0
 16 23  1  0  0  0  0
 17 18  1  6  0  0  0
 17 19  1  0  0  0  0
 19  2  1  6  0  0  0
 19 20  1  0  0  0  0
 20 21  1  1  0  0  0
 20 22  1  0  0  0  0
 23 24  1  0  0  0  0
 24 25  1  0  0  0  0
 25 26  1  0  0  0  0
 26 27  1  0  0  0  0
 27 28  1  0  0  0  0
 28 29  1  0  0  0  0
 29 30  1  0  0  0  0
 31 37  1  0  0  0  0
 32 33  2  0  0  0  0
 34 32  1  1  0  0  0
 34 35  1  0  0  0  0
 34 36  1  0  0  0  0
 36 37  1  0  0  0  0
M  END
>  <CHROM.1>
-168.89306778,-74.42630570,-163.63315190,52.54127413,-73.90324593,-63.73547711
-83.80094720,8.09984341,-126.25510540,173.43820731,-179.46970896,-62.86586717
-102.49373631,175.99721068,62.00383389,6.45101604,-1.34147386,9.66494636
-0.47754944,-0.21527468,1.05900559

>  <Name>
1o9m_lig

>  <RI>
0

>  <Rbt.Current_Directory>
/home/itssahil/PROJECTS/Mol_Feturizer/New_Systems/rnas/1o9m

>  <Rbt.Executable>
rbdock ($Id: //depot/dev/client3/rdock/2013.1/src/exe/rbdock.cxx#4 $)

>  <Rbt.Library>
libRbt.so (2013.1, Build901 2013/11/27)

>  <Rbt.Parameter_File>
/export/apps/rDock/src/rDock_2013.1_src/data/scripts/dock_solv.prm

>  <Rbt.Receptor>
prm/blind_docking_40.prm

>  <SCORE>
-7.5156

>  <SCORE.INTER>
-3.14106

>  <SCORE.INTER.CONST>
1

>  <SCORE.INTER.POLAR>
-0.922957

>  <SCORE.INTER.ROT>
15

>  <SCORE.INTER.SOLV>
9.8605

>  <SCORE.INTER.VDW>
-15.9044

>  <SCORE.INTER.norm>
-0.0848936

>  <SCORE.INTRA>
-4.38091

>  <SCORE.INTRA.DIHEDRAL>
-12.3986

>  <SCORE.INTRA.DIHEDRAL.0>
21.5987

>  <SCORE.INTRA.POLAR>
0

>  <SCORE.INTRA.POLAR.0>
0

>  <SCORE.INTRA.REPUL>
0

>  <SCORE.INTRA.REPUL.0>
0

>  <SCORE.INTRA.SOLV>
3.55164

>  <SCORE.INTRA.SOLV.lig_0>
-108.715

>  <SCORE.INTRA.VDW>
0.0425503

>  <SCORE.INTRA.VDW.0>
-3.9485

>  <SCORE.INTRA.norm>
-0.118403

>  <SCORE.RESTR>
0.00637257

>  <SCORE.RESTR.CAVITY>
0.00637257

>  <SCORE.RESTR.norm>
0.000172232

>  <SCORE.SYSTEM>
0

>  <SCORE.SYSTEM.CONST>
0

>  <SCORE.SYSTEM.DIHEDRAL>
0

>  <SCORE.SYSTEM.SOLV>
0

>  <SCORE.SYSTEM.norm>
0

>  <SCORE.heavy>
37

>  <SCORE.norm>
-0.203124

>  <RMSD>
23.696

$$$$
1o9m_lig
 OpenBabel11021811403D
libRbt.so/2013.1/901 2013/11/27
 37 38  0  0  0  0  0  0  0  0999 V2000
    9.0736   -3.2631    8.4261 C   0  0  2  0  0  0  0  0  0  0  0  0
    9.2689   -2.1563    9.3584 O   0  0  0  0  0  0  0  0  0  0  0  0
   10.4909   -3.9056    8.1963 C   0  0  2  0  0  0  0  0  0  0  0  0
   11.0957   -4.3835    9.4520 N   0  0  0  0  0  0  0  0  0  0  0  0
   11.4264   -2.8503    7.4926 C   0  0  1  0  0  0  0  0  0  0  0  0
   12.7227   -3.4121    7.2708 O   0  0  0  0  0  0  0  0  0  0  0  0
   10.7391   -2.4038    6.1601 C   0  0  2  0  0  0  0  0  0  0  0  0
   11.5032   -1.4226    5.4402 O   0  0  0  0  0  0  0  0  0  0  0  0
    9.3271   -1.8320    6.4389 C   0  0  2  0  0  0  0  0  0  0  0  0
    8.5229   -2.7810    7.1545 O   0  0  0  0  0  0  0  0  0  0  0  0
    8.6207   -1.4460    5.1650 C   0  0  0  0  0  0  0  0  0  0  0  0
    8.3918   -2.5591    4.3918 N   0  0  0  0  0  0  0  0  0  0  0  0
    5.2564   -1.4605   10.8538 C   0  0  1  0  0  0  0  0  0  0  0  0
    4.1420   -0.8881   11.6601 N   0  0  0  0  0  0  0  0  0  0  0  0
    5.9310   -0.3363   10.0795 C   0  0  2  0  0  0  0  0  0  0  0  0
    4.9601    0.2848    9.2910 O   0  0  0  0  0  0  0  0  0  0  0  0
    7.0969   -0.8936    9.2033 C   0  0  1  0  0  0  0  0  0  0  0  0
    7.7495    0.1961    8.4829 O   0  0  0  0  0  0  0  0  0  0  0  0
    8.1663   -1.6014   10.1313 C   0  0  1  0  0  0  0  0  0  0  0  0
    7.5081   -2.7394   10.8965 C   0  0  1  0  0  0  0  0  0  0  0  0
    8.5105   -3.3849   11.7308 N   0  0  0  0  0  0  0  0  0  0  0  0
    6.3364   -2.1883   11.7525 C   0  0  0  0  0  0  0  0  0  0  0  0
    4.3760    1.2371    8.3752 C   0  0  0  0  0  0  0  0  0  0  0  0
    2.9029    0.9373    8.2187 C   0  0  0  0  0  0  0  0  0  0  0  0
    2.6147   -0.3660    7.5852 N   0  0  0  0  0  0  0  0  0  0  0  0
    2.3214   -1.8043    7.3912 C   0  0  0  0  0  0  0  0  0  0  0  0
    1.8902   -1.7233    5.9213 C   0  0  0  0  0  0  0  0  0  0  0  0
    1.0083   -2.9149    5.5035 C   0  0  0  0  0  0  0  0  0  0  0  0
   -0.3267   -2.8953    6.2415 C   0  0  0  0  0  0  0  0  0  0  0  0
   -1.1610   -4.0023    5.7955 N   0  0  0  0  0  0  0  0  0  0  0  0
    0.4221   -2.7160   14.0208 N   0  0  0  0  0  0  0  0  0  0  0  0
    4.6409   -0.5857   13.3353 C   0  0  0  0  0  0  0  0  0  0  0  0
    5.5566   -0.7097   13.8923 O   0  0  0  0  0  0  0  0  0  0  0  0
    3.2235   -0.1194   13.5613 C   0  0  2  0  0  0  0  0  0  0  0  0
    3.1595    0.8049   14.5731 O   0  0  0  0  0  0  0  0  0  0  0  0
    2.4270   -1.3344   14.0241 C   0  0  0  0  0  0  0  0  0  0  0  0
    0.9804   -1.4550   13.5116 C   0  0  0  0  0  0  0  0  0  0  0  0
  1  2  1  1  0  0  0
  1  3  1  0  0  0  0
  3  4  1  1  0  0  0
  3  5  1  0  0  0  0
  5  6  1  6  0  0  0
  5  7  1  0  0  0  0
  7  8  1  1  0  0  0
  9  7  1  0  0  0  0
  9 10  1  0  0  0  0
  9 11  1  6  0  0  0
 10  1  1  0  0  0  0
 11 12  1  0  0  0  0
 13 14  1  1  0  0  0
 13 15  1  0  0  0  0
 13 22  1  0  0  0  0
 14 32  1  0  0  0  0
 15 16  1  6  0  0  0
 15 17  1  0  0  0  0
 16 23  1  0  0  0  0
 17 18  1  1  0  0  0
 17 19  1  0  0  0  0
 19  2  1  6  0  0  0
 19 20  1  0  0  0  0
 20 21  1  1  0  0  0
 20 22  1  0  0  0  0
 23 24  1  0  0  0  0
 24 25  1  0  0  0  0
 25 26  1  0  0  0  0
 26 27  1  0  0  0  0
 27 28  1  0  0  0  0
 28 29  1  0  0  0  0
 29 30  1  0  0  0  0
 31 37  1  0  0  0  0
 32 33  2  0  0  0  0
 34 32  1  1  0  0  0
 34 35  1  0  0  0  0
 34 36  1  0  0  0  0
 36 37  1  0  0  0  0
M  END
>  <CHROM.1>
-160.04812857,64.41110387,-97.27475765,175.88008792,-177.15009603,-66.02340215
-64.89494069,91.98247276,165.99390066,-158.13206062,65.80936538,177.97169441
-152.35310201,-142.52502211,177.37630346,5.99076459,-1.68685181,9.20615533
-0.44429543,-0.09088715,1.42353856

>  <Name>
1o9m_lig

>  <RI>
0

>  <Rbt.Current_Directory>
/home/itssahil/PROJECTS/Mol_Feturizer/New_Systems/rnas/1o9m

>  <Rbt.Executable>
rbdock ($Id: //depot/dev/client3/rdock/2013.1/src/exe/rbdock.cxx#4 $)

>  <Rbt.Library>
libRbt.so (2013.1, Build901 2013/11/27)

>  <Rbt.Parameter_File>
/export/apps/rDock/src/rDock_2013.1_src/data/scripts/dock_solv.prm

>  <Rbt.Receptor>
prm/blind_docking_100.prm

>  <SCORE>
-10.0467

>  <SCORE.INTER>
-7.3781

>  <SCORE.INTER.CONST>
1

>  <SCORE.INTER.POLAR>
-1.91423

>  <SCORE.INTER.ROT>
15

>  <SCORE.INTER.SOLV>
15.5041

>  <SCORE.INTER.VDW>
-17.306

>  <SCORE.INTER.norm>
-0.199408

>  <SCORE.INTRA>
-2.69936

>  <SCORE.INTRA.DIHEDRAL>
-10.632

>  <SCORE.INTRA.DIHEDRAL.0>
21.5987

>  <SCORE.INTRA.POLAR>
0

>  <SCORE.INTRA.POLAR.0>
0

>  <SCORE.INTRA.REPUL>
0

>  <SCORE.INTRA.REPUL.0>
0

>  <SCORE.INTRA.SOLV>
2.27943

>  <SCORE.INTRA.SOLV.lig_0>
-108.715

>  <SCORE.INTRA.VDW>
1.47693

>  <SCORE.INTRA.VDW.0>
-3.9485

>  <SCORE.INTRA.norm>
-0.0729557

>  <SCORE.RESTR>
0.0307297

>  <SCORE.RESTR.CAVITY>
0.0307297

>  <SCORE.RESTR.norm>
0.000830533

>  <SCORE.SYSTEM>
0

>  <SCORE.SYSTEM.CONST>
0

>  <SCORE.SYSTEM.DIHEDRAL>
0

>  <SCORE.SYSTEM.SOLV>
0

>  <SCORE.SYSTEM.norm>
0

>  <SCORE.heavy>
37

>  <SCORE.norm>
-0.271533

>  <RMSD>
23.702

$$$$
1o9m_lig
 OpenBabel11021811403D
libRbt.so/2013.1/901 2013/11/27
 37 38  0  0  0  0  0  0  0  0999 V2000
   10.2165   -1.9267   12.2358 C   0  0  2  0  0  0  0  0  0  0  0  0
    9.6114   -1.1323   11.1705 O   0  0  0  0  0  0  0  0  0  0  0  0
   11.7064   -1.4382   12.3626 C   0  0  2  0  0  0  0  0  0  0  0  0
   11.7964   -0.0002   12.6706 N   0  0  0  0  0  0  0  0  0  0  0  0
   12.4729   -1.7717   11.0265 C   0  0  1  0  0  0  0  0  0  0  0  0
   13.8327   -1.3381   11.1176 O   0  0  0  0  0  0  0  0  0  0  0  0
   12.3585   -3.3110   10.7718 C   0  0  2  0  0  0  0  0  0  0  0  0
   13.0124   -3.7261    9.5614 O   0  0  0  0  0  0  0  0  0  0  0  0
   10.8732   -3.7457   10.7121 C   0  0  2  0  0  0  0  0  0  0  0  0
   10.1776   -3.3557   11.9051 O   0  0  0  0  0  0  0  0  0  0  0  0
   10.7355   -5.2344   10.5235 C   0  0  0  0  0  0  0  0  0  0  0  0
   11.3918   -5.9041   11.5285 N   0  0  0  0  0  0  0  0  0  0  0  0
    5.4209   -0.3343   10.3810 C   0  0  1  0  0  0  0  0  0  0  0  0
    4.0119   -0.5491    9.9472 N   0  0  0  0  0  0  0  0  0  0  0  0
    5.7592   -1.3426   11.4706 C   0  0  2  0  0  0  0  0  0  0  0  0
    4.8439   -1.1731   12.5115 O   0  0  0  0  0  0  0  0  0  0  0  0
    7.2248   -1.1424   11.9703 C   0  0  1  0  0  0  0  0  0  0  0  0
    7.5442   -2.1286   12.9989 O   0  0  0  0  0  0  0  0  0  0  0  0
    8.2279   -1.3277   10.7598 C   0  0  1  0  0  0  0  0  0  0  0  0
    7.9118   -0.3125    9.6720 C   0  0  1  0  0  0  0  0  0  0  0  0
    8.8536   -0.4901    8.5770 N   0  0  0  0  0  0  0  0  0  0  0  0
    6.4485   -0.4986    9.1889 C   0  0  0  0  0  0  0  0  0  0  0  0
    4.2305   -1.3492   13.8074 C   0  0  0  0  0  0  0  0  0  0  0  0
    2.9515   -0.5459   13.8655 C   0  0  0  0  0  0  0  0  0  0  0  0
    3.1286    0.8941   13.5863 N   0  0  0  0  0  0  0  0  0  0  0  0
    3.6748    2.1754   13.0838 C   0  0  0  0  0  0  0  0  0  0  0  0
    2.3470    2.7924   12.6265 C   0  0  0  0  0  0  0  0  0  0  0  0
    1.6662    3.6087   13.7412 C   0  0  0  0  0  0  0  0  0  0  0  0
    1.3412    2.7298   14.9450 C   0  0  0  0  0  0  0  0  0  0  0  0
    2.4911    2.6554   15.8351 N   0  0  0  0  0  0  0  0  0  0  0  0
    1.7754   -2.7937    5.2437 N   0  0  0  0  0  0  0  0  0  0  0  0
    3.8428   -2.0424    9.0049 C   0  0  0  0  0  0  0  0  0  0  0  0
    4.5154   -2.8244    8.6882 O   0  0  0  0  0  0  0  0  0  0  0  0
    2.3869   -1.6681    8.8719 C   0  0  2  0  0  0  0  0  0  0  0  0
    1.6590   -2.1131    9.9462 O   0  0  0  0  0  0  0  0  0  0  0  0
    1.8528   -2.3991    7.6451 C   0  0  0  0  0  0  0  0  0  0  0  0
    2.4025   -1.9567    6.2769 C   0  0  0  0  0  0  0  0  0  0  0  0
  1  2  1  6  0  0  0
  1  3  1  0  0  0  0
  3  4  1  6  0  0  0
  3  5  1  0  0  0  0
  5  6  1  1  0  0  0
  5  7  1  0  0  0  0
  7  8  1  6  0  0  0
  9  7  1  0  0  0  0
  9 10  1  0  0  0  0
  9 11  1  1  0  0  0
 10  1  1  0  0  0  0
 11 12  1  0  0  0  0
 13 14  1  6  0  0  0
 13 15  1  0  0  0  0
 13 22  1  0  0  0  0
 14 32  1  0  0  0  0
 15 16  1  1  0  0  0
 15 17  1  0  0  0  0
 16 23  1  0  0  0  0
 17 18  1  1  0  0  0
 17 19  1  0  0  0  0
 19  2  1  1  0  0  0
 19 20  1  0  0  0  0
 20 21  1  6  0  0  0
 20 22  1  0  0  0  0
 23 24  1  0  0  0  0
 24 25  1  0  0  0  0
 25 26  1  0  0  0  0
 26 27  1  0  0  0  0
 27 28  1  0  0  0  0
 28 29  1  0  0  0  0
 29 30  1  0  0  0  0
 31 37  1  0  0  0  0
 32 33  2  0  0  0  0
 34 32  1  1  0  0  0
 34 35  1  0  0  0  0
 34 36  1  0  0  0  0
 36 37  1  0  0  0  0
M  END
>  <CHROM.1>
179.09217687,56.79274246,-71.84227379,-173.10831803,-176.69137175,57.28761403
-56.62656454,24.51954925,136.54946870,90.03293397,-60.92509178,86.24657565
-85.87134687,-67.54656703,179.26688806,6.62859973,-1.23459582,11.09568760
-0.23116588,-0.24516838,0.97903860

>  <Name>
1o9m_lig

>  <RI>
0

>  <Rbt.Current_Directory>
/home/itssahil/PROJECTS/Mol_Feturizer/New_Systems/rnas/1o9m

>  <Rbt.Executable>
rbdock ($Id: //depot/dev/client3/rdock/2013.1/src/exe/rbdock.cxx#4 $)

>  <Rbt.Library>
libRbt.so (2013.1, Build901 2013/11/27)

>  <Rbt.Parameter_File>
/export/apps/rDock/src/rDock_2013.1_src/data/scripts/dock_solv.prm

>  <Rbt.Receptor>
prm/blind_docking_40.prm

>  <SCORE>
-4.69913

>  <SCORE.INTER>
-1.33309

>  <SCORE.INTER.CONST>
1

>  <SCORE.INTER.POLAR>
-1.36667

>  <SCORE.INTER.ROT>
15

>  <SCORE.INTER.SOLV>
16.8882

>  <SCORE.INTER.VDW>
-15.5626

>  <SCORE.INTER.norm>
-0.0360293

>  <SCORE.INTRA>
-3.42488

>  <SCORE.INTRA.DIHEDRAL>
-12.8392

>  <SCORE.INTRA.DIHEDRAL.0>
21.5987

>  <SCORE.INTRA.POLAR>
0

>  <SCORE.INTRA.POLAR.0>
0

>  <SCORE.INTRA.REPUL>
0

>  <SCORE.INTRA.REPUL.0>
0

>  <SCORE.INTRA.SOLV>
5.09588

>  <SCORE.INTRA.SOLV.lig_0>
-108.715

>  <SCORE.INTRA.VDW>
0.446799

>  <SCORE.INTRA.VDW.0>
-3.9485

>  <SCORE.INTRA.norm>
-0.0925645

>  <SCORE.RESTR>
0.0588361

>  <SCORE.RESTR.CAVITY>
0.0588361

>  <SCORE.RESTR.norm>
0.00159016

>  <SCORE.SYSTEM>
0

>  <SCORE.SYSTEM.CONST>
0

>  <SCORE.SYSTEM.DIHEDRAL>
0

>  <SCORE.SYSTEM.SOLV>
0

>  <SCORE.SYSTEM.norm>
0

>  <SCORE.heavy>
37

>  <SCORE.norm>
-0.127004

>  <RMSD>
23.703

$$$$
1o9m_lig
 OpenBabel11021811403D
libRbt.so/2013.1/901 2013/11/27
 37 38  0  0  0  0  0  0  0  0999 V2000
   10.7231   -1.5347   10.1821 C   0  0  2  0  0  0  0  0  0  0  0  0
   10.3865   -0.1220   10.3340 O   0  0  0  0  0  0  0  0  0  0  0  0
   12.1415   -1.5828    9.5034 C   0  0  2  0  0  0  0  0  0  0  0  0
   13.1650   -0.8871   10.3030 N   0  0  0  0  0  0  0  0  0  0  0  0
   12.0425   -0.9593    8.0594 C   0  0  1  0  0  0  0  0  0  0  0  0
   13.3213   -0.9931    7.4198 O   0  0  0  0  0  0  0  0  0  0  0  0
   10.9595   -1.7558    7.2593 C   0  0  2  0  0  0  0  0  0  0  0  0
   10.7736   -1.2573    5.9244 O   0  0  0  0  0  0  0  0  0  0  0  0
    9.5996   -1.7228    7.9994 C   0  0  2  0  0  0  0  0  0  0  0  0
    9.7345   -2.2172    9.3398 O   0  0  0  0  0  0  0  0  0  0  0  0
    8.5524   -2.5306    7.2773 C   0  0  0  0  0  0  0  0  0  0  0  0
    8.8907   -3.8628    7.2838 N   0  0  0  0  0  0  0  0  0  0  0  0
    6.4928   -0.2643   12.2417 C   0  0  1  0  0  0  0  0  0  0  0  0
    5.2553    0.1919   12.9345 N   0  0  0  0  0  0  0  0  0  0  0  0
    6.6038    0.4592   10.9065 C   0  0  2  0  0  0  0  0  0  0  0  0
    5.4461    0.1885   10.1739 O   0  0  0  0  0  0  0  0  0  0  0  0
    7.8801   -0.0024   10.1346 C   0  0  1  0  0  0  0  0  0  0  0  0
    7.9871    0.7138    8.8665 O   0  0  0  0  0  0  0  0  0  0  0  0
    9.1666    0.3077   11.0034 C   0  0  1  0  0  0  0  0  0  0  0  0
    9.0760   -0.4252   12.3332 C   0  0  1  0  0  0  0  0  0  0  0  0
   10.2736   -0.1388   13.1088 N   0  0  0  0  0  0  0  0  0  0  0  0
    7.7968    0.0190   13.0919 C   0  0  0  0  0  0  0  0  0  0  0  0
    4.0596    0.2535    9.7740 C   0  0  0  0  0  0  0  0  0  0  0  0
    3.6583   -1.0657    9.1549 C   0  0  0  0  0  0  0  0  0  0  0  0
    4.4786   -1.4624    7.9918 N   0  0  0  0  0  0  0  0  0  0  0  0
    5.1361   -2.2739    6.9422 C   0  0  0  0  0  0  0  0  0  0  0  0
    3.8928   -3.0418    6.4758 C   0  0  0  0  0  0  0  0  0  0  0  0
    2.8815   -2.1336    5.7515 C   0  0  0  0  0  0  0  0  0  0  0  0
    1.5018   -2.7824    5.6967 C   0  0  0  0  0  0  0  0  0  0  0  0
    1.5492   -3.9906    4.8854 N   0  0  0  0  0  0  0  0  0  0  0  0
    0.9012    1.3852   14.7496 N   0  0  0  0  0  0  0  0  0  0  0  0
    3.9596   -1.0134   12.8107 C   0  0  0  0  0  0  0  0  0  0  0  0
    3.8682   -1.9913   12.3642 O   0  0  0  0  0  0  0  0  0  0  0  0
    3.1136   -0.0272   13.5784 C   0  0  2  0  0  0  0  0  0  0  0  0
    3.6418    0.2201   14.8201 O   0  0  0  0  0  0  0  0  0  0  0  0
    1.7572   -0.6872   13.8004 C   0  0  0  0  0  0  0  0  0  0  0  0
    0.8562   -0.0775   14.8895 C   0  0  0  0  0  0  0  0  0  0  0  0
  1  2  1  6  0  0  0
  1  3  1  0  0  0  0
  3  4  1  1  0  0  0
  3  5  1  0  0  0  0
  5  6  1  6  0  0  0
  5  7  1  0  0  0  0
  7  8  1  6  0  0  0
  9  7  1  0  0  0  0
  9 10  1  0  0  0  0
  9 11  1  6  0  0  0
 10  1  1  0  0  0  0
 11 12  1  0  0  0  0
 13 14  1  1  0  0  0
 13 15  1  0  0  0  0
 13 22  1  0  0  0  0
 14 32  1  0  0  0  0
 15 16  1  6  0  0  0
 15 17  1  0  0  0  0
 16 23  1  0  0  0  0
 17 18  1  6  0  0  0
 17 19  1  0  0  0  0
 19  2  1  6  0  0  0
 19 20  1  0  0  0  0
 20 21  1  1  0  0  0
 20 22  1  0  0  0  0
 23 24  1  0  0  0  0
 24 25  1  0  0  0  0
 25 26  1  0  0  0  0
 26 27  1  0  0  0  0
 27 28  1  0  0  0  0
 28 29  1  0  0  0  0
 29 30  1  0  0  0  0
 31 37  1  0  0  0  0
 32 33  2  0  0  0  0
 34 32  1  6  0  0  0
 34 35  1  0  0  0  0
 34 36  1  0  0  0  0
 36 37  1  0  0  0  0
M  END
>  <CHROM.1>
-176.31815186,65.41847764,102.90015250,74.42238047,-150.51805249,-71.20363501
-57.59638486,158.77648400,48.96334721,68.85874513,-161.84657839,-64.86362363
-61.65236379,162.86489122,43.87225150,6.80531550,-0.99874380,9.96299127,-0.39572360
0.06247934,1.21951348

>  <Name>
1o9m_lig

>  <RI>
0

>  <Rbt.Current_Directory>
/home/itssahil/PROJECTS/Mol_Feturizer/New_Systems/rnas/1o9m

>  <Rbt.Executable>
rbdock ($Id: //depot/dev/client3/rdock/2013.1/src/exe/rbdock.cxx#4 $)

>  <Rbt.Library>
libRbt.so (2013.1, Build901 2013/11/27)

>  <Rbt.Parameter_File>
/export/apps/rDock/src/rDock_2013.1_src/data/scripts/dock_solv.prm

>  <Rbt.Receptor>
prm/blind_docking_20.prm

>  <SCORE>
-6.04654

>  <SCORE.INTER>
-4.01515

>  <SCORE.INTER.CONST>
1

>  <SCORE.INTER.POLAR>
-0.855457

>  <SCORE.INTER.ROT>
15

>  <SCORE.INTER.SOLV>
14.4168

>  <SCORE.INTER.VDW>
-18.2308

>  <SCORE.INTER.norm>
-0.108518

>  <SCORE.INTRA>
-2.14257

>  <SCORE.INTRA.DIHEDRAL>
-10.5232

>  <SCORE.INTRA.DIHEDRAL.0>
21.5987

>  <SCORE.INTRA.POLAR>
0

>  <SCORE.INTRA.POLAR.0>
0

>  <SCORE.INTRA.REPUL>
0

>  <SCORE.INTRA.REPUL.0>
0

>  <SCORE.INTRA.SOLV>
5.63408

>  <SCORE.INTRA.SOLV.lig_0>
-108.715

>  <SCORE.INTRA.VDW>
0.301977

>  <SCORE.INTRA.VDW.0>
-3.9485

>  <SCORE.INTRA.norm>
-0.0579074

>  <SCORE.RESTR>
0.111186

>  <SCORE.RESTR.CAVITY>
0.111186

>  <SCORE.RESTR.norm>
0.00300501

>  <SCORE.SYSTEM>
0

>  <SCORE.SYSTEM.CONST>
0

>  <SCORE.SYSTEM.DIHEDRAL>
0

>  <SCORE.SYSTEM.SOLV>
0

>  <SCORE.SYSTEM.norm>
0

>  <SCORE.heavy>
37

>  <SCORE.norm>
-0.16342

>  <RMSD>
23.706

$$$$
1o9m_lig
 OpenBabel11021811403D
libRbt.so/2013.1/901 2013/11/27
 37 38  0  0  0  0  0  0  0  0999 V2000
   10.2085   -0.6861    8.9784 C   0  0  2  0  0  0  0  0  0  0  0  0
    9.6667   -2.0413    8.9337 O   0  0  0  0  0  0  0  0  0  0  0  0
   11.6934   -0.8178    9.4804 C   0  0  2  0  0  0  0  0  0  0  0  0
   12.5055   -1.6740    8.5981 N   0  0  0  0  0  0  0  0  0  0  0  0
   11.6909   -1.3780   10.9535 C   0  0  1  0  0  0  0  0  0  0  0  0
   13.0320   -1.5053   11.4341 O   0  0  0  0  0  0  0  0  0  0  0  0
   10.8343   -0.4136   11.8387 C   0  0  2  0  0  0  0  0  0  0  0  0
   10.7497   -0.8411   13.2080 O   0  0  0  0  0  0  0  0  0  0  0  0
    9.4011   -0.2770   11.2680 C   0  0  2  0  0  0  0  0  0  0  0  0
    9.4343    0.1535    9.8995 O   0  0  0  0  0  0  0  0  0  0  0  0
    8.5715    0.6911   12.0712 C   0  0  0  0  0  0  0  0  0  0  0  0
    8.2908    0.1643   13.3093 N   0  0  0  0  0  0  0  0  0  0  0  0
    5.4311   -1.4004    8.2486 C   0  0  1  0  0  0  0  0  0  0  0  0
    4.0124   -1.6801    7.8900 N   0  0  0  0  0  0  0  0  0  0  0  0
    5.8348   -2.3083    9.4024 C   0  0  2  0  0  0  0  0  0  0  0  0
    4.9556   -2.0733   10.4616 O   0  0  0  0  0  0  0  0  0  0  0  0
    7.3129   -2.0365    9.8257 C   0  0  1  0  0  0  0  0  0  0  0  0
    7.6949   -2.9277   10.9176 O   0  0  0  0  0  0  0  0  0  0  0  0
    8.2738   -2.2992    8.5955 C   0  0  1  0  0  0  0  0  0  0  0  0
    7.8921   -1.3839    7.4421 C   0  0  1  0  0  0  0  0  0  0  0  0
    8.7960   -1.6309    6.3287 N   0  0  0  0  0  0  0  0  0  0  0  0
    6.4166   -1.6403    7.0341 C   0  0  0  0  0  0  0  0  0  0  0  0
    4.2567   -1.3460   11.4956 C   0  0  0  0  0  0  0  0  0  0  0  0
    3.2945   -2.2780   12.1955 C   0  0  0  0  0  0  0  0  0  0  0  0
    2.5548   -1.6560   13.3131 N   0  0  0  0  0  0  0  0  0  0  0  0
    1.4951   -1.3356   14.2963 C   0  0  0  0  0  0  0  0  0  0  0  0
    2.1420   -0.0743   14.8826 C   0  0  0  0  0  0  0  0  0  0  0  0
    1.1016    1.0002   15.2505 C   0  0  0  0  0  0  0  0  0  0  0  0
    0.2337    0.5463   16.4201 C   0  0  0  0  0  0  0  0  0  0  0  0
    1.0192    0.5219   17.6459 N   0  0  0  0  0  0  0  0  0  0  0  0
   -0.5080   -3.6140    6.3172 N   0  0  0  0  0  0  0  0  0  0  0  0
    3.8719   -3.1304    6.8783 C   0  0  0  0  0  0  0  0  0  0  0  0
    4.5679   -3.8514    6.4785 O   0  0  0  0  0  0  0  0  0  0  0  0
    2.3908   -2.8414    6.8549 C   0  0  2  0  0  0  0  0  0  0  0  0
    1.7603   -3.3888    7.9433 O   0  0  0  0  0  0  0  0  0  0  0  0
    1.8242   -3.5368    5.6220 C   0  0  0  0  0  0  0  0  0  0  0  0
    0.3788   -3.1843    5.2264 C   0  0  0  0  0  0  0  0  0  0  0  0
  1  2  1  1  0  0  0
  1  3  1  0  0  0  0
  3  4  1  6  0  0  0
  3  5  1  0  0  0  0
  5  6  1  1  0  0  0
  5  7  1  0  0  0  0
  7  8  1  1  0  0  0
  9  7  1  0  0  0  0
  9 10  1  0  0  0  0
  9 11  1  1  0  0  0
 10  1  1  0  0  0  0
 11 12  1  0  0  0  0
 13 14  1  6  0  0  0
 13 15  1  0  0  0  0
 13 22  1  0  0  0  0
 14 32  1  0  0  0  0
 15 16  1  1  0  0  0
 15 17  1  0  0  0  0
 16 23  1  0  0  0  0
 17 18  1  1  0  0  0
 17 19  1  0  0  0  0
 19  2  1  1  0  0  0
 19 20  1  0  0  0  0
 20 21  1  6  0  0  0
 20 22  1  0  0  0  0
 23 24  1  0  0  0  0
 24 25  1  0  0  0  0
 25 26  1  0  0  0  0
 26 27  1  0  0  0  0
 27 28  1  0  0  0  0
 28 29  1  0  0  0  0
 29 30  1  0  0  0  0
 31 37  1  0  0  0  0
 32 33  2  0  0  0  0
 34 32  1  1  0  0  0
 34 35  1  0  0  0  0
 34 36  1  0  0  0  0
 36 37  1  0  0  0  0
M  END
>  <CHROM.1>
175.83799229,-69.52903430,-80.02038516,-59.87967605,179.04220474,-79.21983146
177.81311055,148.97000526,-170.70836217,144.17868186,67.64008102,70.06854765
-86.02259009,-169.08165655,-63.22356076,6.04172551,-1.53008031,10.20957516
0.09464724,-0.09162246,-1.89771200

>  <Name>
1o9m_lig

>  <RI>
0

>  <Rbt.Current_Directory>
/home/itssahil/PROJECTS/Mol_Feturizer/New_Systems/rnas/1o9m

>  <Rbt.Executable>
rbdock ($Id: //depot/dev/client3/rdock/2013.1/src/exe/rbdock.cxx#4 $)

>  <Rbt.Library>
libRbt.so (2013.1, Build901 2013/11/27)

>  <Rbt.Parameter_File>
/export/apps/rDock/src/rDock_2013.1_src/data/scripts/dock_solv.prm

>  <Rbt.Receptor>
prm/blind_docking_80.prm

>  <SCORE>
-4.11565

>  <SCORE.INTER>
-0.661159

>  <SCORE.INTER.CONST>
1

>  <SCORE.INTER.POLAR>
0

>  <SCORE.INTER.ROT>
15

>  <SCORE.INTER.SOLV>
18.4978

>  <SCORE.INTER.VDW>
-20.2067

>  <SCORE.INTER.norm>
-0.0178692

>  <SCORE.INTRA>
-3.4545

>  <SCORE.INTRA.DIHEDRAL>
-12.5544

>  <SCORE.INTRA.DIHEDRAL.0>
21.5987

>  <SCORE.INTRA.POLAR>
0

>  <SCORE.INTRA.POLAR.0>
0

>  <SCORE.INTRA.REPUL>
0

>  <SCORE.INTRA.REPUL.0>
0

>  <SCORE.INTRA.SOLV>
3.86415

>  <SCORE.INTRA.SOLV.lig_0>
-108.715

>  <SCORE.INTRA.VDW>
0.89062

>  <SCORE.INTRA.VDW.0>
-3.9485

>  <SCORE.INTRA.norm>
-0.0933648

>  <SCORE.RESTR>
0

>  <SCORE.RESTR.CAVITY>
0

>  <SCORE.RESTR.norm>
0

>  <SCORE.SYSTEM>
0

>  <SCORE.SYSTEM.CONST>
0

>  <SCORE.SYSTEM.DIHEDRAL>
0

>  <SCORE.SYSTEM.SOLV>
0

>  <SCORE.SYSTEM.norm>
0

>  <SCORE.heavy>
37

>  <SCORE.norm>
-0.111234

>  <RMSD>
23.706

$$$$
1o9m_lig
 OpenBabel11021811403D
libRbt.so/2013.1/901 2013/11/27
 37 38  0  0  0  0  0  0  0  0999 V2000
    2.6905   -0.4011   14.3980 C   0  0  2  0  0  0  0  0  0  0  0  0
    2.4647   -1.3980   13.3552 O   0  0  0  0  0  0  0  0  0  0  0  0
    1.4405    0.5537   14.3777 C   0  0  2  0  0  0  0  0  0  0  0  0
    0.1811   -0.1729   14.6163 N   0  0  0  0  0  0  0  0  0  0  0  0
    1.3943    1.3118   12.9968 C   0  0  1  0  0  0  0  0  0  0  0  0
    0.2655    2.1891   12.9543 O   0  0  0  0  0  0  0  0  0  0  0  0
    2.7464    2.0782   12.8177 C   0  0  2  0  0  0  0  0  0  0  0  0
    2.8201    2.7958   11.5749 O   0  0  0  0  0  0  0  0  0  0  0  0
    3.9439    1.0999   12.9021 C   0  0  2  0  0  0  0  0  0  0  0  0
    3.9155    0.3614   14.1322 O   0  0  0  0  0  0  0  0  0  0  0  0
    5.2619    1.8213   12.7886 C   0  0  0  0  0  0  0  0  0  0  0  0
    5.4685    2.2342   11.4939 N   0  0  0  0  0  0  0  0  0  0  0  0
    4.9478   -3.2402   10.3120 C   0  0  1  0  0  0  0  0  0  0  0  0
    5.8723   -3.3750    9.1516 N   0  0  0  0  0  0  0  0  0  0  0  0
    5.6406   -2.4328   11.4014 C   0  0  2  0  0  0  0  0  0  0  0  0
    6.8280   -3.0888   11.7327 O   0  0  0  0  0  0  0  0  0  0  0  0
    4.7133   -2.2813   12.6484 C   0  0  1  0  0  0  0  0  0  0  0  0
    5.3798   -1.4873   13.6768 O   0  0  0  0  0  0  0  0  0  0  0  0
    3.3748   -1.5480   12.2282 C   0  0  1  0  0  0  0  0  0  0  0  0
    2.6637   -2.3554   11.1530 C   0  0  1  0  0  0  0  0  0  0  0  0
    1.4304   -1.6723   10.7925 N   0  0  0  0  0  0  0  0  0  0  0  0
    3.5928   -2.5228    9.9209 C   0  0  0  0  0  0  0  0  0  0  0  0
    8.1348   -3.6788   11.5571 C   0  0  0  0  0  0  0  0  0  0  0  0
    9.0564   -3.1792   12.6459 C   0  0  0  0  0  0  0  0  0  0  0  0
    9.0687   -1.7099   12.8008 N   0  0  0  0  0  0  0  0  0  0  0  0
    9.2792   -0.2674   12.5418 C   0  0  0  0  0  0  0  0  0  0  0  0
   10.7229   -0.3649   12.0325 C   0  0  0  0  0  0  0  0  0  0  0  0
   10.8009   -0.9136   10.5955 C   0  0  0  0  0  0  0  0  0  0  0  0
   12.2496   -1.0468   10.1365 C   0  0  0  0  0  0  0  0  0  0  0  0
   12.2962   -1.4538    8.7392 N   0  0  0  0  0  0  0  0  0  0  0  0
    4.4261   -3.3804    4.7682 N   0  0  0  0  0  0  0  0  0  0  0  0
    6.2539   -1.7963    8.4382 C   0  0  0  0  0  0  0  0  0  0  0  0
    5.9820   -0.7753    8.6565 O   0  0  0  0  0  0  0  0  0  0  0  0
    7.0766   -2.5672    7.4350 C   0  0  2  0  0  0  0  0  0  0  0  0
    8.2585   -1.9257    7.1634 O   0  0  0  0  0  0  0  0  0  0  0  0
    6.2800   -2.5913    6.1352 C   0  0  0  0  0  0  0  0  0  0  0  0
    4.9882   -3.4286    6.1257 C   0  0  0  0  0  0  0  0  0  0  0  0
  1  2  1  6  0  0  0
  1  3  1  0  0  0  0
  3  4  1  6  0  0  0
  3  5  1  0  0  0  0
  5  6  1  1  0  0  0
  5  7  1  0  0  0  0
  7  8  1  6  0  0  0
  9  7  1  0  0  0  0
  9 10  1  0  0  0  0
  9 11  1  1  0  0  0
 10  1  1  0  0  0  0
 11 12  1  0  0  0  0
 13 14  1  6  0  0  0
 13 15  1  0  0  0  0
 13 22  1  0  0  0  0
 14 32  1  0  0  0  0
 15 16  1  1  0  0  0
 15 17  1  0  0  0  0
 16 23  1  0  0  0  0
 17 18  1  1  0  0  0
 17 19  1  0  0  0  0
 19  2  1  1  0  0  0
 19 20  1  0  0  0  0
 20 21  1  6  0  0  0
 20 22  1  0  0  0  0
 23 24  1  0  0  0  0
 24 25  1  0  0  0  0
 25 26  1  0  0  0  0
 26 27  1  0  0  0  0
 27 28  1  0  0  0  0
 28 29  1  0  0  0  0
 29 30  1  0  0  0  0
 31 37  1  0  0  0  0
 32 33  2  0  0  0  0
 34 32  1  1  0  0  0
 34 35  1  0  0  0  0
 34 36  1  0  0  0  0
 36 37  1  0  0  0  0
M  END
>  <CHROM.1>
119.40779922,-73.13258461,-62.96193113,58.74244290,131.71838370,75.39345358
-50.66929954,-67.56797716,-45.38540031,75.73235135,-177.92000471,-175.01385873
-139.45013501,-68.94582994,-176.64928985,5.46213328,-1.07858849,11.12024894
-2.54464806,0.07323942,-2.03712451

>  <Name>
1o9m_lig

>  <RI>
0

>  <Rbt.Current_Directory>
/home/itssahil/PROJECTS/Mol_Feturizer/New_Systems/rnas/1o9m

>  <Rbt.Executable>
rbdock ($Id: //depot/dev/client3/rdock/2013.1/src/exe/rbdock.cxx#4 $)

>  <Rbt.Library>
libRbt.so (2013.1, Build901 2013/11/27)

>  <Rbt.Parameter_File>
/export/apps/rDock/src/rDock_2013.1_src/data/scripts/dock_solv.prm

>  <Rbt.Receptor>
prm/blind_docking_20.prm

>  <SCORE>
-10.4284

>  <SCORE.INTER>
-12.5794

>  <SCORE.INTER.CONST>
1

>  <SCORE.INTER.POLAR>
-3.26343

>  <SCORE.INTER.ROT>
15

>  <SCORE.INTER.SOLV>
14.4102

>  <SCORE.INTER.VDW>
-15.9116

>  <SCORE.INTER.norm>
-0.339984

>  <SCORE.INTRA>
0.582443

>  <SCORE.INTRA.DIHEDRAL>
-2.07354

>  <SCORE.INTRA.DIHEDRAL.0>
21.5987

>  <SCORE.INTRA.POLAR>
0

>  <SCORE.INTRA.POLAR.0>
0

>  <SCORE.INTRA.REPUL>
0

>  <SCORE.INTRA.REPUL.0>
0

>  <SCORE.INTRA.SOLV>
2.66304

>  <SCORE.INTRA.SOLV.lig_0>
-108.715

>  <SCORE.INTRA.VDW>
0.287697

>  <SCORE.INTRA.VDW.0>
-3.9485

>  <SCORE.INTRA.norm>
0.0157417

>  <SCORE.RESTR>
1.56856

>  <SCORE.RESTR.CAVITY>
1.56856

>  <SCORE.RESTR.norm>
0.0423936

>  <SCORE.SYSTEM>
0

>  <SCORE.SYSTEM.CONST>
0

>  <SCORE.SYSTEM.DIHEDRAL>
0

>  <SCORE.SYSTEM.SOLV>
0

>  <SCORE.SYSTEM.norm>
0

>  <SCORE.heavy>
37

>  <SCORE.norm>
-0.281848

>  <RMSD>
23.717

$$$$
1o9m_lig
 OpenBabel11021811403D
libRbt.so/2013.1/901 2013/11/27
 37 38  0  0  0  0  0  0  0  0999 V2000
    1.9201    1.1826   10.9827 C   0  0  2  0  0  0  0  0  0  0  0  0
    3.0600    1.9878   10.5533 O   0  0  0  0  0  0  0  0  0  0  0  0
    0.9920    2.1376   11.8200 C   0  0  2  0  0  0  0  0  0  0  0  0
    0.5413    3.3021   11.0379 N   0  0  0  0  0  0  0  0  0  0  0  0
    1.7629    2.5995   13.1147 C   0  0  1  0  0  0  0  0  0  0  0  0
    0.9379    3.4689   13.8951 O   0  0  0  0  0  0  0  0  0  0  0  0
    2.1910    1.3206   13.9077 C   0  0  2  0  0  0  0  0  0  0  0  0
    2.9214    1.6265   15.1067 O   0  0  0  0  0  0  0  0  0  0  0  0
    3.0543    0.3909   13.0195 C   0  0  2  0  0  0  0  0  0  0  0  0
    2.3627    0.0533   11.8084 O   0  0  0  0  0  0  0  0  0  0  0  0
    3.4333   -0.8758   13.7423 C   0  0  0  0  0  0  0  0  0  0  0  0
    4.3279   -0.6000   14.7488 N   0  0  0  0  0  0  0  0  0  0  0  0
    6.0866   -0.6834    8.9643 C   0  0  1  0  0  0  0  0  0  0  0  0
    7.1412   -1.2269    8.0632 N   0  0  0  0  0  0  0  0  0  0  0  0
    6.5404    0.6710    9.4915 C   0  0  2  0  0  0  0  0  0  0  0  0
    7.7632    0.4910   10.1415 O   0  0  0  0  0  0  0  0  0  0  0  0
    5.4714    1.2721   10.4578 C   0  0  1  0  0  0  0  0  0  0  0  0
    5.9078    2.5798   10.9394 O   0  0  0  0  0  0  0  0  0  0  0  0
    4.0989    1.4460    9.6884 C   0  0  1  0  0  0  0  0  0  0  0  0
    3.6254    0.0956    9.1728 C   0  0  1  0  0  0  0  0  0  0  0  0
    2.3569    0.2757    8.4829 N   0  0  0  0  0  0  0  0  0  0  0  0
    4.6969   -0.5110    8.2276 C   0  0  0  0  0  0  0  0  0  0  0  0
    9.0120    0.8351   10.7807 C   0  0  0  0  0  0  0  0  0  0  0  0
    9.6476   -0.4181   11.3375 C   0  0  0  0  0  0  0  0  0  0  0  0
   10.7035   -0.1668   12.3399 N   0  0  0  0  0  0  0  0  0  0  0  0
   11.9780   -0.2321   13.0906 C   0  0  0  0  0  0  0  0  0  0  0  0
   12.4129   -1.6272   12.6241 C   0  0  0  0  0  0  0  0  0  0  0  0
   12.9347   -1.6235   11.1750 C   0  0  0  0  0  0  0  0  0  0  0  0
   14.3720   -1.1162   11.1102 C   0  0  0  0  0  0  0  0  0  0  0  0
   15.2764   -2.1008   11.6872 N   0  0  0  0  0  0  0  0  0  0  0  0
   11.2980   -1.9546    7.1340 N   0  0  0  0  0  0  0  0  0  0  0  0
    7.2280   -2.9961    8.1576 C   0  0  0  0  0  0  0  0  0  0  0  0
    6.6920   -3.7577    8.7024 O   0  0  0  0  0  0  0  0  0  0  0  0
    8.3649   -2.8870    7.1712 C   0  0  2  0  0  0  0  0  0  0  0  0
    8.1016   -3.5987    6.0284 O   0  0  0  0  0  0  0  0  0  0  0  0
    9.5802   -3.5363    7.8239 C   0  0  0  0  0  0  0  0  0  0  0  0
   10.9286   -3.3770    7.0984 C   0  0  0  0  0  0  0  0  0  0  0  0
  1  2  1  1  0  0  0
  1  3  1  0  0  0  0
  3  4  1  6  0  0  0
  3  5  1  0  0  0  0
  5  6  1  1  0  0  0
  5  7  1  0  0  0  0
  7  8  1  1  0  0  0
  9  7  1  0  0  0  0
  9 10  1  0  0  0  0
  9 11  1  1  0  0  0
 10  1  1  0  0  0  0
 11 12  1  0  0  0  0
 13 14  1  6  0  0  0
 13 15  1  0  0  0  0
 13 22  1  0  0  0  0
 14 32  1  0  0  0  0
 15 16  1  1  0  0  0
 15 17  1  0  0  0  0
 16 23  1  0  0  0  0
 17 18  1  6  0  0  0
 17 19  1  0  0  0  0
 19  2  1  1  0  0  0
 19 20  1  0  0  0  0
 20 21  1  6  0  0  0
 20 22  1  0  0  0  0
 23 24  1  0  0  0  0
 24 25  1  0  0  0  0
 25 26  1  0  0  0  0
 26 27  1  0  0  0  0
 27 28  1  0  0  0  0
 28 29  1  0  0  0  0
 29 30  1  0  0  0  0
 31 37  1  0  0  0  0
 32 33  2  0  0  0  0
 34 32  1  1  0  0  0
 34 35  1  0  0  0  0
 34 36  1  0  0  0  0
 36 37  1  0  0  0  0
M  END
>  <CHROM.1>
-176.63304849,-69.47888225,146.68310722,167.58230806,174.13216275,-110.62247610
-163.00189398,-134.31556040,-22.08800012,75.15537144,79.37056398,70.83244338
-121.73729596,-171.53741990,66.29268696,6.47509362,-0.19526843,10.65455212
2.76800805,-0.23372338,1.12588036

>  <Name>
1o9m_lig

>  <RI>
0

>  <Rbt.Current_Directory>
/home/itssahil/PROJECTS/Mol_Feturizer/New_Systems/rnas/1o9m

>  <Rbt.Executable>
rbdock ($Id: //depot/dev/client3/rdock/2013.1/src/exe/rbdock.cxx#4 $)

>  <Rbt.Library>
libRbt.so (2013.1, Build901 2013/11/27)

>  <Rbt.Parameter_File>
/export/apps/rDock/src/rDock_2013.1_src/data/scripts/dock_solv.prm

>  <Rbt.Receptor>
prm/blind_docking_100.prm

>  <SCORE>
-8.86362

>  <SCORE.INTER>
-11.2812

>  <SCORE.INTER.CONST>
1

>  <SCORE.INTER.POLAR>
-3.47802

>  <SCORE.INTER.ROT>
15

>  <SCORE.INTER.SOLV>
19.4179

>  <SCORE.INTER.VDW>
-16

>  <SCORE.INTER.norm>
-0.304898

>  <SCORE.INTRA>
1.52768

>  <SCORE.INTRA.DIHEDRAL>
-4.39971

>  <SCORE.INTRA.DIHEDRAL.0>
21.5987

>  <SCORE.INTRA.POLAR>
0

>  <SCORE.INTRA.POLAR.0>
0

>  <SCORE.INTRA.REPUL>
0

>  <SCORE.INTRA.REPUL.0>
0

>  <SCORE.INTRA.SOLV>
3.1313

>  <SCORE.INTRA.SOLV.lig_0>
-108.715

>  <SCORE.INTRA.VDW>
2.16188

>  <SCORE.INTRA.VDW.0>
-3.9485

>  <SCORE.INTRA.norm>
0.0412886

>  <SCORE.RESTR>
0.889948

>  <SCORE.RESTR.CAVITY>
0.889948

>  <SCORE.RESTR.norm>
0.0240526

>  <SCORE.SYSTEM>
0

>  <SCORE.SYSTEM.CONST>
0

>  <SCORE.SYSTEM.DIHEDRAL>
0

>  <SCORE.SYSTEM.SOLV>
0

>  <SCORE.SYSTEM.norm>
0

>  <SCORE.heavy>
37

>  <SCORE.norm>
-0.239557

>  <RMSD>
23.719

$$$$
1o9m_lig
 OpenBabel11021811403D
libRbt.so/2013.1/901 2013/11/27
 37 38  0  0  0  0  0  0  0  0999 V2000
    1.8731    1.4864   11.3603 C   0  0  2  0  0  0  0  0  0  0  0  0
    3.1837    2.0821   11.1158 O   0  0  0  0  0  0  0  0  0  0  0  0
    1.1931    2.3544   12.4822 C   0  0  2  0  0  0  0  0  0  0  0  0
    1.0570    3.7673   12.0870 N   0  0  0  0  0  0  0  0  0  0  0  0
    2.0300    2.2249   13.8113 C   0  0  1  0  0  0  0  0  0  0  0  0
    1.4299    3.0050   14.8489 O   0  0  0  0  0  0  0  0  0  0  0  0
    2.1158    0.7083   14.1857 C   0  0  2  0  0  0  0  0  0  0  0  0
    2.8769    0.4714   15.3813 O   0  0  0  0  0  0  0  0  0  0  0  0
    2.7402   -0.1060   13.0258 C   0  0  2  0  0  0  0  0  0  0  0  0
    2.0091    0.0957   11.8075 O   0  0  0  0  0  0  0  0  0  0  0  0
    2.7828   -1.5793   13.3390 C   0  0  0  0  0  0  0  0  0  0  0  0
    3.1445   -2.2932   12.2215 N   0  0  0  0  0  0  0  0  0  0  0  0
    5.4696   -1.1252    9.2969 C   0  0  1  0  0  0  0  0  0  0  0  0
    6.5235   -1.8192    8.5049 N   0  0  0  0  0  0  0  0  0  0  0  0
    6.1369   -0.3134   10.3986 C   0  0  2  0  0  0  0  0  0  0  0  0
    6.9031   -1.1878   11.1722 O   0  0  0  0  0  0  0  0  0  0  0  0
    5.0667    0.4187   11.2684 C   0  0  1  0  0  0  0  0  0  0  0  0
    5.7195    1.2106   12.3072 O   0  0  0  0  0  0  0  0  0  0  0  0
    4.2115    1.3868   10.3535 C   0  0  1  0  0  0  0  0  0  0  0  0
    3.5242    0.5841    9.2594 C   0  0  1  0  0  0  0  0  0  0  0  0
    2.7328    1.4897    8.4403 N   0  0  0  0  0  0  0  0  0  0  0  0
    4.5871   -0.1595    8.4068 C   0  0  0  0  0  0  0  0  0  0  0  0
    7.8853   -2.1990   11.4873 C   0  0  0  0  0  0  0  0  0  0  0  0
    7.4638   -3.5118   10.8681 C   0  0  0  0  0  0  0  0  0  0  0  0
    8.4736   -4.5847   10.9788 N   0  0  0  0  0  0  0  0  0  0  0  0
    9.7037   -5.3869   10.7903 C   0  0  0  0  0  0  0  0  0  0  0  0
   10.7075   -4.2283   10.8438 C   0  0  0  0  0  0  0  0  0  0  0  0
   12.1435   -4.6825   10.5216 C   0  0  0  0  0  0  0  0  0  0  0  0
   12.3427   -4.8480    9.0182 C   0  0  0  0  0  0  0  0  0  0  0  0
   12.3361   -3.5459    8.3664 N   0  0  0  0  0  0  0  0  0  0  0  0
    5.6215   -3.0087    4.4001 N   0  0  0  0  0  0  0  0  0  0  0  0
    7.4504   -0.6760    7.5146 C   0  0  0  0  0  0  0  0  0  0  0  0
    7.4324    0.3924    7.3655 O   0  0  0  0  0  0  0  0  0  0  0  0
    8.2045   -1.8841    7.0151 C   0  0  2  0  0  0  0  0  0  0  0  0
    9.5099   -1.5727    6.7305 O   0  0  0  0  0  0  0  0  0  0  0  0
    7.5540   -2.2985    5.6999 C   0  0  0  0  0  0  0  0  0  0  0  0
    6.1135   -2.8364    5.7746 C   0  0  0  0  0  0  0  0  0  0  0  0
  1  2  1  1  0  0  0
  1  3  1  0  0  0  0
  3  4  1  6  0  0  0
  3  5  1  0  0  0  0
  5  6  1  1  0  0  0
  5  7  1  0  0  0  0
  7  8  1  1  0  0  0
  9  7  1  0  0  0  0
  9 10  1  0  0  0  0
  9 11  1  1  0  0  0
 10  1  1  0  0  0  0
 11 12  1  0  0  0  0
 13 14  1  6  0  0  0
 13 15  1  0  0  0  0
 13 22  1  0  0  0  0
 14 32  1  0  0  0  0
 15 16  1  1  0  0  0
 15 17  1  0  0  0  0
 16 23  1  0  0  0  0
 17 18  1  1  0  0  0
 17 19  1  0  0  0  0
 19  2  1  1  0  0  0
 19 20  1  0  0  0  0
 20 21  1  6  0  0  0
 20 22  1  0  0  0  0
 23 24  1  0  0  0  0
 24 25  1  0  0  0  0
 25 26  1  0  0  0  0
 26 27  1  0  0  0  0
 27 28  1  0  0  0  0
 28 29  1  0  0  0  0
 29 30  1  0  0  0  0
 31 37  1  0  0  0  0
 32 33  2  0  0  0  0
 34 32  1  6  0  0  0
 34 35  1  0  0  0  0
 34 36  1  0  0  0  0
 36 37  1  0  0  0  0
M  END
>  <CHROM.1>
166.52838320,170.65672712,-70.98584098,53.65623879,-65.28552834,-85.89747111
172.76423930,-69.40083648,43.08779577,-173.72513285,78.79772920,70.12257238
-147.56150868,-66.89156550,172.77393951,5.69003394,-0.85628477,10.36114250
2.76173512,-0.62725983,1.68347478

>  <Name>
1o9m_lig

>  <RI>
0

>  <Rbt.Current_Directory>
/home/itssahil/PROJECTS/Mol_Feturizer/New_Systems/rnas/1o9m

>  <Rbt.Executable>
rbdock ($Id: //depot/dev/client3/rdock/2013.1/src/exe/rbdock.cxx#4 $)

>  <Rbt.Library>
libRbt.so (2013.1, Build901 2013/11/27)

>  <Rbt.Parameter_File>
/export/apps/rDock/src/rDock_2013.1_src/data/scripts/dock_solv.prm

>  <Rbt.Receptor>
prm/blind_docking_60.prm

>  <SCORE>
-11.4879

>  <SCORE.INTER>
-7.18914

>  <SCORE.INTER.CONST>
1

>  <SCORE.INTER.POLAR>
-1.67369

>  <SCORE.INTER.ROT>
15

>  <SCORE.INTER.SOLV>
14.417

>  <SCORE.INTER.VDW>
-17.6194

>  <SCORE.INTER.norm>
-0.194301

>  <SCORE.INTRA>
-4.41461

>  <SCORE.INTRA.DIHEDRAL>
-12.5061

>  <SCORE.INTRA.DIHEDRAL.0>
21.5987

>  <SCORE.INTRA.POLAR>
0

>  <SCORE.INTRA.POLAR.0>
0

>  <SCORE.INTRA.REPUL>
0

>  <SCORE.INTRA.REPUL.0>
0

>  <SCORE.INTRA.SOLV>
4.08536

>  <SCORE.INTRA.SOLV.lig_0>
-108.715

>  <SCORE.INTRA.VDW>
-0.204244

>  <SCORE.INTRA.VDW.0>
-3.9485

>  <SCORE.INTRA.norm>
-0.119314

>  <SCORE.RESTR>
0.11587

>  <SCORE.RESTR.CAVITY>
0.11587

>  <SCORE.RESTR.norm>
0.00313163

>  <SCORE.SYSTEM>
0

>  <SCORE.SYSTEM.CONST>
0

>  <SCORE.SYSTEM.DIHEDRAL>
0

>  <SCORE.SYSTEM.SOLV>
0

>  <SCORE.SYSTEM.norm>
0

>  <SCORE.heavy>
37

>  <SCORE.norm>
-0.310483

>  <RMSD>
23.720

$$$$
1o9m_lig
 OpenBabel11021811403D
libRbt.so/2013.1/901 2013/11/27
 37 38  0  0  0  0  0  0  0  0999 V2000
    2.7572    0.8873   11.8907 C   0  0  2  0  0  0  0  0  0  0  0  0
    4.0996    1.3702   12.2024 O   0  0  0  0  0  0  0  0  0  0  0  0
    1.7896    2.1134   12.0775 C   0  0  2  0  0  0  0  0  0  0  0  0
    2.1508    3.2453   11.2060 N   0  0  0  0  0  0  0  0  0  0  0  0
    1.7985    2.5501   13.5917 C   0  0  1  0  0  0  0  0  0  0  0  0
    0.9234    3.6642   13.7879 O   0  0  0  0  0  0  0  0  0  0  0  0
    1.3852    1.3137   14.4565 C   0  0  2  0  0  0  0  0  0  0  0  0
    1.3765    1.5964   15.8654 O   0  0  0  0  0  0  0  0  0  0  0  0
    2.3356    0.1200   14.1919 C   0  0  2  0  0  0  0  0  0  0  0  0
    2.3740   -0.2034   12.7942 O   0  0  0  0  0  0  0  0  0  0  0  0
    1.9252   -1.1026   14.9713 C   0  0  0  0  0  0  0  0  0  0  0  0
    2.6766   -2.1871   14.5860 N   0  0  0  0  0  0  0  0  0  0  0  0
    8.0156    0.4765   10.5633 C   0  0  1  0  0  0  0  0  0  0  0  0
    9.2305   -0.2963   10.1808 N   0  0  0  0  0  0  0  0  0  0  0  0
    6.8027   -0.1473    9.8863 C   0  0  2  0  0  0  0  0  0  0  0  0
    7.0310   -0.1439    8.5086 O   0  0  0  0  0  0  0  0  0  0  0  0
    5.5049    0.6432   10.2447 C   0  0  1  0  0  0  0  0  0  0  0  0
    4.3465    0.0229    9.6076 O   0  0  0  0  0  0  0  0  0  0  0  0
    5.2907    0.6283   11.8131 C   0  0  1  0  0  0  0  0  0  0  0  0
    6.4884    1.2665   12.5001 C   0  0  1  0  0  0  0  0  0  0  0  0
    6.2646    1.2560   13.9380 N   0  0  0  0  0  0  0  0  0  0  0  0
    7.7815    0.4925   12.1281 C   0  0  0  0  0  0  0  0  0  0  0  0
    7.6129   -0.5129    7.2391 C   0  0  0  0  0  0  0  0  0  0  0  0
    7.1990   -1.9251    6.8940 C   0  0  0  0  0  0  0  0  0  0  0  0
    5.7369   -2.1325    6.8474 N   0  0  0  0  0  0  0  0  0  0  0  0
    4.3120   -2.2146    7.2416 C   0  0  0  0  0  0  0  0  0  0  0  0
    3.7068   -1.9741    5.8528 C   0  0  0  0  0  0  0  0  0  0  0  0
    2.2064   -1.6327    5.9192 C   0  0  0  0  0  0  0  0  0  0  0  0
    1.3892   -2.8365    6.3778 C   0  0  0  0  0  0  0  0  0  0  0  0
    1.5050   -3.9179    5.4096 N   0  0  0  0  0  0  0  0  0  0  0  0
   12.2125   -2.0996    7.5064 N   0  0  0  0  0  0  0  0  0  0  0  0
   10.7106    0.4919   10.7592 C   0  0  0  0  0  0  0  0  0  0  0  0
   10.9278    1.3841   11.3257 O   0  0  0  0  0  0  0  0  0  0  0  0
   11.4494   -0.6369   10.0828 C   0  0  2  0  0  0  0  0  0  0  0  0
   12.4735   -1.1019   10.8682 O   0  0  0  0  0  0  0  0  0  0  0  0
   12.0875   -0.0568    8.8254 C   0  0  0  0  0  0  0  0  0  0  0  0
   13.0189   -0.9853    8.0253 C   0  0  0  0  0  0  0  0  0  0  0  0
  1  2  1  1  0  0  0
  1  3  1  0  0  0  0
  3  4  1  6  0  0  0
  3  5  1  0  0  0  0
  5  6  1  6  0  0  0
  5  7  1  0  0  0  0
  7  8  1  1  0  0  0
  9  7  1  0  0  0  0
  9 10  1  0  0  0  0
  9 11  1  1  0  0  0
 10  1  1  0  0  0  0
 11 12  1  0  0  0  0
 13 14  1  1  0  0  0
 13 15  1  0  0  0  0
 13 22  1  0  0  0  0
 14 32  1  0  0  0  0
 15 16  1  6  0  0  0
 15 17  1  0  0  0  0
 16 23  1  0  0  0  0
 17 18  1  6  0  0  0
 17 19  1  0  0  0  0
 19  2  1  6  0  0  0
 19 20  1  0  0  0  0
 20 21  1  1  0  0  0
 20 22  1  0  0  0  0
 23 24  1  0  0  0  0
 24 25  1  0  0  0  0
 25 26  1  0  0  0  0
 26 27  1  0  0  0  0
 27 28  1  0  0  0  0
 28 29  1  0  0  0  0
 29 30  1  0  0  0  0
 31 37  1  0  0  0  0
 32 33  2  0  0  0  0
 34 32  1  1  0  0  0
 34 35  1  0  0  0  0
 34 36  1  0  0  0  0
 36 37  1  0  0  0  0
M  END
>  <CHROM.1>
-163.80824325,172.18824203,172.62663295,70.99771566,67.89094646,69.29953220
56.95658727,-61.17540346,153.84977576,-165.34287245,-68.13806591,-63.24844221
-137.39585062,174.18572116,64.39695028,5.63658182,-0.06406818,10.55489153
-2.64212755,-0.03386429,-2.02141003

>  <Name>
1o9m_lig

>  <RI>
0

>  <Rbt.Current_Directory>
/home/itssahil/PROJECTS/Mol_Feturizer/New_Systems/rnas/1o9m

>  <Rbt.Executable>
rbdock ($Id: //depot/dev/client3/rdock/2013.1/src/exe/rbdock.cxx#4 $)

>  <Rbt.Library>
libRbt.so (2013.1, Build901 2013/11/27)

>  <Rbt.Parameter_File>
/export/apps/rDock/src/rDock_2013.1_src/data/scripts/dock_solv.prm

>  <Rbt.Receptor>
prm/blind_docking_60.prm

>  <SCORE>
-13.6007

>  <SCORE.INTER>
-7.01989

>  <SCORE.INTER.CONST>
1

>  <SCORE.INTER.POLAR>
-1.4519

>  <SCORE.INTER.ROT>
15

>  <SCORE.INTER.SOLV>
24.0241

>  <SCORE.INTER.VDW>
-21.4483

>  <SCORE.INTER.norm>
-0.189727

>  <SCORE.INTRA>
-6.68095

>  <SCORE.INTRA.DIHEDRAL>
-14.7474

>  <SCORE.INTRA.DIHEDRAL.0>
21.5987

>  <SCORE.INTRA.POLAR>
0

>  <SCORE.INTRA.POLAR.0>
0

>  <SCORE.INTRA.REPUL>
0

>  <SCORE.INTRA.REPUL.0>
0

>  <SCORE.INTRA.SOLV>
1.93013

>  <SCORE.INTRA.SOLV.lig_0>
-108.715

>  <SCORE.INTRA.VDW>
-0.272303

>  <SCORE.INTRA.VDW.0>
-3.9485

>  <SCORE.INTRA.norm>
-0.180566

>  <SCORE.RESTR>
0.100098

>  <SCORE.RESTR.CAVITY>
0.100098

>  <SCORE.RESTR.norm>
0.00270536

>  <SCORE.SYSTEM>
0

>  <SCORE.SYSTEM.CONST>
0

>  <SCORE.SYSTEM.DIHEDRAL>
0

>  <SCORE.SYSTEM.SOLV>
0

>  <SCORE.SYSTEM.norm>
0

>  <SCORE.heavy>
37

>  <SCORE.norm>
-0.367587

>  <RMSD>
23.726

$$$$
1o9m_lig
 OpenBabel11021811403D
libRbt.so/2013.1/901 2013/11/27
 37 38  0  0  0  0  0  0  0  0999 V2000
    1.6988    0.4257   12.9487 C   0  0  2  0  0  0  0  0  0  0  0  0
    3.0594   -0.0700   13.1367 O   0  0  0  0  0  0  0  0  0  0  0  0
    1.8277    1.9520   12.5906 C   0  0  2  0  0  0  0  0  0  0  0  0
    2.6342    2.1729   11.3775 N   0  0  0  0  0  0  0  0  0  0  0  0
    2.4478    2.7185   13.8202 C   0  0  1  0  0  0  0  0  0  0  0  0
    2.5737    4.1111   13.5195 O   0  0  0  0  0  0  0  0  0  0  0  0
    1.5340    2.4620   15.0638 C   0  0  2  0  0  0  0  0  0  0  0  0
    2.0185    3.1053   16.2539 O   0  0  0  0  0  0  0  0  0  0  0  0
    1.3966    0.9438   15.3366 C   0  0  2  0  0  0  0  0  0  0  0  0
    0.9099    0.2571   14.1743 O   0  0  0  0  0  0  0  0  0  0  0  0
    0.4753    0.6671   16.4965 C   0  0  0  0  0  0  0  0  0  0  0  0
    1.0612    1.0642   17.6748 N   0  0  0  0  0  0  0  0  0  0  0  0
    6.4034   -1.5720   10.8167 C   0  0  1  0  0  0  0  0  0  0  0  0
    7.2881   -1.8439    9.6493 N   0  0  0  0  0  0  0  0  0  0  0  0
    6.2910   -0.0656   11.0081 C   0  0  2  0  0  0  0  0  0  0  0  0
    7.5803    0.4427   11.1800 O   0  0  0  0  0  0  0  0  0  0  0  0
    5.3854    0.2674   12.2355 C   0  0  1  0  0  0  0  0  0  0  0  0
    5.2677    1.7142   12.3955 O   0  0  0  0  0  0  0  0  0  0  0  0
    3.9404   -0.3378   12.0084 C   0  0  1  0  0  0  0  0  0  0  0  0
    4.0377   -1.8458   11.8346 C   0  0  1  0  0  0  0  0  0  0  0  0
    2.6990   -2.3829   11.6423 N   0  0  0  0  0  0  0  0  0  0  0  0
    4.9539   -2.1774   10.6263 C   0  0  0  0  0  0  0  0  0  0  0  0
    8.7835    0.8599   11.8617 C   0  0  0  0  0  0  0  0  0  0  0  0
    9.2599   -0.2589   12.7593 C   0  0  0  0  0  0  0  0  0  0  0  0
   10.1021   -1.2638   12.0783 N   0  0  0  0  0  0  0  0  0  0  0  0
   11.1175   -1.8905   11.2016 C   0  0  0  0  0  0  0  0  0  0  0  0
   10.2616   -1.9709    9.9312 C   0  0  0  0  0  0  0  0  0  0  0  0
   10.4005   -3.3283    9.2168 C   0  0  0  0  0  0  0  0  0  0  0  0
    9.6285   -4.4182    9.9539 C   0  0  0  0  0  0  0  0  0  0  0  0
   10.3472   -4.8137   11.1569 N   0  0  0  0  0  0  0  0  0  0  0  0
    8.5041   -3.2253    4.8148 N   0  0  0  0  0  0  0  0  0  0  0  0
    6.8283   -0.8645    8.2436 C   0  0  0  0  0  0  0  0  0  0  0  0
    6.0724   -0.1201    8.0475 O   0  0  0  0  0  0  0  0  0  0  0  0
    7.9454   -1.5735    7.5176 C   0  0  2  0  0  0  0  0  0  0  0  0
    8.4081   -0.8250    6.4651 O   0  0  0  0  0  0  0  0  0  0  0  0
    7.3498   -2.8457    6.9248 C   0  0  0  0  0  0  0  0  0  0  0  0
    8.3118   -3.7762    6.1641 C   0  0  0  0  0  0  0  0  0  0  0  0
  1  2  1  1  0  0  0
  1  3  1  0  0  0  0
  3  4  1  6  0  0  0
  3  5  1  0  0  0  0
  5  6  1  6  0  0  0
  5  7  1  0  0  0  0
  7  8  1  1  0  0  0
  9  7  1  0  0  0  0
  9 10  1  0  0  0  0
  9 11  1  1  0  0  0
 10  1  1  0  0  0  0
 11 12  1  0  0  0  0
 13 14  1  6  0  0  0
 13 15  1  0  0  0  0
 13 22  1  0  0  0  0
 14 32  1  0  0  0  0
 15 16  1  1  0  0  0
 15 17  1  0  0  0  0
 16 23  1  0  0  0  0
 17 18  1  6  0  0  0
 17 19  1  0  0  0  0
 19  2  1  1  0  0  0
 19 20  1  0  0  0  0
 20 21  1  6  0  0  0
 20 22  1  0  0  0  0
 23 24  1  0  0  0  0
 24 25  1  0  0  0  0
 25 26  1  0  0  0  0
 26 27  1  0  0  0  0
 27 28  1  0  0  0  0
 28 29  1  0  0  0  0
 29 30  1  0  0  0  0
 31 37  1  0  0  0  0
 32 33  2  0  0  0  0
 34 32  1  6  0  0  0
 34 35  1  0  0  0  0
 34 36  1  0  0  0  0
 36 37  1  0  0  0  0
M  END
>  <CHROM.1>
-76.08653227,-70.00826621,-48.45926692,-89.49512145,51.62552018,133.55070707
85.08387100,40.87020675,-85.41416943,-136.03429598,75.42418369,-75.25487942
-155.66686327,-178.09571880,-80.05109142,5.64069842,-0.46254863,11.41716964
2.39431912,-0.30818337,1.29716100

>  <Name>
1o9m_lig

>  <RI>
0

>  <Rbt.Current_Directory>
/home/itssahil/PROJECTS/Mol_Feturizer/New_Systems/rnas/1o9m

>  <Rbt.Executable>
rbdock ($Id: //depot/dev/client3/rdock/2013.1/src/exe/rbdock.cxx#4 $)

>  <Rbt.Library>
libRbt.so (2013.1, Build901 2013/11/27)

>  <Rbt.Parameter_File>
/export/apps/rDock/src/rDock_2013.1_src/data/scripts/dock_solv.prm

>  <Rbt.Receptor>
prm/blind_docking_40.prm

>  <SCORE>
-2.44626

>  <SCORE.INTER>
-5.67353

>  <SCORE.INTER.CONST>
1

>  <SCORE.INTER.POLAR>
-1.83303

>  <SCORE.INTER.ROT>
15

>  <SCORE.INTER.SOLV>
16.7694

>  <SCORE.INTER.VDW>
-16.8621

>  <SCORE.INTER.norm>
-0.153339

>  <SCORE.INTRA>
3.21662

>  <SCORE.INTRA.DIHEDRAL>
2.38029

>  <SCORE.INTRA.DIHEDRAL.0>
21.5987

>  <SCORE.INTRA.POLAR>
0

>  <SCORE.INTRA.POLAR.0>
0

>  <SCORE.INTRA.REPUL>
0

>  <SCORE.INTRA.REPUL.0>
0

>  <SCORE.INTRA.SOLV>
8.82112

>  <SCORE.INTRA.SOLV.lig_0>
-108.715

>  <SCORE.INTRA.VDW>
-2.38409

>  <SCORE.INTRA.VDW.0>
-3.9485

>  <SCORE.INTRA.norm>
0.0869356

>  <SCORE.RESTR>
0.0106532

>  <SCORE.RESTR.CAVITY>
0.0106532

>  <SCORE.RESTR.norm>
0.000287924

>  <SCORE.SYSTEM>
0

>  <SCORE.SYSTEM.CONST>
0

>  <SCORE.SYSTEM.DIHEDRAL>
0

>  <SCORE.SYSTEM.SOLV>
0

>  <SCORE.SYSTEM.norm>
0

>  <SCORE.heavy>
37

>  <SCORE.norm>
-0.0661151

>  <RMSD>
23.729

$$$$
1o9m_lig
 OpenBabel11021811403D
libRbt.so/2013.1/901 2013/11/27
 37 38  0  0  0  0  0  0  0  0999 V2000
    6.6100   -1.2001   11.7123 C   0  0  2  0  0  0  0  0  0  0  0  0
    5.5692   -0.3433   11.1511 O   0  0  0  0  0  0  0  0  0  0  0  0
    7.3192   -0.3591   12.8367 C   0  0  2  0  0  0  0  0  0  0  0  0
    6.3789    0.0726   13.8857 N   0  0  0  0  0  0  0  0  0  0  0  0
    8.0300    0.8841   12.1785 C   0  0  1  0  0  0  0  0  0  0  0  0
    8.6848    1.6650   13.1819 O   0  0  0  0  0  0  0  0  0  0  0  0
    9.0274    0.3562   11.0950 C   0  0  2  0  0  0  0  0  0  0  0  0
    9.7229    1.4139   10.4149 O   0  0  0  0  0  0  0  0  0  0  0  0
    8.2867   -0.5102   10.0467 C   0  0  2  0  0  0  0  0  0  0  0  0
    7.5787   -1.5858   10.6801 O   0  0  0  0  0  0  0  0  0  0  0  0
    9.2350   -1.0777    9.0224 C   0  0  0  0  0  0  0  0  0  0  0  0
   10.1469   -1.9095    9.6274 N   0  0  0  0  0  0  0  0  0  0  0  0
    2.7839   -3.1986    9.4452 C   0  0  1  0  0  0  0  0  0  0  0  0
    1.6294   -3.7397    8.6745 N   0  0  0  0  0  0  0  0  0  0  0  0
    3.7010   -2.4442    8.4921 C   0  0  2  0  0  0  0  0  0  0  0  0
    4.0934   -3.3277    7.4844 O   0  0  0  0  0  0  0  0  0  0  0  0
    4.9381   -1.8734    9.2547 C   0  0  1  0  0  0  0  0  0  0  0  0
    5.7983   -1.1341    8.3349 O   0  0  0  0  0  0  0  0  0  0  0  0
    4.4507   -0.8904   10.3957 C   0  0  1  0  0  0  0  0  0  0  0  0
    3.5482   -1.6378   11.3654 C   0  0  1  0  0  0  0  0  0  0  0  0
    3.1242   -0.7209   12.4129 N   0  0  0  0  0  0  0  0  0  0  0  0
    2.3283   -2.2221   10.6039 C   0  0  0  0  0  0  0  0  0  0  0  0
    4.7703   -3.8065    6.3015 C   0  0  0  0  0  0  0  0  0  0  0  0
    6.2386   -3.4602    6.3944 C   0  0  0  0  0  0  0  0  0  0  0  0
    6.8824   -3.8874    7.6538 N   0  0  0  0  0  0  0  0  0  0  0  0
    7.8758   -4.0747    8.7356 C   0  0  0  0  0  0  0  0  0  0  0  0
    7.0178   -4.9667    9.6419 C   0  0  0  0  0  0  0  0  0  0  0  0
    7.8355   -5.6006   10.7828 C   0  0  0  0  0  0  0  0  0  0  0  0
    8.1173   -4.5853   11.8861 C   0  0  0  0  0  0  0  0  0  0  0  0
    8.8023   -5.2311   12.9970 N   0  0  0  0  0  0  0  0  0  0  0  0
   -2.4982   -5.4899    7.4536 N   0  0  0  0  0  0  0  0  0  0  0  0
    0.8363   -2.4739    7.7178 C   0  0  0  0  0  0  0  0  0  0  0  0
    1.0035   -1.4197    7.5605 O   0  0  0  0  0  0  0  0  0  0  0  0
   -0.1287   -3.5516    7.2878 C   0  0  2  0  0  0  0  0  0  0  0  0
   -0.7929   -3.1957    6.1414 O   0  0  0  0  0  0  0  0  0  0  0  0
   -1.1790   -3.6686    8.3868 C   0  0  0  0  0  0  0  0  0  0  0  0
   -1.7565   -5.0708    8.6517 C   0  0  0  0  0  0  0  0  0  0  0  0
  1  2  1  6  0  0  0
  1  3  1  0  0  0  0
  3  4  1  1  0  0  0
  3  5  1  0  0  0  0
  5  6  1  1  0  0  0
  5  7  1  0  0  0  0
  7  8  1  6  0  0  0
  9  7  1  0  0  0  0
  9 10  1  0  0  0  0
  9 11  1  6  0  0  0
 10  1  1  0  0  0  0
 11 12  1  0  0  0  0
 13 14  1  6  0  0  0
 13 15  1  0  0  0  0
 13 22  1  0  0  0  0
 14 32  1  0  0  0  0
 15 16  1  6  0  0  0
 15 17  1  0  0  0  0
 16 23  1  0  0  0  0
 17 18  1  6  0  0  0
 17 19  1  0  0  0  0
 19  2  1  1  0  0  0
 19 20  1  0  0  0  0
 20 21  1  1  0  0  0
 20 22  1  0  0  0  0
 23 24  1  0  0  0  0
 24 25  1  0  0  0  0
 25 26  1  0  0  0  0
 26 27  1  0  0  0  0
 27 28  1  0  0  0  0
 28 29  1  0  0  0  0
 29 30  1  0  0  0  0
 31 37  1  0  0  0  0
 32 33  2  0  0  0  0
 34 32  1  1  0  0  0
 34 35  1  0  0  0  0
 34 36  1  0  0  0  0
 36 37  1  0  0  0  0
M  END
>  <CHROM.1>
-160.57726874,62.33615292,-52.17061287,-177.86714375,49.23834052,-50.53126775
51.80931751,-173.04150722,-178.59431454,168.94668419,76.60929835,175.73196339
-160.73678160,-146.31015437,-65.05988870,5.04265585,-2.25809319,9.70972957
0.48174709,-0.10461113,0.71218351

>  <Name>
1o9m_lig

>  <RI>
0

>  <Rbt.Current_Directory>
/home/itssahil/PROJECTS/Mol_Feturizer/New_Systems/rnas/1o9m

>  <Rbt.Executable>
rbdock ($Id: //depot/dev/client3/rdock/2013.1/src/exe/rbdock.cxx#4 $)

>  <Rbt.Library>
libRbt.so (2013.1, Build901 2013/11/27)

>  <Rbt.Parameter_File>
/export/apps/rDock/src/rDock_2013.1_src/data/scripts/dock_solv.prm

>  <Rbt.Receptor>
prm/blind_docking_80.prm

>  <SCORE>
-13.1194

>  <SCORE.INTER>
-7.86545

>  <SCORE.INTER.CONST>
1

>  <SCORE.INTER.POLAR>
-1.36153

>  <SCORE.INTER.ROT>
15

>  <SCORE.INTER.SOLV>
19.2626

>  <SCORE.INTER.VDW>
-20.7261

>  <SCORE.INTER.norm>
-0.21258

>  <SCORE.INTRA>
-5.55314

>  <SCORE.INTRA.DIHEDRAL>
-12.3901

>  <SCORE.INTRA.DIHEDRAL.0>
21.5987

>  <SCORE.INTRA.POLAR>
0

>  <SCORE.INTRA.POLAR.0>
0

>  <SCORE.INTRA.REPUL>
0

>  <SCORE.INTRA.REPUL.0>
0

>  <SCORE.INTRA.SOLV>
7.7284

>  <SCORE.INTRA.SOLV.lig_0>
-108.715

>  <SCORE.INTRA.VDW>
-3.2223

>  <SCORE.INTRA.VDW.0>
-3.9485

>  <SCORE.INTRA.norm>
-0.150085

>  <SCORE.RESTR>
0.299164

>  <SCORE.RESTR.CAVITY>
0.299164

>  <SCORE.RESTR.norm>
0.0080855

>  <SCORE.SYSTEM>
0

>  <SCORE.SYSTEM.CONST>
0

>  <SCORE.SYSTEM.DIHEDRAL>
0

>  <SCORE.SYSTEM.SOLV>
0

>  <SCORE.SYSTEM.norm>
0

>  <SCORE.heavy>
37

>  <SCORE.norm>
-0.354579

>  <RMSD>
23.755

$$$$
1o9m_lig
 OpenBabel11021811403D
libRbt.so/2013.1/901 2013/11/27
 37 38  0  0  0  0  0  0  0  0999 V2000
    2.9943    0.8377   11.7347 C   0  0  2  0  0  0  0  0  0  0  0  0
    4.3171    1.3662   12.0557 O   0  0  0  0  0  0  0  0  0  0  0  0
    1.9638    1.9693   12.0978 C   0  0  2  0  0  0  0  0  0  0  0  0
    2.2206    3.2155   11.3547 N   0  0  0  0  0  0  0  0  0  0  0  0
    2.0088    2.2270   13.6520 C   0  0  1  0  0  0  0  0  0  0  0  0
    1.0776    3.2525   14.0082 O   0  0  0  0  0  0  0  0  0  0  0  0
    1.7059    0.8746   14.3778 C   0  0  2  0  0  0  0  0  0  0  0  0
    1.7384    0.9909   15.8097 O   0  0  0  0  0  0  0  0  0  0  0  0
    2.7143   -0.2169   13.9417 C   0  0  2  0  0  0  0  0  0  0  0  0
    2.7144   -0.3728   12.5152 O   0  0  0  0  0  0  0  0  0  0  0  0
    2.4099   -1.5454   14.5844 C   0  0  0  0  0  0  0  0  0  0  0  0
    1.2320   -2.0539   14.0913 N   0  0  0  0  0  0  0  0  0  0  0  0
    8.3476    0.5362   10.6823 C   0  0  1  0  0  0  0  0  0  0  0  0
    9.5881   -0.2222   10.3575 N   0  0  0  0  0  0  0  0  0  0  0  0
    7.1904   -0.0487    9.8840 C   0  0  2  0  0  0  0  0  0  0  0  0
    7.5246    0.0206    8.5299 O   0  0  0  0  0  0  0  0  0  0  0  0
    5.8692    0.7291   10.1793 C   0  0  1  0  0  0  0  0  0  0  0  0
    4.7632    0.1454    9.4251 O   0  0  0  0  0  0  0  0  0  0  0  0
    5.5344    0.6390   11.7238 C   0  0  1  0  0  0  0  0  0  0  0  0
    6.6757    1.2379   12.5316 C   0  0  1  0  0  0  0  0  0  0  0  0
    6.3414    1.1586   13.9456 N   0  0  0  0  0  0  0  0  0  0  0  0
    7.9933    0.4773   12.2233 C   0  0  0  0  0  0  0  0  0  0  0  0
    7.4054   -0.1645    7.1023 C   0  0  0  0  0  0  0  0  0  0  0  0
    7.2973   -1.6413    6.7996 C   0  0  0  0  0  0  0  0  0  0  0  0
    6.0545   -2.2704    7.2923 N   0  0  0  0  0  0  0  0  0  0  0  0
    4.8205   -2.5359    8.0663 C   0  0  0  0  0  0  0  0  0  0  0  0
    3.9081   -2.8685    6.8789 C   0  0  0  0  0  0  0  0  0  0  0  0
    3.3737   -1.6047    6.1793 C   0  0  0  0  0  0  0  0  0  0  0  0
    2.4964   -0.7854    7.1209 C   0  0  0  0  0  0  0  0  0  0  0  0
    2.0162    0.4106    6.4431 N   0  0  0  0  0  0  0  0  0  0  0  0
   14.5855   -1.6446    9.2624 N   0  0  0  0  0  0  0  0  0  0  0  0
   10.9733    0.8630   10.1336 C   0  0  0  0  0  0  0  0  0  0  0  0
   11.1225    1.9301   10.1889 O   0  0  0  0  0  0  0  0  0  0  0  0
   11.7665   -0.3847    9.8309 C   0  0  2  0  0  0  0  0  0  0  0  0
   12.4061   -0.8513   10.9513 O   0  0  0  0  0  0  0  0  0  0  0  0
   12.8527    0.0123    8.8372 C   0  0  0  0  0  0  0  0  0  0  0  0
   13.6843   -1.1280    8.2222 C   0  0  0  0  0  0  0  0  0  0  0  0
  1  2  1  1  0  0  0
  1  3  1  0  0  0  0
  3  4  1  6  0  0  0
  3  5  1  0  0  0  0
  5  6  1  6  0  0  0
  5  7  1  0  0  0  0
  7  8  1  1  0  0  0
  9  7  1  0  0  0  0
  9 10  1  0  0  0  0
  9 11  1  1  0  0  0
 10  1  1  0  0  0  0
 11 12  1  0  0  0  0
 13 14  1  1  0  0  0
 13 15  1  0  0  0  0
 13 22  1  0  0  0  0
 14 32  1  0  0  0  0
 15 16  1  6  0  0  0
 15 17  1  0  0  0  0
 16 23  1  0  0  0  0
 17 18  1  6  0  0  0
 17 19  1  0  0  0  0
 19  2  1  6  0  0  0
 19 20  1  0  0  0  0
 20 21  1  1  0  0  0
 20 22  1  0  0  0  0
 23 24  1  0  0  0  0
 24 25  1  0  0  0  0
 25 26  1  0  0  0  0
 26 27  1  0  0  0  0
 27 28  1  0  0  0  0
 28 29  1  0  0  0  0
 29 30  1  0  0  0  0
 31 37  1  0  0  0  0
 32 33  2  0  0  0  0
 34 32  1  1  0  0  0
 34 35  1  0  0  0  0
 34 36  1  0  0  0  0
 36 37  1  0  0  0  0
M  END
>  <CHROM.1>
-173.76779530,68.16220380,136.99790101,175.98793887,-58.56436697,75.51876463
66.73282738,-22.14911951,133.83197870,-80.91871692,-63.21164692,179.34406597
-94.82799237,-172.01445267,-72.46693478,5.98137855,0.07371838,10.62948410
-2.73641088,-0.01101790,-1.91743787

>  <Name>
1o9m_lig

>  <RI>
0

>  <Rbt.Current_Directory>
/home/itssahil/PROJECTS/Mol_Feturizer/New_Systems/rnas/1o9m

>  <Rbt.Executable>
rbdock ($Id: //depot/dev/client3/rdock/2013.1/src/exe/rbdock.cxx#4 $)

>  <Rbt.Library>
libRbt.so (2013.1, Build901 2013/11/27)

>  <Rbt.Parameter_File>
/export/apps/rDock/src/rDock_2013.1_src/data/scripts/dock_solv.prm

>  <Rbt.Receptor>
prm/blind_docking_20.prm

>  <SCORE>
-13.9292

>  <SCORE.INTER>
-8.52072

>  <SCORE.INTER.CONST>
1

>  <SCORE.INTER.POLAR>
-1.48409

>  <SCORE.INTER.ROT>
15

>  <SCORE.INTER.SOLV>
28.2136

>  <SCORE.INTER.VDW>
-23.738

>  <SCORE.INTER.norm>
-0.23029

>  <SCORE.INTRA>
-5.52109

>  <SCORE.INTRA.DIHEDRAL>
-12.9188

>  <SCORE.INTRA.DIHEDRAL.0>
21.5987

>  <SCORE.INTRA.POLAR>
0

>  <SCORE.INTRA.POLAR.0>
0

>  <SCORE.INTRA.REPUL>
0

>  <SCORE.INTRA.REPUL.0>
0

>  <SCORE.INTRA.SOLV>
3.47387

>  <SCORE.INTRA.SOLV.lig_0>
-108.715

>  <SCORE.INTRA.VDW>
-0.798633

>  <SCORE.INTRA.VDW.0>
-3.9485

>  <SCORE.INTRA.norm>
-0.149219

>  <SCORE.RESTR>
0.112598

>  <SCORE.RESTR.CAVITY>
0.112598

>  <SCORE.RESTR.norm>
0.0030432

>  <SCORE.SYSTEM>
0

>  <SCORE.SYSTEM.CONST>
0

>  <SCORE.SYSTEM.DIHEDRAL>
0

>  <SCORE.SYSTEM.SOLV>
0

>  <SCORE.SYSTEM.norm>
0

>  <SCORE.heavy>
37

>  <SCORE.norm>
-0.376465

>  <RMSD>
23.759

$$$$
1o9m_lig
 OpenBabel11021811403D
libRbt.so/2013.1/901 2013/11/27
 37 38  0  0  0  0  0  0  0  0999 V2000
    8.6078   -4.0881   10.2587 C   0  0  2  0  0  0  0  0  0  0  0  0
    8.8560   -2.9200   11.0991 O   0  0  0  0  0  0  0  0  0  0  0  0
    9.7045   -5.1498   10.6390 C   0  0  2  0  0  0  0  0  0  0  0  0
    9.6546   -5.5151   12.0656 N   0  0  0  0  0  0  0  0  0  0  0  0
   11.1245   -4.5823   10.2576 C   0  0  1  0  0  0  0  0  0  0  0  0
   12.1403   -5.5317   10.5926 O   0  0  0  0  0  0  0  0  0  0  0  0
   11.1164   -4.2381    8.7315 C   0  0  2  0  0  0  0  0  0  0  0  0
   12.3656   -3.6931    8.2763 O   0  0  0  0  0  0  0  0  0  0  0  0
    9.9837   -3.2339    8.4043 C   0  0  2  0  0  0  0  0  0  0  0  0
    8.7120   -3.7381    8.8377 O   0  0  0  0  0  0  0  0  0  0  0  0
    9.9184   -2.9287    6.9301 C   0  0  0  0  0  0  0  0  0  0  0  0
   11.0257   -2.2121    6.5430 N   0  0  0  0  0  0  0  0  0  0  0  0
    6.1955    0.2646   12.3642 C   0  0  1  0  0  0  0  0  0  0  0  0
    5.3282    1.4742   12.2979 N   0  0  0  0  0  0  0  0  0  0  0  0
    5.6404   -0.7909   11.4174 C   0  0  2  0  0  0  0  0  0  0  0  0
    4.3212   -1.0533   11.7928 O   0  0  0  0  0  0  0  0  0  0  0  0
    6.5094   -2.0871   11.4675 C   0  0  1  0  0  0  0  0  0  0  0  0
    5.9802   -3.0831   10.5399 O   0  0  0  0  0  0  0  0  0  0  0  0
    7.9976   -1.7445   11.0506 C   0  0  1  0  0  0  0  0  0  0  0  0
    8.5698   -0.7041   12.0014 C   0  0  1  0  0  0  0  0  0  0  0  0
    9.9412   -0.4152   11.6099 N   0  0  0  0  0  0  0  0  0  0  0  0
    7.6947    0.5774   11.9663 C   0  0  0  0  0  0  0  0  0  0  0  0
    2.8859   -0.9057   11.8618 C   0  0  0  0  0  0  0  0  0  0  0  0
    2.2386   -1.8925   10.9176 C   0  0  0  0  0  0  0  0  0  0  0  0
    2.6577   -1.7457    9.5085 N   0  0  0  0  0  0  0  0  0  0  0  0
    2.6271   -1.5204    8.0454 C   0  0  0  0  0  0  0  0  0  0  0  0
    1.9867   -2.8574    7.6512 C   0  0  0  0  0  0  0  0  0  0  0  0
    0.4939   -2.9240    8.0245 C   0  0  0  0  0  0  0  0  0  0  0  0
   -0.0467   -4.3427    7.8749 C   0  0  0  0  0  0  0  0  0  0  0  0
   -1.4712   -4.3695    8.1754 N   0  0  0  0  0  0  0  0  0  0  0  0
   -0.2295    2.9233   12.5040 N   0  0  0  0  0  0  0  0  0  0  0  0
    4.0324    1.4116   13.5076 C   0  0  0  0  0  0  0  0  0  0  0  0
    3.7400    0.7131   14.2762 O   0  0  0  0  0  0  0  0  0  0  0  0
    3.5776    2.7312   12.9337 C   0  0  2  0  0  0  0  0  0  0  0  0
    4.2017    3.7842   13.5531 O   0  0  0  0  0  0  0  0  0  0  0  0
    2.0898    2.8581   13.2422 C   0  0  0  0  0  0  0  0  0  0  0  0
    1.1103    2.4501   12.1269 C   0  0  0  0  0  0  0  0  0  0  0  0
  1  2  1  1  0  0  0
  1  3  1  0  0  0  0
  3  4  1  1  0  0  0
  3  5  1  0  0  0  0
  5  6  1  6  0  0  0
  5  7  1  0  0  0  0
  7  8  1  1  0  0  0
  9  7  1  0  0  0  0
  9 10  1  0  0  0  0
  9 11  1  6  0  0  0
 10  1  1  0  0  0  0
 11 12  1  0  0  0  0
 13 14  1  6  0  0  0
 13 15  1  0  0  0  0
 13 22  1  0  0  0  0
 14 32  1  0  0  0  0
 15 16  1  1  0  0  0
 15 17  1  0  0  0  0
 16 23  1  0  0  0  0
 17 18  1  6  0  0  0
 17 19  1  0  0  0  0
 19  2  1  1  0  0  0
 19 20  1  0  0  0  0
 20 21  1  6  0  0  0
 20 22  1  0  0  0  0
 23 24  1  0  0  0  0
 24 25  1  0  0  0  0
 25 26  1  0  0  0  0
 26 27  1  0  0  0  0
 27 28  1  0  0  0  0
 28 29  1  0  0  0  0
 29 30  1  0  0  0  0
 31 37  1  0  0  0  0
 32 33  2  0  0  0  0
 34 32  1  1  0  0  0
 34 35  1  0  0  0  0
 34 36  1  0  0  0  0
 36 37  1  0  0  0  0
M  END
>  <CHROM.1>
-177.89881655,-68.48545000,90.98120318,85.83792627,98.86438895,61.53131979
-58.36000846,-119.32501623,-74.04960029,72.52817327,-168.91843883,-177.48559496
-88.39167746,-97.02424205,-167.54253648,5.99057483,-1.60711025,10.62976712
0.47472900,0.13794578,-2.44795291

>  <Name>
1o9m_lig

>  <RI>
0

>  <Rbt.Current_Directory>
/home/itssahil/PROJECTS/Mol_Feturizer/New_Systems/rnas/1o9m

>  <Rbt.Executable>
rbdock ($Id: //depot/dev/client3/rdock/2013.1/src/exe/rbdock.cxx#4 $)

>  <Rbt.Library>
libRbt.so (2013.1, Build901 2013/11/27)

>  <Rbt.Parameter_File>
/export/apps/rDock/src/rDock_2013.1_src/data/scripts/dock_solv.prm

>  <Rbt.Receptor>
prm/blind_docking_20.prm

>  <SCORE>
-1.74426

>  <SCORE.INTER>
-0.152074

>  <SCORE.INTER.CONST>
1

>  <SCORE.INTER.POLAR>
-0.373361

>  <SCORE.INTER.ROT>
15

>  <SCORE.INTER.SOLV>
10.7524

>  <SCORE.INTER.VDW>
-16.041

>  <SCORE.INTER.norm>
-0.00411012

>  <SCORE.INTRA>
-2.49115

>  <SCORE.INTRA.DIHEDRAL>
-4.74406

>  <SCORE.INTRA.DIHEDRAL.0>
21.5987

>  <SCORE.INTRA.POLAR>
0

>  <SCORE.INTRA.POLAR.0>
0

>  <SCORE.INTRA.REPUL>
0

>  <SCORE.INTRA.REPUL.0>
0

>  <SCORE.INTRA.SOLV>
0.761168

>  <SCORE.INTRA.SOLV.lig_0>
-108.715

>  <SCORE.INTRA.VDW>
-0.499706

>  <SCORE.INTRA.VDW.0>
-3.9485

>  <SCORE.INTRA.norm>
-0.0673284

>  <SCORE.RESTR>
0.898968

>  <SCORE.RESTR.CAVITY>
0.898968

>  <SCORE.RESTR.norm>
0.0242964

>  <SCORE.SYSTEM>
0

>  <SCORE.SYSTEM.CONST>
0

>  <SCORE.SYSTEM.DIHEDRAL>
0

>  <SCORE.SYSTEM.SOLV>
0

>  <SCORE.SYSTEM.norm>
0

>  <SCORE.heavy>
37

>  <SCORE.norm>
-0.0471421

>  <RMSD>
23.760

$$$$
1o9m_lig
 OpenBabel11021811403D
libRbt.so/2013.1/901 2013/11/27
 37 38  0  0  0  0  0  0  0  0999 V2000
    2.8657    0.8648   11.8052 C   0  0  2  0  0  0  0  0  0  0  0  0
    4.2090    1.3544   12.1019 O   0  0  0  0  0  0  0  0  0  0  0  0
    1.8792    2.0430   12.1414 C   0  0  2  0  0  0  0  0  0  0  0  0
    2.1750    3.2567   11.3602 N   0  0  0  0  0  0  0  0  0  0  0  0
    1.9452    2.3444   13.6869 C   0  0  1  0  0  0  0  0  0  0  0  0
    1.0541    3.4128   14.0186 O   0  0  0  0  0  0  0  0  0  0  0  0
    1.5994    1.0257   14.4544 C   0  0  2  0  0  0  0  0  0  0  0  0
    1.6468    1.1826   15.8820 O   0  0  0  0  0  0  0  0  0  0  0  0
    2.5646   -0.1139   14.0443 C   0  0  2  0  0  0  0  0  0  0  0  0
    2.5484   -0.3114   12.6230 O   0  0  0  0  0  0  0  0  0  0  0  0
    2.2177   -1.4111   14.7280 C   0  0  0  0  0  0  0  0  0  0  0  0
    1.1258   -1.9893   14.1256 N   0  0  0  0  0  0  0  0  0  0  0  0
    8.1570    0.2666   10.6698 C   0  0  1  0  0  0  0  0  0  0  0  0
    9.3664   -0.5559   10.3864 N   0  0  0  0  0  0  0  0  0  0  0  0
    6.9539   -0.3799    9.9967 C   0  0  2  0  0  0  0  0  0  0  0  0
    7.2285   -0.4803    8.6312 O   0  0  0  0  0  0  0  0  0  0  0  0
    5.6628    0.4602   10.2518 C   0  0  1  0  0  0  0  0  0  0  0  0
    4.5129   -0.1810    9.6201 O   0  0  0  0  0  0  0  0  0  0  0  0
    5.3956    0.5626   11.8087 C   0  0  1  0  0  0  0  0  0  0  0  0
    6.5836    1.2245   12.4903 C   0  0  1  0  0  0  0  0  0  0  0  0
    6.3111    1.3222   13.9165 N   0  0  0  0  0  0  0  0  0  0  0  0
    7.8707    0.4001   12.2203 C   0  0  0  0  0  0  0  0  0  0  0  0
    7.5282   -0.0567    7.2831 C   0  0  0  0  0  0  0  0  0  0  0  0
    7.7383   -1.2753    6.4140 C   0  0  0  0  0  0  0  0  0  0  0  0
    6.4882   -1.8906    5.9225 N   0  0  0  0  0  0  0  0  0  0  0  0
    5.0713   -2.3054    5.8097 C   0  0  0  0  0  0  0  0  0  0  0  0
    4.7801   -2.4302    7.3105 C   0  0  0  0  0  0  0  0  0  0  0  0
    3.2955   -2.7248    7.5962 C   0  0  0  0  0  0  0  0  0  0  0  0
    2.4122   -1.5557    7.1718 C   0  0  0  0  0  0  0  0  0  0  0  0
    1.0380   -1.7884    7.5931 N   0  0  0  0  0  0  0  0  0  0  0  0
   12.2625   -2.0720    6.4212 N   0  0  0  0  0  0  0  0  0  0  0  0
   10.8300    0.4439   10.3155 C   0  0  0  0  0  0  0  0  0  0  0  0
   11.0424    1.4944   10.4397 O   0  0  0  0  0  0  0  0  0  0  0  0
   11.5616   -0.8371    9.9973 C   0  0  2  0  0  0  0  0  0  0  0  0
   12.8313   -0.8266   10.5165 O   0  0  0  0  0  0  0  0  0  0  0  0
   11.7066   -0.8983    8.4808 C   0  0  0  0  0  0  0  0  0  0  0  0
   12.2140   -2.2229    7.8827 C   0  0  0  0  0  0  0  0  0  0  0  0
  1  2  1  1  0  0  0
  1  3  1  0  0  0  0
  3  4  1  6  0  0  0
  3  5  1  0  0  0  0
  5  6  1  6  0  0  0
  5  7  1  0  0  0  0
  7  8  1  1  0  0  0
  9  7  1  0  0  0  0
  9 10  1  0  0  0  0
  9 11  1  1  0  0  0
 10  1  1  0  0  0  0
 11 12  1  0  0  0  0
 13 14  1  1  0  0  0
 13 15  1  0  0  0  0
 13 22  1  0  0  0  0
 14 32  1  0  0  0  0
 15 16  1  6  0  0  0
 15 17  1  0  0  0  0
 16 23  1  0  0  0  0
 17 18  1  6  0  0  0
 17 19  1  0  0  0  0
 19  2  1  6  0  0  0
 19 20  1  0  0  0  0
 20 21  1  1  0  0  0
 20 22  1  0  0  0  0
 23 24  1  0  0  0  0
 24 25  1  0  0  0  0
 25 26  1  0  0  0  0
 26 27  1  0  0  0  0
 27 28  1  0  0  0  0
 28 29  1  0  0  0  0
 29 30  1  0  0  0  0
 31 37  1  0  0  0  0
 32 33  2  0  0  0  0
 34 32  1  6  0  0  0
 34 35  1  0  0  0  0
 34 36  1  0  0  0  0
 36 37  1  0  0  0  0
M  END
>  <CHROM.1>
-175.04067113,76.90472870,149.04707699,-61.84096986,176.13379400,70.66959309
81.86741375,-25.45673876,-33.24578976,174.18424026,-65.24473061,-173.32373593
-146.82761856,-170.15326229,179.28117872,5.79428306,-0.11964073,10.55093936
2.58395837,0.04249119,1.13681730

>  <Name>
1o9m_lig

>  <RI>
0

>  <Rbt.Current_Directory>
/home/itssahil/PROJECTS/Mol_Feturizer/New_Systems/rnas/1o9m

>  <Rbt.Executable>
rbdock ($Id: //depot/dev/client3/rdock/2013.1/src/exe/rbdock.cxx#4 $)

>  <Rbt.Library>
libRbt.so (2013.1, Build901 2013/11/27)

>  <Rbt.Parameter_File>
/export/apps/rDock/src/rDock_2013.1_src/data/scripts/dock_solv.prm

>  <Rbt.Receptor>
prm/blind_docking_60.prm

>  <SCORE>
-14.4319

>  <SCORE.INTER>
-6.5289

>  <SCORE.INTER.CONST>
1

>  <SCORE.INTER.POLAR>
-1.49322

>  <SCORE.INTER.ROT>
15

>  <SCORE.INTER.SOLV>
22.4463

>  <SCORE.INTER.VDW>
-20.4573

>  <SCORE.INTER.norm>
-0.176457

>  <SCORE.INTRA>
-7.90299

>  <SCORE.INTRA.DIHEDRAL>
-13.6738

>  <SCORE.INTRA.DIHEDRAL.0>
21.5987

>  <SCORE.INTRA.POLAR>
0

>  <SCORE.INTRA.POLAR.0>
0

>  <SCORE.INTRA.REPUL>
0

>  <SCORE.INTRA.REPUL.0>
0

>  <SCORE.INTRA.SOLV>
0.038733

>  <SCORE.INTRA.SOLV.lig_0>
-108.715

>  <SCORE.INTRA.VDW>
-1.08545

>  <SCORE.INTRA.VDW.0>
-3.9485

>  <SCORE.INTRA.norm>
-0.213594

>  <SCORE.RESTR>
0

>  <SCORE.RESTR.CAVITY>
0

>  <SCORE.RESTR.norm>
0

>  <SCORE.SYSTEM>
0

>  <SCORE.SYSTEM.CONST>
0

>  <SCORE.SYSTEM.DIHEDRAL>
0

>  <SCORE.SYSTEM.SOLV>
0

>  <SCORE.SYSTEM.norm>
0

>  <SCORE.heavy>
37

>  <SCORE.norm>
-0.390051

>  <RMSD>
23.770

$$$$
1o9m_lig
 OpenBabel11021811403D
libRbt.so/2013.1/901 2013/11/27
 37 38  0  0  0  0  0  0  0  0999 V2000
   10.5009   -2.3009    7.3806 C   0  0  2  0  0  0  0  0  0  0  0  0
    9.8674   -3.5438    7.8121 O   0  0  0  0  0  0  0  0  0  0  0  0
   12.0353   -2.4530    7.6920 C   0  0  2  0  0  0  0  0  0  0  0  0
   12.6318   -3.6088    6.9998 N   0  0  0  0  0  0  0  0  0  0  0  0
   12.2346   -2.5724    9.2508 C   0  0  1  0  0  0  0  0  0  0  0  0
   13.6242   -2.7101    9.5603 O   0  0  0  0  0  0  0  0  0  0  0  0
   11.6020   -1.3076    9.9199 C   0  0  2  0  0  0  0  0  0  0  0  0
   11.7128   -1.3205   11.3526 O   0  0  0  0  0  0  0  0  0  0  0  0
   10.1077   -1.1760    9.5351 C   0  0  2  0  0  0  0  0  0  0  0  0
    9.9466   -1.1543    8.1092 O   0  0  0  0  0  0  0  0  0  0  0  0
    9.4885    0.0661   10.1217 C   0  0  0  0  0  0  0  0  0  0  0  0
    8.2066    0.2262    9.6522 N   0  0  0  0  0  0  0  0  0  0  0  0
    5.6371   -2.5820    7.8290 C   0  0  1  0  0  0  0  0  0  0  0  0
    4.1589   -2.7670    7.8205 N   0  0  0  0  0  0  0  0  0  0  0  0
    6.2126   -3.2771    9.0554 C   0  0  2  0  0  0  0  0  0  0  0  0
    5.5960   -2.7351   10.1850 O   0  0  0  0  0  0  0  0  0  0  0  0
    7.7619   -3.0935    9.1161 C   0  0  1  0  0  0  0  0  0  0  0  0
    8.3044   -3.7824   10.2838 O   0  0  0  0  0  0  0  0  0  0  0  0
    8.4202   -3.7063    7.8134 C   0  0  1  0  0  0  0  0  0  0  0  0
    7.8667   -3.0065    6.5814 C   0  0  1  0  0  0  0  0  0  0  0  0
    8.4951   -3.5739    5.3979 N   0  0  0  0  0  0  0  0  0  0  0  0
    6.3242   -3.1722    6.5316 C   0  0  0  0  0  0  0  0  0  0  0  0
    4.5420   -2.4049   11.1160 C   0  0  0  0  0  0  0  0  0  0  0  0
    5.0989   -1.5127   12.2015 C   0  0  0  0  0  0  0  0  0  0  0  0
    5.5963   -0.2086   11.7167 N   0  0  0  0  0  0  0  0  0  0  0  0
    5.6451    1.1604   11.1548 C   0  0  0  0  0  0  0  0  0  0  0  0
    4.2365    1.5988   11.5751 C   0  0  0  0  0  0  0  0  0  0  0  0
    4.0706    1.6463   13.1056 C   0  0  0  0  0  0  0  0  0  0  0  0
    2.5969    1.6197   13.4992 C   0  0  0  0  0  0  0  0  0  0  0  0
    2.4673    1.4935   14.9440 N   0  0  0  0  0  0  0  0  0  0  0  0
    1.8403   -0.4784    9.1830 N   0  0  0  0  0  0  0  0  0  0  0  0
    3.4285   -2.0959    6.3498 C   0  0  0  0  0  0  0  0  0  0  0  0
    3.8062   -1.6015    5.4684 O   0  0  0  0  0  0  0  0  0  0  0  0
    2.1067   -2.5263    6.9373 C   0  0  2  0  0  0  0  0  0  0  0  0
    1.4795   -3.4428    6.1319 O   0  0  0  0  0  0  0  0  0  0  0  0
    1.2157   -1.2897    6.9739 C   0  0  0  0  0  0  0  0  0  0  0  0
    1.7356   -0.0802    7.7718 C   0  0  0  0  0  0  0  0  0  0  0  0
  1  2  1  1  0  0  0
  1  3  1  0  0  0  0
  3  4  1  6  0  0  0
  3  5  1  0  0  0  0
  5  6  1  6  0  0  0
  5  7  1  0  0  0  0
  7  8  1  1  0  0  0
  9  7  1  0  0  0  0
  9 10  1  0  0  0  0
  9 11  1  1  0  0  0
 10  1  1  0  0  0  0
 11 12  1  0  0  0  0
 13 14  1  6  0  0  0
 13 15  1  0  0  0  0
 13 22  1  0  0  0  0
 14 32  1  0  0  0  0
 15 16  1  1  0  0  0
 15 17  1  0  0  0  0
 16 23  1  0  0  0  0
 17 18  1  1  0  0  0
 17 19  1  0  0  0  0
 19  2  1  1  0  0  0
 19 20  1  0  0  0  0
 20 21  1  6  0  0  0
 20 22  1  0  0  0  0
 23 24  1  0  0  0  0
 24 25  1  0  0  0  0
 25 26  1  0  0  0  0
 26 27  1  0  0  0  0
 27 28  1  0  0  0  0
 28 29  1  0  0  0  0
 29 30  1  0  0  0  0
 31 37  1  0  0  0  0
 32 33  2  0  0  0  0
 34 32  1  6  0  0  0
 34 35  1  0  0  0  0
 34 36  1  0  0  0  0
 36 37  1  0  0  0  0
M  END
>  <CHROM.1>
173.09484879,173.84304805,-175.39771446,64.60848849,-175.72850357,-82.64703323
63.07903098,68.16027918,27.31958720,64.03590311,-161.00115093,172.78895531
-118.78263516,-58.24481439,-63.53876100,6.78588492,-1.67292406,9.09784075
0.23434778,0.12526058,-2.09515487

>  <Name>
1o9m_lig

>  <RI>
0

>  <Rbt.Current_Directory>
/home/itssahil/PROJECTS/Mol_Feturizer/New_Systems/rnas/1o9m

>  <Rbt.Executable>
rbdock ($Id: //depot/dev/client3/rdock/2013.1/src/exe/rbdock.cxx#4 $)

>  <Rbt.Library>
libRbt.so (2013.1, Build901 2013/11/27)

>  <Rbt.Parameter_File>
/export/apps/rDock/src/rDock_2013.1_src/data/scripts/dock_solv.prm

>  <Rbt.Receptor>
prm/blind_docking_100.prm

>  <SCORE>
-7.54031

>  <SCORE.INTER>
-3.69324

>  <SCORE.INTER.CONST>
1

>  <SCORE.INTER.POLAR>
-0.824037

>  <SCORE.INTER.ROT>
15

>  <SCORE.INTER.SOLV>
11.2976

>  <SCORE.INTER.VDW>
-17.0813

>  <SCORE.INTER.norm>
-0.0998174

>  <SCORE.INTRA>
-3.87766

>  <SCORE.INTRA.DIHEDRAL>
-13.8626

>  <SCORE.INTRA.DIHEDRAL.0>
21.5987

>  <SCORE.INTRA.POLAR>
0

>  <SCORE.INTRA.POLAR.0>
0

>  <SCORE.INTRA.REPUL>
8.49546e-05

>  <SCORE.INTRA.REPUL.0>
0

>  <SCORE.INTRA.SOLV>
7.6453

>  <SCORE.INTRA.SOLV.lig_0>
-108.715

>  <SCORE.INTRA.VDW>
-0.769449

>  <SCORE.INTRA.VDW.0>
-3.9485

>  <SCORE.INTRA.norm>
-0.104802

>  <SCORE.RESTR>
0.0305861

>  <SCORE.RESTR.CAVITY>
0.0305861

>  <SCORE.RESTR.norm>
0.000826651

>  <SCORE.SYSTEM>
0

>  <SCORE.SYSTEM.CONST>
0

>  <SCORE.SYSTEM.DIHEDRAL>
0

>  <SCORE.SYSTEM.SOLV>
0

>  <SCORE.SYSTEM.norm>
0

>  <SCORE.heavy>
37

>  <SCORE.norm>
-0.203792

>  <RMSD>
23.781

$$$$
1o9m_lig
 OpenBabel11021811403D
libRbt.so/2013.1/901 2013/11/27
 37 38  0  0  0  0  0  0  0  0999 V2000
    3.3226   -0.2917   14.1708 C   0  0  2  0  0  0  0  0  0  0  0  0
    2.8865   -1.1703   13.0890 O   0  0  0  0  0  0  0  0  0  0  0  0
    2.7254    1.1293   13.8569 C   0  0  2  0  0  0  0  0  0  0  0  0
    1.2550    1.1073   13.7652 N   0  0  0  0  0  0  0  0  0  0  0  0
    3.3599    1.6703   12.5195 C   0  0  1  0  0  0  0  0  0  0  0  0
    2.8333    2.9642   12.2130 O   0  0  0  0  0  0  0  0  0  0  0  0
    4.9147    1.6900   12.6925 C   0  0  2  0  0  0  0  0  0  0  0  0
    5.6005    2.1538   11.5180 O   0  0  0  0  0  0  0  0  0  0  0  0
    5.4417    0.2796   13.0551 C   0  0  2  0  0  0  0  0  0  0  0  0
    4.7871   -0.2251   14.2283 O   0  0  0  0  0  0  0  0  0  0  0  0
    6.9313    0.2829   13.2825 C   0  0  0  0  0  0  0  0  0  0  0  0
    7.5963    0.2926   12.0796 N   0  0  0  0  0  0  0  0  0  0  0  0
    4.4119   -2.8115    9.3742 C   0  0  1  0  0  0  0  0  0  0  0  0
    5.1940   -2.9284    8.1115 N   0  0  0  0  0  0  0  0  0  0  0  0
    5.3801   -2.6756   10.5415 C   0  0  2  0  0  0  0  0  0  0  0  0
    6.2232   -3.7888   10.5318 O   0  0  0  0  0  0  0  0  0  0  0  0
    4.6033   -2.5684   11.8916 C   0  0  1  0  0  0  0  0  0  0  0  0
    5.5413   -2.4167   13.0005 O   0  0  0  0  0  0  0  0  0  0  0  0
    3.6499   -1.3053   11.8562 C   0  0  1  0  0  0  0  0  0  0  0  0
    2.6649   -1.4385   10.7047 C   0  0  1  0  0  0  0  0  0  0  0  0
    1.7896   -0.2760   10.6996 N   0  0  0  0  0  0  0  0  0  0  0  0
    3.4374   -1.5649    9.3644 C   0  0  0  0  0  0  0  0  0  0  0  0
    6.6206   -5.1773   10.5550 C   0  0  0  0  0  0  0  0  0  0  0  0
    8.1053   -5.2653   10.8242 C   0  0  0  0  0  0  0  0  0  0  0  0
    8.9428   -4.5610    9.8315 N   0  0  0  0  0  0  0  0  0  0  0  0
   10.0467   -3.7957    9.2085 C   0  0  0  0  0  0  0  0  0  0  0  0
    9.9031   -2.5198   10.0478 C   0  0  0  0  0  0  0  0  0  0  0  0
   10.8573   -1.4034    9.5836 C   0  0  0  0  0  0  0  0  0  0  0  0
   10.5379   -0.0837   10.2793 C   0  0  0  0  0  0  0  0  0  0  0  0
   11.3936    0.9745    9.7615 N   0  0  0  0  0  0  0  0  0  0  0  0
    2.6002   -3.9441    4.9884 N   0  0  0  0  0  0  0  0  0  0  0  0
    4.3395   -2.1840    6.7468 C   0  0  0  0  0  0  0  0  0  0  0  0
    3.4018   -1.6641    6.6266 O   0  0  0  0  0  0  0  0  0  0  0  0
    5.5072   -2.6380    5.9055 C   0  0  2  0  0  0  0  0  0  0  0  0
    6.2545   -1.5711    5.4750 O   0  0  0  0  0  0  0  0  0  0  0  0
    4.9248   -3.2983    4.6607 C   0  0  0  0  0  0  0  0  0  0  0  0
    3.9648   -4.4808    4.8842 C   0  0  0  0  0  0  0  0  0  0  0  0
  1  2  1  6  0  0  0
  1  3  1  0  0  0  0
  3  4  1  6  0  0  0
  3  5  1  0  0  0  0
  5  6  1  1  0  0  0
  5  7  1  0  0  0  0
  7  8  1  6  0  0  0
  9  7  1  0  0  0  0
  9 10  1  0  0  0  0
  9 11  1  1  0  0  0
 10  1  1  0  0  0  0
 11 12  1  0  0  0  0
 13 14  1  6  0  0  0
 13 15  1  0  0  0  0
 13 22  1  0  0  0  0
 14 32  1  0  0  0  0
 15 16  1  1  0  0  0
 15 17  1  0  0  0  0
 16 23  1  0  0  0  0
 17 18  1  1  0  0  0
 17 19  1  0  0  0  0
 19  2  1  1  0  0  0
 19 20  1  0  0  0  0
 20 21  1  6  0  0  0
 20 22  1  0  0  0  0
 23 24  1  0  0  0  0
 24 25  1  0  0  0  0
 25 26  1  0  0  0  0
 26 27  1  0  0  0  0
 27 28  1  0  0  0  0
 28 29  1  0  0  0  0
 29 30  1  0  0  0  0
 31 37  1  0  0  0  0
 32 33  2  0  0  0  0
 34 32  1  1  0  0  0
 34 35  1  0  0  0  0
 34 36  1  0  0  0  0
 36 37  1  0  0  0  0
M  END
>  <CHROM.1>
87.55262314,-78.43392252,-147.20945799,-57.45503771,-165.98240242,96.43596228
-58.69138627,148.03617977,-60.93961670,-175.21083143,170.77142644,-176.30041015
-110.84048010,-57.11189411,89.93194723,5.46636690,-1.43449975,10.32657977
1.95771749,-0.14895925,1.03761380

>  <Name>
1o9m_lig

>  <RI>
0

>  <Rbt.Current_Directory>
/home/itssahil/PROJECTS/Mol_Feturizer/New_Systems/rnas/1o9m

>  <Rbt.Executable>
rbdock ($Id: //depot/dev/client3/rdock/2013.1/src/exe/rbdock.cxx#4 $)

>  <Rbt.Library>
libRbt.so (2013.1, Build901 2013/11/27)

>  <Rbt.Parameter_File>
/export/apps/rDock/src/rDock_2013.1_src/data/scripts/dock_solv.prm

>  <Rbt.Receptor>
prm/blind_docking_60.prm

>  <SCORE>
-2.03629

>  <SCORE.INTER>
-7.98818

>  <SCORE.INTER.CONST>
1

>  <SCORE.INTER.POLAR>
-1.56936

>  <SCORE.INTER.ROT>
15

>  <SCORE.INTER.SOLV>
16.9336

>  <SCORE.INTER.VDW>
-19.3388

>  <SCORE.INTER.norm>
-0.215897

>  <SCORE.INTRA>
5.2708

>  <SCORE.INTRA.DIHEDRAL>
-4.70314

>  <SCORE.INTRA.DIHEDRAL.0>
21.5987

>  <SCORE.INTRA.POLAR>
0

>  <SCORE.INTRA.POLAR.0>
0

>  <SCORE.INTRA.REPUL>
0.0472213

>  <SCORE.INTRA.REPUL.0>
0

>  <SCORE.INTRA.SOLV>
9.29809

>  <SCORE.INTRA.SOLV.lig_0>
-108.715

>  <SCORE.INTRA.VDW>
2.73722

>  <SCORE.INTRA.VDW.0>
-3.9485

>  <SCORE.INTRA.norm>
0.142454

>  <SCORE.RESTR>
0.681085

>  <SCORE.RESTR.CAVITY>
0.681085

>  <SCORE.RESTR.norm>
0.0184077

>  <SCORE.SYSTEM>
0

>  <SCORE.SYSTEM.CONST>
0

>  <SCORE.SYSTEM.DIHEDRAL>
0

>  <SCORE.SYSTEM.SOLV>
0

>  <SCORE.SYSTEM.norm>
0

>  <SCORE.heavy>
37

>  <SCORE.norm>
-0.0550348

>  <RMSD>
23.783

$$$$
1o9m_lig
 OpenBabel11021811403D
libRbt.so/2013.1/901 2013/11/27
 37 38  0  0  0  0  0  0  0  0999 V2000
    9.2502   -3.3865   10.1259 C   0  0  2  0  0  0  0  0  0  0  0  0
    8.0408   -2.7766   10.6715 O   0  0  0  0  0  0  0  0  0  0  0  0
   10.0007   -4.0476   11.3401 C   0  0  2  0  0  0  0  0  0  0  0  0
    9.1724   -5.0561   12.0241 N   0  0  0  0  0  0  0  0  0  0  0  0
   10.4486   -2.9189   12.3446 C   0  0  1  0  0  0  0  0  0  0  0  0
   11.1360   -3.4956   13.4584 O   0  0  0  0  0  0  0  0  0  0  0  0
   11.3403   -1.8985   11.5629 C   0  0  2  0  0  0  0  0  0  0  0  0
   11.7934   -0.8102   12.3846 O   0  0  0  0  0  0  0  0  0  0  0  0
   10.5728   -1.3217   10.3477 C   0  0  2  0  0  0  0  0  0  0  0  0
   10.1031   -2.3743    9.4928 O   0  0  0  0  0  0  0  0  0  0  0  0
   11.4296   -0.3775    9.5446 C   0  0  0  0  0  0  0  0  0  0  0  0
   12.3995   -1.0757    8.8655 N   0  0  0  0  0  0  0  0  0  0  0  0
    4.3482   -1.3538    8.8937 C   0  0  1  0  0  0  0  0  0  0  0  0
    3.0732   -1.3557    8.1229 N   0  0  0  0  0  0  0  0  0  0  0  0
    4.2482   -2.3823   10.0120 C   0  0  2  0  0  0  0  0  0  0  0  0
    3.1427   -2.0541   10.7996 O   0  0  0  0  0  0  0  0  0  0  0  0
    5.5588   -2.4024   10.8603 C   0  0  1  0  0  0  0  0  0  0  0  0
    5.4593   -3.4072   11.9153 O   0  0  0  0  0  0  0  0  0  0  0  0
    6.7876   -2.7628    9.9297 C   0  0  1  0  0  0  0  0  0  0  0  0
    6.9093   -1.7310    8.8187 C   0  0  1  0  0  0  0  0  0  0  0  0
    8.0522   -2.0722    7.9851 N   0  0  0  0  0  0  0  0  0  0  0  0
    5.5990   -1.6970    7.9874 C   0  0  0  0  0  0  0  0  0  0  0  0
    2.3297   -1.3174   11.7392 C   0  0  0  0  0  0  0  0  0  0  0  0
    2.9630   -1.3912   13.1096 C   0  0  0  0  0  0  0  0  0  0  0  0
    4.0283   -0.3933   13.3381 N   0  0  0  0  0  0  0  0  0  0  0  0
    5.3123    0.3401   13.2607 C   0  0  0  0  0  0  0  0  0  0  0  0
    5.2626    0.6714   11.7638 C   0  0  0  0  0  0  0  0  0  0  0  0
    6.5848    1.2745   11.2535 C   0  0  0  0  0  0  0  0  0  0  0  0
    6.5524    1.4678    9.7406 C   0  0  0  0  0  0  0  0  0  0  0  0
    7.8757    1.8320    9.2545 N   0  0  0  0  0  0  0  0  0  0  0  0
   -0.4194   -4.3601    7.1712 N   0  0  0  0  0  0  0  0  0  0  0  0
    2.9859   -2.7385    7.0152 C   0  0  0  0  0  0  0  0  0  0  0  0
    3.6309   -3.5718    6.7837 O   0  0  0  0  0  0  0  0  0  0  0  0
    1.6532   -2.1750    6.5862 C   0  0  2  0  0  0  0  0  0  0  0  0
    1.7500   -0.8386    6.2918 O   0  0  0  0  0  0  0  0  0  0  0  0
    0.7165   -2.2953    7.7833 C   0  0  0  0  0  0  0  0  0  0  0  0
    0.3546   -3.7189    8.2440 C   0  0  0  0  0  0  0  0  0  0  0  0
  1  2  1  1  0  0  0
  1  3  1  0  0  0  0
  3  4  1  1  0  0  0
  3  5  1  0  0  0  0
  5  6  1  1  0  0  0
  5  7  1  0  0  0  0
  7  8  1  1  0  0  0
  9  7  1  0  0  0  0
  9 10  1  0  0  0  0
  9 11  1  6  0  0  0
 10  1  1  0  0  0  0
 11 12  1  0  0  0  0
 13 14  1  6  0  0  0
 13 15  1  0  0  0  0
 13 22  1  0  0  0  0
 14 32  1  0  0  0  0
 15 16  1  1  0  0  0
 15 17  1  0  0  0  0
 16 23  1  0  0  0  0
 17 18  1  1  0  0  0
 17 19  1  0  0  0  0
 19  2  1  1  0  0  0
 19 20  1  0  0  0  0
 20 21  1  6  0  0  0
 20 22  1  0  0  0  0
 23 24  1  0  0  0  0
 24 25  1  0  0  0  0
 25 26  1  0  0  0  0
 26 27  1  0  0  0  0
 27 28  1  0  0  0  0
 28 29  1  0  0  0  0
 29 30  1  0  0  0  0
 31 37  1  0  0  0  0
 32 33  2  0  0  0  0
 34 32  1  1  0  0  0
 34 35  1  0  0  0  0
 34 36  1  0  0  0  0
 36 37  1  0  0  0  0
M  END
>  <CHROM.1>
-143.89545243,71.32150786,-77.57920396,-70.22036597,-66.07950824,164.92741129
83.63849458,-69.54282998,60.02720129,-171.18443555,174.52140160,-170.85990915
49.53315784,-65.50822669,-65.28497544,6.23620816,-1.83920885,10.03900290
-0.31348339,0.05552362,-1.86536254

>  <Name>
1o9m_lig

>  <RI>
0

>  <Rbt.Current_Directory>
/home/itssahil/PROJECTS/Mol_Feturizer/New_Systems/rnas/1o9m

>  <Rbt.Executable>
rbdock ($Id: //depot/dev/client3/rdock/2013.1/src/exe/rbdock.cxx#4 $)

>  <Rbt.Library>
libRbt.so (2013.1, Build901 2013/11/27)

>  <Rbt.Parameter_File>
/export/apps/rDock/src/rDock_2013.1_src/data/scripts/dock_solv.prm

>  <Rbt.Receptor>
prm/blind_docking_80.prm

>  <SCORE>
-3.269

>  <SCORE.INTER>
-3.13782

>  <SCORE.INTER.CONST>
1

>  <SCORE.INTER.POLAR>
-0.87178

>  <SCORE.INTER.ROT>
15

>  <SCORE.INTER.SOLV>
13.129

>  <SCORE.INTER.VDW>
-17.1623

>  <SCORE.INTER.norm>
-0.084806

>  <SCORE.INTRA>
-0.189193

>  <SCORE.INTRA.DIHEDRAL>
-10.6925

>  <SCORE.INTRA.DIHEDRAL.0>
21.5987

>  <SCORE.INTRA.POLAR>
0

>  <SCORE.INTRA.POLAR.0>
0

>  <SCORE.INTRA.REPUL>
0

>  <SCORE.INTRA.REPUL.0>
0

>  <SCORE.INTRA.SOLV>
7.78046

>  <SCORE.INTRA.SOLV.lig_0>
-108.715

>  <SCORE.INTRA.VDW>
1.26681

>  <SCORE.INTRA.VDW.0>
-3.9485

>  <SCORE.INTRA.norm>
-0.00511332

>  <SCORE.RESTR>
0.0580126

>  <SCORE.RESTR.CAVITY>
0.0580126

>  <SCORE.RESTR.norm>
0.00156791

>  <SCORE.SYSTEM>
0

>  <SCORE.SYSTEM.CONST>
0

>  <SCORE.SYSTEM.DIHEDRAL>
0

>  <SCORE.SYSTEM.SOLV>
0

>  <SCORE.SYSTEM.norm>
0

>  <SCORE.heavy>
37

>  <SCORE.norm>
-0.0883514

>  <RMSD>
23.799

$$$$
1o9m_lig
 OpenBabel11021811403D
libRbt.so/2013.1/901 2013/11/27
 37 38  0  0  0  0  0  0  0  0999 V2000
    1.3000    1.3103   12.6024 C   0  0  2  0  0  0  0  0  0  0  0  0
    2.6874    1.3700   12.1509 O   0  0  0  0  0  0  0  0  0  0  0  0
    0.8348    2.7991   12.8061 C   0  0  2  0  0  0  0  0  0  0  0  0
    0.9457    3.5912   11.5687 N   0  0  0  0  0  0  0  0  0  0  0  0
    1.6842    3.4500   13.9632 C   0  0  1  0  0  0  0  0  0  0  0  0
    1.2781    4.8058   14.1692 O   0  0  0  0  0  0  0  0  0  0  0  0
    1.5041    2.5766   15.2486 C   0  0  2  0  0  0  0  0  0  0  0  0
    2.2540    3.0728   16.3694 O   0  0  0  0  0  0  0  0  0  0  0  0
    1.9231    1.1108   14.9760 C   0  0  2  0  0  0  0  0  0  0  0  0
    1.1952    0.5690   13.8642 O   0  0  0  0  0  0  0  0  0  0  0  0
    1.7060    0.2355   16.1832 C   0  0  0  0  0  0  0  0  0  0  0  0
    0.4296    0.3988   16.6661 N   0  0  0  0  0  0  0  0  0  0  0  0
    6.3748   -0.8990   12.4255 C   0  0  1  0  0  0  0  0  0  0  0  0
    7.3929   -1.8605   12.9339 N   0  0  0  0  0  0  0  0  0  0  0  0
    5.0942   -1.6598   12.1101 C   0  0  2  0  0  0  0  0  0  0  0  0
    5.4042   -2.6561   11.1820 O   0  0  0  0  0  0  0  0  0  0  0  0
    4.0015   -0.6926   11.5550 C   0  0  1  0  0  0  0  0  0  0  0  0
    2.7719   -1.4297   11.2770 O   0  0  0  0  0  0  0  0  0  0  0  0
    3.6902    0.4282   12.6287 C   0  0  1  0  0  0  0  0  0  0  0  0
    4.9590    1.2082   12.9382 C   0  0  1  0  0  0  0  0  0  0  0  0
    4.6477    2.2414   13.9146 N   0  0  0  0  0  0  0  0  0  0  0  0
    6.0518    0.2435   13.4716 C   0  0  0  0  0  0  0  0  0  0  0  0
    6.0808   -3.3148   10.0889 C   0  0  0  0  0  0  0  0  0  0  0  0
    6.1465   -2.3757    8.9064 C   0  0  0  0  0  0  0  0  0  0  0  0
    4.8773   -2.2534    8.1599 N   0  0  0  0  0  0  0  0  0  0  0  0
    3.8952   -2.1616    7.0556 C   0  0  0  0  0  0  0  0  0  0  0  0
    2.6494   -2.5447    7.8645 C   0  0  0  0  0  0  0  0  0  0  0  0
    1.5421   -3.1507    6.9820 C   0  0  0  0  0  0  0  0  0  0  0  0
    1.0409   -2.1378    5.9572 C   0  0  0  0  0  0  0  0  0  0  0  0
    2.0292   -1.9627    4.9023 N   0  0  0  0  0  0  0  0  0  0  0  0
   10.4592   -6.1286   11.5120 N   0  0  0  0  0  0  0  0  0  0  0  0
    8.9893   -1.5517   12.2248 C   0  0  0  0  0  0  0  0  0  0  0  0
    9.3875   -0.8305   11.5282 O   0  0  0  0  0  0  0  0  0  0  0  0
    9.4580   -2.7415   13.0263 C   0  0  2  0  0  0  0  0  0  0  0  0
   10.6537   -2.4829   13.6471 O   0  0  0  0  0  0  0  0  0  0  0  0
    9.7124   -3.8706   12.0338 C   0  0  0  0  0  0  0  0  0  0  0  0
   10.0680   -5.2480   12.6222 C   0  0  0  0  0  0  0  0  0  0  0  0
  1  2  1  1  0  0  0
  1  3  1  0  0  0  0
  3  4  1  6  0  0  0
  3  5  1  0  0  0  0
  5  6  1  1  0  0  0
  5  7  1  0  0  0  0
  7  8  1  1  0  0  0
  9  7  1  0  0  0  0
  9 10  1  0  0  0  0
  9 11  1  1  0  0  0
 10  1  1  0  0  0  0
 11 12  1  0  0  0  0
 13 14  1  1  0  0  0
 13 15  1  0  0  0  0
 13 22  1  0  0  0  0
 14 32  1  0  0  0  0
 15 16  1  6  0  0  0
 15 17  1  0  0  0  0
 16 23  1  0  0  0  0
 17 18  1  1  0  0  0
 17 19  1  0  0  0  0
 19  2  1  6  0  0  0
 19 20  1  0  0  0  0
 20 21  1  1  0  0  0
 20 22  1  0  0  0  0
 23 24  1  0  0  0  0
 24 25  1  0  0  0  0
 25 26  1  0  0  0  0
 26 27  1  0  0  0  0
 27 28  1  0  0  0  0
 28 29  1  0  0  0  0
 29 30  1  0  0  0  0
 31 37  1  0  0  0  0
 32 33  2  0  0  0  0
 34 32  1  6  0  0  0
 34 35  1  0  0  0  0
 34 36  1  0  0  0  0
 36 37  1  0  0  0  0
M  END
>  <CHROM.1>
139.97235158,50.57245050,136.88024694,-30.71333799,-49.81266027,102.61673725
-77.09083081,-136.59789596,160.44077444,-154.88901264,-63.13294711,73.84004866
-135.37737182,-174.05615170,-171.96808458,4.46092933,-0.60421045,11.93972941
2.50878584,-0.47665661,1.06721176

>  <Name>
1o9m_lig

>  <RI>
0

>  <Rbt.Current_Directory>
/home/itssahil/PROJECTS/Mol_Feturizer/New_Systems/rnas/1o9m

>  <Rbt.Executable>
rbdock ($Id: //depot/dev/client3/rdock/2013.1/src/exe/rbdock.cxx#4 $)

>  <Rbt.Library>
libRbt.so (2013.1, Build901 2013/11/27)

>  <Rbt.Parameter_File>
/export/apps/rDock/src/rDock_2013.1_src/data/scripts/dock_solv.prm

>  <Rbt.Receptor>
prm/blind_docking_20.prm

>  <SCORE>
3.57041

>  <SCORE.INTER>
-1.24192

>  <SCORE.INTER.CONST>
1

>  <SCORE.INTER.POLAR>
-1.64117

>  <SCORE.INTER.ROT>
15

>  <SCORE.INTER.SOLV>
25.6086

>  <SCORE.INTER.VDW>
-17.4936

>  <SCORE.INTER.norm>
-0.0335653

>  <SCORE.INTRA>
3.63157

>  <SCORE.INTRA.DIHEDRAL>
2.65604

>  <SCORE.INTRA.DIHEDRAL.0>
21.5987

>  <SCORE.INTRA.POLAR>
0

>  <SCORE.INTRA.POLAR.0>
0

>  <SCORE.INTRA.REPUL>
0

>  <SCORE.INTRA.REPUL.0>
0

>  <SCORE.INTRA.SOLV>
6.22627

>  <SCORE.INTRA.SOLV.lig_0>
-108.715

>  <SCORE.INTRA.VDW>
-0.809584

>  <SCORE.INTRA.VDW.0>
-3.9485

>  <SCORE.INTRA.norm>
0.0981506

>  <SCORE.RESTR>
1.18076

>  <SCORE.RESTR.CAVITY>
1.18076

>  <SCORE.RESTR.norm>
0.0319124

>  <SCORE.SYSTEM>
0

>  <SCORE.SYSTEM.CONST>
0

>  <SCORE.SYSTEM.DIHEDRAL>
0

>  <SCORE.SYSTEM.SOLV>
0

>  <SCORE.SYSTEM.norm>
0

>  <SCORE.heavy>
37

>  <SCORE.norm>
0.0964977

>  <RMSD>
23.814

$$$$
1o9m_lig
 OpenBabel11021811403D
libRbt.so/2013.1/901 2013/11/27
 37 38  0  0  0  0  0  0  0  0999 V2000
    9.5764   -3.7503   10.1637 C   0  0  2  0  0  0  0  0  0  0  0  0
   10.1555   -2.5543   10.7689 O   0  0  0  0  0  0  0  0  0  0  0  0
   10.7833   -4.6873    9.7892 C   0  0  2  0  0  0  0  0  0  0  0  0
   11.5985   -5.0414   10.9643 N   0  0  0  0  0  0  0  0  0  0  0  0
   11.6644   -3.9778    8.6919 C   0  0  1  0  0  0  0  0  0  0  0  0
   12.7692   -4.8121    8.3327 O   0  0  0  0  0  0  0  0  0  0  0  0
   10.7466   -3.6518    7.4677 C   0  0  2  0  0  0  0  0  0  0  0  0
   11.4487   -2.9833    6.4069 O   0  0  0  0  0  0  0  0  0  0  0  0
    9.5464   -2.7753    7.9031 C   0  0  2  0  0  0  0  0  0  0  0  0
    8.8098   -3.4056    8.9611 O   0  0  0  0  0  0  0  0  0  0  0  0
    8.6157   -2.4934    6.7521 C   0  0  0  0  0  0  0  0  0  0  0  0
    9.1710   -1.5611    5.9084 N   0  0  0  0  0  0  0  0  0  0  0  0
    6.6680   -0.5106   12.3442 C   0  0  1  0  0  0  0  0  0  0  0  0
    5.8427    0.5052   13.0559 N   0  0  0  0  0  0  0  0  0  0  0  0
    7.4624    0.1832   11.2459 C   0  0  2  0  0  0  0  0  0  0  0  0
    6.5554    0.8272   10.4016 O   0  0  0  0  0  0  0  0  0  0  0  0
    8.3306   -0.8485   10.4588 C   0  0  1  0  0  0  0  0  0  0  0  0
    9.1037   -0.1684    9.4233 O   0  0  0  0  0  0  0  0  0  0  0  0
    9.3327   -1.5659   11.4523 C   0  0  1  0  0  0  0  0  0  0  0  0
    8.5496   -2.2789   12.5442 C   0  0  1  0  0  0  0  0  0  0  0  0
    9.4879   -2.9431   13.4364 N   0  0  0  0  0  0  0  0  0  0  0  0
    7.6714   -1.2564   13.3140 C   0  0  0  0  0  0  0  0  0  0  0  0
    5.4199    0.9998    9.5256 C   0  0  0  0  0  0  0  0  0  0  0  0
    5.3935   -0.1263    8.5178 C   0  0  0  0  0  0  0  0  0  0  0  0
    4.0354   -0.5456    8.1147 N   0  0  0  0  0  0  0  0  0  0  0  0
    2.6009   -0.9095    8.1616 C   0  0  0  0  0  0  0  0  0  0  0  0
    2.4744   -1.4081    6.7165 C   0  0  0  0  0  0  0  0  0  0  0  0
    1.1508   -2.1559    6.4690 C   0  0  0  0  0  0  0  0  0  0  0  0
    1.1680   -2.8714    5.1217 C   0  0  0  0  0  0  0  0  0  0  0  0
   -0.0531   -3.6461    4.9512 N   0  0  0  0  0  0  0  0  0  0  0  0
    0.9009    3.2313   11.6879 N   0  0  0  0  0  0  0  0  0  0  0  0
    4.1790    0.5369   12.4413 C   0  0  0  0  0  0  0  0  0  0  0  0
    3.6338   -0.0109   11.6885 O   0  0  0  0  0  0  0  0  0  0  0  0
    3.9480    1.6541   13.4293 C   0  0  2  0  0  0  0  0  0  0  0  0
    3.3052    1.1993   14.5527 O   0  0  0  0  0  0  0  0  0  0  0  0
    3.0094    2.6507   12.7581 C   0  0  0  0  0  0  0  0  0  0  0  0
    1.6359    2.1200   12.3092 C   0  0  0  0  0  0  0  0  0  0  0  0
  1  2  1  6  0  0  0
  1  3  1  0  0  0  0
  3  4  1  1  0  0  0
  3  5  1  0  0  0  0
  5  6  1  6  0  0  0
  5  7  1  0  0  0  0
  7  8  1  6  0  0  0
  9  7  1  0  0  0  0
  9 10  1  0  0  0  0
  9 11  1  6  0  0  0
 10  1  1  0  0  0  0
 11 12  1  0  0  0  0
 13 14  1  1  0  0  0
 13 15  1  0  0  0  0
 13 22  1  0  0  0  0
 14 32  1  0  0  0  0
 15 16  1  6  0  0  0
 15 17  1  0  0  0  0
 16 23  1  0  0  0  0
 17 18  1  6  0  0  0
 17 19  1  0  0  0  0
 19  2  1  6  0  0  0
 19 20  1  0  0  0  0
 20 21  1  1  0  0  0
 20 22  1  0  0  0  0
 23 24  1  0  0  0  0
 24 25  1  0  0  0  0
 25 26  1  0  0  0  0
 26 27  1  0  0  0  0
 27 28  1  0  0  0  0
 28 29  1  0  0  0  0
 29 30  1  0  0  0  0
 31 37  1  0  0  0  0
 32 33  2  0  0  0  0
 34 32  1  6  0  0  0
 34 35  1  0  0  0  0
 34 36  1  0  0  0  0
 36 37  1  0  0  0  0
M  END
>  <CHROM.1>
-169.03507763,-74.70853768,97.36862335,-53.47076133,-46.33201856,-64.89053698
146.62543072,-41.20952294,-171.90461568,168.08815052,-168.86445195,176.04054695
-100.86157876,58.91854394,-179.74398872,6.67929238,-1.32254240,9.88071022
-0.33926049,-0.34370976,1.10407602

>  <Name>
1o9m_lig

>  <RI>
0

>  <Rbt.Current_Directory>
/home/itssahil/PROJECTS/Mol_Feturizer/New_Systems/rnas/1o9m

>  <Rbt.Executable>
rbdock ($Id: //depot/dev/client3/rdock/2013.1/src/exe/rbdock.cxx#4 $)

>  <Rbt.Library>
libRbt.so (2013.1, Build901 2013/11/27)

>  <Rbt.Parameter_File>
/export/apps/rDock/src/rDock_2013.1_src/data/scripts/dock_solv.prm

>  <Rbt.Receptor>
prm/blind_docking_20.prm

>  <SCORE>
-5.0201

>  <SCORE.INTER>
0.730751

>  <SCORE.INTER.CONST>
1

>  <SCORE.INTER.POLAR>
-0.361961

>  <SCORE.INTER.ROT>
15

>  <SCORE.INTER.SOLV>
16.082

>  <SCORE.INTER.VDW>
-17.267

>  <SCORE.INTER.norm>
0.01975

>  <SCORE.INTRA>
-5.76136

>  <SCORE.INTRA.DIHEDRAL>
-11.6825

>  <SCORE.INTRA.DIHEDRAL.0>
21.5987

>  <SCORE.INTRA.POLAR>
0

>  <SCORE.INTRA.POLAR.0>
0

>  <SCORE.INTRA.REPUL>
0

>  <SCORE.INTRA.REPUL.0>
0

>  <SCORE.INTRA.SOLV>
2.0885

>  <SCORE.INTRA.SOLV.lig_0>
-108.715

>  <SCORE.INTRA.VDW>
-0.964374

>  <SCORE.INTRA.VDW.0>
-3.9485

>  <SCORE.INTRA.norm>
-0.155712

>  <SCORE.RESTR>
0.0105063

>  <SCORE.RESTR.CAVITY>
0.0105063

>  <SCORE.RESTR.norm>
0.000283954

>  <SCORE.SYSTEM>
0

>  <SCORE.SYSTEM.CONST>
0

>  <SCORE.SYSTEM.DIHEDRAL>
0

>  <SCORE.SYSTEM.SOLV>
0

>  <SCORE.SYSTEM.norm>
0

>  <SCORE.heavy>
37

>  <SCORE.norm>
-0.135678

>  <RMSD>
23.821

$$$$
1o9m_lig
 OpenBabel11021811403D
libRbt.so/2013.1/901 2013/11/27
 37 38  0  0  0  0  0  0  0  0999 V2000
   10.8200   -2.7705    7.2637 C   0  0  2  0  0  0  0  0  0  0  0  0
    9.7788   -3.7887    7.3707 O   0  0  0  0  0  0  0  0  0  0  0  0
   12.1922   -3.5178    7.4458 C   0  0  2  0  0  0  0  0  0  0  0  0
   12.3900   -4.5725    6.4361 N   0  0  0  0  0  0  0  0  0  0  0  0
   12.2619   -4.1185    8.9012 C   0  0  1  0  0  0  0  0  0  0  0  0
   13.5032   -4.8026    9.0925 O   0  0  0  0  0  0  0  0  0  0  0  0
   12.0688   -2.9472    9.9201 C   0  0  2  0  0  0  0  0  0  0  0  0
   12.0980   -3.3873   11.2877 O   0  0  0  0  0  0  0  0  0  0  0  0
   10.7308   -2.2121    9.6599 C   0  0  2  0  0  0  0  0  0  0  0  0
   10.6570   -1.7486    8.3037 O   0  0  0  0  0  0  0  0  0  0  0  0
   10.5465   -1.0432   10.5928 C   0  0  0  0  0  0  0  0  0  0  0  0
    9.4364   -0.3171   10.2325 N   0  0  0  0  0  0  0  0  0  0  0  0
    6.1583   -1.4552    7.8880 C   0  0  1  0  0  0  0  0  0  0  0  0
    4.7098   -1.1114    7.9433 N   0  0  0  0  0  0  0  0  0  0  0  0
    6.4395   -2.5629    8.8941 C   0  0  2  0  0  0  0  0  0  0  0  0
    6.0417   -2.1100   10.1538 O   0  0  0  0  0  0  0  0  0  0  0  0
    7.9535   -2.9443    8.8844 C   0  0  1  0  0  0  0  0  0  0  0  0
    8.2065   -4.0218    9.8370 O   0  0  0  0  0  0  0  0  0  0  0  0
    8.3671   -3.4373    7.4381 C   0  0  1  0  0  0  0  0  0  0  0  0
    8.1082   -2.3316    6.4261 C   0  0  1  0  0  0  0  0  0  0  0  0
    8.5087   -2.7996    5.1077 N   0  0  0  0  0  0  0  0  0  0  0  0
    6.6068   -1.9387    6.4496 C   0  0  0  0  0  0  0  0  0  0  0  0
    5.2315   -1.4583   11.1565 C   0  0  0  0  0  0  0  0  0  0  0  0
    5.2586    0.0350   10.9244 C   0  0  0  0  0  0  0  0  0  0  0  0
    4.4875    0.8151   11.9142 N   0  0  0  0  0  0  0  0  0  0  0  0
    3.8459    1.9412   12.6302 C   0  0  0  0  0  0  0  0  0  0  0  0
    2.9995    1.1052   13.5986 C   0  0  0  0  0  0  0  0  0  0  0  0
    2.1323    1.9801   14.5231 C   0  0  0  0  0  0  0  0  0  0  0  0
    1.4200    1.1321   15.5723 C   0  0  0  0  0  0  0  0  0  0  0  0
    0.4762    0.2290   14.9288 N   0  0  0  0  0  0  0  0  0  0  0  0
    2.4984    1.4824    7.7963 N   0  0  0  0  0  0  0  0  0  0  0  0
    3.7043   -2.4313    7.3159 C   0  0  0  0  0  0  0  0  0  0  0  0
    3.8989   -3.4157    6.9195 O   0  0  0  0  0  0  0  0  0  0  0  0
    2.5297   -1.5232    7.5869 C   0  0  2  0  0  0  0  0  0  0  0  0
    1.3493   -2.2222    7.5808 O   0  0  0  0  0  0  0  0  0  0  0  0
    2.4607   -0.5326    6.4299 C   0  0  0  0  0  0  0  0  0  0  0  0
    1.7703    0.8151    6.7074 C   0  0  0  0  0  0  0  0  0  0  0  0
  1  2  1  1  0  0  0
  1  3  1  0  0  0  0
  3  4  1  6  0  0  0
  3  5  1  0  0  0  0
  5  6  1  1  0  0  0
  5  7  1  0  0  0  0
  7  8  1  1  0  0  0
  9  7  1  0  0  0  0
  9 10  1  0  0  0  0
  9 11  1  1  0  0  0
 10  1  1  0  0  0  0
 11 12  1  0  0  0  0
 13 14  1  6  0  0  0
 13 15  1  0  0  0  0
 13 22  1  0  0  0  0
 14 32  1  0  0  0  0
 15 16  1  1  0  0  0
 15 17  1  0  0  0  0
 16 23  1  0  0  0  0
 17 18  1  1  0  0  0
 17 19  1  0  0  0  0
 19  2  1  1  0  0  0
 19 20  1  0  0  0  0
 20 21  1  6  0  0  0
 20 22  1  0  0  0  0
 23 24  1  0  0  0  0
 24 25  1  0  0  0  0
 25 26  1  0  0  0  0
 26 27  1  0  0  0  0
 27 28  1  0  0  0  0
 28 29  1  0  0  0  0
 29 30  1  0  0  0  0
 31 37  1  0  0  0  0
 32 33  2  0  0  0  0
 34 32  1  6  0  0  0
 34 35  1  0  0  0  0
 34 36  1  0  0  0  0
 36 37  1  0  0  0  0
M  END
>  <CHROM.1>
171.27465170,172.66545457,-68.61178738,41.02174679,-67.64940702,-78.38229718
-178.57375079,-176.68942942,169.64487150,-178.67424926,-173.81983402,-64.56779811
-164.00519284,-155.54913311,59.60543370,6.81141294,-1.69634370,9.23598043
0.41616099,0.29005068,-1.88701457

>  <Name>
1o9m_lig

>  <RI>
0

>  <Rbt.Current_Directory>
/home/itssahil/PROJECTS/Mol_Feturizer/New_Systems/rnas/1o9m

>  <Rbt.Executable>
rbdock ($Id: //depot/dev/client3/rdock/2013.1/src/exe/rbdock.cxx#4 $)

>  <Rbt.Library>
libRbt.so (2013.1, Build901 2013/11/27)

>  <Rbt.Parameter_File>
/export/apps/rDock/src/rDock_2013.1_src/data/scripts/dock_solv.prm

>  <Rbt.Receptor>
prm/blind_docking_100.prm

>  <SCORE>
-5.75614

>  <SCORE.INTER>
-0.926345

>  <SCORE.INTER.CONST>
1

>  <SCORE.INTER.POLAR>
0

>  <SCORE.INTER.ROT>
15

>  <SCORE.INTER.SOLV>
14.3205

>  <SCORE.INTER.VDW>
-18.9911

>  <SCORE.INTER.norm>
-0.0250363

>  <SCORE.INTRA>
-4.83395

>  <SCORE.INTRA.DIHEDRAL>
-14.1073

>  <SCORE.INTRA.DIHEDRAL.0>
21.5987

>  <SCORE.INTRA.POLAR>
0

>  <SCORE.INTRA.POLAR.0>
0

>  <SCORE.INTRA.REPUL>
0

>  <SCORE.INTRA.REPUL.0>
0

>  <SCORE.INTRA.SOLV>
5.37512

>  <SCORE.INTRA.SOLV.lig_0>
-108.715

>  <SCORE.INTRA.VDW>
-0.467854

>  <SCORE.INTRA.VDW.0>
-3.9485

>  <SCORE.INTRA.norm>
-0.130647

>  <SCORE.RESTR>
0.00415942

>  <SCORE.RESTR.CAVITY>
0.00415942

>  <SCORE.RESTR.norm>
0.000112417

>  <SCORE.SYSTEM>
0

>  <SCORE.SYSTEM.CONST>
0

>  <SCORE.SYSTEM.DIHEDRAL>
0

>  <SCORE.SYSTEM.SOLV>
0

>  <SCORE.SYSTEM.norm>
0

>  <SCORE.heavy>
37

>  <SCORE.norm>
-0.155571

>  <RMSD>
23.839

$$$$
1o9m_lig
 OpenBabel11021811403D
libRbt.so/2013.1/901 2013/11/27
 37 38  0  0  0  0  0  0  0  0999 V2000
    2.1868    1.3967   11.3687 C   0  0  2  0  0  0  0  0  0  0  0  0
    3.4448    2.1302   11.2611 O   0  0  0  0  0  0  0  0  0  0  0  0
    1.3781    2.0709   12.5374 C   0  0  2  0  0  0  0  0  0  0  0  0
    1.1267    3.5011   12.2877 N   0  0  0  0  0  0  0  0  0  0  0  0
    2.1630    1.8700   13.8892 C   0  0  1  0  0  0  0  0  0  0  0  0
    1.4458    2.4738   14.9693 O   0  0  0  0  0  0  0  0  0  0  0  0
    2.3751    0.3351   14.1046 C   0  0  2  0  0  0  0  0  0  0  0  0
    3.1008    0.0360   15.3082 O   0  0  0  0  0  0  0  0  0  0  0  0
    3.1252   -0.2867   12.9008 C   0  0  2  0  0  0  0  0  0  0  0  0
    2.4336   -0.0173   11.6726 O   0  0  0  0  0  0  0  0  0  0  0  0
    3.2929   -1.7760   13.0577 C   0  0  0  0  0  0  0  0  0  0  0  0
    3.9027   -2.3060   11.9457 N   0  0  0  0  0  0  0  0  0  0  0  0
    6.1283   -0.6364    9.2700 C   0  0  1  0  0  0  0  0  0  0  0  0
    7.2750   -1.1389    8.4624 N   0  0  0  0  0  0  0  0  0  0  0  0
    6.6695    0.1481   10.4575 C   0  0  2  0  0  0  0  0  0  0  0  0
    7.5096   -0.6983   11.1842 O   0  0  0  0  0  0  0  0  0  0  0  0
    5.5003    0.6798   11.3451 C   0  0  1  0  0  0  0  0  0  0  0  0
    6.0310    1.4483   12.4677 O   0  0  0  0  0  0  0  0  0  0  0  0
    4.5649    1.6211   10.4820 C   0  0  1  0  0  0  0  0  0  0  0  0
    4.0026    0.8427    9.3023 C   0  0  1  0  0  0  0  0  0  0  0  0
    3.1351    1.7210    8.5318 N   0  0  0  0  0  0  0  0  0  0  0  0
    5.1654    0.2973    8.4306 C   0  0  0  0  0  0  0  0  0  0  0  0
    8.4877   -1.1068   12.1656 C   0  0  0  0  0  0  0  0  0  0  0  0
    8.5299   -2.6164   12.2270 C   0  0  0  0  0  0  0  0  0  0  0  0
    8.5296   -3.2758   10.9049 N   0  0  0  0  0  0  0  0  0  0  0  0
    8.8916   -3.6591    9.5212 C   0  0  0  0  0  0  0  0  0  0  0  0
   10.3981   -3.8343    9.7506 C   0  0  0  0  0  0  0  0  0  0  0  0
   11.1730   -4.0210    8.4327 C   0  0  0  0  0  0  0  0  0  0  0  0
   12.6769   -4.0772    8.6832 C   0  0  0  0  0  0  0  0  0  0  0  0
   13.3951   -4.0809    7.4166 N   0  0  0  0  0  0  0  0  0  0  0  0
    6.4548   -3.6321    4.4934 N   0  0  0  0  0  0  0  0  0  0  0  0
    6.7234   -1.9364    6.9770 C   0  0  0  0  0  0  0  0  0  0  0  0
    5.7620   -2.1280    6.5264 O   0  0  0  0  0  0  0  0  0  0  0  0
    8.1837   -2.2023    6.7038 C   0  0  2  0  0  0  0  0  0  0  0  0
    8.6776   -1.3398    5.7582 O   0  0  0  0  0  0  0  0  0  0  0  0
    8.2743   -3.6042    6.1111 C   0  0  0  0  0  0  0  0  0  0  0  0
    7.9140   -3.7553    4.6221 C   0  0  0  0  0  0  0  0  0  0  0  0
  1  2  1  1  0  0  0
  1  3  1  0  0  0  0
  3  4  1  6  0  0  0
  3  5  1  0  0  0  0
  5  6  1  1  0  0  0
  5  7  1  0  0  0  0
  7  8  1  1  0  0  0
  9  7  1  0  0  0  0
  9 10  1  0  0  0  0
  9 11  1  1  0  0  0
 10  1  1  0  0  0  0
 11 12  1  0  0  0  0
 13 14  1  6  0  0  0
 13 15  1  0  0  0  0
 13 22  1  0  0  0  0
 14 32  1  0  0  0  0
 15 16  1  1  0  0  0
 15 17  1  0  0  0  0
 16 23  1  0  0  0  0
 17 18  1  1  0  0  0
 17 19  1  0  0  0  0
 19  2  1  1  0  0  0
 19 20  1  0  0  0  0
 20 21  1  6  0  0  0
 20 22  1  0  0  0  0
 23 24  1  0  0  0  0
 24 25  1  0  0  0  0
 25 26  1  0  0  0  0
 26 27  1  0  0  0  0
 27 28  1  0  0  0  0
 28 29  1  0  0  0  0
 29 30  1  0  0  0  0
 31 37  1  0  0  0  0
 32 33  2  0  0  0  0
 34 32  1  6  0  0  0
 34 35  1  0  0  0  0
 34 36  1  0  0  0  0
 36 37  1  0  0  0  0
M  END
>  <CHROM.1>
166.80490638,177.07119127,-174.71984459,169.24379659,170.11091775,-88.19238777
44.29974438,54.61226791,47.21995542,-170.51718618,175.32530025,-172.73410608
-102.92678876,78.84001341,-73.44525503,5.94594295,-0.84497913,10.17137087
2.52879898,-0.53433267,1.49110551

>  <Name>
1o9m_lig

>  <RI>
0

>  <Rbt.Current_Directory>
/home/itssahil/PROJECTS/Mol_Feturizer/New_Systems/rnas/1o9m

>  <Rbt.Executable>
rbdock ($Id: //depot/dev/client3/rdock/2013.1/src/exe/rbdock.cxx#4 $)

>  <Rbt.Library>
libRbt.so (2013.1, Build901 2013/11/27)

>  <Rbt.Parameter_File>
/export/apps/rDock/src/rDock_2013.1_src/data/scripts/dock_solv.prm

>  <Rbt.Receptor>
prm/blind_docking_40.prm

>  <SCORE>
-7.18608

>  <SCORE.INTER>
-4.44652

>  <SCORE.INTER.CONST>
1

>  <SCORE.INTER.POLAR>
-1.463

>  <SCORE.INTER.ROT>
15

>  <SCORE.INTER.SOLV>
16.8312

>  <SCORE.INTER.VDW>
-17.2981

>  <SCORE.INTER.norm>
-0.120176

>  <SCORE.INTRA>
-2.74422

>  <SCORE.INTRA.DIHEDRAL>
-10.9736

>  <SCORE.INTRA.DIHEDRAL.0>
21.5987

>  <SCORE.INTRA.POLAR>
0

>  <SCORE.INTRA.POLAR.0>
0

>  <SCORE.INTRA.REPUL>
0

>  <SCORE.INTRA.REPUL.0>
0

>  <SCORE.INTRA.SOLV>
7.03153

>  <SCORE.INTRA.SOLV.lig_0>
-108.715

>  <SCORE.INTRA.VDW>
-0.773177

>  <SCORE.INTRA.VDW.0>
-3.9485

>  <SCORE.INTRA.norm>
-0.074168

>  <SCORE.RESTR>
0.00465118

>  <SCORE.RESTR.CAVITY>
0.00465118

>  <SCORE.RESTR.norm>
0.000125708

>  <SCORE.SYSTEM>
0

>  <SCORE.SYSTEM.CONST>
0

>  <SCORE.SYSTEM.DIHEDRAL>
0

>  <SCORE.SYSTEM.SOLV>
0

>  <SCORE.SYSTEM.norm>
0

>  <SCORE.heavy>
37

>  <SCORE.norm>
-0.194218

>  <RMSD>
23.841

$$$$
1o9m_lig
 OpenBabel11021811403D
libRbt.so/2013.1/901 2013/11/27
 37 38  0  0  0  0  0  0  0  0999 V2000
    9.3894   -4.1419    9.4903 C   0  0  2  0  0  0  0  0  0  0  0  0
    9.2622   -3.4885   10.7900 O   0  0  0  0  0  0  0  0  0  0  0  0
   10.9296   -4.3461    9.2446 C   0  0  2  0  0  0  0  0  0  0  0  0
   11.5585   -5.1597   10.2998 N   0  0  0  0  0  0  0  0  0  0  0  0
   11.6253   -2.9359    9.1382 C   0  0  1  0  0  0  0  0  0  0  0  0
   13.0286   -3.0950    8.9127 O   0  0  0  0  0  0  0  0  0  0  0  0
   10.9282   -2.1357    7.9888 C   0  0  2  0  0  0  0  0  0  0  0  0
   11.4763   -0.8189    7.8143 O   0  0  0  0  0  0  0  0  0  0  0  0
    9.4072   -2.0133    8.2531 C   0  0  2  0  0  0  0  0  0  0  0  0
    8.8129   -3.3075    8.4300 O   0  0  0  0  0  0  0  0  0  0  0  0
    8.7027   -1.2946    7.1316 C   0  0  0  0  0  0  0  0  0  0  0  0
    7.3435   -1.3109    7.3355 N   0  0  0  0  0  0  0  0  0  0  0  0
    5.0716   -2.4038   11.0765 C   0  0  1  0  0  0  0  0  0  0  0  0
    3.7468   -2.0793   11.6758 N   0  0  0  0  0  0  0  0  0  0  0  0
    6.1006   -1.4049   11.5880 C   0  0  2  0  0  0  0  0  0  0  0  0
    5.6581   -0.1233   11.2537 O   0  0  0  0  0  0  0  0  0  0  0  0
    7.5047   -1.6955   10.9701 C   0  0  1  0  0  0  0  0  0  0  0  0
    8.4868   -0.7452   11.4847 O   0  0  0  0  0  0  0  0  0  0  0  0
    7.9625   -3.1601   11.3590 C   0  0  1  0  0  0  0  0  0  0  0  0
    6.9513   -4.1691   10.8365 C   0  0  1  0  0  0  0  0  0  0  0  0
    7.3984   -5.5077   11.1914 N   0  0  0  0  0  0  0  0  0  0  0  0
    5.5513   -3.8682   11.4355 C   0  0  0  0  0  0  0  0  0  0  0  0
    4.8108    1.0465   11.2344 C   0  0  0  0  0  0  0  0  0  0  0  0
    3.4811    0.6872   10.6120 C   0  0  0  0  0  0  0  0  0  0  0  0
    3.4015    0.9514    9.1606 N   0  0  0  0  0  0  0  0  0  0  0  0
    2.9023    1.0374    7.7692 C   0  0  0  0  0  0  0  0  0  0  0  0
    3.1508   -0.4247    7.3775 C   0  0  0  0  0  0  0  0  0  0  0  0
    1.8678   -1.2743    7.4430 C   0  0  0  0  0  0  0  0  0  0  0  0
    1.5491   -1.6776    8.8793 C   0  0  0  0  0  0  0  0  0  0  0  0
    0.4672   -2.6520    8.8969 N   0  0  0  0  0  0  0  0  0  0  0  0
    0.8324    0.6915   14.9982 N   0  0  0  0  0  0  0  0  0  0  0  0
    3.9011   -1.6171   13.3815 C   0  0  0  0  0  0  0  0  0  0  0  0
    4.7242   -1.5084   14.0704 O   0  0  0  0  0  0  0  0  0  0  0  0
    2.3978   -1.4842   13.3715 C   0  0  2  0  0  0  0  0  0  0  0  0
    2.0080   -0.2894   12.8217 O   0  0  0  0  0  0  0  0  0  0  0  0
    1.9460   -1.4670   14.8276 C   0  0  0  0  0  0  0  0  0  0  0  0
    1.9446   -0.1024   15.5402 C   0  0  0  0  0  0  0  0  0  0  0  0
  1  2  1  1  0  0  0
  1  3  1  0  0  0  0
  3  4  1  1  0  0  0
  3  5  1  0  0  0  0
  5  6  1  6  0  0  0
  5  7  1  0  0  0  0
  7  8  1  1  0  0  0
  9  7  1  0  0  0  0
  9 10  1  0  0  0  0
  9 11  1  6  0  0  0
 10  1  1  0  0  0  0
 11 12  1  0  0  0  0
 13 14  1  1  0  0  0
 13 15  1  0  0  0  0
 13 22  1  0  0  0  0
 14 32  1  0  0  0  0
 15 16  1  6  0  0  0
 15 17  1  0  0  0  0
 16 23  1  0  0  0  0
 17 18  1  1  0  0  0
 17 19  1  0  0  0  0
 19  2  1  6  0  0  0
 19 20  1  0  0  0  0
 20 21  1  1  0  0  0
 20 22  1  0  0  0  0
 23 24  1  0  0  0  0
 24 25  1  0  0  0  0
 25 26  1  0  0  0  0
 26 27  1  0  0  0  0
 27 28  1  0  0  0  0
 28 29  1  0  0  0  0
 29 30  1  0  0  0  0
 31 37  1  0  0  0  0
 32 33  2  0  0  0  0
 34 32  1  1  0  0  0
 34 35  1  0  0  0  0
 34 36  1  0  0  0  0
 36 37  1  0  0  0  0
M  END
>  <CHROM.1>
-179.00720993,174.44971651,-40.36148608,62.99650599,-64.41274137,-91.84167375
-93.65080166,178.49674637,-80.17269501,100.00973141,-79.37622311,-170.80373330
-80.23013474,86.28860281,72.05141142,6.13896640,-1.79575481,10.48786675,-0.26761728
-0.35384941,1.80146235

>  <Name>
1o9m_lig

>  <RI>
0

>  <Rbt.Current_Directory>
/home/itssahil/PROJECTS/Mol_Feturizer/New_Systems/rnas/1o9m

>  <Rbt.Executable>
rbdock ($Id: //depot/dev/client3/rdock/2013.1/src/exe/rbdock.cxx#4 $)

>  <Rbt.Library>
libRbt.so (2013.1, Build901 2013/11/27)

>  <Rbt.Parameter_File>
/export/apps/rDock/src/rDock_2013.1_src/data/scripts/dock_solv.prm

>  <Rbt.Receptor>
prm/blind_docking_80.prm

>  <SCORE>
-6.42607

>  <SCORE.INTER>
-7.88064

>  <SCORE.INTER.CONST>
1

>  <SCORE.INTER.POLAR>
-1.0198

>  <SCORE.INTER.ROT>
15

>  <SCORE.INTER.SOLV>
12.0152

>  <SCORE.INTER.VDW>
-19.4595

>  <SCORE.INTER.norm>
-0.21299

>  <SCORE.INTRA>
1.45457

>  <SCORE.INTRA.DIHEDRAL>
-3.93481

>  <SCORE.INTRA.DIHEDRAL.0>
21.5987

>  <SCORE.INTRA.POLAR>
0

>  <SCORE.INTRA.POLAR.0>
0

>  <SCORE.INTRA.REPUL>
0.000177102

>  <SCORE.INTRA.REPUL.0>
0

>  <SCORE.INTRA.SOLV>
5.85851

>  <SCORE.INTRA.SOLV.lig_0>
-108.715

>  <SCORE.INTRA.VDW>
0.491836

>  <SCORE.INTRA.VDW.0>
-3.9485

>  <SCORE.INTRA.norm>
0.0393126

>  <SCORE.RESTR>
0

>  <SCORE.RESTR.CAVITY>
0

>  <SCORE.RESTR.norm>
0

>  <SCORE.SYSTEM>
0

>  <SCORE.SYSTEM.CONST>
0

>  <SCORE.SYSTEM.DIHEDRAL>
0

>  <SCORE.SYSTEM.SOLV>
0

>  <SCORE.SYSTEM.norm>
0

>  <SCORE.heavy>
37

>  <SCORE.norm>
-0.173678

>  <RMSD>
23.841

$$$$
1o9m_lig
 OpenBabel11021811403D
libRbt.so/2013.1/901 2013/11/27
 37 38  0  0  0  0  0  0  0  0999 V2000
    2.9319    0.5243   10.2446 C   0  0  2  0  0  0  0  0  0  0  0  0
    4.2952    1.0399   10.1559 O   0  0  0  0  0  0  0  0  0  0  0  0
    2.1097    1.5824   11.0685 C   0  0  2  0  0  0  0  0  0  0  0  0
    2.1226    2.9128   10.4355 N   0  0  0  0  0  0  0  0  0  0  0  0
    2.6869    1.6556   12.5332 C   0  0  1  0  0  0  0  0  0  0  0  0
    1.9535    2.6113   13.3041 O   0  0  0  0  0  0  0  0  0  0  0  0
    2.6227    0.2207   13.1532 C   0  0  2  0  0  0  0  0  0  0  0  0
    3.1436    0.1677   14.4913 O   0  0  0  0  0  0  0  0  0  0  0  0
    3.4000   -0.7894   12.2736 C   0  0  2  0  0  0  0  0  0  0  0  0
    2.9108   -0.7757   10.9246 O   0  0  0  0  0  0  0  0  0  0  0  0
    3.3066   -2.1908   12.8194 C   0  0  0  0  0  0  0  0  0  0  0  0
    3.9285   -3.0748   11.9701 N   0  0  0  0  0  0  0  0  0  0  0  0
    7.6838   -0.4522    7.8950 C   0  0  1  0  0  0  0  0  0  0  0  0
    8.8247   -1.3209    7.4912 N   0  0  0  0  0  0  0  0  0  0  0  0
    6.4086   -1.2842    7.8961 C   0  0  2  0  0  0  0  0  0  0  0  0
    6.2475   -1.8248    6.6187 O   0  0  0  0  0  0  0  0  0  0  0  0
    5.1799   -0.4081    8.2966 C   0  0  1  0  0  0  0  0  0  0  0  0
    3.9673   -1.2215    8.3153 O   0  0  0  0  0  0  0  0  0  0  0  0
    5.4082    0.1969    9.7415 C   0  0  1  0  0  0  0  0  0  0  0  0
    6.6701    1.0463    9.7482 C   0  0  1  0  0  0  0  0  0  0  0  0
    6.8527    1.6041   11.0798 N   0  0  0  0  0  0  0  0  0  0  0  0
    7.8886    0.1800    9.3310 C   0  0  0  0  0  0  0  0  0  0  0  0
    6.6050   -2.4437    5.3634 C   0  0  0  0  0  0  0  0  0  0  0  0
    5.3504   -2.9235    4.6704 C   0  0  0  0  0  0  0  0  0  0  0  0
    4.2249   -1.9680    4.7273 N   0  0  0  0  0  0  0  0  0  0  0  0
    2.8583   -1.4035    4.8060 C   0  0  0  0  0  0  0  0  0  0  0  0
    2.3280   -2.3190    5.9167 C   0  0  0  0  0  0  0  0  0  0  0  0
    0.9753   -1.8389    6.4750 C   0  0  0  0  0  0  0  0  0  0  0  0
    1.1582   -0.6436    7.4051 C   0  0  0  0  0  0  0  0  0  0  0  0
    1.5001    0.5429    6.6334 N   0  0  0  0  0  0  0  0  0  0  0  0
   12.6522   -4.2956   10.4495 N   0  0  0  0  0  0  0  0  0  0  0  0
    9.0149   -2.6976    8.5936 C   0  0  0  0  0  0  0  0  0  0  0  0
    8.4940   -3.0499    9.4702 O   0  0  0  0  0  0  0  0  0  0  0  0
   10.2028   -3.0778    7.7438 C   0  0  2  0  0  0  0  0  0  0  0  0
    9.8205   -3.8335    6.6646 O   0  0  0  0  0  0  0  0  0  0  0  0
   11.0978   -3.9617    8.6053 C   0  0  0  0  0  0  0  0  0  0  0  0
   11.8186   -3.2837    9.7846 C   0  0  0  0  0  0  0  0  0  0  0  0
  1  2  1  1  0  0  0
  1  3  1  0  0  0  0
  3  4  1  6  0  0  0
  3  5  1  0  0  0  0
  5  6  1  1  0  0  0
  5  7  1  0  0  0  0
  7  8  1  1  0  0  0
  9  7  1  0  0  0  0
  9 10  1  0  0  0  0
  9 11  1  1  0  0  0
 10  1  1  0  0  0  0
 11 12  1  0  0  0  0
 13 14  1  1  0  0  0
 13 15  1  0  0  0  0
 13 22  1  0  0  0  0
 14 32  1  0  0  0  0
 15 16  1  6  0  0  0
 15 17  1  0  0  0  0
 16 23  1  0  0  0  0
 17 18  1  1  0  0  0
 17 19  1  0  0  0  0
 19  2  1  6  0  0  0
 19 20  1  0  0  0  0
 20 21  1  1  0  0  0
 20 22  1  0  0  0  0
 23 24  1  0  0  0  0
 24 25  1  0  0  0  0
 25 26  1  0  0  0  0
 26 27  1  0  0  0  0
 27 28  1  0  0  0  0
 28 29  1  0  0  0  0
 29 30  1  0  0  0  0
 31 37  1  0  0  0  0
 32 33  2  0  0  0  0
 34 32  1  1  0  0  0
 34 35  1  0  0  0  0
 34 36  1  0  0  0  0
 36 37  1  0  0  0  0
M  END
>  <CHROM.1>
165.36994498,175.93059323,-59.04232632,40.84234615,165.90080491,58.78443614
42.63913208,-145.58332266,44.17013542,168.69882881,-76.30014337,72.19438518
-85.93752391,-69.07491564,-178.25379645,5.35381091,-1.00357378,9.11938610
-2.65495855,0.33608220,-1.87923323

>  <Name>
1o9m_lig

>  <RI>
0

>  <Rbt.Current_Directory>
/home/itssahil/PROJECTS/Mol_Feturizer/New_Systems/rnas/1o9m

>  <Rbt.Executable>
rbdock ($Id: //depot/dev/client3/rdock/2013.1/src/exe/rbdock.cxx#4 $)

>  <Rbt.Library>
libRbt.so (2013.1, Build901 2013/11/27)

>  <Rbt.Parameter_File>
/export/apps/rDock/src/rDock_2013.1_src/data/scripts/dock_solv.prm

>  <Rbt.Receptor>
prm/blind_docking_40.prm

>  <SCORE>
-10.3617

>  <SCORE.INTER>
-5.11737

>  <SCORE.INTER.CONST>
1

>  <SCORE.INTER.POLAR>
-1.80294

>  <SCORE.INTER.ROT>
15

>  <SCORE.INTER.SOLV>
23.4793

>  <SCORE.INTER.VDW>
-18.8282

>  <SCORE.INTER.norm>
-0.138307

>  <SCORE.INTRA>
-5.24428

>  <SCORE.INTRA.DIHEDRAL>
-12.2775

>  <SCORE.INTRA.DIHEDRAL.0>
21.5987

>  <SCORE.INTRA.POLAR>
0

>  <SCORE.INTRA.POLAR.0>
0

>  <SCORE.INTRA.REPUL>
0

>  <SCORE.INTRA.REPUL.0>
0

>  <SCORE.INTRA.SOLV>
4.55016

>  <SCORE.INTRA.SOLV.lig_0>
-108.715

>  <SCORE.INTRA.VDW>
-1.38063

>  <SCORE.INTRA.VDW.0>
-3.9485

>  <SCORE.INTRA.norm>
-0.141737

>  <SCORE.RESTR>
0

>  <SCORE.RESTR.CAVITY>
0

>  <SCORE.RESTR.norm>
0

>  <SCORE.SYSTEM>
0

>  <SCORE.SYSTEM.CONST>
0

>  <SCORE.SYSTEM.DIHEDRAL>
0

>  <SCORE.SYSTEM.SOLV>
0

>  <SCORE.SYSTEM.norm>
0

>  <SCORE.heavy>
37

>  <SCORE.norm>
-0.280045

>  <RMSD>
23.850

$$$$
1o9m_lig
 OpenBabel11021811403D
libRbt.so/2013.1/901 2013/11/27
 37 38  0  0  0  0  0  0  0  0999 V2000
    9.1074   -1.5991   11.8786 C   0  0  2  0  0  0  0  0  0  0  0  0
    8.6682   -1.1880   10.5481 O   0  0  0  0  0  0  0  0  0  0  0  0
    9.7635   -0.3321   12.5409 C   0  0  2  0  0  0  0  0  0  0  0  0
    8.8238    0.7993   12.6296 N   0  0  0  0  0  0  0  0  0  0  0  0
   11.0468    0.0715   11.7199 C   0  0  1  0  0  0  0  0  0  0  0  0
   11.6635    1.2220   12.3043 O   0  0  0  0  0  0  0  0  0  0  0  0
   12.0089   -1.1617   11.6845 C   0  0  2  0  0  0  0  0  0  0  0  0
   13.2125   -0.9087   10.9415 O   0  0  0  0  0  0  0  0  0  0  0  0
   11.2950   -2.3938   11.0758 C   0  0  2  0  0  0  0  0  0  0  0  0
   10.0857   -2.6890   11.7897 O   0  0  0  0  0  0  0  0  0  0  0  0
   12.1827   -3.6114   11.0818 C   0  0  0  0  0  0  0  0  0  0  0  0
   11.6419   -4.5985   10.2927 N   0  0  0  0  0  0  0  0  0  0  0  0
    5.0984   -2.2222    8.3104 C   0  0  1  0  0  0  0  0  0  0  0  0
    4.1224   -3.0286    7.5250 N   0  0  0  0  0  0  0  0  0  0  0  0
    5.3026   -2.8823    9.6672 C   0  0  2  0  0  0  0  0  0  0  0  0
    4.0567   -2.9761   10.2909 O   0  0  0  0  0  0  0  0  0  0  0  0
    6.3067   -2.0593   10.5344 C   0  0  1  0  0  0  0  0  0  0  0  0
    6.5109   -2.7136   11.8239 O   0  0  0  0  0  0  0  0  0  0  0  0
    7.6989   -1.9639    9.7870 C   0  0  1  0  0  0  0  0  0  0  0  0
    7.5108   -1.2886    8.4370 C   0  0  1  0  0  0  0  0  0  0  0  0
    8.8031   -1.1977    7.7742 N   0  0  0  0  0  0  0  0  0  0  0  0
    6.4975   -2.0960    7.5823 C   0  0  0  0  0  0  0  0  0  0  0  0
    2.6295   -3.1516   10.4289 C   0  0  0  0  0  0  0  0  0  0  0  0
    1.9218   -1.9544    9.8371 C   0  0  0  0  0  0  0  0  0  0  0  0
    2.3890   -0.6549   10.3625 N   0  0  0  0  0  0  0  0  0  0  0  0
    2.4032    0.7174   10.9186 C   0  0  0  0  0  0  0  0  0  0  0  0
    2.1118    0.3442   12.3776 C   0  0  0  0  0  0  0  0  0  0  0  0
    3.2168   -0.5383   12.9880 C   0  0  0  0  0  0  0  0  0  0  0  0
    2.8365   -1.0026   14.3905 C   0  0  0  0  0  0  0  0  0  0  0  0
    2.6409    0.1473   15.2622 N   0  0  0  0  0  0  0  0  0  0  0  0
    0.3038   -2.1478    6.6323 N   0  0  0  0  0  0  0  0  0  0  0  0
    3.9524   -2.4118    5.8706 C   0  0  0  0  0  0  0  0  0  0  0  0
    4.3960   -1.6047    5.3085 O   0  0  0  0  0  0  0  0  0  0  0  0
    2.9308   -3.5063    5.6808 C   0  0  2  0  0  0  0  0  0  0  0  0
    3.4453   -4.5447    4.9466 O   0  0  0  0  0  0  0  0  0  0  0  0
    1.7913   -2.9102    4.8618 C   0  0  0  0  0  0  0  0  0  0  0  0
    0.3748   -3.0237    5.4538 C   0  0  0  0  0  0  0  0  0  0  0  0
  1  2  1  6  0  0  0
  1  3  1  0  0  0  0
  3  4  1  6  0  0  0
  3  5  1  0  0  0  0
  5  6  1  1  0  0  0
  5  7  1  0  0  0  0
  7  8  1  6  0  0  0
  9  7  1  0  0  0  0
  9 10  1  0  0  0  0
  9 11  1  1  0  0  0
 10  1  1  0  0  0  0
 11 12  1  0  0  0  0
 13 14  1  6  0  0  0
 13 15  1  0  0  0  0
 13 22  1  0  0  0  0
 14 32  1  0  0  0  0
 15 16  1  1  0  0  0
 15 17  1  0  0  0  0
 16 23  1  0  0  0  0
 17 18  1  1  0  0  0
 17 19  1  0  0  0  0
 19  2  1  1  0  0  0
 19 20  1  0  0  0  0
 20 21  1  6  0  0  0
 20 22  1  0  0  0  0
 23 24  1  0  0  0  0
 24 25  1  0  0  0  0
 25 26  1  0  0  0  0
 26 27  1  0  0  0  0
 27 28  1  0  0  0  0
 28 29  1  0  0  0  0
 29 30  1  0  0  0  0
 31 37  1  0  0  0  0
 32 33  2  0  0  0  0
 34 32  1  6  0  0  0
 34 35  1  0  0  0  0
 34 36  1  0  0  0  0
 36 37  1  0  0  0  0
M  END
>  <CHROM.1>
-162.56456213,-167.29236514,-174.39151950,35.17489223,-69.97257795,61.41455233
-52.87411055,-133.52729520,78.74114134,62.41727046,-174.55526536,-60.21553839
-104.03101621,-125.59975175,69.19674850,6.20008429,-1.76097222,9.88568887
0.43254608,-0.05746065,1.18952585

>  <Name>
1o9m_lig

>  <RI>
0

>  <Rbt.Current_Directory>
/home/itssahil/PROJECTS/Mol_Feturizer/New_Systems/rnas/1o9m

>  <Rbt.Executable>
rbdock ($Id: //depot/dev/client3/rdock/2013.1/src/exe/rbdock.cxx#4 $)

>  <Rbt.Library>
libRbt.so (2013.1, Build901 2013/11/27)

>  <Rbt.Parameter_File>
/export/apps/rDock/src/rDock_2013.1_src/data/scripts/dock_solv.prm

>  <Rbt.Receptor>
prm/blind_docking_60.prm

>  <SCORE>
-6.43724

>  <SCORE.INTER>
-3.55822

>  <SCORE.INTER.CONST>
1

>  <SCORE.INTER.POLAR>
-1.76621

>  <SCORE.INTER.ROT>
15

>  <SCORE.INTER.SOLV>
17.5978

>  <SCORE.INTER.VDW>
-15.9507

>  <SCORE.INTER.norm>
-0.0961681

>  <SCORE.INTRA>
-2.87901

>  <SCORE.INTRA.DIHEDRAL>
-7.44585

>  <SCORE.INTRA.DIHEDRAL.0>
21.5987

>  <SCORE.INTRA.POLAR>
0

>  <SCORE.INTRA.POLAR.0>
0

>  <SCORE.INTRA.REPUL>
0

>  <SCORE.INTRA.REPUL.0>
0

>  <SCORE.INTRA.SOLV>
3.00043

>  <SCORE.INTRA.SOLV.lig_0>
-108.715

>  <SCORE.INTRA.VDW>
-0.656303

>  <SCORE.INTRA.VDW.0>
-3.9485

>  <SCORE.INTRA.norm>
-0.0778112

>  <SCORE.RESTR>
0

>  <SCORE.RESTR.CAVITY>
0

>  <SCORE.RESTR.norm>
0

>  <SCORE.SYSTEM>
0

>  <SCORE.SYSTEM.CONST>
0

>  <SCORE.SYSTEM.DIHEDRAL>
0

>  <SCORE.SYSTEM.SOLV>
0

>  <SCORE.SYSTEM.norm>
0

>  <SCORE.heavy>
37

>  <SCORE.norm>
-0.173979

>  <RMSD>
23.877

$$$$
1o9m_lig
 OpenBabel11021811403D
libRbt.so/2013.1/901 2013/11/27
 37 38  0  0  0  0  0  0  0  0999 V2000
    8.7582   -2.5868   12.6885 C   0  0  2  0  0  0  0  0  0  0  0  0
    8.6754   -1.6511   11.5706 O   0  0  0  0  0  0  0  0  0  0  0  0
   10.2861   -2.9005   12.8928 C   0  0  2  0  0  0  0  0  0  0  0  0
   11.0713   -1.6854   13.1720 N   0  0  0  0  0  0  0  0  0  0  0  0
   10.8356   -3.6382   11.6130 C   0  0  1  0  0  0  0  0  0  0  0  0
   12.2250   -3.9364   11.7752 O   0  0  0  0  0  0  0  0  0  0  0  0
    9.9764   -4.9261   11.3880 C   0  0  2  0  0  0  0  0  0  0  0  0
   10.3828   -5.6720   10.2290 O   0  0  0  0  0  0  0  0  0  0  0  0
    8.4769   -4.5648   11.2498 C   0  0  2  0  0  0  0  0  0  0  0  0
    8.0227   -3.8206   12.3896 O   0  0  0  0  0  0  0  0  0  0  0  0
    7.6202   -5.7939   11.0881 C   0  0  0  0  0  0  0  0  0  0  0  0
    6.3041   -5.4373   10.9152 N   0  0  0  0  0  0  0  0  0  0  0  0
    5.5186   -0.5043    8.8247 C   0  0  1  0  0  0  0  0  0  0  0  0
    4.4513   -0.6184    7.7915 N   0  0  0  0  0  0  0  0  0  0  0  0
    5.1416   -1.3707   10.0187 C   0  0  2  0  0  0  0  0  0  0  0  0
    3.8956   -0.9437   10.4827 O   0  0  0  0  0  0  0  0  0  0  0  0
    6.2255   -1.2676   11.1378 C   0  0  1  0  0  0  0  0  0  0  0  0
    5.8639   -2.1192   12.2677 O   0  0  0  0  0  0  0  0  0  0  0  0
    7.6231   -1.7455   10.5683 C   0  0  1  0  0  0  0  0  0  0  0  0
    8.0197   -0.8747    9.3858 C   0  0  1  0  0  0  0  0  0  0  0  0
    9.3122   -1.3208    8.8877 N   0  0  0  0  0  0  0  0  0  0  0  0
    6.9325   -0.9617    8.2813 C   0  0  0  0  0  0  0  0  0  0  0  0
    2.7778   -0.7793   11.3828 C   0  0  0  0  0  0  0  0  0  0  0  0
    2.7909    0.6254   11.9406 C   0  0  0  0  0  0  0  0  0  0  0  0
    2.0085    0.7901   13.1830 N   0  0  0  0  0  0  0  0  0  0  0  0
    0.8929    0.7871   14.1566 C   0  0  0  0  0  0  0  0  0  0  0  0
    1.6427    0.1205   15.3169 C   0  0  0  0  0  0  0  0  0  0  0  0
    1.8981   -1.3774   15.0651 C   0  0  0  0  0  0  0  0  0  0  0  0
    3.1958   -1.5908   14.2921 C   0  0  0  0  0  0  0  0  0  0  0  0
    4.2141   -0.6597   14.7573 N   0  0  0  0  0  0  0  0  0  0  0  0
    0.9014   -2.9364    4.6248 N   0  0  0  0  0  0  0  0  0  0  0  0
    4.2964   -2.2830    7.1985 C   0  0  0  0  0  0  0  0  0  0  0  0
    4.7840   -3.2196    7.4199 O   0  0  0  0  0  0  0  0  0  0  0  0
    3.2251   -1.7443    6.2822 C   0  0  2  0  0  0  0  0  0  0  0  0
    1.9754   -1.9244    6.8186 O   0  0  0  0  0  0  0  0  0  0  0  0
    3.2791   -2.5733    5.0037 C   0  0  0  0  0  0  0  0  0  0  0  0
    2.1196   -2.3926    4.0073 C   0  0  0  0  0  0  0  0  0  0  0  0
  1  2  1  6  0  0  0
  1  3  1  0  0  0  0
  3  4  1  6  0  0  0
  3  5  1  0  0  0  0
  5  6  1  1  0  0  0
  5  7  1  0  0  0  0
  7  8  1  6  0  0  0
  9  7  1  0  0  0  0
  9 10  1  0  0  0  0
  9 11  1  1  0  0  0
 10  1  1  0  0  0  0
 11 12  1  0  0  0  0
 13 14  1  6  0  0  0
 13 15  1  0  0  0  0
 13 22  1  0  0  0  0
 14 32  1  0  0  0  0
 15 16  1  1  0  0  0
 15 17  1  0  0  0  0
 16 23  1  0  0  0  0
 17 18  1  1  0  0  0
 17 19  1  0  0  0  0
 19  2  1  1  0  0  0
 19 20  1  0  0  0  0
 20 21  1  6  0  0  0
 20 22  1  0  0  0  0
 23 24  1  0  0  0  0
 24 25  1  0  0  0  0
 25 26  1  0  0  0  0
 26 27  1  0  0  0  0
 27 28  1  0  0  0  0
 28 29  1  0  0  0  0
 29 30  1  0  0  0  0
 31 37  1  0  0  0  0
 32 33  2  0  0  0  0
 34 32  1  1  0  0  0
 34 35  1  0  0  0  0
 34 36  1  0  0  0  0
 36 37  1  0  0  0  0
M  END
>  <CHROM.1>
140.52571852,-177.62621535,-62.12862140,-162.77909782,105.68018355,73.29429843
-160.42212332,-56.32176424,132.34241477,-72.23598538,87.11260027,38.91234974
-96.01567853,169.19255677,-67.82857941,5.82979650,-2.11264445,10.54990098
0.28842075,-0.36548764,1.35448258

>  <Name>
1o9m_lig

>  <RI>
0

>  <Rbt.Current_Directory>
/home/itssahil/PROJECTS/Mol_Feturizer/New_Systems/rnas/1o9m

>  <Rbt.Executable>
rbdock ($Id: //depot/dev/client3/rdock/2013.1/src/exe/rbdock.cxx#4 $)

>  <Rbt.Library>
libRbt.so (2013.1, Build901 2013/11/27)

>  <Rbt.Parameter_File>
/export/apps/rDock/src/rDock_2013.1_src/data/scripts/dock_solv.prm

>  <Rbt.Receptor>
prm/blind_docking_80.prm

>  <SCORE>
-2.12354

>  <SCORE.INTER>
-9.08651

>  <SCORE.INTER.CONST>
1

>  <SCORE.INTER.POLAR>
-2.52517

>  <SCORE.INTER.ROT>
15

>  <SCORE.INTER.SOLV>
19.3577

>  <SCORE.INTER.VDW>
-17.693

>  <SCORE.INTER.norm>
-0.245581

>  <SCORE.INTRA>
6.62968

>  <SCORE.INTRA.DIHEDRAL>
1.6117

>  <SCORE.INTRA.DIHEDRAL.0>
21.5987

>  <SCORE.INTRA.POLAR>
0

>  <SCORE.INTRA.POLAR.0>
0

>  <SCORE.INTRA.REPUL>
0.00408005

>  <SCORE.INTRA.REPUL.0>
0

>  <SCORE.INTRA.SOLV>
9.193

>  <SCORE.INTRA.SOLV.lig_0>
-108.715

>  <SCORE.INTRA.VDW>
1.20693

>  <SCORE.INTRA.VDW.0>
-3.9485

>  <SCORE.INTRA.norm>
0.179181

>  <SCORE.RESTR>
0.333289

>  <SCORE.RESTR.CAVITY>
0.333289

>  <SCORE.RESTR.norm>
0.0090078

>  <SCORE.SYSTEM>
0

>  <SCORE.SYSTEM.CONST>
0

>  <SCORE.SYSTEM.DIHEDRAL>
0

>  <SCORE.SYSTEM.SOLV>
0

>  <SCORE.SYSTEM.norm>
0

>  <SCORE.heavy>
37

>  <SCORE.norm>
-0.0573929

>  <RMSD>
23.888

$$$$
1o9m_lig
 OpenBabel11021811403D
libRbt.so/2013.1/901 2013/11/27
 37 38  0  0  0  0  0  0  0  0999 V2000
    9.2102   -1.8599   12.0091 C   0  0  2  0  0  0  0  0  0  0  0  0
    8.7995   -1.4794   10.6605 O   0  0  0  0  0  0  0  0  0  0  0  0
   10.7002   -1.3821   12.1711 C   0  0  2  0  0  0  0  0  0  0  0  0
   10.8432    0.0711   11.9742 N   0  0  0  0  0  0  0  0  0  0  0  0
   11.6082   -2.1747   11.1557 C   0  0  1  0  0  0  0  0  0  0  0  0
   12.9704   -1.7587   11.2850 O   0  0  0  0  0  0  0  0  0  0  0  0
   11.4276   -3.7037   11.4336 C   0  0  2  0  0  0  0  0  0  0  0  0
   12.2029   -4.5269   10.5469 O   0  0  0  0  0  0  0  0  0  0  0  0
    9.9372   -4.1078   11.3159 C   0  0  2  0  0  0  0  0  0  0  0  0
    9.1213   -3.3133   12.1892 O   0  0  0  0  0  0  0  0  0  0  0  0
    9.7284   -5.5657   11.6343 C   0  0  0  0  0  0  0  0  0  0  0  0
    9.2493   -5.7094   12.9146 N   0  0  0  0  0  0  0  0  0  0  0  0
    5.0857   -2.1337    8.5158 C   0  0  1  0  0  0  0  0  0  0  0  0
    3.9856   -2.8431    7.8044 N   0  0  0  0  0  0  0  0  0  0  0  0
    5.1986   -2.6921    9.9278 C   0  0  2  0  0  0  0  0  0  0  0  0
    3.9608   -2.5304   10.5537 O   0  0  0  0  0  0  0  0  0  0  0  0
    6.3300   -1.9633   10.7193 C   0  0  1  0  0  0  0  0  0  0  0  0
    6.4431   -2.5221   12.0637 O   0  0  0  0  0  0  0  0  0  0  0  0
    7.7111   -2.1577    9.9705 C   0  0  1  0  0  0  0  0  0  0  0  0
    7.6166   -1.5863    8.5640 C   0  0  1  0  0  0  0  0  0  0  0  0
    8.8993   -1.7617    7.8995 N   0  0  0  0  0  0  0  0  0  0  0  0
    6.4787   -2.2972    7.7834 C   0  0  0  0  0  0  0  0  0  0  0  0
    2.9476   -2.6248   11.5790 C   0  0  0  0  0  0  0  0  0  0  0  0
    3.3835   -1.8234   12.7841 C   0  0  0  0  0  0  0  0  0  0  0  0
    2.5049   -1.9761   13.9621 N   0  0  0  0  0  0  0  0  0  0  0  0
    1.6455   -1.6695   15.1283 C   0  0  0  0  0  0  0  0  0  0  0  0
    2.0339   -0.1933   15.2795 C   0  0  0  0  0  0  0  0  0  0  0  0
    1.3452    0.7032   14.2335 C   0  0  0  0  0  0  0  0  0  0  0  0
    1.8999    2.1237   14.2773 C   0  0  0  0  0  0  0  0  0  0  0  0
    1.1051    2.9975   13.4259 N   0  0  0  0  0  0  0  0  0  0  0  0
   -1.7112   -3.0486    6.0156 N   0  0  0  0  0  0  0  0  0  0  0  0
    2.8362   -1.7011    7.0823 C   0  0  0  0  0  0  0  0  0  0  0  0
    2.7592   -0.6262    7.0323 O   0  0  0  0  0  0  0  0  0  0  0  0
    2.0732   -2.9211    6.6272 C   0  0  2  0  0  0  0  0  0  0  0  0
    2.4385   -3.2909    5.3577 O   0  0  0  0  0  0  0  0  0  0  0  0
    0.6024   -2.5244    6.5641 C   0  0  0  0  0  0  0  0  0  0  0  0
   -0.4162   -3.6586    6.3499 C   0  0  0  0  0  0  0  0  0  0  0  0
  1  2  1  6  0  0  0
  1  3  1  0  0  0  0
  3  4  1  6  0  0  0
  3  5  1  0  0  0  0
  5  6  1  1  0  0  0
  5  7  1  0  0  0  0
  7  8  1  6  0  0  0
  9  7  1  0  0  0  0
  9 10  1  0  0  0  0
  9 11  1  1  0  0  0
 10  1  1  0  0  0  0
 11 12  1  0  0  0  0
 13 14  1  6  0  0  0
 13 15  1  0  0  0  0
 13 22  1  0  0  0  0
 14 32  1  0  0  0  0
 15 16  1  1  0  0  0
 15 17  1  0  0  0  0
 16 23  1  0  0  0  0
 17 18  1  1  0  0  0
 17 19  1  0  0  0  0
 19  2  1  1  0  0  0
 19 20  1  0  0  0  0
 20 21  1  6  0  0  0
 20 22  1  0  0  0  0
 23 24  1  0  0  0  0
 24 25  1  0  0  0  0
 25 26  1  0  0  0  0
 26 27  1  0  0  0  0
 27 28  1  0  0  0  0
 28 29  1  0  0  0  0
 29 30  1  0  0  0  0
 31 37  1  0  0  0  0
 32 33  2  0  0  0  0
 34 32  1  6  0  0  0
 34 35  1  0  0  0  0
 34 36  1  0  0  0  0
 36 37  1  0  0  0  0
M  END
>  <CHROM.1>
156.77482186,100.83921654,128.09857405,176.36580263,65.13922558,63.31606144
-172.95801691,-130.17748584,-14.25825667,77.12971000,-171.81747314,-171.62767461
-93.45231706,-170.14190787,-167.30888432,5.76932896,-2.12129787,10.51068928
0.14857025,-0.19981858,1.21645260

>  <Name>
1o9m_lig

>  <RI>
0

>  <Rbt.Current_Directory>
/home/itssahil/PROJECTS/Mol_Feturizer/New_Systems/rnas/1o9m

>  <Rbt.Executable>
rbdock ($Id: //depot/dev/client3/rdock/2013.1/src/exe/rbdock.cxx#4 $)

>  <Rbt.Library>
libRbt.so (2013.1, Build901 2013/11/27)

>  <Rbt.Parameter_File>
/export/apps/rDock/src/rDock_2013.1_src/data/scripts/dock_solv.prm

>  <Rbt.Receptor>
prm/blind_docking_80.prm

>  <SCORE>
-11.6939

>  <SCORE.INTER>
-8.08729

>  <SCORE.INTER.CONST>
1

>  <SCORE.INTER.POLAR>
-1.83624

>  <SCORE.INTER.ROT>
15

>  <SCORE.INTER.SOLV>
12.1712

>  <SCORE.INTER.VDW>
-16.9278

>  <SCORE.INTER.norm>
-0.218575

>  <SCORE.INTRA>
-3.60656

>  <SCORE.INTRA.DIHEDRAL>
-7.36585

>  <SCORE.INTRA.DIHEDRAL.0>
21.5987

>  <SCORE.INTRA.POLAR>
0

>  <SCORE.INTRA.POLAR.0>
0

>  <SCORE.INTRA.REPUL>
0

>  <SCORE.INTRA.REPUL.0>
0

>  <SCORE.INTRA.SOLV>
-0.655814

>  <SCORE.INTRA.SOLV.lig_0>
-108.715

>  <SCORE.INTRA.VDW>
0.404269

>  <SCORE.INTRA.VDW.0>
-3.9485

>  <SCORE.INTRA.norm>
-0.0974747

>  <SCORE.RESTR>
0

>  <SCORE.RESTR.CAVITY>
0

>  <SCORE.RESTR.norm>
0

>  <SCORE.SYSTEM>
0

>  <SCORE.SYSTEM.CONST>
0

>  <SCORE.SYSTEM.DIHEDRAL>
0

>  <SCORE.SYSTEM.SOLV>
0

>  <SCORE.SYSTEM.norm>
0

>  <SCORE.heavy>
37

>  <SCORE.norm>
-0.31605

>  <RMSD>
23.905

$$$$
1o9m_lig
 OpenBabel11021811403D
libRbt.so/2013.1/901 2013/11/27
 37 38  0  0  0  0  0  0  0  0999 V2000
   10.5493   -0.8402    8.8653 C   0  0  2  0  0  0  0  0  0  0  0  0
   10.2829   -2.2731    8.9558 O   0  0  0  0  0  0  0  0  0  0  0  0
   11.9428   -0.6031    9.5555 C   0  0  2  0  0  0  0  0  0  0  0  0
   13.0209   -1.3745    8.9124 N   0  0  0  0  0  0  0  0  0  0  0  0
   11.8292   -0.9703   11.0839 C   0  0  1  0  0  0  0  0  0  0  0  0
   13.0853   -0.7610   11.7351 O   0  0  0  0  0  0  0  0  0  0  0  0
   10.6871   -0.1026   11.7086 C   0  0  2  0  0  0  0  0  0  0  0  0
   10.4842   -0.3703   13.1057 O   0  0  0  0  0  0  0  0  0  0  0  0
    9.3530   -0.3327   10.9564 C   0  0  2  0  0  0  0  0  0  0  0  0
    9.5053   -0.0726    9.5534 O   0  0  0  0  0  0  0  0  0  0  0  0
    8.2485    0.5343   11.5032 C   0  0  0  0  0  0  0  0  0  0  0  0
    7.8330    0.0615   12.7251 N   0  0  0  0  0  0  0  0  0  0  0  0
    6.1215   -2.5782    7.7683 C   0  0  1  0  0  0  0  0  0  0  0  0
    4.8314   -3.1789    7.3274 N   0  0  0  0  0  0  0  0  0  0  0  0
    6.5307   -3.2092    9.0923 C   0  0  2  0  0  0  0  0  0  0  0  0
    5.4973   -2.9960   10.0071 O   0  0  0  0  0  0  0  0  0  0  0  0
    7.8720   -2.5951    9.6037 C   0  0  1  0  0  0  0  0  0  0  0  0
    8.2648   -3.2233   10.8621 O   0  0  0  0  0  0  0  0  0  0  0  0
    9.0116   -2.8446    8.5337 C   0  0  1  0  0  0  0  0  0  0  0  0
    8.6225   -2.2021    7.2110 C   0  0  1  0  0  0  0  0  0  0  0  0
    9.6889   -2.4301    6.2474 N   0  0  0  0  0  0  0  0  0  0  0  0
    7.2790   -2.7984    6.7123 C   0  0  0  0  0  0  0  0  0  0  0  0
    4.7949   -2.9956   11.2693 C   0  0  0  0  0  0  0  0  0  0  0  0
    3.3834   -2.5004   11.0528 C   0  0  0  0  0  0  0  0  0  0  0  0
    2.7170   -2.0172   12.2797 N   0  0  0  0  0  0  0  0  0  0  0  0
    2.4581   -1.6440   13.6890 C   0  0  0  0  0  0  0  0  0  0  0  0
    2.7406   -0.1425   13.5527 C   0  0  0  0  0  0  0  0  0  0  0  0
    1.5573    0.6216   12.9296 C   0  0  0  0  0  0  0  0  0  0  0  0
    1.9337    2.0701   12.6337 C   0  0  0  0  0  0  0  0  0  0  0  0
    2.7604    2.1376   11.4370 N   0  0  0  0  0  0  0  0  0  0  0  0
   -0.1143   -2.4464    7.8790 N   0  0  0  0  0  0  0  0  0  0  0  0
    4.2724   -2.4692    5.8008 C   0  0  0  0  0  0  0  0  0  0  0  0
    4.6533   -1.7208    5.1235 O   0  0  0  0  0  0  0  0  0  0  0  0
    3.0723   -3.3732    5.9429 C   0  0  2  0  0  0  0  0  0  0  0  0
    2.5413   -3.6906    4.7184 O   0  0  0  0  0  0  0  0  0  0  0  0
    2.0075   -2.5797    6.6921 C   0  0  0  0  0  0  0  0  0  0  0  0
    0.6772   -3.2990    6.9802 C   0  0  0  0  0  0  0  0  0  0  0  0
  1  2  1  1  0  0  0
  1  3  1  0  0  0  0
  3  4  1  6  0  0  0
  3  5  1  0  0  0  0
  5  6  1  1  0  0  0
  5  7  1  0  0  0  0
  7  8  1  1  0  0  0
  9  7  1  0  0  0  0
  9 10  1  0  0  0  0
  9 11  1  1  0  0  0
 10  1  1  0  0  0  0
 11 12  1  0  0  0  0
 13 14  1  6  0  0  0
 13 15  1  0  0  0  0
 13 22  1  0  0  0  0
 14 32  1  0  0  0  0
 15 16  1  1  0  0  0
 15 17  1  0  0  0  0
 16 23  1  0  0  0  0
 17 18  1  1  0  0  0
 17 19  1  0  0  0  0
 19  2  1  1  0  0  0
 19 20  1  0  0  0  0
 20 21  1  6  0  0  0
 20 22  1  0  0  0  0
 23 24  1  0  0  0  0
 24 25  1  0  0  0  0
 25 26  1  0  0  0  0
 26 27  1  0  0  0  0
 27 28  1  0  0  0  0
 28 29  1  0  0  0  0
 29 30  1  0  0  0  0
 31 37  1  0  0  0  0
 32 33  2  0  0  0  0
 34 32  1  6  0  0  0
 34 35  1  0  0  0  0
 34 36  1  0  0  0  0
 36 37  1  0  0  0  0
M  END
>  <CHROM.1>
173.87193740,-73.44688432,178.92824041,-174.03041598,-175.37766772,-77.08311981
-160.14453151,1.19842458,97.49007969,78.99302948,-172.35084047,76.51782585
-152.26121843,-179.26596661,171.32889060,6.49527288,-1.60174522,9.58243593
-0.19244460,-0.02594472,-1.99379228

>  <Name>
1o9m_lig

>  <RI>
0

>  <Rbt.Current_Directory>
/home/itssahil/PROJECTS/Mol_Feturizer/New_Systems/rnas/1o9m

>  <Rbt.Executable>
rbdock ($Id: //depot/dev/client3/rdock/2013.1/src/exe/rbdock.cxx#4 $)

>  <Rbt.Library>
libRbt.so (2013.1, Build901 2013/11/27)

>  <Rbt.Parameter_File>
/export/apps/rDock/src/rDock_2013.1_src/data/scripts/dock_solv.prm

>  <Rbt.Receptor>
prm/blind_docking_40.prm

>  <SCORE>
-9.17952

>  <SCORE.INTER>
-4.24737

>  <SCORE.INTER.CONST>
1

>  <SCORE.INTER.POLAR>
-0.875118

>  <SCORE.INTER.ROT>
15

>  <SCORE.INTER.SOLV>
10.4443

>  <SCORE.INTER.VDW>
-16.996

>  <SCORE.INTER.norm>
-0.114794

>  <SCORE.INTRA>
-4.93215

>  <SCORE.INTRA.DIHEDRAL>
-11.3041

>  <SCORE.INTRA.DIHEDRAL.0>
21.5987

>  <SCORE.INTRA.POLAR>
0

>  <SCORE.INTRA.POLAR.0>
0

>  <SCORE.INTRA.REPUL>
0

>  <SCORE.INTRA.REPUL.0>
0

>  <SCORE.INTRA.SOLV>
1.69998

>  <SCORE.INTRA.SOLV.lig_0>
-108.715

>  <SCORE.INTRA.VDW>
-0.130078

>  <SCORE.INTRA.VDW.0>
-3.9485

>  <SCORE.INTRA.norm>
-0.133301

>  <SCORE.RESTR>
0

>  <SCORE.RESTR.CAVITY>
0

>  <SCORE.RESTR.norm>
0

>  <SCORE.SYSTEM>
0

>  <SCORE.SYSTEM.CONST>
0

>  <SCORE.SYSTEM.DIHEDRAL>
0

>  <SCORE.SYSTEM.SOLV>
0

>  <SCORE.SYSTEM.norm>
0

>  <SCORE.heavy>
37

>  <SCORE.norm>
-0.248095

>  <RMSD>
23.916

$$$$
1o9m_lig
 OpenBabel11021811403D
libRbt.so/2013.1/901 2013/11/27
 37 38  0  0  0  0  0  0  0  0999 V2000
    2.2946    1.7028   13.1902 C   0  0  2  0  0  0  0  0  0  0  0  0
    3.7462    1.6005   13.3111 O   0  0  0  0  0  0  0  0  0  0  0  0
    1.7298    1.7613   14.6571 C   0  0  2  0  0  0  0  0  0  0  0  0
    2.2703    2.9023   15.4166 N   0  0  0  0  0  0  0  0  0  0  0  0
    2.0517    0.4022   15.3872 C   0  0  1  0  0  0  0  0  0  0  0  0
    1.5458    0.4300   16.7247 O   0  0  0  0  0  0  0  0  0  0  0  0
    1.4321   -0.7609   14.5443 C   0  0  2  0  0  0  0  0  0  0  0  0
    1.6819   -2.0565   15.1135 O   0  0  0  0  0  0  0  0  0  0  0  0
    1.9795   -0.7372   13.0958 C   0  0  2  0  0  0  0  0  0  0  0  0
    1.7484    0.5394   12.4824 O   0  0  0  0  0  0  0  0  0  0  0  0
    1.3554   -1.8142   12.2465 C   0  0  0  0  0  0  0  0  0  0  0  0
    2.0586   -1.9636   11.0749 N   0  0  0  0  0  0  0  0  0  0  0  0
    7.0979   -0.0878   11.1348 C   0  0  1  0  0  0  0  0  0  0  0  0
    7.8824   -1.0104   10.2671 N   0  0  0  0  0  0  0  0  0  0  0  0
    5.9406    0.4826   10.3263 C   0  0  2  0  0  0  0  0  0  0  0  0
    6.4741    1.1218    9.2051 O   0  0  0  0  0  0  0  0  0  0  0  0
    5.0990    1.4723   11.1923 C   0  0  1  0  0  0  0  0  0  0  0  0
    3.9803    1.9956   10.4131 O   0  0  0  0  0  0  0  0  0  0  0  0
    4.5260    0.7142   12.4582 C   0  0  1  0  0  0  0  0  0  0  0  0
    5.6744    0.1556   13.2846 C   0  0  1  0  0  0  0  0  0  0  0  0
    5.1269   -0.5233   14.4495 N   0  0  0  0  0  0  0  0  0  0  0  0
    6.5227   -0.8132   12.4180 C   0  0  0  0  0  0  0  0  0  0  0  0
    7.3140    1.3361    8.0496 C   0  0  0  0  0  0  0  0  0  0  0  0
    7.6343    0.0030    7.4134 C   0  0  0  0  0  0  0  0  0  0  0  0
    6.5377   -0.9839    7.4925 N   0  0  0  0  0  0  0  0  0  0  0  0
    5.2051   -1.5965    7.6962 C   0  0  0  0  0  0  0  0  0  0  0  0
    5.3872   -2.7893    6.7492 C   0  0  0  0  0  0  0  0  0  0  0  0
    5.1714   -2.4036    5.2738 C   0  0  0  0  0  0  0  0  0  0  0  0
    3.6853   -2.3368    4.9354 C   0  0  0  0  0  0  0  0  0  0  0  0
    3.0590   -1.2329    5.6490 N   0  0  0  0  0  0  0  0  0  0  0  0
   12.8559   -4.3307    9.2182 N   0  0  0  0  0  0  0  0  0  0  0  0
    9.2154   -1.7664   11.1605 C   0  0  0  0  0  0  0  0  0  0  0  0
    9.5756   -1.7195   12.1764 O   0  0  0  0  0  0  0  0  0  0  0  0
    9.5661   -2.4408    9.8567 C   0  0  2  0  0  0  0  0  0  0  0  0
    8.6861   -3.4530    9.5682 O   0  0  0  0  0  0  0  0  0  0  0  0
   10.9336   -3.0875   10.0474 C   0  0  0  0  0  0  0  0  0  0  0  0
   11.5250   -3.8351    8.8386 C   0  0  0  0  0  0  0  0  0  0  0  0
  1  2  1  1  0  0  0
  1  3  1  0  0  0  0
  3  4  1  1  0  0  0
  3  5  1  0  0  0  0
  5  6  1  1  0  0  0
  5  7  1  0  0  0  0
  7  8  1  1  0  0  0
  9  7  1  0  0  0  0
  9 10  1  0  0  0  0
  9 11  1  6  0  0  0
 10  1  1  0  0  0  0
 11 12  1  0  0  0  0
 13 14  1  6  0  0  0
 13 15  1  0  0  0  0
 13 22  1  0  0  0  0
 14 32  1  0  0  0  0
 15 16  1  6  0  0  0
 15 17  1  0  0  0  0
 16 23  1  0  0  0  0
 17 18  1  6  0  0  0
 17 19  1  0  0  0  0
 19  2  1  1  0  0  0
 19 20  1  0  0  0  0
 20 21  1  1  0  0  0
 20 22  1  0  0  0  0
 23 24  1  0  0  0  0
 24 25  1  0  0  0  0
 25 26  1  0  0  0  0
 26 27  1  0  0  0  0
 27 28  1  0  0  0  0
 28 29  1  0  0  0  0
 29 30  1  0  0  0  0
 31 37  1  0  0  0  0
 32 33  2  0  0  0  0
 34 32  1  1  0  0  0
 34 35  1  0  0  0  0
 34 36  1  0  0  0  0
 36 37  1  0  0  0  0
M  END
>  <CHROM.1>
138.66436819,-166.71825755,-177.75785024,43.84902229,31.42542665,94.71652986
34.70952105,12.66936395,154.43891115,-80.03636889,-80.02327602,66.96209143
-74.51895849,-179.37988325,177.80806472,5.35351262,-0.67957526,10.99312189
2.39449740,-0.27455149,1.41163603

>  <Name>
1o9m_lig

>  <RI>
0

>  <Rbt.Current_Directory>
/home/itssahil/PROJECTS/Mol_Feturizer/New_Systems/rnas/1o9m

>  <Rbt.Executable>
rbdock ($Id: //depot/dev/client3/rdock/2013.1/src/exe/rbdock.cxx#4 $)

>  <Rbt.Library>
libRbt.so (2013.1, Build901 2013/11/27)

>  <Rbt.Parameter_File>
/export/apps/rDock/src/rDock_2013.1_src/data/scripts/dock_solv.prm

>  <Rbt.Receptor>
prm/blind_docking_40.prm

>  <SCORE>
-6.04938

>  <SCORE.INTER>
-9.06451

>  <SCORE.INTER.CONST>
1

>  <SCORE.INTER.POLAR>
-2.02655

>  <SCORE.INTER.ROT>
15

>  <SCORE.INTER.SOLV>
23.7526

>  <SCORE.INTER.VDW>
-20.8054

>  <SCORE.INTER.norm>
-0.244987

>  <SCORE.INTRA>
2.74079

>  <SCORE.INTRA.DIHEDRAL>
1.33693

>  <SCORE.INTRA.DIHEDRAL.0>
21.5987

>  <SCORE.INTRA.POLAR>
0

>  <SCORE.INTRA.POLAR.0>
0

>  <SCORE.INTRA.REPUL>
0

>  <SCORE.INTRA.REPUL.0>
0

>  <SCORE.INTRA.SOLV>
6.25801

>  <SCORE.INTRA.SOLV.lig_0>
-108.715

>  <SCORE.INTRA.VDW>
-1.05668

>  <SCORE.INTRA.VDW.0>
-3.9485

>  <SCORE.INTRA.norm>
0.0740753

>  <SCORE.RESTR>
0.274352

>  <SCORE.RESTR.CAVITY>
0.274352

>  <SCORE.RESTR.norm>
0.00741493

>  <SCORE.SYSTEM>
0

>  <SCORE.SYSTEM.CONST>
0

>  <SCORE.SYSTEM.DIHEDRAL>
0

>  <SCORE.SYSTEM.SOLV>
0

>  <SCORE.SYSTEM.norm>
0

>  <SCORE.heavy>
37

>  <SCORE.norm>
-0.163497

>  <RMSD>
23.924

$$$$
1o9m_lig
 OpenBabel11021811403D
libRbt.so/2013.1/901 2013/11/27
 37 38  0  0  0  0  0  0  0  0999 V2000
    9.9609   -1.5574    7.8002 C   0  0  2  0  0  0  0  0  0  0  0  0
    9.0528   -2.1855    8.7557 O   0  0  0  0  0  0  0  0  0  0  0  0
   10.4880   -2.7082    6.8661 C   0  0  2  0  0  0  0  0  0  0  0  0
    9.3931   -3.4015    6.1650 N   0  0  0  0  0  0  0  0  0  0  0  0
   11.3312   -3.7241    7.7267 C   0  0  1  0  0  0  0  0  0  0  0  0
   11.8239   -4.7807    6.8982 O   0  0  0  0  0  0  0  0  0  0  0  0
   12.4859   -2.9303    8.4223 C   0  0  2  0  0  0  0  0  0  0  0  0
   13.3132   -3.7621    9.2521 O   0  0  0  0  0  0  0  0  0  0  0  0
   11.9142   -1.7766    9.2829 C   0  0  2  0  0  0  0  0  0  0  0  0
   11.0821   -0.9137    8.4939 O   0  0  0  0  0  0  0  0  0  0  0  0
   13.0094   -0.9608    9.9197 C   0  0  0  0  0  0  0  0  0  0  0  0
   13.6119   -1.6767   10.9266 N   0  0  0  0  0  0  0  0  0  0  0  0
    5.3172   -0.9084   10.5543 C   0  0  1  0  0  0  0  0  0  0  0  0
    4.3509   -0.1056   11.3551 N   0  0  0  0  0  0  0  0  0  0  0  0
    5.9349   -0.0138    9.4881 C   0  0  2  0  0  0  0  0  0  0  0  0
    4.8976    0.5094    8.7131 O   0  0  0  0  0  0  0  0  0  0  0  0
    6.9435   -0.8196    8.6100 C   0  0  1  0  0  0  0  0  0  0  0  0
    7.5449    0.0536    7.6059 O   0  0  0  0  0  0  0  0  0  0  0  0
    8.0928   -1.4073    9.5263 C   0  0  1  0  0  0  0  0  0  0  0  0
    7.4894   -2.3183   10.5845 C   0  0  1  0  0  0  0  0  0  0  0  0
    8.5628   -2.8588   11.4051 N   0  0  0  0  0  0  0  0  0  0  0  0
    6.4720   -1.5222   11.4450 C   0  0  0  0  0  0  0  0  0  0  0  0
    3.6961    1.2432    8.3901 C   0  0  0  0  0  0  0  0  0  0  0  0
    2.4911    0.3831    8.6944 C   0  0  0  0  0  0  0  0  0  0  0  0
    2.4529   -0.8908    7.9469 N   0  0  0  0  0  0  0  0  0  0  0  0
    2.6974   -2.2929    7.5386 C   0  0  0  0  0  0  0  0  0  0  0  0
    1.7264   -2.9590    8.5216 C   0  0  0  0  0  0  0  0  0  0  0  0
    2.1374   -2.7396    9.9896 C   0  0  0  0  0  0  0  0  0  0  0  0
    3.4359   -3.4727   10.3117 C   0  0  0  0  0  0  0  0  0  0  0  0
    3.7733   -3.2984   11.7174 N   0  0  0  0  0  0  0  0  0  0  0  0
    0.5916   -2.0618   13.5968 N   0  0  0  0  0  0  0  0  0  0  0  0
    4.5433   -0.4024   13.0934 C   0  0  0  0  0  0  0  0  0  0  0  0
    5.1979   -1.0141   13.6945 O   0  0  0  0  0  0  0  0  0  0  0  0
    3.3925    0.5567   13.2766 C   0  0  2  0  0  0  0  0  0  0  0  0
    3.3416    1.0321   14.5625 O   0  0  0  0  0  0  0  0  0  0  0  0
    2.1126   -0.2405   13.0510 C   0  0  0  0  0  0  0  0  0  0  0  0
    1.8495   -1.4198   14.0049 C   0  0  0  0  0  0  0  0  0  0  0  0
  1  2  1  1  0  0  0
  1  3  1  0  0  0  0
  3  4  1  1  0  0  0
  3  5  1  0  0  0  0
  5  6  1  6  0  0  0
  5  7  1  0  0  0  0
  7  8  1  1  0  0  0
  9  7  1  0  0  0  0
  9 10  1  0  0  0  0
  9 11  1  6  0  0  0
 10  1  1  0  0  0  0
 11 12  1  0  0  0  0
 13 14  1  1  0  0  0
 13 15  1  0  0  0  0
 13 22  1  0  0  0  0
 14 32  1  0  0  0  0
 15 16  1  6  0  0  0
 15 17  1  0  0  0  0
 16 23  1  0  0  0  0
 17 18  1  6  0  0  0
 17 19  1  0  0  0  0
 19  2  1  6  0  0  0
 19 20  1  0  0  0  0
 20 21  1  1  0  0  0
 20 22  1  0  0  0  0
 23 24  1  0  0  0  0
 24 25  1  0  0  0  0
 25 26  1  0  0  0  0
 26 27  1  0  0  0  0
 27 28  1  0  0  0  0
 28 29  1  0  0  0  0
 29 30  1  0  0  0  0
 31 37  1  0  0  0  0
 32 33  2  0  0  0  0
 34 32  1  1  0  0  0
 34 35  1  0  0  0  0
 34 36  1  0  0  0  0
 36 37  1  0  0  0  0
M  END
>  <CHROM.1>
-162.36355699,-71.89937718,-134.95023192,60.60485592,-83.34815917,69.07103203
-59.44039403,82.22118119,79.18967677,-63.92921300,-67.39853056,-177.55433425
-161.52643771,61.11198142,-178.80363774,6.68106128,-1.54803658,9.94669770
0.35873035,0.10745857,-1.77540776

>  <Name>
1o9m_lig

>  <RI>
0

>  <Rbt.Current_Directory>
/home/itssahil/PROJECTS/Mol_Feturizer/New_Systems/rnas/1o9m

>  <Rbt.Executable>
rbdock ($Id: //depot/dev/client3/rdock/2013.1/src/exe/rbdock.cxx#4 $)

>  <Rbt.Library>
libRbt.so (2013.1, Build901 2013/11/27)

>  <Rbt.Parameter_File>
/export/apps/rDock/src/rDock_2013.1_src/data/scripts/dock_solv.prm

>  <Rbt.Receptor>
prm/blind_docking_60.prm

>  <SCORE>
-8.30817

>  <SCORE.INTER>
-7.78232

>  <SCORE.INTER.CONST>
1

>  <SCORE.INTER.POLAR>
-1.90872

>  <SCORE.INTER.ROT>
15

>  <SCORE.INTER.SOLV>
15.699

>  <SCORE.INTER.VDW>
-17.6588

>  <SCORE.INTER.norm>
-0.210333

>  <SCORE.INTRA>
-0.525859

>  <SCORE.INTRA.DIHEDRAL>
-13.59

>  <SCORE.INTRA.DIHEDRAL.0>
21.5987

>  <SCORE.INTRA.POLAR>
0

>  <SCORE.INTRA.POLAR.0>
0

>  <SCORE.INTRA.REPUL>
0

>  <SCORE.INTRA.REPUL.0>
0

>  <SCORE.INTRA.SOLV>
9.32137

>  <SCORE.INTRA.SOLV.lig_0>
-108.715

>  <SCORE.INTRA.VDW>
1.60844

>  <SCORE.INTRA.VDW.0>
-3.9485

>  <SCORE.INTRA.norm>
-0.0142124

>  <SCORE.RESTR>
0

>  <SCORE.RESTR.CAVITY>
0

>  <SCORE.RESTR.norm>
0

>  <SCORE.SYSTEM>
0

>  <SCORE.SYSTEM.CONST>
0

>  <SCORE.SYSTEM.DIHEDRAL>
0

>  <SCORE.SYSTEM.SOLV>
0

>  <SCORE.SYSTEM.norm>
0

>  <SCORE.heavy>
37

>  <SCORE.norm>
-0.224545

>  <RMSD>
23.934

$$$$
1o9m_lig
 OpenBabel11021811403D
libRbt.so/2013.1/901 2013/11/27
 37 38  0  0  0  0  0  0  0  0999 V2000
   10.0753   -2.1333    7.9961 C   0  0  2  0  0  0  0  0  0  0  0  0
    9.3699   -3.3647    7.6521 O   0  0  0  0  0  0  0  0  0  0  0  0
   11.5435   -2.2967    7.4553 C   0  0  2  0  0  0  0  0  0  0  0  0
   11.5784   -2.5273    6.0005 N   0  0  0  0  0  0  0  0  0  0  0  0
   12.2468   -3.4787    8.2247 C   0  0  1  0  0  0  0  0  0  0  0  0
   13.5860   -3.6463    7.7514 O   0  0  0  0  0  0  0  0  0  0  0  0
   12.1958   -3.1606    9.7556 C   0  0  2  0  0  0  0  0  0  0  0  0
   12.7984   -4.1883   10.5590 O   0  0  0  0  0  0  0  0  0  0  0  0
   10.7335   -2.9541   10.2220 C   0  0  2  0  0  0  0  0  0  0  0  0
   10.0896   -1.9307    9.4491 O   0  0  0  0  0  0  0  0  0  0  0  0
   10.6605   -2.5907   11.6825 C   0  0  0  0  0  0  0  0  0  0  0  0
   10.9325   -3.6906   12.4608 N   0  0  0  0  0  0  0  0  0  0  0  0
    5.2312   -2.3377    8.4503 C   0  0  1  0  0  0  0  0  0  0  0  0
    3.7543   -2.4791    8.5859 N   0  0  0  0  0  0  0  0  0  0  0  0
    5.9081   -3.3346    9.3811 C   0  0  2  0  0  0  0  0  0  0  0  0
    5.4603   -3.0822   10.6795 O   0  0  0  0  0  0  0  0  0  0  0  0
    7.4615   -3.2095    9.2861 C   0  0  1  0  0  0  0  0  0  0  0  0
    8.0991   -4.1848   10.1664 O   0  0  0  0  0  0  0  0  0  0  0  0
    7.9262   -3.4875    7.7986 C   0  0  1  0  0  0  0  0  0  0  0  0
    7.2707   -2.4851    6.8609 C   0  0  1  0  0  0  0  0  0  0  0  0
    7.7224   -2.7487    5.5029 N   0  0  0  0  0  0  0  0  0  0  0  0
    5.7263   -2.5959    6.9698 C   0  0  0  0  0  0  0  0  0  0  0  0
    4.5342   -2.8977   11.7726 C   0  0  0  0  0  0  0  0  0  0  0  0
    3.9358   -1.5123   11.6889 C   0  0  0  0  0  0  0  0  0  0  0  0
    4.6631   -0.4910   12.4705 N   0  0  0  0  0  0  0  0  0  0  0  0
    4.9665    0.7042   13.2902 C   0  0  0  0  0  0  0  0  0  0  0  0
    4.0373    1.6851   12.5640 C   0  0  0  0  0  0  0  0  0  0  0  0
    3.5937    2.8500   13.4686 C   0  0  0  0  0  0  0  0  0  0  0  0
    2.2659    2.5394   14.1524 C   0  0  0  0  0  0  0  0  0  0  0  0
    2.4439    1.4758   15.1309 N   0  0  0  0  0  0  0  0  0  0  0  0
   -1.0052   -3.5210    7.4613 N   0  0  0  0  0  0  0  0  0  0  0  0
    2.8995   -1.6666    7.2608 C   0  0  0  0  0  0  0  0  0  0  0  0
    3.2009   -1.1111    6.3864 O   0  0  0  0  0  0  0  0  0  0  0  0
    1.6314   -2.1068    7.9505 C   0  0  2  0  0  0  0  0  0  0  0  0
    1.5409   -3.4748    7.9989 O   0  0  0  0  0  0  0  0  0  0  0  0
    0.4693   -1.6189    7.0925 C   0  0  0  0  0  0  0  0  0  0  0  0
   -0.9437   -2.0535    7.5217 C   0  0  0  0  0  0  0  0  0  0  0  0
  1  2  1  1  0  0  0
  1  3  1  0  0  0  0
  3  4  1  6  0  0  0
  3  5  1  0  0  0  0
  5  6  1  6  0  0  0
  5  7  1  0  0  0  0
  7  8  1  1  0  0  0
  9  7  1  0  0  0  0
  9 10  1  0  0  0  0
  9 11  1  1  0  0  0
 10  1  1  0  0  0  0
 11 12  1  0  0  0  0
 13 14  1  6  0  0  0
 13 15  1  0  0  0  0
 13 22  1  0  0  0  0
 14 32  1  0  0  0  0
 15 16  1  1  0  0  0
 15 17  1  0  0  0  0
 16 23  1  0  0  0  0
 17 18  1  1  0  0  0
 17 19  1  0  0  0  0
 19  2  1  1  0  0  0
 19 20  1  0  0  0  0
 20 21  1  6  0  0  0
 20 22  1  0  0  0  0
 23 24  1  0  0  0  0
 24 25  1  0  0  0  0
 25 26  1  0  0  0  0
 26 27  1  0  0  0  0
 27 28  1  0  0  0  0
 28 29  1  0  0  0  0
 29 30  1  0  0  0  0
 31 37  1  0  0  0  0
 32 33  2  0  0  0  0
 34 32  1  6  0  0  0
 34 35  1  0  0  0  0
 34 36  1  0  0  0  0
 36 37  1  0  0  0  0
M  END
>  <CHROM.1>
-169.66766366,-73.26030678,-165.46649309,55.96278706,-78.93887756,-57.62542146
-92.54871891,-148.34112088,-40.85341824,154.42758098,-93.19264519,68.81751480
-62.73245357,174.72611481,-61.54928639,6.46901485,-2.10145153,9.44530794
0.22584552,0.16202454,-2.03316971

>  <Name>
1o9m_lig

>  <RI>
0

>  <Rbt.Current_Directory>
/home/itssahil/PROJECTS/Mol_Feturizer/New_Systems/rnas/1o9m

>  <Rbt.Executable>
rbdock ($Id: //depot/dev/client3/rdock/2013.1/src/exe/rbdock.cxx#4 $)

>  <Rbt.Library>
libRbt.so (2013.1, Build901 2013/11/27)

>  <Rbt.Parameter_File>
/export/apps/rDock/src/rDock_2013.1_src/data/scripts/dock_solv.prm

>  <Rbt.Receptor>
prm/blind_docking_100.prm

>  <SCORE>
-3.09147

>  <SCORE.INTER>
-3.45259

>  <SCORE.INTER.CONST>
1

>  <SCORE.INTER.POLAR>
-0.894427

>  <SCORE.INTER.ROT>
15

>  <SCORE.INTER.SOLV>
8.58476

>  <SCORE.INTER.VDW>
-15.7819

>  <SCORE.INTER.norm>
-0.0933132

>  <SCORE.INTRA>
0.361115

>  <SCORE.INTRA.DIHEDRAL>
-7.61184

>  <SCORE.INTRA.DIHEDRAL.0>
21.5987

>  <SCORE.INTRA.POLAR>
0

>  <SCORE.INTRA.POLAR.0>
0

>  <SCORE.INTRA.REPUL>
0

>  <SCORE.INTRA.REPUL.0>
0

>  <SCORE.INTRA.SOLV>
5.7217

>  <SCORE.INTRA.SOLV.lig_0>
-108.715

>  <SCORE.INTRA.VDW>
1.30619

>  <SCORE.INTRA.VDW.0>
-3.9485

>  <SCORE.INTRA.norm>
0.00975987

>  <SCORE.RESTR>
0

>  <SCORE.RESTR.CAVITY>
0

>  <SCORE.RESTR.norm>
0

>  <SCORE.SYSTEM>
0

>  <SCORE.SYSTEM.CONST>
0

>  <SCORE.SYSTEM.DIHEDRAL>
0

>  <SCORE.SYSTEM.SOLV>
0

>  <SCORE.SYSTEM.norm>
0

>  <SCORE.heavy>
37

>  <SCORE.norm>
-0.0835533

>  <RMSD>
23.935

$$$$
1o9m_lig
 OpenBabel11021811403D
libRbt.so/2013.1/901 2013/11/27
 37 38  0  0  0  0  0  0  0  0999 V2000
    9.5730   -4.3992    9.8593 C   0  0  2  0  0  0  0  0  0  0  0  0
    9.3907   -3.4654   10.9670 O   0  0  0  0  0  0  0  0  0  0  0  0
   11.0232   -4.9896   10.0103 C   0  0  2  0  0  0  0  0  0  0  0  0
   11.2149   -5.6712   11.3024 N   0  0  0  0  0  0  0  0  0  0  0  0
   12.0731   -3.8280    9.8309 C   0  0  1  0  0  0  0  0  0  0  0  0
   13.4017   -4.3407    9.9623 O   0  0  0  0  0  0  0  0  0  0  0  0
   11.8302   -3.1647    8.4351 C   0  0  2  0  0  0  0  0  0  0  0  0
   12.7279   -2.0738    8.1724 O   0  0  0  0  0  0  0  0  0  0  0  0
   10.3733   -2.6521    8.3202 C   0  0  2  0  0  0  0  0  0  0  0  0
    9.4373   -3.7107    8.5708 O   0  0  0  0  0  0  0  0  0  0  0  0
   10.0968   -2.0585    6.9631 C   0  0  0  0  0  0  0  0  0  0  0  0
   10.0655   -3.0470    6.0086 N   0  0  0  0  0  0  0  0  0  0  0  0
    5.8805   -1.2784   12.2771 C   0  0  1  0  0  0  0  0  0  0  0  0
    4.7742   -0.2806   12.2846 N   0  0  0  0  0  0  0  0  0  0  0  0
    5.7546   -2.1427   11.0299 C   0  0  2  0  0  0  0  0  0  0  0  0
    4.4921   -2.7393   11.0467 O   0  0  0  0  0  0  0  0  0  0  0  0
    6.8858   -3.2181   10.9888 C   0  0  1  0  0  0  0  0  0  0  0  0
    6.7674   -4.0261    9.7782 O   0  0  0  0  0  0  0  0  0  0  0  0
    8.2979   -2.5028   10.9862 C   0  0  1  0  0  0  0  0  0  0  0  0
    8.4432   -1.6505   12.2377 C   0  0  1  0  0  0  0  0  0  0  0  0
    9.7521   -1.0148   12.2225 N   0  0  0  0  0  0  0  0  0  0  0  0
    7.3071   -0.5940   12.2886 C   0  0  0  0  0  0  0  0  0  0  0  0
    3.0519   -2.8448   11.0092 C   0  0  0  0  0  0  0  0  0  0  0  0
    2.5567   -2.4104    9.6488 C   0  0  0  0  0  0  0  0  0  0  0  0
    2.6324   -0.9536    9.4145 N   0  0  0  0  0  0  0  0  0  0  0  0
    2.9331    0.3619    8.8049 C   0  0  0  0  0  0  0  0  0  0  0  0
    4.4115    0.4347    9.2073 C   0  0  0  0  0  0  0  0  0  0  0  0
    5.2919   -0.5176    8.3764 C   0  0  0  0  0  0  0  0  0  0  0  0
    6.7734   -0.2266    8.5949 C   0  0  0  0  0  0  0  0  0  0  0  0
    7.1168    1.0711    8.0306 N   0  0  0  0  0  0  0  0  0  0  0  0
    1.3084    3.3928   12.9857 N   0  0  0  0  0  0  0  0  0  0  0  0
    5.1065    1.0495   13.4103 C   0  0  0  0  0  0  0  0  0  0  0  0
    5.9198    1.3025   14.0726 O   0  0  0  0  0  0  0  0  0  0  0  0
    3.7570    1.5893   13.0043 C   0  0  2  0  0  0  0  0  0  0  0  0
    3.8195    2.2204   11.7878 O   0  0  0  0  0  0  0  0  0  0  0  0
    3.3780    2.6503   14.0316 C   0  0  0  0  0  0  0  0  0  0  0  0
    1.8752    2.9024   14.2503 C   0  0  0  0  0  0  0  0  0  0  0  0
  1  2  1  1  0  0  0
  1  3  1  0  0  0  0
  3  4  1  1  0  0  0
  3  5  1  0  0  0  0
  5  6  1  6  0  0  0
  5  7  1  0  0  0  0
  7  8  1  1  0  0  0
  9  7  1  0  0  0  0
  9 10  1  0  0  0  0
  9 11  1  6  0  0  0
 10  1  1  0  0  0  0
 11 12  1  0  0  0  0
 13 14  1  6  0  0  0
 13 15  1  0  0  0  0
 13 22  1  0  0  0  0
 14 32  1  0  0  0  0
 15 16  1  1  0  0  0
 15 17  1  0  0  0  0
 16 23  1  0  0  0  0
 17 18  1  6  0  0  0
 17 19  1  0  0  0  0
 19  2  1  1  0  0  0
 19 20  1  0  0  0  0
 20 21  1  6  0  0  0
 20 22  1  0  0  0  0
 23 24  1  0  0  0  0
 24 25  1  0  0  0  0
 25 26  1  0  0  0  0
 26 27  1  0  0  0  0
 27 28  1  0  0  0  0
 28 29  1  0  0  0  0
 29 30  1  0  0  0  0
 31 37  1  0  0  0  0
 32 33  2  0  0  0  0
 34 32  1  1  0  0  0
 34 35  1  0  0  0  0
 34 36  1  0  0  0  0
 36 37  1  0  0  0  0
M  END
>  <CHROM.1>
165.56922432,70.35318378,-163.10330089,65.74164156,65.05378277,61.93845217
-72.87622692,127.28131220,-76.87840845,73.49695419,168.55930363,-67.81789104
-78.59349277,-153.24711277,-62.52550365,7.02571495,-1.43370051,10.53225697
-0.49459751,-0.40406263,1.18832456

>  <Name>
1o9m_lig

>  <RI>
0

>  <Rbt.Current_Directory>
/home/itssahil/PROJECTS/Mol_Feturizer/New_Systems/rnas/1o9m

>  <Rbt.Executable>
rbdock ($Id: //depot/dev/client3/rdock/2013.1/src/exe/rbdock.cxx#4 $)

>  <Rbt.Library>
libRbt.so (2013.1, Build901 2013/11/27)

>  <Rbt.Parameter_File>
/export/apps/rDock/src/rDock_2013.1_src/data/scripts/dock_solv.prm

>  <Rbt.Receptor>
prm/blind_docking_80.prm

>  <SCORE>
-8.31283

>  <SCORE.INTER>
-1.8981

>  <SCORE.INTER.CONST>
1

>  <SCORE.INTER.POLAR>
-0.438103

>  <SCORE.INTER.ROT>
15

>  <SCORE.INTER.SOLV>
14.7303

>  <SCORE.INTER.VDW>
-18.3152

>  <SCORE.INTER.norm>
-0.0513001

>  <SCORE.INTRA>
-6.41927

>  <SCORE.INTRA.DIHEDRAL>
-13.1135

>  <SCORE.INTRA.DIHEDRAL.0>
21.5987

>  <SCORE.INTRA.POLAR>
0

>  <SCORE.INTRA.POLAR.0>
0

>  <SCORE.INTRA.REPUL>
0

>  <SCORE.INTRA.REPUL.0>
0

>  <SCORE.INTRA.SOLV>
4.77157

>  <SCORE.INTRA.SOLV.lig_0>
-108.715

>  <SCORE.INTRA.VDW>
-2.24831

>  <SCORE.INTRA.VDW.0>
-3.9485

>  <SCORE.INTRA.norm>
-0.173494

>  <SCORE.RESTR>
0.0045444

>  <SCORE.RESTR.CAVITY>
0.0045444

>  <SCORE.RESTR.norm>
0.000122822

>  <SCORE.SYSTEM>
0

>  <SCORE.SYSTEM.CONST>
0

>  <SCORE.SYSTEM.DIHEDRAL>
0

>  <SCORE.SYSTEM.SOLV>
0

>  <SCORE.SYSTEM.norm>
0

>  <SCORE.heavy>
37

>  <SCORE.norm>
-0.224671

>  <RMSD>
23.937

$$$$
1o9m_lig
 OpenBabel11021811403D
libRbt.so/2013.1/901 2013/11/27
 37 38  0  0  0  0  0  0  0  0999 V2000
   10.0351   -2.4586   11.1014 C   0  0  2  0  0  0  0  0  0  0  0  0
    8.6744   -2.9579   10.9248 O   0  0  0  0  0  0  0  0  0  0  0  0
   10.3652   -1.6064    9.8211 C   0  0  2  0  0  0  0  0  0  0  0  0
    9.4212   -0.4902    9.6367 N   0  0  0  0  0  0  0  0  0  0  0  0
   10.3652   -2.5514    8.5598 C   0  0  1  0  0  0  0  0  0  0  0  0
   10.6651   -1.7990    7.3810 O   0  0  0  0  0  0  0  0  0  0  0  0
   11.4013   -3.6964    8.8104 C   0  0  2  0  0  0  0  0  0  0  0  0
   11.4715   -4.6327    7.7226 O   0  0  0  0  0  0  0  0  0  0  0  0
   11.0612   -4.4655   10.1109 C   0  0  2  0  0  0  0  0  0  0  0  0
   10.9844   -3.5700   11.2296 O   0  0  0  0  0  0  0  0  0  0  0  0
   12.0771   -5.5388   10.4053 C   0  0  0  0  0  0  0  0  0  0  0  0
   11.5942   -6.4020   11.3598 N   0  0  0  0  0  0  0  0  0  0  0  0
    4.8277   -1.0907   11.6579 C   0  0  1  0  0  0  0  0  0  0  0  0
    3.6772   -0.1539   11.5224 N   0  0  0  0  0  0  0  0  0  0  0  0
    5.0204   -1.8267   10.3389 C   0  0  2  0  0  0  0  0  0  0  0  0
    3.8256   -2.4823   10.0345 O   0  0  0  0  0  0  0  0  0  0  0  0
    6.2074   -2.8360   10.4399 C   0  0  1  0  0  0  0  0  0  0  0  0
    6.3960   -3.5193    9.1632 O   0  0  0  0  0  0  0  0  0  0  0  0
    7.5372   -2.0566   10.8004 C   0  0  1  0  0  0  0  0  0  0  0  0
    7.3634   -1.3321   12.1265 C   0  0  1  0  0  0  0  0  0  0  0  0
    8.6005   -0.6355   12.4459 N   0  0  0  0  0  0  0  0  0  0  0  0
    6.1709   -0.3429   12.0324 C   0  0  0  0  0  0  0  0  0  0  0  0
    2.4446   -2.6541    9.6470 C   0  0  0  0  0  0  0  0  0  0  0  0
    2.2926   -2.3105    8.1830 C   0  0  0  0  0  0  0  0  0  0  0  0
    0.9900   -2.6975    7.6030 N   0  0  0  0  0  0  0  0  0  0  0  0
   -0.0389   -3.3248    6.7425 C   0  0  0  0  0  0  0  0  0  0  0  0
   -1.1735   -3.3501    7.7745 C   0  0  0  0  0  0  0  0  0  0  0  0
   -0.9986   -4.4775    8.8092 C   0  0  0  0  0  0  0  0  0  0  0  0
   -1.5759   -5.7916    8.2923 C   0  0  0  0  0  0  0  0  0  0  0  0
   -0.8223   -6.2471    7.1326 N   0  0  0  0  0  0  0  0  0  0  0  0
    2.2139    4.2136   13.5013 N   0  0  0  0  0  0  0  0  0  0  0  0
    3.2736    0.6077   13.0728 C   0  0  0  0  0  0  0  0  0  0  0  0
    3.6722    0.5563   14.0741 O   0  0  0  0  0  0  0  0  0  0  0  0
    2.1587    1.2957   12.3237 C   0  0  2  0  0  0  0  0  0  0  0  0
    2.6443    2.2900   11.5127 O   0  0  0  0  0  0  0  0  0  0  0  0
    1.2757    1.9708   13.3673 C   0  0  0  0  0  0  0  0  0  0  0  0
    1.9517    3.0011   14.2900 C   0  0  0  0  0  0  0  0  0  0  0  0
  1  2  1  6  0  0  0
  1  3  1  0  0  0  0
  3  4  1  6  0  0  0
  3  5  1  0  0  0  0
  5  6  1  6  0  0  0
  5  7  1  0  0  0  0
  7  8  1  6  0  0  0
  9  7  1  0  0  0  0
  9 10  1  0  0  0  0
  9 11  1  1  0  0  0
 10  1  1  0  0  0  0
 11 12  1  0  0  0  0
 13 14  1  6  0  0  0
 13 15  1  0  0  0  0
 13 22  1  0  0  0  0
 14 32  1  0  0  0  0
 15 16  1  1  0  0  0
 15 17  1  0  0  0  0
 16 23  1  0  0  0  0
 17 18  1  6  0  0  0
 17 19  1  0  0  0  0
 19  2  1  1  0  0  0
 19 20  1  0  0  0  0
 20 21  1  6  0  0  0
 20 22  1  0  0  0  0
 23 24  1  0  0  0  0
 24 25  1  0  0  0  0
 25 26  1  0  0  0  0
 26 27  1  0  0  0  0
 27 28  1  0  0  0  0
 28 29  1  0  0  0  0
 29 30  1  0  0  0  0
 31 37  1  0  0  0  0
 32 33  2  0  0  0  0
 34 32  1  1  0  0  0
 34 35  1  0  0  0  0
 34 36  1  0  0  0  0
 36 37  1  0  0  0  0
M  END
>  <CHROM.1>
-61.47210960,-165.55378144,173.58148127,69.99978300,70.11432634,172.91573872
168.60902961,-121.61939081,151.93981822,-76.85600105,-85.30283009,64.95601760
-73.72063002,58.34484870,73.21232918,5.58157646,-1.99222093,10.35918396,-0.18507901
-0.10544431,0.66121929

>  <Name>
1o9m_lig

>  <RI>
0

>  <Rbt.Current_Directory>
/home/itssahil/PROJECTS/Mol_Feturizer/New_Systems/rnas/1o9m

>  <Rbt.Executable>
rbdock ($Id: //depot/dev/client3/rdock/2013.1/src/exe/rbdock.cxx#4 $)

>  <Rbt.Library>
libRbt.so (2013.1, Build901 2013/11/27)

>  <Rbt.Parameter_File>
/export/apps/rDock/src/rDock_2013.1_src/data/scripts/dock_solv.prm

>  <Rbt.Receptor>
prm/blind_docking_80.prm

>  <SCORE>
-3.66392

>  <SCORE.INTER>
-4.13662

>  <SCORE.INTER.CONST>
1

>  <SCORE.INTER.POLAR>
-1.61286

>  <SCORE.INTER.ROT>
15

>  <SCORE.INTER.SOLV>
13.159

>  <SCORE.INTER.VDW>
-15.3679

>  <SCORE.INTER.norm>
-0.111801

>  <SCORE.INTRA>
0.472706

>  <SCORE.INTRA.DIHEDRAL>
-12.413

>  <SCORE.INTRA.DIHEDRAL.0>
21.5987

>  <SCORE.INTRA.POLAR>
0

>  <SCORE.INTRA.POLAR.0>
0

>  <SCORE.INTRA.REPUL>
0

>  <SCORE.INTRA.REPUL.0>
0

>  <SCORE.INTRA.SOLV>
8.59701

>  <SCORE.INTRA.SOLV.lig_0>
-108.715

>  <SCORE.INTRA.VDW>
2.38072

>  <SCORE.INTRA.VDW.0>
-3.9485

>  <SCORE.INTRA.norm>
0.0127758

>  <SCORE.RESTR>
0

>  <SCORE.RESTR.CAVITY>
0

>  <SCORE.RESTR.norm>
0

>  <SCORE.SYSTEM>
0

>  <SCORE.SYSTEM.CONST>
0

>  <SCORE.SYSTEM.DIHEDRAL>
0

>  <SCORE.SYSTEM.SOLV>
0

>  <SCORE.SYSTEM.norm>
0

>  <SCORE.heavy>
37

>  <SCORE.norm>
-0.0990247

>  <RMSD>
23.942

$$$$
1o9m_lig
 OpenBabel11021811403D
libRbt.so/2013.1/901 2013/11/27
 37 38  0  0  0  0  0  0  0  0999 V2000
    8.1506   -3.6751    9.7385 C   0  0  2  0  0  0  0  0  0  0  0  0
    8.4400   -2.3839   10.3559 O   0  0  0  0  0  0  0  0  0  0  0  0
    7.7894   -4.6578   10.9126 C   0  0  2  0  0  0  0  0  0  0  0  0
    6.6354   -4.1862   11.6980 N   0  0  0  0  0  0  0  0  0  0  0  0
    9.0535   -4.8442   11.8351 C   0  0  1  0  0  0  0  0  0  0  0  0
    8.7505   -5.7364   12.9111 O   0  0  0  0  0  0  0  0  0  0  0  0
   10.2306   -5.3666   10.9468 C   0  0  2  0  0  0  0  0  0  0  0  0
   11.4467   -5.5569   11.6882 O   0  0  0  0  0  0  0  0  0  0  0  0
   10.5060   -4.3909    9.7762 C   0  0  2  0  0  0  0  0  0  0  0  0
    9.3178   -4.1726    9.0017 O   0  0  0  0  0  0  0  0  0  0  0  0
   11.5991   -4.8995    8.8723 C   0  0  0  0  0  0  0  0  0  0  0  0
   12.8104   -4.8585    9.5207 N   0  0  0  0  0  0  0  0  0  0  0  0
    4.6311   -0.6336   11.4736 C   0  0  1  0  0  0  0  0  0  0  0  0
    3.5788    0.3928   11.7157 N   0  0  0  0  0  0  0  0  0  0  0  0
    5.0270   -0.5947   10.0038 C   0  0  2  0  0  0  0  0  0  0  0  0
    3.8764   -0.8137    9.2433 O   0  0  0  0  0  0  0  0  0  0  0  0
    6.1176   -1.6694    9.6987 C   0  0  1  0  0  0  0  0  0  0  0  0
    6.5044   -1.6077    8.2919 O   0  0  0  0  0  0  0  0  0  0  0  0
    7.3968   -1.3950   10.5899 C   0  0  1  0  0  0  0  0  0  0  0  0
    7.0175   -1.4501   12.0619 C   0  0  1  0  0  0  0  0  0  0  0  0
    8.2089   -1.2104   12.8623 N   0  0  0  0  0  0  0  0  0  0  0  0
    5.9191   -0.3950   12.3612 C   0  0  0  0  0  0  0  0  0  0  0  0
    3.0449   -1.3099    8.1714 C   0  0  0  0  0  0  0  0  0  0  0  0
    1.6760   -0.6767    8.2700 C   0  0  0  0  0  0  0  0  0  0  0  0
    0.6276   -1.3797    7.5022 N   0  0  0  0  0  0  0  0  0  0  0  0
   -0.2236   -2.4483    6.9313 C   0  0  0  0  0  0  0  0  0  0  0  0
    0.4064   -3.6278    7.6829 C   0  0  0  0  0  0  0  0  0  0  0  0
   -0.4391   -4.9105    7.5733 C   0  0  0  0  0  0  0  0  0  0  0  0
   -1.7212   -4.7947    8.3919 C   0  0  0  0  0  0  0  0  0  0  0  0
   -2.4564   -6.0508    8.3502 N   0  0  0  0  0  0  0  0  0  0  0  0
    0.5428    0.4362   14.9867 N   0  0  0  0  0  0  0  0  0  0  0  0
    3.4292    0.7752   13.4414 C   0  0  0  0  0  0  0  0  0  0  0  0
    3.9264    0.4470   14.3409 O   0  0  0  0  0  0  0  0  0  0  0  0
    2.3189    1.7107   13.0292 C   0  0  2  0  0  0  0  0  0  0  0  0
    2.7853    2.7029   12.2047 O   0  0  0  0  0  0  0  0  0  0  0  0
    1.8204    2.3916   14.2990 C   0  0  0  0  0  0  0  0  0  0  0  0
    1.4552    1.4770   15.4822 C   0  0  0  0  0  0  0  0  0  0  0  0
  1  2  1  1  0  0  0
  1  3  1  0  0  0  0
  3  4  1  1  0  0  0
  3  5  1  0  0  0  0
  5  6  1  1  0  0  0
  5  7  1  0  0  0  0
  7  8  1  1  0  0  0
  9  7  1  0  0  0  0
  9 10  1  0  0  0  0
  9 11  1  6  0  0  0
 10  1  1  0  0  0  0
 11 12  1  0  0  0  0
 13 14  1  6  0  0  0
 13 15  1  0  0  0  0
 13 22  1  0  0  0  0
 14 32  1  0  0  0  0
 15 16  1  6  0  0  0
 15 17  1  0  0  0  0
 16 23  1  0  0  0  0
 17 18  1  6  0  0  0
 17 19  1  0  0  0  0
 19  2  1  1  0  0  0
 19 20  1  0  0  0  0
 20 21  1  1  0  0  0
 20 22  1  0  0  0  0
 23 24  1  0  0  0  0
 24 25  1  0  0  0  0
 25 26  1  0  0  0  0
 26 27  1  0  0  0  0
 27 28  1  0  0  0  0
 28 29  1  0  0  0  0
 29 30  1  0  0  0  0
 31 37  1  0  0  0  0
 32 33  2  0  0  0  0
 34 32  1  1  0  0  0
 34 35  1  0  0  0  0
 34 36  1  0  0  0  0
 36 37  1  0  0  0  0
M  END
>  <CHROM.1>
-89.37729461,-69.22835471,-161.92471744,-141.98917751,-171.87886298,-19.00730734
-162.76152437,45.46399086,3.54133258,167.30356418,-71.24787087,-175.97215825
-62.30583143,-51.19946610,-51.02135812,5.15815478,-2.14950404,10.70250452
0.23969463,0.24733642,-2.36038808

>  <Name>
1o9m_lig

>  <RI>
0

>  <Rbt.Current_Directory>
/home/itssahil/PROJECTS/Mol_Feturizer/New_Systems/rnas/1o9m

>  <Rbt.Executable>
rbdock ($Id: //depot/dev/client3/rdock/2013.1/src/exe/rbdock.cxx#4 $)

>  <Rbt.Library>
libRbt.so (2013.1, Build901 2013/11/27)

>  <Rbt.Parameter_File>
/export/apps/rDock/src/rDock_2013.1_src/data/scripts/dock_solv.prm

>  <Rbt.Receptor>
prm/blind_docking_80.prm

>  <SCORE>
-6.12834

>  <SCORE.INTER>
-12.1519

>  <SCORE.INTER.CONST>
1

>  <SCORE.INTER.POLAR>
-3.07092

>  <SCORE.INTER.ROT>
15

>  <SCORE.INTER.SOLV>
14.7329

>  <SCORE.INTER.VDW>
-16.3759

>  <SCORE.INTER.norm>
-0.32843

>  <SCORE.INTRA>
5.93534

>  <SCORE.INTRA.DIHEDRAL>
-1.6796

>  <SCORE.INTRA.DIHEDRAL.0>
21.5987

>  <SCORE.INTRA.POLAR>
0

>  <SCORE.INTRA.POLAR.0>
0

>  <SCORE.INTRA.REPUL>
0.0220097

>  <SCORE.INTRA.REPUL.0>
0

>  <SCORE.INTRA.SOLV>
6.66758

>  <SCORE.INTRA.SOLV.lig_0>
-108.715

>  <SCORE.INTRA.VDW>
3.3313

>  <SCORE.INTRA.VDW.0>
-3.9485

>  <SCORE.INTRA.norm>
0.160414

>  <SCORE.RESTR>
0.0882426

>  <SCORE.RESTR.CAVITY>
0.0882426

>  <SCORE.RESTR.norm>
0.00238494

>  <SCORE.SYSTEM>
0

>  <SCORE.SYSTEM.CONST>
0

>  <SCORE.SYSTEM.DIHEDRAL>
0

>  <SCORE.SYSTEM.SOLV>
0

>  <SCORE.SYSTEM.norm>
0

>  <SCORE.heavy>
37

>  <SCORE.norm>
-0.165631

>  <RMSD>
23.944

$$$$
1o9m_lig
 OpenBabel11021811403D
libRbt.so/2013.1/901 2013/11/27
 37 38  0  0  0  0  0  0  0  0999 V2000
    9.0268   -4.1992    9.9218 C   0  0  2  0  0  0  0  0  0  0  0  0
    8.1437   -3.1191   10.3528 O   0  0  0  0  0  0  0  0  0  0  0  0
    8.6323   -5.4618   10.7730 C   0  0  2  0  0  0  0  0  0  0  0  0
    7.2201   -5.8390   10.5876 N   0  0  0  0  0  0  0  0  0  0  0  0
    8.9384   -5.1746   12.2921 C   0  0  1  0  0  0  0  0  0  0  0  0
    8.5892   -6.3104   13.0880 O   0  0  0  0  0  0  0  0  0  0  0  0
   10.4529   -4.8047   12.4212 C   0  0  2  0  0  0  0  0  0  0  0  0
   10.8404   -4.5046   13.7721 O   0  0  0  0  0  0  0  0  0  0  0  0
   10.7976   -3.5925   11.5212 C   0  0  2  0  0  0  0  0  0  0  0  0
   10.4317   -3.8476   10.1572 O   0  0  0  0  0  0  0  0  0  0  0  0
   12.2638   -3.2506   11.5843 C   0  0  0  0  0  0  0  0  0  0  0  0
   12.5322   -2.1581   10.7946 N   0  0  0  0  0  0  0  0  0  0  0  0
    4.7828   -1.0794    8.5187 C   0  0  1  0  0  0  0  0  0  0  0  0
    3.4588   -0.8659    7.8698 N   0  0  0  0  0  0  0  0  0  0  0  0
    4.5647   -1.7260    9.8799 C   0  0  2  0  0  0  0  0  0  0  0  0
    3.7294   -0.8897   10.6236 O   0  0  0  0  0  0  0  0  0  0  0  0
    5.9278   -1.9523   10.6067 C   0  0  1  0  0  0  0  0  0  0  0  0
    5.7073   -2.5924   11.9006 O   0  0  0  0  0  0  0  0  0  0  0  0
    6.8491   -2.8911    9.7259 C   0  0  1  0  0  0  0  0  0  0  0  0
    7.0899   -2.2465    8.3693 C   0  0  1  0  0  0  0  0  0  0  0  0
    7.9499   -3.1176    7.5824 N   0  0  0  0  0  0  0  0  0  0  0  0
    5.7334   -2.0034    7.6550 C   0  0  0  0  0  0  0  0  0  0  0  0
    3.2751    0.3019   11.3022 C   0  0  0  0  0  0  0  0  0  0  0  0
    1.9582    0.0134   11.9856 C   0  0  0  0  0  0  0  0  0  0  0  0
    2.0054   -1.1152   12.9379 N   0  0  0  0  0  0  0  0  0  0  0  0
    2.3414   -1.9593   14.1072 C   0  0  0  0  0  0  0  0  0  0  0  0
    1.4489   -1.2462   15.1308 C   0  0  0  0  0  0  0  0  0  0  0  0
    1.9510    0.1727   15.4574 C   0  0  0  0  0  0  0  0  0  0  0  0
    1.3134    0.6994   16.7393 C   0  0  0  0  0  0  0  0  0  0  0  0
   -0.1029    0.9597   16.5232 N   0  0  0  0  0  0  0  0  0  0  0  0
   -1.5270   -3.9829    7.4001 N   0  0  0  0  0  0  0  0  0  0  0  0
    2.4632   -2.3329    7.9270 C   0  0  0  0  0  0  0  0  0  0  0  0
    2.5915   -3.3262    8.3282 O   0  0  0  0  0  0  0  0  0  0  0  0
    1.4326   -1.5354    7.1657 C   0  0  2  0  0  0  0  0  0  0  0  0
    0.8780   -0.5590    7.9538 O   0  0  0  0  0  0  0  0  0  0  0  0
    0.3084   -2.4990    6.8020 C   0  0  0  0  0  0  0  0  0  0  0  0
   -0.4876   -3.1123    7.9682 C   0  0  0  0  0  0  0  0  0  0  0  0
  1  2  1  1  0  0  0
  1  3  1  0  0  0  0
  3  4  1  1  0  0  0
  3  5  1  0  0  0  0
  5  6  1  1  0  0  0
  5  7  1  0  0  0  0
  7  8  1  1  0  0  0
  9  7  1  0  0  0  0
  9 10  1  0  0  0  0
  9 11  1  6  0  0  0
 10  1  1  0  0  0  0
 11 12  1  0  0  0  0
 13 14  1  6  0  0  0
 13 15  1  0  0  0  0
 13 22  1  0  0  0  0
 14 32  1  0  0  0  0
 15 16  1  1  0  0  0
 15 17  1  0  0  0  0
 16 23  1  0  0  0  0
 17 18  1  1  0  0  0
 17 19  1  0  0  0  0
 19  2  1  1  0  0  0
 19 20  1  0  0  0  0
 20 21  1  6  0  0  0
 20 22  1  0  0  0  0
 23 24  1  0  0  0  0
 24 25  1  0  0  0  0
 25 26  1  0  0  0  0
 26 27  1  0  0  0  0
 27 28  1  0  0  0  0
 28 29  1  0  0  0  0
 29 30  1  0  0  0  0
 31 37  1  0  0  0  0
 32 33  2  0  0  0  0
 34 32  1  1  0  0  0
 34 35  1  0  0  0  0
 34 36  1  0  0  0  0
 36 37  1  0  0  0  0
M  END
>  <CHROM.1>
-89.09044744,-178.93488523,-48.91854154,-60.03788864,-176.31990562,164.17220590
56.77839082,64.29582733,77.25655185,-68.69729871,-163.55396045,-69.45728183
-70.01478946,64.25346804,179.01049943,5.23474008,-2.46996376,10.77464423
0.02553017,0.31111666,-1.78447711

>  <Name>
1o9m_lig

>  <RI>
0

>  <Rbt.Current_Directory>
/home/itssahil/PROJECTS/Mol_Feturizer/New_Systems/rnas/1o9m

>  <Rbt.Executable>
rbdock ($Id: //depot/dev/client3/rdock/2013.1/src/exe/rbdock.cxx#4 $)

>  <Rbt.Library>
libRbt.so (2013.1, Build901 2013/11/27)

>  <Rbt.Parameter_File>
/export/apps/rDock/src/rDock_2013.1_src/data/scripts/dock_solv.prm

>  <Rbt.Receptor>
prm/blind_docking_40.prm

>  <SCORE>
-13.1948

>  <SCORE.INTER>
-9.30388

>  <SCORE.INTER.CONST>
1

>  <SCORE.INTER.POLAR>
-1.71436

>  <SCORE.INTER.ROT>
15

>  <SCORE.INTER.SOLV>
12.824

>  <SCORE.INTER.VDW>
-18.3627

>  <SCORE.INTER.norm>
-0.251456

>  <SCORE.INTRA>
-4.24991

>  <SCORE.INTRA.DIHEDRAL>
-13.9445

>  <SCORE.INTRA.DIHEDRAL.0>
21.5987

>  <SCORE.INTRA.POLAR>
0

>  <SCORE.INTRA.POLAR.0>
0

>  <SCORE.INTRA.REPUL>
0

>  <SCORE.INTRA.REPUL.0>
0

>  <SCORE.INTRA.SOLV>
3.81802

>  <SCORE.INTRA.SOLV.lig_0>
-108.715

>  <SCORE.INTRA.VDW>
0.813343

>  <SCORE.INTRA.VDW.0>
-3.9485

>  <SCORE.INTRA.norm>
-0.114863

>  <SCORE.RESTR>
0.359025

>  <SCORE.RESTR.CAVITY>
0.359025

>  <SCORE.RESTR.norm>
0.00970337

>  <SCORE.SYSTEM>
0

>  <SCORE.SYSTEM.CONST>
0

>  <SCORE.SYSTEM.DIHEDRAL>
0

>  <SCORE.SYSTEM.SOLV>
0

>  <SCORE.SYSTEM.norm>
0

>  <SCORE.heavy>
37

>  <SCORE.norm>
-0.356615

>  <RMSD>
23.947

$$$$
1o9m_lig
 OpenBabel11021811403D
libRbt.so/2013.1/901 2013/11/27
 37 38  0  0  0  0  0  0  0  0999 V2000
    2.9932    0.3443   11.6186 C   0  0  2  0  0  0  0  0  0  0  0  0
    4.2851    0.8987   12.0133 O   0  0  0  0  0  0  0  0  0  0  0  0
    2.0140    1.5658   11.4650 C   0  0  2  0  0  0  0  0  0  0  0  0
    2.4899    2.5386   10.4660 N   0  0  0  0  0  0  0  0  0  0  0  0
    1.8267    2.2551   12.8699 C   0  0  1  0  0  0  0  0  0  0  0  0
    0.9375    3.3696   12.7569 O   0  0  0  0  0  0  0  0  0  0  0  0
    1.2996    1.1771   13.8737 C   0  0  2  0  0  0  0  0  0  0  0  0
    1.1081    1.6963   15.1998 O   0  0  0  0  0  0  0  0  0  0  0  0
    2.2721   -0.0261   13.9433 C   0  0  2  0  0  0  0  0  0  0  0  0
    2.4915   -0.5829   12.6390 O   0  0  0  0  0  0  0  0  0  0  0  0
    1.7591   -1.1049   14.8617 C   0  0  0  0  0  0  0  0  0  0  0  0
    2.5628   -2.2173   14.7849 N   0  0  0  0  0  0  0  0  0  0  0  0
    8.3373   -0.3362   11.0777 C   0  0  1  0  0  0  0  0  0  0  0  0
    9.5805   -1.1568   11.0517 N   0  0  0  0  0  0  0  0  0  0  0  0
    7.1928   -1.1592   10.5019 C   0  0  2  0  0  0  0  0  0  0  0  0
    7.5526   -1.5503    9.2105 O   0  0  0  0  0  0  0  0  0  0  0  0
    5.8695   -0.3307   10.4921 C   0  0  1  0  0  0  0  0  0  0  0  0
    4.7755   -1.1374    9.9584 O   0  0  0  0  0  0  0  0  0  0  0  0
    5.5055    0.1051   11.9697 C   0  0  1  0  0  0  0  0  0  0  0  0
    6.6339    0.9444   12.5493 C   0  0  1  0  0  0  0  0  0  0  0  0
    6.2728    1.3464   13.9005 N   0  0  0  0  0  0  0  0  0  0  0  0
    7.9539    0.1277   12.5410 C   0  0  0  0  0  0  0  0  0  0  0  0
    7.4316   -2.1518    7.9028 C   0  0  0  0  0  0  0  0  0  0  0  0
    6.3221   -1.4649    7.1402 C   0  0  0  0  0  0  0  0  0  0  0  0
    4.9663   -1.9386    7.4871 N   0  0  0  0  0  0  0  0  0  0  0  0
    3.7010   -2.7076    7.4935 C   0  0  0  0  0  0  0  0  0  0  0  0
    3.1560   -2.2057    6.1503 C   0  0  0  0  0  0  0  0  0  0  0  0
    2.6528   -0.7522    6.2291 C   0  0  0  0  0  0  0  0  0  0  0  0
    1.4494   -0.6374    7.1597 C   0  0  0  0  0  0  0  0  0  0  0  0
    1.0232    0.7515    7.2572 N   0  0  0  0  0  0  0  0  0  0  0  0
   12.5765   -3.1387    7.7269 N   0  0  0  0  0  0  0  0  0  0  0  0
   11.0291   -0.1468   11.2193 C   0  0  0  0  0  0  0  0  0  0  0  0
   11.2120    0.9090   11.3449 O   0  0  0  0  0  0  0  0  0  0  0  0
   11.8105   -1.4311   11.0862 C   0  0  2  0  0  0  0  0  0  0  0  0
   13.0733   -1.3009   11.6060 O   0  0  0  0  0  0  0  0  0  0  0  0
   11.9740   -1.6962    9.5937 C   0  0  0  0  0  0  0  0  0  0  0  0
   12.6389   -3.0251    9.1913 C   0  0  0  0  0  0  0  0  0  0  0  0
  1  2  1  1  0  0  0
  1  3  1  0  0  0  0
  3  4  1  6  0  0  0
  3  5  1  0  0  0  0
  5  6  1  6  0  0  0
  5  7  1  0  0  0  0
  7  8  1  1  0  0  0
  9  7  1  0  0  0  0
  9 10  1  0  0  0  0
  9 11  1  1  0  0  0
 10  1  1  0  0  0  0
 11 12  1  0  0  0  0
 13 14  1  1  0  0  0
 13 15  1  0  0  0  0
 13 22  1  0  0  0  0
 14 32  1  0  0  0  0
 15 16  1  6  0  0  0
 15 17  1  0  0  0  0
 16 23  1  0  0  0  0
 17 18  1  1  0  0  0
 17 19  1  0  0  0  0
 19  2  1  6  0  0  0
 19 20  1  0  0  0  0
 20 21  1  1  0  0  0
 20 22  1  0  0  0  0
 23 24  1  0  0  0  0
 24 25  1  0  0  0  0
 25 26  1  0  0  0  0
 26 27  1  0  0  0  0
 27 28  1  0  0  0  0
 28 29  1  0  0  0  0
 29 30  1  0  0  0  0
 31 37  1  0  0  0  0
 32 33  2  0  0  0  0
 34 32  1  6  0  0  0
 34 35  1  0  0  0  0
 34 36  1  0  0  0  0
 36 37  1  0  0  0  0
M  END
>  <CHROM.1>
-166.53127028,173.14714814,162.30261551,-176.73185995,62.73320117,63.80626979
-80.85332342,-89.90144970,-69.18230769,-73.52453303,-64.90144473,177.88334419
-158.83067123,-174.85987067,174.46227615,5.68765764,-0.37767038,10.77148546
-2.84912222,0.15841060,-1.90764604

>  <Name>
1o9m_lig

>  <RI>
0

>  <Rbt.Current_Directory>
/home/itssahil/PROJECTS/Mol_Feturizer/New_Systems/rnas/1o9m

>  <Rbt.Executable>
rbdock ($Id: //depot/dev/client3/rdock/2013.1/src/exe/rbdock.cxx#4 $)

>  <Rbt.Library>
libRbt.so (2013.1, Build901 2013/11/27)

>  <Rbt.Parameter_File>
/export/apps/rDock/src/rDock_2013.1_src/data/scripts/dock_solv.prm

>  <Rbt.Receptor>
prm/blind_docking_40.prm

>  <SCORE>
-7.35482

>  <SCORE.INTER>
-0.389251

>  <SCORE.INTER.CONST>
1

>  <SCORE.INTER.POLAR>
-1.47275

>  <SCORE.INTER.ROT>
15

>  <SCORE.INTER.SOLV>
24.4014

>  <SCORE.INTER.VDW>
-17.0842

>  <SCORE.INTER.norm>
-0.0105203

>  <SCORE.INTRA>
-6.96926

>  <SCORE.INTRA.DIHEDRAL>
-15.5854

>  <SCORE.INTRA.DIHEDRAL.0>
21.5987

>  <SCORE.INTRA.POLAR>
0

>  <SCORE.INTRA.POLAR.0>
0

>  <SCORE.INTRA.REPUL>
0

>  <SCORE.INTRA.REPUL.0>
0

>  <SCORE.INTRA.SOLV>
1.03921

>  <SCORE.INTRA.SOLV.lig_0>
-108.715

>  <SCORE.INTRA.VDW>
0.303816

>  <SCORE.INTRA.VDW.0>
-3.9485

>  <SCORE.INTRA.norm>
-0.188358

>  <SCORE.RESTR>
0.00368528

>  <SCORE.RESTR.CAVITY>
0.00368528

>  <SCORE.RESTR.norm>
9.96022e-05

>  <SCORE.SYSTEM>
0

>  <SCORE.SYSTEM.CONST>
0

>  <SCORE.SYSTEM.DIHEDRAL>
0

>  <SCORE.SYSTEM.SOLV>
0

>  <SCORE.SYSTEM.norm>
0

>  <SCORE.heavy>
37

>  <SCORE.norm>
-0.198779

>  <RMSD>
23.955

$$$$
1o9m_lig
 OpenBabel11021811403D
libRbt.so/2013.1/901 2013/11/27
 37 38  0  0  0  0  0  0  0  0999 V2000
   10.9077    0.2259   10.1308 C   0  0  2  0  0  0  0  0  0  0  0  0
    9.8515   -0.7311   10.4484 O   0  0  0  0  0  0  0  0  0  0  0  0
   11.8961   -0.5116    9.1542 C   0  0  2  0  0  0  0  0  0  0  0  0
   11.2249   -0.9724    7.9262 N   0  0  0  0  0  0  0  0  0  0  0  0
   12.5626   -1.7213    9.9133 C   0  0  1  0  0  0  0  0  0  0  0  0
   13.4686   -2.4081    9.0455 O   0  0  0  0  0  0  0  0  0  0  0  0
   13.2747   -1.1617   11.1890 C   0  0  2  0  0  0  0  0  0  0  0  0
   13.9062   -2.1886   11.9708 O   0  0  0  0  0  0  0  0  0  0  0  0
   12.2686   -0.3983   12.0853 C   0  0  2  0  0  0  0  0  0  0  0  0
   11.6139    0.6437   11.3470 O   0  0  0  0  0  0  0  0  0  0  0  0
   12.9412    0.1994   13.2940 C   0  0  0  0  0  0  0  0  0  0  0  0
   13.4881   -0.7920   14.0732 N   0  0  0  0  0  0  0  0  0  0  0  0
    6.1287   -0.9638   12.6637 C   0  0  1  0  0  0  0  0  0  0  0  0
    5.0691   -0.6397   13.6595 N   0  0  0  0  0  0  0  0  0  0  0  0
    6.3470    0.2468   11.7664 C   0  0  2  0  0  0  0  0  0  0  0  0
    5.1255    0.5638   11.1684 O   0  0  0  0  0  0  0  0  0  0  0  0
    7.4394   -0.0540   10.6921 C   0  0  1  0  0  0  0  0  0  0  0  0
    7.6551    1.1209    9.8521 O   0  0  0  0  0  0  0  0  0  0  0  0
    8.8015   -0.4228   11.4094 C   0  0  1  0  0  0  0  0  0  0  0  0
    8.6005   -1.6432   12.2948 C   0  0  1  0  0  0  0  0  0  0  0  0
    9.8664   -1.9737   12.9320 N   0  0  0  0  0  0  0  0  0  0  0  0
    7.5006   -1.3511   13.3504 C   0  0  0  0  0  0  0  0  0  0  0  0
    3.7334    0.9349   11.0640 C   0  0  0  0  0  0  0  0  0  0  0  0
    3.3029    0.8486    9.6177 C   0  0  0  0  0  0  0  0  0  0  0  0
    3.7128   -0.3976    8.9380 N   0  0  0  0  0  0  0  0  0  0  0  0
    4.0709   -1.3773    7.8871 C   0  0  0  0  0  0  0  0  0  0  0  0
    2.6454   -1.7017    7.4228 C   0  0  0  0  0  0  0  0  0  0  0  0
    1.9091   -2.6352    8.4020 C   0  0  0  0  0  0  0  0  0  0  0  0
    0.5839   -3.1115    7.8151 C   0  0  0  0  0  0  0  0  0  0  0  0
   -0.2961   -1.9755    7.5802 N   0  0  0  0  0  0  0  0  0  0  0  0
    0.8986    0.8389   15.9610 N   0  0  0  0  0  0  0  0  0  0  0  0
    3.5577   -1.4968   13.3021 C   0  0  0  0  0  0  0  0  0  0  0  0
    3.2389   -2.1972   12.5458 O   0  0  0  0  0  0  0  0  0  0  0  0
    2.9903   -0.7777   14.5015 C   0  0  2  0  0  0  0  0  0  0  0  0
    2.0635   -1.5517   15.1527 O   0  0  0  0  0  0  0  0  0  0  0  0
    2.2492    0.4457   13.9736 C   0  0  0  0  0  0  0  0  0  0  0  0
    1.8090    1.4945   15.0109 C   0  0  0  0  0  0  0  0  0  0  0  0
  1  2  1  1  0  0  0
  1  3  1  0  0  0  0
  3  4  1  6  0  0  0
  3  5  1  0  0  0  0
  5  6  1  6  0  0  0
  5  7  1  0  0  0  0
  7  8  1  1  0  0  0
  9  7  1  0  0  0  0
  9 10  1  0  0  0  0
  9 11  1  1  0  0  0
 10  1  1  0  0  0  0
 11 12  1  0  0  0  0
 13 14  1  1  0  0  0
 13 15  1  0  0  0  0
 13 22  1  0  0  0  0
 14 32  1  0  0  0  0
 15 16  1  6  0  0  0
 15 17  1  0  0  0  0
 16 23  1  0  0  0  0
 17 18  1  6  0  0  0
 17 19  1  0  0  0  0
 19  2  1  6  0  0  0
 19 20  1  0  0  0  0
 20 21  1  1  0  0  0
 20 22  1  0  0  0  0
 23 24  1  0  0  0  0
 24 25  1  0  0  0  0
 25 26  1  0  0  0  0
 26 27  1  0  0  0  0
 27 28  1  0  0  0  0
 28 29  1  0  0  0  0
 29 30  1  0  0  0  0
 31 37  1  0  0  0  0
 32 33  2  0  0  0  0
 34 32  1  6  0  0  0
 34 35  1  0  0  0  0
 34 36  1  0  0  0  0
 36 37  1  0  0  0  0
M  END
>  <CHROM.1>
175.60535616,-61.64548327,107.80756443,58.87024895,-173.10788442,102.87812803
47.19633835,-157.26203818,-77.90020051,-76.42990197,-171.25188550,-62.09608657
-146.79552593,-168.54745333,-60.29838824,6.93828925,-0.74774796,11.33231845
0.03119852,0.00445367,-1.76536463

>  <Name>
1o9m_lig

>  <RI>
0

>  <Rbt.Current_Directory>
/home/itssahil/PROJECTS/Mol_Feturizer/New_Systems/rnas/1o9m

>  <Rbt.Executable>
rbdock ($Id: //depot/dev/client3/rdock/2013.1/src/exe/rbdock.cxx#4 $)

>  <Rbt.Library>
libRbt.so (2013.1, Build901 2013/11/27)

>  <Rbt.Parameter_File>
/export/apps/rDock/src/rDock_2013.1_src/data/scripts/dock_solv.prm

>  <Rbt.Receptor>
prm/blind_docking_100.prm

>  <SCORE>
-5.89537

>  <SCORE.INTER>
-3.32134

>  <SCORE.INTER.CONST>
1

>  <SCORE.INTER.POLAR>
-0.76441

>  <SCORE.INTER.ROT>
15

>  <SCORE.INTER.SOLV>
15.3104

>  <SCORE.INTER.VDW>
-18.3697

>  <SCORE.INTER.norm>
-0.089766

>  <SCORE.INTRA>
-2.66404

>  <SCORE.INTRA.DIHEDRAL>
-9.413

>  <SCORE.INTRA.DIHEDRAL.0>
21.5987

>  <SCORE.INTRA.POLAR>
0

>  <SCORE.INTRA.POLAR.0>
0

>  <SCORE.INTRA.REPUL>
0

>  <SCORE.INTRA.REPUL.0>
0

>  <SCORE.INTRA.SOLV>
6.45758

>  <SCORE.INTRA.SOLV.lig_0>
-108.715

>  <SCORE.INTRA.VDW>
-1.18633

>  <SCORE.INTRA.VDW.0>
-3.9485

>  <SCORE.INTRA.norm>
-0.0720012

>  <SCORE.RESTR>
0.0900144

>  <SCORE.RESTR.CAVITY>
0.0900144

>  <SCORE.RESTR.norm>
0.00243282

>  <SCORE.SYSTEM>
0

>  <SCORE.SYSTEM.CONST>
0

>  <SCORE.SYSTEM.DIHEDRAL>
0

>  <SCORE.SYSTEM.SOLV>
0

>  <SCORE.SYSTEM.norm>
0

>  <SCORE.heavy>
37

>  <SCORE.norm>
-0.159334

>  <RMSD>
23.963

$$$$
1o9m_lig
 OpenBabel11021811403D
libRbt.so/2013.1/901 2013/11/27
 37 38  0  0  0  0  0  0  0  0999 V2000
   11.3723   -1.0190   10.1916 C   0  0  2  0  0  0  0  0  0  0  0  0
   10.5493   -0.2290    9.2801 O   0  0  0  0  0  0  0  0  0  0  0  0
   12.7094   -1.3321    9.4243 C   0  0  2  0  0  0  0  0  0  0  0  0
   13.4165   -0.1060    9.0149 N   0  0  0  0  0  0  0  0  0  0  0  0
   12.3857   -2.2338    8.1729 C   0  0  1  0  0  0  0  0  0  0  0  0
   13.5877   -2.5342    7.4584 O   0  0  0  0  0  0  0  0  0  0  0  0
   11.6596   -3.5240    8.6783 C   0  0  2  0  0  0  0  0  0  0  0  0
   11.3003   -4.4162    7.6107 O   0  0  0  0  0  0  0  0  0  0  0  0
   10.3827   -3.1560    9.4736 C   0  0  2  0  0  0  0  0  0  0  0  0
   10.6928   -2.2671   10.5566 O   0  0  0  0  0  0  0  0  0  0  0  0
    9.6943   -4.3801   10.0199 C   0  0  0  0  0  0  0  0  0  0  0  0
    8.6329   -4.0149   10.8133 N   0  0  0  0  0  0  0  0  0  0  0  0
    6.5086   -0.4723   10.8404 C   0  0  1  0  0  0  0  0  0  0  0  0
    5.1098   -0.0817   11.1725 N   0  0  0  0  0  0  0  0  0  0  0  0
    6.6852   -0.4298    9.3286 C   0  0  2  0  0  0  0  0  0  0  0  0
    5.7384   -1.2856    8.7616 O   0  0  0  0  0  0  0  0  0  0  0  0
    8.1352   -0.8510    8.9315 C   0  0  1  0  0  0  0  0  0  0  0  0
    8.2985   -0.7853    7.4818 O   0  0  0  0  0  0  0  0  0  0  0  0
    9.1765    0.1327    9.6051 C   0  0  1  0  0  0  0  0  0  0  0  0
    9.0226    0.0849   11.1177 C   0  0  1  0  0  0  0  0  0  0  0  0
    9.9977    0.9837   11.7168 N   0  0  0  0  0  0  0  0  0  0  0  0
    7.5753    0.4846   11.5114 C   0  0  0  0  0  0  0  0  0  0  0  0
    5.1178   -2.5228    8.3483 C   0  0  0  0  0  0  0  0  0  0  0  0
    5.4200   -2.7671    6.8877 C   0  0  0  0  0  0  0  0  0  0  0  0
    4.4645   -2.1309    5.9576 N   0  0  0  0  0  0  0  0  0  0  0  0
    3.5613   -1.8953    4.8082 C   0  0  0  0  0  0  0  0  0  0  0  0
    2.4587   -1.1495    5.5707 C   0  0  0  0  0  0  0  0  0  0  0  0
    1.7833   -2.0333    6.6360 C   0  0  0  0  0  0  0  0  0  0  0  0
    1.0647   -3.2157    5.9933 C   0  0  0  0  0  0  0  0  0  0  0  0
   -0.0991   -2.7508    5.2520 N   0  0  0  0  0  0  0  0  0  0  0  0
    5.1274   -0.3756   13.8652 N   0  0  0  0  0  0  0  0  0  0  0  0
    4.9764    1.6611   11.4751 C   0  0  0  0  0  0  0  0  0  0  0  0
    5.6646    2.4919   11.4630 O   0  0  0  0  0  0  0  0  0  0  0  0
    3.5177    1.3933   11.7547 C   0  0  2  0  0  0  0  0  0  0  0  0
    2.7402    2.4710   11.4140 O   0  0  0  0  0  0  0  0  0  0  0  0
    3.3826    1.2122   13.2625 C   0  0  0  0  0  0  0  0  0  0  0  0
    3.6693   -0.1924   13.8236 C   0  0  0  0  0  0  0  0  0  0  0  0
  1  2  1  6  0  0  0
  1  3  1  0  0  0  0
  3  4  1  6  0  0  0
  3  5  1  0  0  0  0
  5  6  1  1  0  0  0
  5  7  1  0  0  0  0
  7  8  1  6  0  0  0
  9  7  1  0  0  0  0
  9 10  1  0  0  0  0
  9 11  1  1  0  0  0
 10  1  1  0  0  0  0
 11 12  1  0  0  0  0
 13 14  1  6  0  0  0
 13 15  1  0  0  0  0
 13 22  1  0  0  0  0
 14 32  1  0  0  0  0
 15 16  1  6  0  0  0
 15 17  1  0  0  0  0
 16 23  1  0  0  0  0
 17 18  1  6  0  0  0
 17 19  1  0  0  0  0
 19  2  1  1  0  0  0
 19 20  1  0  0  0  0
 20 21  1  1  0  0  0
 20 22  1  0  0  0  0
 23 24  1  0  0  0  0
 24 25  1  0  0  0  0
 25 26  1  0  0  0  0
 26 27  1  0  0  0  0
 27 28  1  0  0  0  0
 28 29  1  0  0  0  0
 29 30  1  0  0  0  0
 31 37  1  0  0  0  0
 32 33  2  0  0  0  0
 34 32  1  1  0  0  0
 34 35  1  0  0  0  0
 34 36  1  0  0  0  0
 36 37  1  0  0  0  0
M  END
>  <CHROM.1>
173.79604720,174.88187457,-92.11037356,-77.19845225,-98.27202395,-97.64651313
-86.96641241,-139.45055796,141.31744673,-63.43865474,-63.54720568,-69.38954695
-149.05921488,-84.50691103,77.42329903,7.18231704,-1.11790225,9.37611323
-0.01312497,-0.14495629,0.99431434

>  <Name>
1o9m_lig

>  <RI>
0

>  <Rbt.Current_Directory>
/home/itssahil/PROJECTS/Mol_Feturizer/New_Systems/rnas/1o9m

>  <Rbt.Executable>
rbdock ($Id: //depot/dev/client3/rdock/2013.1/src/exe/rbdock.cxx#4 $)

>  <Rbt.Library>
libRbt.so (2013.1, Build901 2013/11/27)

>  <Rbt.Parameter_File>
/export/apps/rDock/src/rDock_2013.1_src/data/scripts/dock_solv.prm

>  <Rbt.Receptor>
prm/blind_docking_80.prm

>  <SCORE>
-1.83066

>  <SCORE.INTER>
-8.21308

>  <SCORE.INTER.CONST>
1

>  <SCORE.INTER.POLAR>
-1.90615

>  <SCORE.INTER.ROT>
15

>  <SCORE.INTER.SOLV>
19.2942

>  <SCORE.INTER.VDW>
-19.1529

>  <SCORE.INTER.norm>
-0.221975

>  <SCORE.INTRA>
6.36315

>  <SCORE.INTRA.DIHEDRAL>
0.125809

>  <SCORE.INTRA.DIHEDRAL.0>
21.5987

>  <SCORE.INTRA.POLAR>
0

>  <SCORE.INTRA.POLAR.0>
0

>  <SCORE.INTRA.REPUL>
0

>  <SCORE.INTRA.REPUL.0>
0

>  <SCORE.INTRA.SOLV>
8.41653

>  <SCORE.INTRA.SOLV.lig_0>
-108.715

>  <SCORE.INTRA.VDW>
2.09198

>  <SCORE.INTRA.VDW.0>
-3.9485

>  <SCORE.INTRA.norm>
0.171977

>  <SCORE.RESTR>
0.0192709

>  <SCORE.RESTR.CAVITY>
0.0192709

>  <SCORE.RESTR.norm>
0.000520834

>  <SCORE.SYSTEM>
0

>  <SCORE.SYSTEM.CONST>
0

>  <SCORE.SYSTEM.DIHEDRAL>
0

>  <SCORE.SYSTEM.SOLV>
0

>  <SCORE.SYSTEM.norm>
0

>  <SCORE.heavy>
37

>  <SCORE.norm>
-0.0494772

>  <RMSD>
23.988

$$$$
1o9m_lig
 OpenBabel11021811403D
libRbt.so/2013.1/901 2013/11/27
 37 38  0  0  0  0  0  0  0  0999 V2000
   10.1818   -2.4296    8.1672 C   0  0  2  0  0  0  0  0  0  0  0  0
    9.1929   -3.4869    8.3581 O   0  0  0  0  0  0  0  0  0  0  0  0
   11.2663   -3.0078    7.1854 C   0  0  2  0  0  0  0  0  0  0  0  0
   10.6865   -3.4172    5.8942 N   0  0  0  0  0  0  0  0  0  0  0  0
   11.9947   -4.2209    7.8796 C   0  0  1  0  0  0  0  0  0  0  0  0
   12.9885   -4.7637    7.0059 O   0  0  0  0  0  0  0  0  0  0  0  0
   12.6053   -3.7140    9.2278 C   0  0  2  0  0  0  0  0  0  0  0  0
   13.2833   -4.7500    9.9572 O   0  0  0  0  0  0  0  0  0  0  0  0
   11.5045   -3.1049   10.1310 C   0  0  2  0  0  0  0  0  0  0  0  0
   10.8005   -2.0593    9.4451 O   0  0  0  0  0  0  0  0  0  0  0  0
   12.0756   -2.5579   11.4136 C   0  0  0  0  0  0  0  0  0  0  0  0
   12.9224   -1.5083   11.1480 N   0  0  0  0  0  0  0  0  0  0  0  0
    5.7416   -1.3377    9.8711 C   0  0  1  0  0  0  0  0  0  0  0  0
    4.4050   -1.0852   10.4788 N   0  0  0  0  0  0  0  0  0  0  0  0
    6.6020   -2.0956   10.8730 C   0  0  2  0  0  0  0  0  0  0  0  0
    6.6768   -1.3313   12.0394 O   0  0  0  0  0  0  0  0  0  0  0  0
    8.0225   -2.3670   10.2846 C   0  0  1  0  0  0  0  0  0  0  0  0
    8.8304   -3.1128   11.2456 O   0  0  0  0  0  0  0  0  0  0  0  0
    7.8929   -3.2214    8.9583 C   0  0  1  0  0  0  0  0  0  0  0  0
    7.0505   -2.4657    7.9419 C   0  0  1  0  0  0  0  0  0  0  0  0
    6.9568   -3.2609    6.7268 N   0  0  0  0  0  0  0  0  0  0  0  0
    5.6448   -2.1786    8.5342 C   0  0  0  0  0  0  0  0  0  0  0  0
    6.2354   -0.5019   13.1366 C   0  0  0  0  0  0  0  0  0  0  0  0
    6.1103    0.9272   12.6607 C   0  0  0  0  0  0  0  0  0  0  0  0
    4.8258    1.2339   11.9983 N   0  0  0  0  0  0  0  0  0  0  0  0
    3.3772    1.3189   11.7037 C   0  0  0  0  0  0  0  0  0  0  0  0
    2.8780    1.3092   13.1541 C   0  0  0  0  0  0  0  0  0  0  0  0
    3.2334    2.6065   13.9042 C   0  0  0  0  0  0  0  0  0  0  0  0
    2.4393    3.7903   13.3606 C   0  0  0  0  0  0  0  0  0  0  0  0
    1.0160    3.5849   13.5891 N   0  0  0  0  0  0  0  0  0  0  0  0
    0.6860   -2.1635    8.1320 N   0  0  0  0  0  0  0  0  0  0  0  0
    3.6878   -2.5779   11.1145 C   0  0  0  0  0  0  0  0  0  0  0  0
    3.9988   -3.6095   11.1703 O   0  0  0  0  0  0  0  0  0  0  0  0
    2.5020   -1.7229   11.4894 C   0  0  2  0  0  0  0  0  0  0  0  0
    1.9817   -2.0987   12.7018 O   0  0  0  0  0  0  0  0  0  0  0  0
    1.4211   -1.9845   10.4463 C   0  0  0  0  0  0  0  0  0  0  0  0
    1.7696   -1.6527    8.9841 C   0  0  0  0  0  0  0  0  0  0  0  0
  1  2  1  1  0  0  0
  1  3  1  0  0  0  0
  3  4  1  6  0  0  0
  3  5  1  0  0  0  0
  5  6  1  6  0  0  0
  5  7  1  0  0  0  0
  7  8  1  1  0  0  0
  9  7  1  0  0  0  0
  9 10  1  0  0  0  0
  9 11  1  1  0  0  0
 10  1  1  0  0  0  0
 11 12  1  0  0  0  0
 13 14  1  1  0  0  0
 13 15  1  0  0  0  0
 13 22  1  0  0  0  0
 14 32  1  0  0  0  0
 15 16  1  1  0  0  0
 15 17  1  0  0  0  0
 16 23  1  0  0  0  0
 17 18  1  1  0  0  0
 17 19  1  0  0  0  0
 19  2  1  6  0  0  0
 19 20  1  0  0  0  0
 20 21  1  6  0  0  0
 20 22  1  0  0  0  0
 23 24  1  0  0  0  0
 24 25  1  0  0  0  0
 25 26  1  0  0  0  0
 26 27  1  0  0  0  0
 27 28  1  0  0  0  0
 28 29  1  0  0  0  0
 29 30  1  0  0  0  0
 31 37  1  0  0  0  0
 32 33  2  0  0  0  0
 34 32  1  6  0  0  0
 34 35  1  0  0  0  0
 34 36  1  0  0  0  0
 36 37  1  0  0  0  0
M  END
>  <CHROM.1>
-165.90648111,64.27822378,-51.81522836,44.56816812,-80.46286992,-47.66043383
83.97515252,46.81827806,29.12402195,69.33242936,69.00464676,63.45601486,-141.33215937
-60.30343977,171.52302088,6.87380284,-1.72265732,10.29584579,0.51307885,0.08976973
-2.28001581

>  <Name>
1o9m_lig

>  <RI>
0

>  <Rbt.Current_Directory>
/home/itssahil/PROJECTS/Mol_Feturizer/New_Systems/rnas/1o9m

>  <Rbt.Executable>
rbdock ($Id: //depot/dev/client3/rdock/2013.1/src/exe/rbdock.cxx#4 $)

>  <Rbt.Library>
libRbt.so (2013.1, Build901 2013/11/27)

>  <Rbt.Parameter_File>
/export/apps/rDock/src/rDock_2013.1_src/data/scripts/dock_solv.prm

>  <Rbt.Receptor>
prm/blind_docking_60.prm

>  <SCORE>
-2.48908

>  <SCORE.INTER>
0.698449

>  <SCORE.INTER.CONST>
1

>  <SCORE.INTER.POLAR>
0

>  <SCORE.INTER.ROT>
15

>  <SCORE.INTER.SOLV>
9.24527

>  <SCORE.INTER.VDW>
-16.2161

>  <SCORE.INTER.norm>
0.018877

>  <SCORE.INTRA>
-3.19337

>  <SCORE.INTRA.DIHEDRAL>
-11.0239

>  <SCORE.INTRA.DIHEDRAL.0>
21.5987

>  <SCORE.INTRA.POLAR>
0

>  <SCORE.INTRA.POLAR.0>
0

>  <SCORE.INTRA.REPUL>
0

>  <SCORE.INTRA.REPUL.0>
0

>  <SCORE.INTRA.SOLV>
6.26327

>  <SCORE.INTRA.SOLV.lig_0>
-108.715

>  <SCORE.INTRA.VDW>
-0.813053

>  <SCORE.INTRA.VDW.0>
-3.9485

>  <SCORE.INTRA.norm>
-0.0863072

>  <SCORE.RESTR>
0.00583589

>  <SCORE.RESTR.CAVITY>
0.00583589

>  <SCORE.RESTR.norm>
0.000157727

>  <SCORE.SYSTEM>
0

>  <SCORE.SYSTEM.CONST>
0

>  <SCORE.SYSTEM.DIHEDRAL>
0

>  <SCORE.SYSTEM.SOLV>
0

>  <SCORE.SYSTEM.norm>
0

>  <SCORE.heavy>
37

>  <SCORE.norm>
-0.0672725

>  <RMSD>
23.993

$$$$
1o9m_lig
 OpenBabel11021811403D
libRbt.so/2013.1/901 2013/11/27
 37 38  0  0  0  0  0  0  0  0999 V2000
   10.6782   -2.2316   12.0654 C   0  0  2  0  0  0  0  0  0  0  0  0
   10.2338   -1.5197   10.8704 O   0  0  0  0  0  0  0  0  0  0  0  0
   12.0824   -2.8495   11.7178 C   0  0  2  0  0  0  0  0  0  0  0  0
   13.0630   -1.8202   11.3306 N   0  0  0  0  0  0  0  0  0  0  0  0
   11.9064   -3.9131   10.5682 C   0  0  1  0  0  0  0  0  0  0  0  0
   13.1712   -4.4916   10.2349 O   0  0  0  0  0  0  0  0  0  0  0  0
   10.8745   -4.9850   11.0517 C   0  0  2  0  0  0  0  0  0  0  0  0
   10.6238   -6.0014   10.0673 O   0  0  0  0  0  0  0  0  0  0  0  0
    9.5308   -4.3163   11.4334 C   0  0  2  0  0  0  0  0  0  0  0  0
    9.7304   -3.2939   12.4204 O   0  0  0  0  0  0  0  0  0  0  0  0
    8.5370   -5.3212   11.9560 C   0  0  0  0  0  0  0  0  0  0  0  0
    9.0810   -6.0293   13.0010 N   0  0  0  0  0  0  0  0  0  0  0  0
    6.5959    0.5143   12.0742 C   0  0  1  0  0  0  0  0  0  0  0  0
    5.5077    1.5310   12.1145 N   0  0  0  0  0  0  0  0  0  0  0  0
    6.6353   -0.1089   10.6854 C   0  0  2  0  0  0  0  0  0  0  0  0
    5.3773   -0.6564   10.4247 O   0  0  0  0  0  0  0  0  0  0  0  0
    7.7520   -1.1969   10.6016 C   0  0  1  0  0  0  0  0  0  0  0  0
    7.7943   -1.7714    9.2597 O   0  0  0  0  0  0  0  0  0  0  0  0
    9.1572   -0.5401   10.9176 C   0  0  1  0  0  0  0  0  0  0  0  0
    9.1364    0.0699   12.3109 C   0  0  1  0  0  0  0  0  0  0  0  0
   10.4404    0.6540   12.5865 N   0  0  0  0  0  0  0  0  0  0  0  0
    8.0133    1.1376   12.4003 C   0  0  0  0  0  0  0  0  0  0  0  0
    4.3283   -1.3363    9.7010 C   0  0  0  0  0  0  0  0  0  0  0  0
    4.0727   -0.6126    8.3989 C   0  0  0  0  0  0  0  0  0  0  0  0
    2.8995   -1.1095    7.6508 N   0  0  0  0  0  0  0  0  0  0  0  0
    1.9385   -1.3868    6.5590 C   0  0  0  0  0  0  0  0  0  0  0  0
    1.4509   -2.7506    7.0644 C   0  0  0  0  0  0  0  0  0  0  0  0
    0.5429   -2.6257    8.3021 C   0  0  0  0  0  0  0  0  0  0  0  0
    0.0500   -3.9943    8.7619 C   0  0  0  0  0  0  0  0  0  0  0  0
   -0.8111   -4.5830    7.7459 N   0  0  0  0  0  0  0  0  0  0  0  0
    0.9183    3.2312   11.5388 N   0  0  0  0  0  0  0  0  0  0  0  0
    4.3535    1.1958   13.4192 C   0  0  0  0  0  0  0  0  0  0  0  0
    4.2671    0.4412   14.1854 O   0  0  0  0  0  0  0  0  0  0  0  0
    3.6050    2.4096   12.9251 C   0  0  2  0  0  0  0  0  0  0  0  0
    4.0893    3.5589   13.4966 O   0  0  0  0  0  0  0  0  0  0  0  0
    2.1617    2.2596   13.3932 C   0  0  0  0  0  0  0  0  0  0  0  0
    1.1768    3.3681   12.9795 C   0  0  0  0  0  0  0  0  0  0  0  0
  1  2  1  6  0  0  0
  1  3  1  0  0  0  0
  3  4  1  6  0  0  0
  3  5  1  0  0  0  0
  5  6  1  1  0  0  0
  5  7  1  0  0  0  0
  7  8  1  6  0  0  0
  9  7  1  0  0  0  0
  9 10  1  0  0  0  0
  9 11  1  1  0  0  0
 10  1  1  0  0  0  0
 11 12  1  0  0  0  0
 13 14  1  6  0  0  0
 13 15  1  0  0  0  0
 13 22  1  0  0  0  0
 14 32  1  0  0  0  0
 15 16  1  1  0  0  0
 15 17  1  0  0  0  0
 16 23  1  0  0  0  0
 17 18  1  6  0  0  0
 17 19  1  0  0  0  0
 19  2  1  1  0  0  0
 19 20  1  0  0  0  0
 20 21  1  6  0  0  0
 20 22  1  0  0  0  0
 23 24  1  0  0  0  0
 24 25  1  0  0  0  0
 25 26  1  0  0  0  0
 26 27  1  0  0  0  0
 27 28  1  0  0  0  0
 28 29  1  0  0  0  0
 29 30  1  0  0  0  0
 31 37  1  0  0  0  0
 32 33  2  0  0  0  0
 34 32  1  1  0  0  0
 34 35  1  0  0  0  0
 34 36  1  0  0  0  0
 36 37  1  0  0  0  0
M  END
>  <CHROM.1>
-163.65490087,54.47735684,123.96466044,179.16924529,-57.94379993,-92.61619104
-172.38370319,-161.47536727,148.99891609,72.58346504,178.75143440,-65.13351801
-86.53052382,-178.50622568,71.80710760,6.52013439,-1.34299183,10.97041098
-0.23930431,-0.28803487,0.57834833

>  <Name>
1o9m_lig

>  <RI>
0

>  <Rbt.Current_Directory>
/home/itssahil/PROJECTS/Mol_Feturizer/New_Systems/rnas/1o9m

>  <Rbt.Executable>
rbdock ($Id: //depot/dev/client3/rdock/2013.1/src/exe/rbdock.cxx#4 $)

>  <Rbt.Library>
libRbt.so (2013.1, Build901 2013/11/27)

>  <Rbt.Parameter_File>
/export/apps/rDock/src/rDock_2013.1_src/data/scripts/dock_solv.prm

>  <Rbt.Receptor>
prm/blind_docking_80.prm

>  <SCORE>
-7.74087

>  <SCORE.INTER>
-4.9276

>  <SCORE.INTER.CONST>
1

>  <SCORE.INTER.POLAR>
-1.65314

>  <SCORE.INTER.ROT>
15

>  <SCORE.INTER.SOLV>
21.5205

>  <SCORE.INTER.VDW>
-18.5481

>  <SCORE.INTER.norm>
-0.133178

>  <SCORE.INTRA>
-2.87633

>  <SCORE.INTRA.DIHEDRAL>
-11.323

>  <SCORE.INTRA.DIHEDRAL.0>
21.5987

>  <SCORE.INTRA.POLAR>
0

>  <SCORE.INTRA.POLAR.0>
0

>  <SCORE.INTRA.REPUL>
0

>  <SCORE.INTRA.REPUL.0>
0

>  <SCORE.INTRA.SOLV>
3.46557

>  <SCORE.INTRA.SOLV.lig_0>
-108.715

>  <SCORE.INTRA.VDW>
1.05241

>  <SCORE.INTRA.VDW.0>
-3.9485

>  <SCORE.INTRA.norm>
-0.0777386

>  <SCORE.RESTR>
0.0630572

>  <SCORE.RESTR.CAVITY>
0.0630572

>  <SCORE.RESTR.norm>
0.00170425

>  <SCORE.SYSTEM>
0

>  <SCORE.SYSTEM.CONST>
0

>  <SCORE.SYSTEM.DIHEDRAL>
0

>  <SCORE.SYSTEM.SOLV>
0

>  <SCORE.SYSTEM.norm>
0

>  <SCORE.heavy>
37

>  <SCORE.norm>
-0.209213

>  <RMSD>
23.995

$$$$
1o9m_lig
 OpenBabel11021811403D
libRbt.so/2013.1/901 2013/11/27
 37 38  0  0  0  0  0  0  0  0999 V2000
   11.5640   -0.7179   11.5661 C   0  0  2  0  0  0  0  0  0  0  0  0
   10.8094   -0.3005   10.3878 O   0  0  0  0  0  0  0  0  0  0  0  0
   12.6711   -1.7118   11.0554 C   0  0  2  0  0  0  0  0  0  0  0  0
   13.5620   -1.0892   10.0606 N   0  0  0  0  0  0  0  0  0  0  0  0
   11.9758   -2.9934   10.4571 C   0  0  1  0  0  0  0  0  0  0  0  0
   12.9633   -3.9149    9.9868 O   0  0  0  0  0  0  0  0  0  0  0  0
   11.0667   -3.6162   11.5676 C   0  0  2  0  0  0  0  0  0  0  0  0
   10.3664   -4.7891   11.1219 O   0  0  0  0  0  0  0  0  0  0  0  0
   10.0338   -2.5788   12.0730 C   0  0  2  0  0  0  0  0  0  0  0  0
   10.6883   -1.3879   12.5341 O   0  0  0  0  0  0  0  0  0  0  0  0
    9.1816   -3.1365   13.1835 C   0  0  0  0  0  0  0  0  0  0  0  0
    8.2949   -4.0607   12.6847 N   0  0  0  0  0  0  0  0  0  0  0  0
    6.9452   -1.0125    8.5487 C   0  0  1  0  0  0  0  0  0  0  0  0
    5.6952   -1.7145    8.1435 N   0  0  0  0  0  0  0  0  0  0  0  0
    7.0100   -0.9620   10.0692 C   0  0  2  0  0  0  0  0  0  0  0  0
    5.8586   -0.3177   10.5268 O   0  0  0  0  0  0  0  0  0  0  0  0
    8.2983   -0.2166   10.5409 C   0  0  1  0  0  0  0  0  0  0  0  0
    8.3600   -0.1937   11.9997 O   0  0  0  0  0  0  0  0  0  0  0  0
    9.5778   -0.9683    9.9900 C   0  0  1  0  0  0  0  0  0  0  0  0
    9.5339   -1.0087    8.4700 C   0  0  1  0  0  0  0  0  0  0  0  0
   10.7248   -1.6897    7.9845 N   0  0  0  0  0  0  0  0  0  0  0  0
    8.2434   -1.7324    8.0007 C   0  0  0  0  0  0  0  0  0  0  0  0
    4.9551    0.7655   10.8381 C   0  0  0  0  0  0  0  0  0  0  0  0
    5.4936    1.5379   12.0204 C   0  0  0  0  0  0  0  0  0  0  0  0
    4.4642    2.2785   12.7787 N   0  0  0  0  0  0  0  0  0  0  0  0
    3.4775    3.3066   13.1808 C   0  0  0  0  0  0  0  0  0  0  0  0
    2.7882    2.4992   14.2879 C   0  0  0  0  0  0  0  0  0  0  0  0
    2.0895    1.2387   13.7446 C   0  0  0  0  0  0  0  0  0  0  0  0
    1.3658    0.4887   14.8587 C   0  0  0  0  0  0  0  0  0  0  0  0
    2.3135    0.0860   15.8882 N   0  0  0  0  0  0  0  0  0  0  0  0
    1.4490   -1.6557    7.2450 N   0  0  0  0  0  0  0  0  0  0  0  0
    5.7148   -2.1333    6.4199 C   0  0  0  0  0  0  0  0  0  0  0  0
    6.4195   -2.0072    5.6127 O   0  0  0  0  0  0  0  0  0  0  0  0
    4.3334   -2.6960    6.6497 C   0  0  2  0  0  0  0  0  0  0  0  0
    4.2513   -3.9992    6.2292 O   0  0  0  0  0  0  0  0  0  0  0  0
    3.3772   -1.8907    5.7769 C   0  0  0  0  0  0  0  0  0  0  0  0
    1.8742   -2.1809    5.9394 C   0  0  0  0  0  0  0  0  0  0  0  0
  1  2  1  6  0  0  0
  1  3  1  0  0  0  0
  3  4  1  6  0  0  0
  3  5  1  0  0  0  0
  5  6  1  1  0  0  0
  5  7  1  0  0  0  0
  7  8  1  6  0  0  0
  9  7  1  0  0  0  0
  9 10  1  0  0  0  0
  9 11  1  1  0  0  0
 10  1  1  0  0  0  0
 11 12  1  0  0  0  0
 13 14  1  1  0  0  0
 13 15  1  0  0  0  0
 13 22  1  0  0  0  0
 14 32  1  0  0  0  0
 15 16  1  6  0  0  0
 15 17  1  0  0  0  0
 16 23  1  0  0  0  0
 17 18  1  1  0  0  0
 17 19  1  0  0  0  0
 19  2  1  6  0  0  0
 19 20  1  0  0  0  0
 20 21  1  1  0  0  0
 20 22  1  0  0  0  0
 23 24  1  0  0  0  0
 24 25  1  0  0  0  0
 25 26  1  0  0  0  0
 26 27  1  0  0  0  0
 27 28  1  0  0  0  0
 28 29  1  0  0  0  0
 29 30  1  0  0  0  0
 31 37  1  0  0  0  0
 32 33  2  0  0  0  0
 34 32  1  6  0  0  0
 34 35  1  0  0  0  0
 34 36  1  0  0  0  0
 36 37  1  0  0  0  0
M  END
>  <CHROM.1>
94.79132007,-72.19571690,-167.36818492,-77.74184130,-71.50068309,95.62955355
-156.07832601,-77.68762414,166.45264690,-63.36404830,-177.65679362,-59.71180625
-126.02807821,-174.02922721,70.87171482,7.24313212,-1.21588394,10.33981453
-0.19224107,-0.24857953,1.16586001

>  <Name>
1o9m_lig

>  <RI>
0

>  <Rbt.Current_Directory>
/home/itssahil/PROJECTS/Mol_Feturizer/New_Systems/rnas/1o9m

>  <Rbt.Executable>
rbdock ($Id: //depot/dev/client3/rdock/2013.1/src/exe/rbdock.cxx#4 $)

>  <Rbt.Library>
libRbt.so (2013.1, Build901 2013/11/27)

>  <Rbt.Parameter_File>
/export/apps/rDock/src/rDock_2013.1_src/data/scripts/dock_solv.prm

>  <Rbt.Receptor>
prm/blind_docking_80.prm

>  <SCORE>
3.60422

>  <SCORE.INTER>
0.476712

>  <SCORE.INTER.CONST>
1

>  <SCORE.INTER.POLAR>
-0.966356

>  <SCORE.INTER.ROT>
15

>  <SCORE.INTER.SOLV>
17.9236

>  <SCORE.INTER.VDW>
-16.0355

>  <SCORE.INTER.norm>
0.0128841

>  <SCORE.INTRA>
3.12751

>  <SCORE.INTRA.DIHEDRAL>
-4.38414

>  <SCORE.INTRA.DIHEDRAL.0>
21.5987

>  <SCORE.INTRA.POLAR>
0

>  <SCORE.INTRA.POLAR.0>
0

>  <SCORE.INTRA.REPUL>
0

>  <SCORE.INTRA.REPUL.0>
0

>  <SCORE.INTRA.SOLV>
6.51278

>  <SCORE.INTRA.SOLV.lig_0>
-108.715

>  <SCORE.INTRA.VDW>
2.06319

>  <SCORE.INTRA.VDW.0>
-3.9485

>  <SCORE.INTRA.norm>
0.0845274

>  <SCORE.RESTR>
0

>  <SCORE.RESTR.CAVITY>
0

>  <SCORE.RESTR.norm>
0

>  <SCORE.SYSTEM>
0

>  <SCORE.SYSTEM.CONST>
0

>  <SCORE.SYSTEM.DIHEDRAL>
0

>  <SCORE.SYSTEM.SOLV>
0

>  <SCORE.SYSTEM.norm>
0

>  <SCORE.heavy>
37

>  <SCORE.norm>
0.0974115

>  <RMSD>
24.001

$$$$
1o9m_lig
 OpenBabel11021811403D
libRbt.so/2013.1/901 2013/11/27
 37 38  0  0  0  0  0  0  0  0999 V2000
    2.0998    0.5198   13.2764 C   0  0  2  0  0  0  0  0  0  0  0  0
    3.4902    0.2026   13.5905 O   0  0  0  0  0  0  0  0  0  0  0  0
    2.1013    1.9721   12.6720 C   0  0  2  0  0  0  0  0  0  0  0  0
    2.9430    2.0726   11.4668 N   0  0  0  0  0  0  0  0  0  0  0  0
    2.5835    2.9884   13.7758 C   0  0  1  0  0  0  0  0  0  0  0  0
    2.5918    4.3186   13.2503 O   0  0  0  0  0  0  0  0  0  0  0  0
    1.6370    2.8470   15.0133 C   0  0  2  0  0  0  0  0  0  0  0  0
    1.9981    3.7222   16.0944 O   0  0  0  0  0  0  0  0  0  0  0  0
    1.6306    1.3878   15.5320 C   0  0  2  0  0  0  0  0  0  0  0  0
    1.2701    0.4744   14.4856 O   0  0  0  0  0  0  0  0  0  0  0  0
    0.6827    1.2122   16.6902 C   0  0  0  0  0  0  0  0  0  0  0  0
    0.6877   -0.0949   17.1153 N   0  0  0  0  0  0  0  0  0  0  0  0
    6.6070   -1.6532   11.2111 C   0  0  1  0  0  0  0  0  0  0  0  0
    7.6128   -1.8517   10.1300 N   0  0  0  0  0  0  0  0  0  0  0  0
    6.9612   -0.3916   11.9865 C   0  0  2  0  0  0  0  0  0  0  0  0
    8.2591   -0.5411   12.4798 O   0  0  0  0  0  0  0  0  0  0  0  0
    5.9419   -0.1529   13.1448 C   0  0  1  0  0  0  0  0  0  0  0  0
    6.2793    1.0707   13.8670 O   0  0  0  0  0  0  0  0  0  0  0  0
    4.4841   -0.0040   12.5462 C   0  0  1  0  0  0  0  0  0  0  0  0
    4.1112   -1.2668   11.7845 C   0  0  1  0  0  0  0  0  0  0  0  0
    2.7638   -1.1149   11.2561 N   0  0  0  0  0  0  0  0  0  0  0  0
    5.1358   -1.5150   10.6453 C   0  0  0  0  0  0  0  0  0  0  0  0
    9.6784   -0.8097   12.4765 C   0  0  0  0  0  0  0  0  0  0  0  0
   10.3788    0.2274   11.6289 C   0  0  0  0  0  0  0  0  0  0  0  0
   11.3337   -0.3347   10.6515 N   0  0  0  0  0  0  0  0  0  0  0  0
   12.3050   -1.2334    9.9871 C   0  0  0  0  0  0  0  0  0  0  0  0
   11.4297   -2.4929    9.9669 C   0  0  0  0  0  0  0  0  0  0  0  0
   12.0108   -3.5950    9.0614 C   0  0  0  0  0  0  0  0  0  0  0  0
   13.3035   -4.1588    9.6431 C   0  0  0  0  0  0  0  0  0  0  0  0
   14.4199   -3.2794    9.3261 N   0  0  0  0  0  0  0  0  0  0  0  0
    9.3070   -1.0932    4.3998 N   0  0  0  0  0  0  0  0  0  0  0  0
    7.4078   -0.6664    8.8263 C   0  0  0  0  0  0  0  0  0  0  0  0
    6.7380    0.1599    8.6456 O   0  0  0  0  0  0  0  0  0  0  0  0
    8.5557   -1.3727    8.1474 C   0  0  2  0  0  0  0  0  0  0  0  0
    9.7577   -0.8014    8.4802 O   0  0  0  0  0  0  0  0  0  0  0  0
    8.3731   -1.1718    6.6471 C   0  0  0  0  0  0  0  0  0  0  0  0
    9.5043   -1.6783    5.7340 C   0  0  0  0  0  0  0  0  0  0  0  0
  1  2  1  1  0  0  0
  1  3  1  0  0  0  0
  3  4  1  6  0  0  0
  3  5  1  0  0  0  0
  5  6  1  6  0  0  0
  5  7  1  0  0  0  0
  7  8  1  1  0  0  0
  9  7  1  0  0  0  0
  9 10  1  0  0  0  0
  9 11  1  1  0  0  0
 10  1  1  0  0  0  0
 11 12  1  0  0  0  0
 13 14  1  6  0  0  0
 13 15  1  0  0  0  0
 13 22  1  0  0  0  0
 14 32  1  0  0  0  0
 15 16  1  1  0  0  0
 15 17  1  0  0  0  0
 16 23  1  0  0  0  0
 17 18  1  6  0  0  0
 17 19  1  0  0  0  0
 19  2  1  1  0  0  0
 19 20  1  0  0  0  0
 20 21  1  6  0  0  0
 20 22  1  0  0  0  0
 23 24  1  0  0  0  0
 24 25  1  0  0  0  0
 25 26  1  0  0  0  0
 26 27  1  0  0  0  0
 27 28  1  0  0  0  0
 28 29  1  0  0  0  0
 29 30  1  0  0  0  0
 31 37  1  0  0  0  0
 32 33  2  0  0  0  0
 34 32  1  1  0  0  0
 34 35  1  0  0  0  0
 34 36  1  0  0  0  0
 36 37  1  0  0  0  0
M  END
>  <CHROM.1>
-68.89106173,179.23375745,-72.09357090,51.71263863,64.40875649,172.83176374
-131.65085193,-26.64894404,55.75830877,167.73102023,68.10339307,-80.90289944
-91.49228622,173.82474402,-165.66827653,6.38939058,-0.19187009,11.52353122
2.56653306,-0.33682261,1.49457313

>  <Name>
1o9m_lig

>  <RI>
0

>  <Rbt.Current_Directory>
/home/itssahil/PROJECTS/Mol_Feturizer/New_Systems/rnas/1o9m

>  <Rbt.Executable>
rbdock ($Id: //depot/dev/client3/rdock/2013.1/src/exe/rbdock.cxx#4 $)

>  <Rbt.Library>
libRbt.so (2013.1, Build901 2013/11/27)

>  <Rbt.Parameter_File>
/export/apps/rDock/src/rDock_2013.1_src/data/scripts/dock_solv.prm

>  <Rbt.Receptor>
prm/blind_docking_40.prm

>  <SCORE>
-9.1112

>  <SCORE.INTER>
-9.14314

>  <SCORE.INTER.CONST>
1

>  <SCORE.INTER.POLAR>
-1.99317

>  <SCORE.INTER.ROT>
15

>  <SCORE.INTER.SOLV>
18.2432

>  <SCORE.INTER.VDW>
-19.1326

>  <SCORE.INTER.norm>
-0.247112

>  <SCORE.INTRA>
-0.563218

>  <SCORE.INTRA.DIHEDRAL>
-9.95843

>  <SCORE.INTRA.DIHEDRAL.0>
21.5987

>  <SCORE.INTRA.POLAR>
0

>  <SCORE.INTRA.POLAR.0>
0

>  <SCORE.INTRA.REPUL>
0

>  <SCORE.INTRA.REPUL.0>
0

>  <SCORE.INTRA.SOLV>
7.05629

>  <SCORE.INTRA.SOLV.lig_0>
-108.715

>  <SCORE.INTRA.VDW>
0.887854

>  <SCORE.INTRA.VDW.0>
-3.9485

>  <SCORE.INTRA.norm>
-0.0152221

>  <SCORE.RESTR>
0.595154

>  <SCORE.RESTR.CAVITY>
0.595154

>  <SCORE.RESTR.norm>
0.0160852

>  <SCORE.SYSTEM>
0

>  <SCORE.SYSTEM.CONST>
0

>  <SCORE.SYSTEM.DIHEDRAL>
0

>  <SCORE.SYSTEM.SOLV>
0

>  <SCORE.SYSTEM.norm>
0

>  <SCORE.heavy>
37

>  <SCORE.norm>
-0.246249

>  <RMSD>
24.009

$$$$
1o9m_lig
 OpenBabel11021811403D
libRbt.so/2013.1/901 2013/11/27
 37 38  0  0  0  0  0  0  0  0999 V2000
    9.2158   -2.5253   11.6989 C   0  0  2  0  0  0  0  0  0  0  0  0
    8.7885   -2.0452   10.3877 O   0  0  0  0  0  0  0  0  0  0  0  0
   10.4518   -1.6448   12.1131 C   0  0  2  0  0  0  0  0  0  0  0  0
   10.1201   -0.2102   12.1670 N   0  0  0  0  0  0  0  0  0  0  0  0
   11.6324   -1.9070   11.1025 C   0  0  1  0  0  0  0  0  0  0  0  0
   12.7704   -1.1178   11.4595 O   0  0  0  0  0  0  0  0  0  0  0  0
   11.9485   -3.4391   11.1115 C   0  0  2  0  0  0  0  0  0  0  0  0
   13.0059   -3.7955   10.2062 O   0  0  0  0  0  0  0  0  0  0  0  0
   10.6850   -4.2595   10.7523 C   0  0  2  0  0  0  0  0  0  0  0  0
    9.5995   -3.9400   11.6350 O   0  0  0  0  0  0  0  0  0  0  0  0
   10.9485   -5.7420   10.8088 C   0  0  0  0  0  0  0  0  0  0  0  0
   11.8873   -6.0946    9.8687 N   0  0  0  0  0  0  0  0  0  0  0  0
    4.9996   -2.2982    8.2901 C   0  0  1  0  0  0  0  0  0  0  0  0
    3.8234   -2.8855    7.5891 N   0  0  0  0  0  0  0  0  0  0  0  0
    5.0731   -2.8770    9.6965 C   0  0  2  0  0  0  0  0  0  0  0  0
    3.8666   -2.5947   10.3406 O   0  0  0  0  0  0  0  0  0  0  0  0
    6.2835   -2.2744   10.4773 C   0  0  1  0  0  0  0  0  0  0  0  0
    6.3562   -2.8530   11.8161 O   0  0  0  0  0  0  0  0  0  0  0  0
    7.6275   -2.6029    9.7082 C   0  0  1  0  0  0  0  0  0  0  0  0
    7.5736   -2.0131    8.3071 C   0  0  1  0  0  0  0  0  0  0  0  0
    8.8229   -2.3133    7.6237 N   0  0  0  0  0  0  0  0  0  0  0  0
    6.3589   -2.5973    7.5374 C   0  0  0  0  0  0  0  0  0  0  0  0
    2.8730   -2.5712   11.3888 C   0  0  0  0  0  0  0  0  0  0  0  0
    3.4583   -1.9074   12.6140 C   0  0  0  0  0  0  0  0  0  0  0  0
    2.5712   -1.9285   13.7954 N   0  0  0  0  0  0  0  0  0  0  0  0
    1.6162   -1.5136   14.8481 C   0  0  0  0  0  0  0  0  0  0  0  0
    2.1781   -0.1059   15.0834 C   0  0  0  0  0  0  0  0  0  0  0  0
    1.6743    0.9077   14.0388 C   0  0  0  0  0  0  0  0  0  0  0  0
    2.5245    2.1743   14.0482 C   0  0  0  0  0  0  0  0  0  0  0  0
    2.3064    2.9139   15.2834 N   0  0  0  0  0  0  0  0  0  0  0  0
   -0.3225   -4.2958    8.7361 N   0  0  0  0  0  0  0  0  0  0  0  0
    2.4001   -1.8344    7.7158 C   0  0  0  0  0  0  0  0  0  0  0  0
    2.1979   -0.8763    8.1686 O   0  0  0  0  0  0  0  0  0  0  0  0
    1.6729   -2.9039    6.9380 C   0  0  2  0  0  0  0  0  0  0  0  0
    1.9809   -2.8435    5.6025 O   0  0  0  0  0  0  0  0  0  0  0  0
    0.1831   -2.6034    7.0602 C   0  0  0  0  0  0  0  0  0  0  0  0
   -0.4701   -2.8657    8.4292 C   0  0  0  0  0  0  0  0  0  0  0  0
  1  2  1  6  0  0  0
  1  3  1  0  0  0  0
  3  4  1  6  0  0  0
  3  5  1  0  0  0  0
  5  6  1  1  0  0  0
  5  7  1  0  0  0  0
  7  8  1  6  0  0  0
  9  7  1  0  0  0  0
  9 10  1  0  0  0  0
  9 11  1  1  0  0  0
 10  1  1  0  0  0  0
 11 12  1  0  0  0  0
 13 14  1  6  0  0  0
 13 15  1  0  0  0  0
 13 22  1  0  0  0  0
 14 32  1  0  0  0  0
 15 16  1  1  0  0  0
 15 17  1  0  0  0  0
 16 23  1  0  0  0  0
 17 18  1  1  0  0  0
 17 19  1  0  0  0  0
 19  2  1  1  0  0  0
 19 20  1  0  0  0  0
 20 21  1  6  0  0  0
 20 22  1  0  0  0  0
 23 24  1  0  0  0  0
 24 25  1  0  0  0  0
 25 26  1  0  0  0  0
 26 27  1  0  0  0  0
 27 28  1  0  0  0  0
 28 29  1  0  0  0  0
 29 30  1  0  0  0  0
 31 37  1  0  0  0  0
 32 33  2  0  0  0  0
 34 32  1  1  0  0  0
 34 35  1  0  0  0  0
 34 36  1  0  0  0  0
 36 37  1  0  0  0  0
M  END
>  <CHROM.1>
-177.74334751,-63.36620556,95.19319725,179.26268881,58.46892658,66.50956814
-174.99009349,-102.36423764,-39.74471794,81.46100322,-164.18720205,-68.88112367
-77.68900235,-71.96305508,-60.88054548,5.92388397,-2.22575203,10.50297161
-0.04991731,-0.16725527,1.10037854

>  <Name>
1o9m_lig

>  <RI>
0

>  <Rbt.Current_Directory>
/home/itssahil/PROJECTS/Mol_Feturizer/New_Systems/rnas/1o9m

>  <Rbt.Executable>
rbdock ($Id: //depot/dev/client3/rdock/2013.1/src/exe/rbdock.cxx#4 $)

>  <Rbt.Library>
libRbt.so (2013.1, Build901 2013/11/27)

>  <Rbt.Parameter_File>
/export/apps/rDock/src/rDock_2013.1_src/data/scripts/dock_solv.prm

>  <Rbt.Receptor>
prm/blind_docking_60.prm

>  <SCORE>
-12.1348

>  <SCORE.INTER>
-5.7978

>  <SCORE.INTER.CONST>
1

>  <SCORE.INTER.POLAR>
-1.63223

>  <SCORE.INTER.ROT>
15

>  <SCORE.INTER.SOLV>
17.3341

>  <SCORE.INTER.VDW>
-17.8025

>  <SCORE.INTER.norm>
-0.156697

>  <SCORE.INTRA>
-6.3454

>  <SCORE.INTRA.DIHEDRAL>
-14.8292

>  <SCORE.INTRA.DIHEDRAL.0>
21.5987

>  <SCORE.INTRA.POLAR>
0

>  <SCORE.INTRA.POLAR.0>
0

>  <SCORE.INTRA.REPUL>
0

>  <SCORE.INTRA.REPUL.0>
0

>  <SCORE.INTRA.SOLV>
2.301

>  <SCORE.INTRA.SOLV.lig_0>
-108.715

>  <SCORE.INTRA.VDW>
-0.081279

>  <SCORE.INTRA.VDW.0>
-3.9485

>  <SCORE.INTRA.norm>
-0.171497

>  <SCORE.RESTR>
0.00841077

>  <SCORE.RESTR.CAVITY>
0.00841077

>  <SCORE.RESTR.norm>
0.000227318

>  <SCORE.SYSTEM>
0

>  <SCORE.SYSTEM.CONST>
0

>  <SCORE.SYSTEM.DIHEDRAL>
0

>  <SCORE.SYSTEM.SOLV>
0

>  <SCORE.SYSTEM.norm>
0

>  <SCORE.heavy>
37

>  <SCORE.norm>
-0.327967

>  <RMSD>
24.009

$$$$
1o9m_lig
 OpenBabel11021811403D
libRbt.so/2013.1/901 2013/11/27
 37 38  0  0  0  0  0  0  0  0999 V2000
    4.1473    1.9830   12.2468 C   0  0  2  0  0  0  0  0  0  0  0  0
    4.4226    0.5807   12.5468 O   0  0  0  0  0  0  0  0  0  0  0  0
    2.9047    2.3888   13.1219 C   0  0  2  0  0  0  0  0  0  0  0  0
    3.1541    2.2041   14.5623 N   0  0  0  0  0  0  0  0  0  0  0  0
    1.6536    1.5490   12.6601 C   0  0  1  0  0  0  0  0  0  0  0  0
    0.5085    1.9016   13.4410 O   0  0  0  0  0  0  0  0  0  0  0  0
    1.4312    1.8079   11.1333 C   0  0  2  0  0  0  0  0  0  0  0  0
    0.3178    1.0729   10.5995 O   0  0  0  0  0  0  0  0  0  0  0  0
    2.7027    1.4451   10.3270 C   0  0  2  0  0  0  0  0  0  0  0  0
    3.8440    2.1603   10.8223 O   0  0  0  0  0  0  0  0  0  0  0  0
    2.5340    1.7385    8.8587 C   0  0  0  0  0  0  0  0  0  0  0  0
    3.6287    1.2947    8.1559 N   0  0  0  0  0  0  0  0  0  0  0  0
    8.3148   -0.0252   10.7293 C   0  0  1  0  0  0  0  0  0  0  0  0
    9.5716   -0.7028   10.3039 N   0  0  0  0  0  0  0  0  0  0  0  0
    7.1284   -0.7702   10.1328 C   0  0  2  0  0  0  0  0  0  0  0  0
    7.2867   -0.7889    8.7454 O   0  0  0  0  0  0  0  0  0  0  0  0
    5.7864   -0.0827   10.5379 C   0  0  1  0  0  0  0  0  0  0  0  0
    4.6559   -0.8183    9.9783 O   0  0  0  0  0  0  0  0  0  0  0  0
    5.6527   -0.0684   12.1151 C   0  0  1  0  0  0  0  0  0  0  0  0
    6.8233    0.6900   12.7221 C   0  0  1  0  0  0  0  0  0  0  0  0
    6.6730    0.7039   14.1694 N   0  0  0  0  0  0  0  0  0  0  0  0
    8.1584    0.0181   12.3032 C   0  0  0  0  0  0  0  0  0  0  0  0
    6.9439   -0.9642    7.3532 C   0  0  0  0  0  0  0  0  0  0  0  0
    8.2122   -1.0942    6.5413 C   0  0  0  0  0  0  0  0  0  0  0  0
    8.0714   -1.9261    5.3285 N   0  0  0  0  0  0  0  0  0  0  0  0
    7.5428   -2.5143    4.0767 C   0  0  0  0  0  0  0  0  0  0  0  0
    6.3797   -3.2966    4.6997 C   0  0  0  0  0  0  0  0  0  0  0  0
    5.1835   -2.3903    5.0458 C   0  0  0  0  0  0  0  0  0  0  0  0
    4.0997   -3.1696    5.7843 C   0  0  0  0  0  0  0  0  0  0  0  0
    3.4542   -4.1094    4.8786 N   0  0  0  0  0  0  0  0  0  0  0  0
   14.4512   -1.9461    8.9727 N   0  0  0  0  0  0  0  0  0  0  0  0
   10.9103    0.4504   10.1467 C   0  0  0  0  0  0  0  0  0  0  0  0
   11.0230    1.5128   10.2972 O   0  0  0  0  0  0  0  0  0  0  0  0
   11.7383   -0.7331    9.7092 C   0  0  2  0  0  0  0  0  0  0  0  0
   12.4428   -1.2627   10.7605 O   0  0  0  0  0  0  0  0  0  0  0  0
   12.7648   -0.2094    8.7108 C   0  0  0  0  0  0  0  0  0  0  0  0
   13.6187   -1.2582    7.9753 C   0  0  0  0  0  0  0  0  0  0  0  0
  1  2  1  6  0  0  0
  1  3  1  0  0  0  0
  3  4  1  1  0  0  0
  3  5  1  0  0  0  0
  5  6  1  1  0  0  0
  5  7  1  0  0  0  0
  7  8  1  6  0  0  0
  9  7  1  0  0  0  0
  9 10  1  0  0  0  0
  9 11  1  6  0  0  0
 10  1  1  0  0  0  0
 11 12  1  0  0  0  0
 13 14  1  1  0  0  0
 13 15  1  0  0  0  0
 13 22  1  0  0  0  0
 14 32  1  0  0  0  0
 15 16  1  6  0  0  0
 15 17  1  0  0  0  0
 16 23  1  0  0  0  0
 17 18  1  6  0  0  0
 17 19  1  0  0  0  0
 19  2  1  6  0  0  0
 19 20  1  0  0  0  0
 20 21  1  1  0  0  0
 20 22  1  0  0  0  0
 23 24  1  0  0  0  0
 24 25  1  0  0  0  0
 25 26  1  0  0  0  0
 26 27  1  0  0  0  0
 27 28  1  0  0  0  0
 28 29  1  0  0  0  0
 29 30  1  0  0  0  0
 31 37  1  0  0  0  0
 32 33  2  0  0  0  0
 34 32  1  1  0  0  0
 34 35  1  0  0  0  0
 34 36  1  0  0  0  0
 36 37  1  0  0  0  0
M  END
>  <CHROM.1>
-168.22103373,-174.54308228,148.77903438,-166.85527011,-161.06040218,-61.62600191
150.17377602,44.16551522,-71.28952735,77.67316650,-174.51690613,-70.05690674
-95.80095031,-172.32170096,-64.63672419,6.41643704,-0.12539429,9.74126360
-2.65287914,0.09404239,-2.03578505

>  <Name>
1o9m_lig

>  <RI>
0

>  <Rbt.Current_Directory>
/home/itssahil/PROJECTS/Mol_Feturizer/New_Systems/rnas/1o9m

>  <Rbt.Executable>
rbdock ($Id: //depot/dev/client3/rdock/2013.1/src/exe/rbdock.cxx#4 $)

>  <Rbt.Library>
libRbt.so (2013.1, Build901 2013/11/27)

>  <Rbt.Parameter_File>
/export/apps/rDock/src/rDock_2013.1_src/data/scripts/dock_solv.prm

>  <Rbt.Receptor>
prm/blind_docking_60.prm

>  <SCORE>
-7.34953

>  <SCORE.INTER>
-5.85983

>  <SCORE.INTER.CONST>
1

>  <SCORE.INTER.POLAR>
-1.5511

>  <SCORE.INTER.ROT>
15

>  <SCORE.INTER.SOLV>
21.546

>  <SCORE.INTER.VDW>
-19.5182

>  <SCORE.INTER.norm>
-0.158374

>  <SCORE.INTRA>
-3.93789

>  <SCORE.INTRA.DIHEDRAL>
-11.0998

>  <SCORE.INTRA.DIHEDRAL.0>
21.5987

>  <SCORE.INTRA.POLAR>
0

>  <SCORE.INTRA.POLAR.0>
0

>  <SCORE.INTRA.REPUL>
0

>  <SCORE.INTRA.REPUL.0>
0

>  <SCORE.INTRA.SOLV>
4.58732

>  <SCORE.INTRA.SOLV.lig_0>
-108.715

>  <SCORE.INTRA.VDW>
-0.681641

>  <SCORE.INTRA.VDW.0>
-3.9485

>  <SCORE.INTRA.norm>
-0.106429

>  <SCORE.RESTR>
2.44819

>  <SCORE.RESTR.CAVITY>
2.44819

>  <SCORE.RESTR.norm>
0.0661673

>  <SCORE.SYSTEM>
0

>  <SCORE.SYSTEM.CONST>
0

>  <SCORE.SYSTEM.DIHEDRAL>
0

>  <SCORE.SYSTEM.SOLV>
0

>  <SCORE.SYSTEM.norm>
0

>  <SCORE.heavy>
37

>  <SCORE.norm>
-0.198636

>  <RMSD>
24.012

$$$$
1o9m_lig
 OpenBabel11021811403D
libRbt.so/2013.1/901 2013/11/27
 37 38  0  0  0  0  0  0  0  0999 V2000
   10.6485   -2.6570   10.7184 C   0  0  2  0  0  0  0  0  0  0  0  0
    9.9289   -2.6497    9.4478 O   0  0  0  0  0  0  0  0  0  0  0  0
   12.1470   -2.9935   10.3782 C   0  0  2  0  0  0  0  0  0  0  0  0
   12.7402   -2.0151    9.4498 N   0  0  0  0  0  0  0  0  0  0  0  0
   12.2244   -4.4492    9.7792 C   0  0  1  0  0  0  0  0  0  0  0  0
   13.5794   -4.7799    9.4628 O   0  0  0  0  0  0  0  0  0  0  0  0
   11.6020   -5.4369   10.8206 C   0  0  2  0  0  0  0  0  0  0  0  0
   11.6053   -6.8004   10.3669 O   0  0  0  0  0  0  0  0  0  0  0  0
   10.1479   -5.0266   11.1609 C   0  0  2  0  0  0  0  0  0  0  0  0
   10.0943   -3.6695   11.6242 O   0  0  0  0  0  0  0  0  0  0  0  0
    9.5439   -5.9299   12.2049 C   0  0  0  0  0  0  0  0  0  0  0  0
    8.5437   -5.2732   12.8813 N   0  0  0  0  0  0  0  0  0  0  0  0
    6.0036   -1.2596    8.2312 C   0  0  1  0  0  0  0  0  0  0  0  0
    4.5210   -1.1233    8.1766 N   0  0  0  0  0  0  0  0  0  0  0  0
    6.4784   -0.9081    9.6345 C   0  0  2  0  0  0  0  0  0  0  0  0
    6.0462    0.3884    9.9218 O   0  0  0  0  0  0  0  0  0  0  0  0
    8.0325   -1.0194    9.7340 C   0  0  1  0  0  0  0  0  0  0  0  0
    8.4735   -0.7012   11.0894 O   0  0  0  0  0  0  0  0  0  0  0  0
    8.4818   -2.4971    9.3873 C   0  0  1  0  0  0  0  0  0  0  0  0
    8.0293   -2.8535    7.9794 C   0  0  1  0  0  0  0  0  0  0  0  0
    8.4649   -4.2084    7.6759 N   0  0  0  0  0  0  0  0  0  0  0  0
    6.4861   -2.7239    7.8750 C   0  0  0  0  0  0  0  0  0  0  0  0
    5.9351    1.6466   10.6227 C   0  0  0  0  0  0  0  0  0  0  0  0
    5.4437    1.3908   12.0289 C   0  0  0  0  0  0  0  0  0  0  0  0
    4.0311    1.7612   12.2528 N   0  0  0  0  0  0  0  0  0  0  0  0
    2.7541    2.1113   12.9156 C   0  0  0  0  0  0  0  0  0  0  0  0
    2.7129    0.9372   13.9018 C   0  0  0  0  0  0  0  0  0  0  0  0
    2.2987   -0.3823   13.2240 C   0  0  0  0  0  0  0  0  0  0  0  0
    2.1709   -1.5079   14.2458 C   0  0  0  0  0  0  0  0  0  0  0  0
    1.7155   -2.7270   13.5926 N   0  0  0  0  0  0  0  0  0  0  0  0
    1.4789    1.0707    8.5305 N   0  0  0  0  0  0  0  0  0  0  0  0
    3.8493   -1.9060    6.7334 C   0  0  0  0  0  0  0  0  0  0  0  0
    4.2622   -2.4593    5.9043 O   0  0  0  0  0  0  0  0  0  0  0  0
    2.5080   -1.4165    7.2221 C   0  0  2  0  0  0  0  0  0  0  0  0
    1.5004   -2.2669    6.8434 O   0  0  0  0  0  0  0  0  0  0  0  0
    2.2440   -0.0847    6.5284 C   0  0  0  0  0  0  0  0  0  0  0  0
    1.1380    0.8042    7.1255 C   0  0  0  0  0  0  0  0  0  0  0  0
  1  2  1  6  0  0  0
  1  3  1  0  0  0  0
  3  4  1  6  0  0  0
  3  5  1  0  0  0  0
  5  6  1  1  0  0  0
  5  7  1  0  0  0  0
  7  8  1  6  0  0  0
  9  7  1  0  0  0  0
  9 10  1  0  0  0  0
  9 11  1  1  0  0  0
 10  1  1  0  0  0  0
 11 12  1  0  0  0  0
 13 14  1  1  0  0  0
 13 15  1  0  0  0  0
 13 22  1  0  0  0  0
 14 32  1  0  0  0  0
 15 16  1  6  0  0  0
 15 17  1  0  0  0  0
 16 23  1  0  0  0  0
 17 18  1  1  0  0  0
 17 19  1  0  0  0  0
 19  2  1  6  0  0  0
 19 20  1  0  0  0  0
 20 21  1  1  0  0  0
 20 22  1  0  0  0  0
 23 24  1  0  0  0  0
 24 25  1  0  0  0  0
 25 26  1  0  0  0  0
 26 27  1  0  0  0  0
 27 28  1  0  0  0  0
 28 29  1  0  0  0  0
 29 30  1  0  0  0  0
 31 37  1  0  0  0  0
 32 33  2  0  0  0  0
 34 32  1  6  0  0  0
 34 35  1  0  0  0  0
 34 36  1  0  0  0  0
 36 37  1  0  0  0  0
M  END
>  <CHROM.1>
174.10227777,154.98876523,-165.21959812,-168.77841529,-59.79380195,72.21385677
-105.53806020,-162.48881990,-50.78728578,-76.31518442,-175.97964007,177.21948346
-149.56229839,-163.95000049,57.45580048,6.71159922,-1.94607050,9.99307491
-0.04573309,-0.46383941,1.38745124

>  <Name>
1o9m_lig

>  <RI>
0

>  <Rbt.Current_Directory>
/home/itssahil/PROJECTS/Mol_Feturizer/New_Systems/rnas/1o9m

>  <Rbt.Executable>
rbdock ($Id: //depot/dev/client3/rdock/2013.1/src/exe/rbdock.cxx#4 $)

>  <Rbt.Library>
libRbt.so (2013.1, Build901 2013/11/27)

>  <Rbt.Parameter_File>
/export/apps/rDock/src/rDock_2013.1_src/data/scripts/dock_solv.prm

>  <Rbt.Receptor>
prm/blind_docking_80.prm

>  <SCORE>
-6.37933

>  <SCORE.INTER>
-2.61595

>  <SCORE.INTER.CONST>
1

>  <SCORE.INTER.POLAR>
-0.635206

>  <SCORE.INTER.ROT>
15

>  <SCORE.INTER.SOLV>
22.3647

>  <SCORE.INTER.VDW>
-20.6815

>  <SCORE.INTER.norm>
-0.0707015

>  <SCORE.INTRA>
-3.78426

>  <SCORE.INTRA.DIHEDRAL>
-9.18306

>  <SCORE.INTRA.DIHEDRAL.0>
21.5987

>  <SCORE.INTRA.POLAR>
0

>  <SCORE.INTRA.POLAR.0>
0

>  <SCORE.INTRA.REPUL>
0.00434742

>  <SCORE.INTRA.REPUL.0>
0

>  <SCORE.INTRA.SOLV>
0.777501

>  <SCORE.INTRA.SOLV.lig_0>
-108.715

>  <SCORE.INTRA.VDW>
0.396787

>  <SCORE.INTRA.VDW.0>
-3.9485

>  <SCORE.INTRA.norm>
-0.102277

>  <SCORE.RESTR>
0.0208805

>  <SCORE.RESTR.CAVITY>
0.0208805

>  <SCORE.RESTR.norm>
0.000564339

>  <SCORE.SYSTEM>
0

>  <SCORE.SYSTEM.CONST>
0

>  <SCORE.SYSTEM.DIHEDRAL>
0

>  <SCORE.SYSTEM.SOLV>
0

>  <SCORE.SYSTEM.norm>
0

>  <SCORE.heavy>
37

>  <SCORE.norm>
-0.172414

>  <RMSD>
24.030

$$$$
1o9m_lig
 OpenBabel11021811403D
libRbt.so/2013.1/901 2013/11/27
 37 38  0  0  0  0  0  0  0  0999 V2000
   10.9647   -1.6025    9.9972 C   0  0  2  0  0  0  0  0  0  0  0  0
    9.8454   -2.2887   10.6364 O   0  0  0  0  0  0  0  0  0  0  0  0
   10.3601   -0.7967    8.7890 C   0  0  2  0  0  0  0  0  0  0  0  0
    9.3358    0.1700    9.2217 N   0  0  0  0  0  0  0  0  0  0  0  0
    9.7628   -1.8112    7.7412 C   0  0  1  0  0  0  0  0  0  0  0  0
    9.2076   -1.1017    6.6304 O   0  0  0  0  0  0  0  0  0  0  0  0
   10.9036   -2.7900    7.3076 C   0  0  2  0  0  0  0  0  0  0  0  0
   10.4623   -3.7755    6.3595 O   0  0  0  0  0  0  0  0  0  0  0  0
   11.5000   -3.5136    8.5401 C   0  0  2  0  0  0  0  0  0  0  0  0
   11.9599   -2.5674    9.5160 O   0  0  0  0  0  0  0  0  0  0  0  0
   12.6396   -4.4214    8.1559 C   0  0  0  0  0  0  0  0  0  0  0  0
   13.1322   -5.0633    9.2670 N   0  0  0  0  0  0  0  0  0  0  0  0
    6.4823   -1.2173   13.1586 C   0  0  1  0  0  0  0  0  0  0  0  0
    5.3201   -0.4537   13.6934 N   0  0  0  0  0  0  0  0  0  0  0  0
    6.1923   -1.6074   11.7157 C   0  0  2  0  0  0  0  0  0  0  0  0
    5.0088   -2.3484   11.7008 O   0  0  0  0  0  0  0  0  0  0  0  0
    7.3787   -2.4278   11.1181 C   0  0  1  0  0  0  0  0  0  0  0  0
    7.0985   -2.7771    9.7281 O   0  0  0  0  0  0  0  0  0  0  0  0
    8.7017   -1.5599   11.1670 C   0  0  1  0  0  0  0  0  0  0  0  0
    9.0124   -1.1796   12.6067 C   0  0  1  0  0  0  0  0  0  0  0  0
   10.2384   -0.3961   12.6305 N   0  0  0  0  0  0  0  0  0  0  0  0
    7.8246   -0.3809   13.2072 C   0  0  0  0  0  0  0  0  0  0  0  0
    3.6112   -2.6579   11.8943 C   0  0  0  0  0  0  0  0  0  0  0  0
    3.1324   -3.5290   10.7557 C   0  0  0  0  0  0  0  0  0  0  0  0
    3.3234   -2.9337    9.4170 N   0  0  0  0  0  0  0  0  0  0  0  0
    3.9377   -2.2704    8.2444 C   0  0  0  0  0  0  0  0  0  0  0  0
    2.8154   -2.5615    7.2401 C   0  0  0  0  0  0  0  0  0  0  0  0
    3.0925   -1.9429    5.8571 C   0  0  0  0  0  0  0  0  0  0  0  0
    2.0278   -2.3583    4.8465 C   0  0  0  0  0  0  0  0  0  0  0  0
    2.1149   -3.7885    4.5876 N   0  0  0  0  0  0  0  0  0  0  0  0
    1.7864    3.3778   11.2038 N   0  0  0  0  0  0  0  0  0  0  0  0
    4.6714    0.6722   12.4859 C   0  0  0  0  0  0  0  0  0  0  0  0
    4.9160    0.9187   11.4644 O   0  0  0  0  0  0  0  0  0  0  0  0
    3.6893    1.0859   13.5545 C   0  0  2  0  0  0  0  0  0  0  0  0
    2.7156    0.1355   13.7296 O   0  0  0  0  0  0  0  0  0  0  0  0
    2.9910    2.3439   13.0500 C   0  0  0  0  0  0  0  0  0  0  0  0
    1.8749    2.1501   12.0076 C   0  0  0  0  0  0  0  0  0  0  0  0
  1  2  1  6  0  0  0
  1  3  1  0  0  0  0
  3  4  1  1  0  0  0
  3  5  1  0  0  0  0
  5  6  1  6  0  0  0
  5  7  1  0  0  0  0
  7  8  1  6  0  0  0
  9  7  1  0  0  0  0
  9 10  1  0  0  0  0
  9 11  1  6  0  0  0
 10  1  1  0  0  0  0
 11 12  1  0  0  0  0
 13 14  1  6  0  0  0
 13 15  1  0  0  0  0
 13 22  1  0  0  0  0
 14 32  1  0  0  0  0
 15 16  1  1  0  0  0
 15 17  1  0  0  0  0
 16 23  1  0  0  0  0
 17 18  1  6  0  0  0
 17 19  1  0  0  0  0
 19  2  1  1  0  0  0
 19 20  1  0  0  0  0
 20 21  1  6  0  0  0
 20 22  1  0  0  0  0
 23 24  1  0  0  0  0
 24 25  1  0  0  0  0
 25 26  1  0  0  0  0
 26 27  1  0  0  0  0
 27 28  1  0  0  0  0
 28 29  1  0  0  0  0
 29 30  1  0  0  0  0
 31 37  1  0  0  0  0
 32 33  2  0  0  0  0
 34 32  1  6  0  0  0
 34 35  1  0  0  0  0
 34 36  1  0  0  0  0
 36 37  1  0  0  0  0
M  END
>  <CHROM.1>
-58.43332728,-179.06379267,-40.43101713,59.54424910,143.78052154,150.83451326
-57.13663894,49.31827936,168.64980285,177.59889841,174.64008381,-66.61895665
-74.93167010,78.28772842,-153.30521402,6.75298016,-1.50726388,10.06526714
-0.40166290,-0.17521302,1.10655596

>  <Name>
1o9m_lig

>  <RI>
0

>  <Rbt.Current_Directory>
/home/itssahil/PROJECTS/Mol_Feturizer/New_Systems/rnas/1o9m

>  <Rbt.Executable>
rbdock ($Id: //depot/dev/client3/rdock/2013.1/src/exe/rbdock.cxx#4 $)

>  <Rbt.Library>
libRbt.so (2013.1, Build901 2013/11/27)

>  <Rbt.Parameter_File>
/export/apps/rDock/src/rDock_2013.1_src/data/scripts/dock_solv.prm

>  <Rbt.Receptor>
prm/blind_docking_40.prm

>  <SCORE>
-4.40893

>  <SCORE.INTER>
-3.97913

>  <SCORE.INTER.CONST>
1

>  <SCORE.INTER.POLAR>
-1.75912

>  <SCORE.INTER.ROT>
15

>  <SCORE.INTER.SOLV>
22.8534

>  <SCORE.INTER.VDW>
-18.0068

>  <SCORE.INTER.norm>
-0.107544

>  <SCORE.INTRA>
-0.456363

>  <SCORE.INTRA.DIHEDRAL>
-8.252

>  <SCORE.INTRA.DIHEDRAL.0>
21.5987

>  <SCORE.INTRA.POLAR>
0

>  <SCORE.INTRA.POLAR.0>
0

>  <SCORE.INTRA.REPUL>
0

>  <SCORE.INTRA.REPUL.0>
0

>  <SCORE.INTRA.SOLV>
6.08769

>  <SCORE.INTRA.SOLV.lig_0>
-108.715

>  <SCORE.INTRA.VDW>
0.625792

>  <SCORE.INTRA.VDW.0>
-3.9485

>  <SCORE.INTRA.norm>
-0.0123341

>  <SCORE.RESTR>
0.0265637

>  <SCORE.RESTR.CAVITY>
0.0265637

>  <SCORE.RESTR.norm>
0.000717939

>  <SCORE.SYSTEM>
0

>  <SCORE.SYSTEM.CONST>
0

>  <SCORE.SYSTEM.DIHEDRAL>
0

>  <SCORE.SYSTEM.SOLV>
0

>  <SCORE.SYSTEM.norm>
0

>  <SCORE.heavy>
37

>  <SCORE.norm>
-0.11916

>  <RMSD>
24.036

$$$$
1o9m_lig
 OpenBabel11021811403D
libRbt.so/2013.1/901 2013/11/27
 37 38  0  0  0  0  0  0  0  0999 V2000
   10.7169   -1.2208    8.1681 C   0  0  2  0  0  0  0  0  0  0  0  0
   10.4081   -1.0467    9.5847 O   0  0  0  0  0  0  0  0  0  0  0  0
   10.9365   -2.7628    7.9477 C   0  0  2  0  0  0  0  0  0  0  0  0
    9.7509   -3.5531    8.3227 N   0  0  0  0  0  0  0  0  0  0  0  0
   12.1987   -3.2256    8.7702 C   0  0  1  0  0  0  0  0  0  0  0  0
   12.4208   -4.6262    8.5845 O   0  0  0  0  0  0  0  0  0  0  0  0
   13.4217   -2.3662    8.3083 C   0  0  2  0  0  0  0  0  0  0  0  0
   14.6314   -2.6952    9.0106 O   0  0  0  0  0  0  0  0  0  0  0  0
   13.1299   -0.8568    8.4947 C   0  0  2  0  0  0  0  0  0  0  0  0
   11.9295   -0.4787    7.8052 O   0  0  0  0  0  0  0  0  0  0  0  0
   14.2713   -0.0039    8.0045 C   0  0  0  0  0  0  0  0  0  0  0  0
   14.0051    1.3250    8.2338 N   0  0  0  0  0  0  0  0  0  0  0  0
    6.8513    0.5305   11.5035 C   0  0  1  0  0  0  0  0  0  0  0  0
    5.8262    1.5074   11.9666 N   0  0  0  0  0  0  0  0  0  0  0  0
    6.9135    0.5668    9.9826 C   0  0  2  0  0  0  0  0  0  0  0  0
    5.6372    0.2800    9.4938 O   0  0  0  0  0  0  0  0  0  0  0  0
    7.9646   -0.4574    9.4499 C   0  0  1  0  0  0  0  0  0  0  0  0
    8.0305   -0.3978    7.9923 O   0  0  0  0  0  0  0  0  0  0  0  0
    9.3919   -0.1070   10.0379 C   0  0  1  0  0  0  0  0  0  0  0  0
    9.3472   -0.1586   11.5575 C   0  0  1  0  0  0  0  0  0  0  0  0
   10.6710    0.1514   12.0762 N   0  0  0  0  0  0  0  0  0  0  0  0
    8.2883    0.8456   12.0863 C   0  0  0  0  0  0  0  0  0  0  0  0
    4.2043    0.3701    9.3349 C   0  0  0  0  0  0  0  0  0  0  0  0
    3.8011   -0.3256    8.0551 C   0  0  0  0  0  0  0  0  0  0  0  0
    4.3339   -1.6968    7.9182 N   0  0  0  0  0  0  0  0  0  0  0  0
    5.1432   -2.8570    7.4806 C   0  0  0  0  0  0  0  0  0  0  0  0
    4.6392   -2.9168    6.0330 C   0  0  0  0  0  0  0  0  0  0  0  0
    3.1310   -3.2181    5.9503 C   0  0  0  0  0  0  0  0  0  0  0  0
    2.6614   -3.2759    4.5000 C   0  0  0  0  0  0  0  0  0  0  0  0
    2.9351   -2.0098    3.8348 N   0  0  0  0  0  0  0  0  0  0  0  0
    2.5913   -0.3229   13.2690 N   0  0  0  0  0  0  0  0  0  0  0  0
    5.0917    1.0007   13.4997 C   0  0  0  0  0  0  0  0  0  0  0  0
    5.2237    0.1647   14.1687 O   0  0  0  0  0  0  0  0  0  0  0  0
    4.2403    2.2410   13.3794 C   0  0  2  0  0  0  0  0  0  0  0  0
    3.6665    2.5687   14.5816 O   0  0  0  0  0  0  0  0  0  0  0  0
    3.1002    1.9036   12.4249 C   0  0  0  0  0  0  0  0  0  0  0  0
    1.9900    0.9835   12.9640 C   0  0  0  0  0  0  0  0  0  0  0  0
  1  2  1  1  0  0  0
  1  3  1  0  0  0  0
  3  4  1  1  0  0  0
  3  5  1  0  0  0  0
  5  6  1  6  0  0  0
  5  7  1  0  0  0  0
  7  8  1  1  0  0  0
  9  7  1  0  0  0  0
  9 10  1  0  0  0  0
  9 11  1  6  0  0  0
 10  1  1  0  0  0  0
 11 12  1  0  0  0  0
 13 14  1  1  0  0  0
 13 15  1  0  0  0  0
 13 22  1  0  0  0  0
 14 32  1  0  0  0  0
 15 16  1  6  0  0  0
 15 17  1  0  0  0  0
 16 23  1  0  0  0  0
 17 18  1  6  0  0  0
 17 19  1  0  0  0  0
 19  2  1  6  0  0  0
 19 20  1  0  0  0  0
 20 21  1  1  0  0  0
 20 22  1  0  0  0  0
 23 24  1  0  0  0  0
 24 25  1  0  0  0  0
 25 26  1  0  0  0  0
 26 27  1  0  0  0  0
 27 28  1  0  0  0  0
 28 29  1  0  0  0  0
 29 30  1  0  0  0  0
 31 37  1  0  0  0  0
 32 33  2  0  0  0  0
 34 32  1  1  0  0  0
 34 35  1  0  0  0  0
 34 36  1  0  0  0  0
 36 37  1  0  0  0  0
M  END
>  <CHROM.1>
-140.00889233,-177.53685459,150.79860020,51.18070644,163.78020798,60.30973249
51.17103180,-105.63495888,-67.09144085,-63.06599437,-179.80737800,-58.84990676
-162.71434771,73.43061811,-63.47864877,7.67214198,-0.71521992,9.58643763
0.33776899,0.05022722,-2.09346646

>  <Name>
1o9m_lig

>  <RI>
0

>  <Rbt.Current_Directory>
/home/itssahil/PROJECTS/Mol_Feturizer/New_Systems/rnas/1o9m

>  <Rbt.Executable>
rbdock ($Id: //depot/dev/client3/rdock/2013.1/src/exe/rbdock.cxx#4 $)

>  <Rbt.Library>
libRbt.so (2013.1, Build901 2013/11/27)

>  <Rbt.Parameter_File>
/export/apps/rDock/src/rDock_2013.1_src/data/scripts/dock_solv.prm

>  <Rbt.Receptor>
prm/blind_docking_20.prm

>  <SCORE>
-6.20021

>  <SCORE.INTER>
-4.45094

>  <SCORE.INTER.CONST>
1

>  <SCORE.INTER.POLAR>
-0.755924

>  <SCORE.INTER.ROT>
15

>  <SCORE.INTER.SOLV>
20.1684

>  <SCORE.INTER.VDW>
-20.7703

>  <SCORE.INTER.norm>
-0.120296

>  <SCORE.INTRA>
-1.74927

>  <SCORE.INTRA.DIHEDRAL>
-10.6459

>  <SCORE.INTRA.DIHEDRAL.0>
21.5987

>  <SCORE.INTRA.POLAR>
0

>  <SCORE.INTRA.POLAR.0>
0

>  <SCORE.INTRA.REPUL>
0

>  <SCORE.INTRA.REPUL.0>
0

>  <SCORE.INTRA.SOLV>
5.74472

>  <SCORE.INTRA.SOLV.lig_0>
-108.715

>  <SCORE.INTRA.VDW>
0.701321

>  <SCORE.INTRA.VDW.0>
-3.9485

>  <SCORE.INTRA.norm>
-0.0472777

>  <SCORE.RESTR>
0

>  <SCORE.RESTR.CAVITY>
0

>  <SCORE.RESTR.norm>
0

>  <SCORE.SYSTEM>
0

>  <SCORE.SYSTEM.CONST>
0

>  <SCORE.SYSTEM.DIHEDRAL>
0

>  <SCORE.SYSTEM.SOLV>
0

>  <SCORE.SYSTEM.norm>
0

>  <SCORE.heavy>
37

>  <SCORE.norm>
-0.167573

>  <RMSD>
24.050

$$$$
1o9m_lig
 OpenBabel11021811403D
libRbt.so/2013.1/901 2013/11/27
 37 38  0  0  0  0  0  0  0  0999 V2000
   10.8313   -1.8998   11.1805 C   0  0  2  0  0  0  0  0  0  0  0  0
    9.6304   -1.6242   10.3969 O   0  0  0  0  0  0  0  0  0  0  0  0
   11.9742   -2.2135   10.1462 C   0  0  2  0  0  0  0  0  0  0  0  0
   12.2055   -1.0946    9.2158 N   0  0  0  0  0  0  0  0  0  0  0  0
   11.6084   -3.5283    9.3579 C   0  0  1  0  0  0  0  0  0  0  0  0
   12.6349   -3.8362    8.4109 O   0  0  0  0  0  0  0  0  0  0  0  0
   11.4001   -4.6771   10.3992 C   0  0  2  0  0  0  0  0  0  0  0  0
   11.0434   -5.9270    9.7864 O   0  0  0  0  0  0  0  0  0  0  0  0
   10.3053   -4.2926   11.4248 C   0  0  2  0  0  0  0  0  0  0  0  0
   10.6208   -3.0491   12.0679 O   0  0  0  0  0  0  0  0  0  0  0  0
   10.1244   -5.3597   12.4732 C   0  0  0  0  0  0  0  0  0  0  0  0
    9.0726   -5.0420   13.2991 N   0  0  0  0  0  0  0  0  0  0  0  0
    5.9631    0.4641   11.4022 C   0  0  1  0  0  0  0  0  0  0  0  0
    5.0397    1.5719   11.7757 N   0  0  0  0  0  0  0  0  0  0  0  0
    6.6401    0.8117   10.0833 C   0  0  2  0  0  0  0  0  0  0  0  0
    5.6411    1.0239    9.1308 O   0  0  0  0  0  0  0  0  0  0  0  0
    7.6061   -0.3327    9.6418 C   0  0  1  0  0  0  0  0  0  0  0  0
    8.2652    0.0218    8.3878 O   0  0  0  0  0  0  0  0  0  0  0  0
    8.7121   -0.5514   10.7530 C   0  0  1  0  0  0  0  0  0  0  0  0
    8.0485   -0.9181   12.0717 C   0  0  1  0  0  0  0  0  0  0  0  0
    9.0822   -1.1291   13.0740 N   0  0  0  0  0  0  0  0  0  0  0  0
    7.0733    0.2107   12.5008 C   0  0  0  0  0  0  0  0  0  0  0  0
    4.3617    0.9029    8.4713 C   0  0  0  0  0  0  0  0  0  0  0  0
    3.8066   -0.4821    8.7131 C   0  0  0  0  0  0  0  0  0  0  0  0
    4.8305   -1.5467    8.7468 N   0  0  0  0  0  0  0  0  0  0  0  0
    5.4810   -2.8768    8.7434 C   0  0  0  0  0  0  0  0  0  0  0  0
    6.0025   -2.8473   10.1857 C   0  0  0  0  0  0  0  0  0  0  0  0
    6.1150   -4.2568   10.7964 C   0  0  0  0  0  0  0  0  0  0  0  0
    7.2514   -5.0451   10.1527 C   0  0  0  0  0  0  0  0  0  0  0  0
    7.3937   -6.3397   10.8039 N   0  0  0  0  0  0  0  0  0  0  0  0
    1.4853    4.5641   14.3295 N   0  0  0  0  0  0  0  0  0  0  0  0
    4.2108    1.2381   13.3081 C   0  0  0  0  0  0  0  0  0  0  0  0
    4.2307    0.4329   14.0259 O   0  0  0  0  0  0  0  0  0  0  0  0
    3.5055    2.5546   13.0910 C   0  0  2  0  0  0  0  0  0  0  0  0
    4.0096    3.5301   13.9134 O   0  0  0  0  0  0  0  0  0  0  0  0
    2.0497    2.3478   13.4941 C   0  0  0  0  0  0  0  0  0  0  0  0
    1.1048    3.5524   13.3332 C   0  0  0  0  0  0  0  0  0  0  0  0
  1  2  1  6  0  0  0
  1  3  1  0  0  0  0
  3  4  1  6  0  0  0
  3  5  1  0  0  0  0
  5  6  1  6  0  0  0
  5  7  1  0  0  0  0
  7  8  1  6  0  0  0
  9  7  1  0  0  0  0
  9 10  1  0  0  0  0
  9 11  1  1  0  0  0
 10  1  1  0  0  0  0
 11 12  1  0  0  0  0
 13 14  1  1  0  0  0
 13 15  1  0  0  0  0
 13 22  1  0  0  0  0
 14 32  1  0  0  0  0
 15 16  1  6  0  0  0
 15 17  1  0  0  0  0
 16 23  1  0  0  0  0
 17 18  1  6  0  0  0
 17 19  1  0  0  0  0
 19  2  1  6  0  0  0
 19 20  1  0  0  0  0
 20 21  1  1  0  0  0
 20 22  1  0  0  0  0
 23 24  1  0  0  0  0
 24 25  1  0  0  0  0
 25 26  1  0  0  0  0
 26 27  1  0  0  0  0
 27 28  1  0  0  0  0
 28 29  1  0  0  0  0
 29 30  1  0  0  0  0
 31 37  1  0  0  0  0
 32 33  2  0  0  0  0
 34 32  1  1  0  0  0
 34 35  1  0  0  0  0
 34 36  1  0  0  0  0
 36 37  1  0  0  0  0
M  END
>  <CHROM.1>
-139.17441305,-174.92799656,-179.99546667,-27.95689199,-31.14951532,172.15323271
-35.82448784,-166.01020242,-113.12704913,151.22353803,70.35186513,176.34986504
-104.81559132,-178.71330985,-69.22036618,7.28970431,-1.23950685,11.04277299
-0.52232933,-0.54843784,1.07853051

>  <Name>
1o9m_lig

>  <RI>
0

>  <Rbt.Current_Directory>
/home/itssahil/PROJECTS/Mol_Feturizer/New_Systems/rnas/1o9m

>  <Rbt.Executable>
rbdock ($Id: //depot/dev/client3/rdock/2013.1/src/exe/rbdock.cxx#4 $)

>  <Rbt.Library>
libRbt.so (2013.1, Build901 2013/11/27)

>  <Rbt.Parameter_File>
/export/apps/rDock/src/rDock_2013.1_src/data/scripts/dock_solv.prm

>  <Rbt.Receptor>
prm/blind_docking_40.prm

>  <SCORE>
1.58973

>  <SCORE.INTER>
-1.76326

>  <SCORE.INTER.CONST>
1

>  <SCORE.INTER.POLAR>
-1.36988

>  <SCORE.INTER.ROT>
15

>  <SCORE.INTER.SOLV>
21.4593

>  <SCORE.INTER.VDW>
-17.3623

>  <SCORE.INTER.norm>
-0.0476558

>  <SCORE.INTRA>
3.33382

>  <SCORE.INTRA.DIHEDRAL>
0.407743

>  <SCORE.INTRA.DIHEDRAL.0>
21.5987

>  <SCORE.INTRA.POLAR>
0

>  <SCORE.INTRA.POLAR.0>
0

>  <SCORE.INTRA.REPUL>
0

>  <SCORE.INTRA.REPUL.0>
0

>  <SCORE.INTRA.SOLV>
10.4135

>  <SCORE.INTRA.SOLV.lig_0>
-108.715

>  <SCORE.INTRA.VDW>
-2.0768

>  <SCORE.INTRA.VDW.0>
-3.9485

>  <SCORE.INTRA.norm>
0.0901032

>  <SCORE.RESTR>
0.0191769

>  <SCORE.RESTR.CAVITY>
0.0191769

>  <SCORE.RESTR.norm>
0.000518295

>  <SCORE.SYSTEM>
0

>  <SCORE.SYSTEM.CONST>
0

>  <SCORE.SYSTEM.DIHEDRAL>
0

>  <SCORE.SYSTEM.SOLV>
0

>  <SCORE.SYSTEM.norm>
0

>  <SCORE.heavy>
37

>  <SCORE.norm>
0.0429658

>  <RMSD>
24.062

$$$$
1o9m_lig
 OpenBabel11021811403D
libRbt.so/2013.1/901 2013/11/27
 37 38  0  0  0  0  0  0  0  0999 V2000
    2.2710    1.5325   10.0026 C   0  0  2  0  0  0  0  0  0  0  0  0
    3.6492    2.0132    9.9596 O   0  0  0  0  0  0  0  0  0  0  0  0
    1.7473    1.8150   11.4588 C   0  0  2  0  0  0  0  0  0  0  0  0
    1.8104    3.2457   11.8052 N   0  0  0  0  0  0  0  0  0  0  0  0
    2.5831    0.9557   12.4820 C   0  0  1  0  0  0  0  0  0  0  0  0
    2.1239    1.1940   13.8154 O   0  0  0  0  0  0  0  0  0  0  0  0
    2.4547   -0.5486   12.0721 C   0  0  2  0  0  0  0  0  0  0  0  0
    3.1972   -1.4267   12.9339 O   0  0  0  0  0  0  0  0  0  0  0  0
    2.9305   -0.7596   10.6135 C   0  0  2  0  0  0  0  0  0  0  0  0
    2.2122    0.0955    9.7123 O   0  0  0  0  0  0  0  0  0  0  0  0
    2.7644   -2.1916   10.1748 C   0  0  0  0  0  0  0  0  0  0  0  0
    1.4327   -2.4850   10.0021 N   0  0  0  0  0  0  0  0  0  0  0  0
    7.6857    0.6740   10.8160 C   0  0  1  0  0  0  0  0  0  0  0  0
    8.8028   -0.1397   11.3724 N   0  0  0  0  0  0  0  0  0  0  0  0
    6.8085   -0.2212    9.9514 C   0  0  2  0  0  0  0  0  0  0  0  0
    7.6140   -0.7804    8.9571 O   0  0  0  0  0  0  0  0  0  0  0  0
    5.6316    0.5954    9.3304 C   0  0  1  0  0  0  0  0  0  0  0  0
    4.7857   -0.2780    8.5215 O   0  0  0  0  0  0  0  0  0  0  0  0
    4.7532    1.2238   10.4877 C   0  0  1  0  0  0  0  0  0  0  0  0
    5.6149    2.1357   11.3478 C   0  0  1  0  0  0  0  0  0  0  0  0
    4.7859    2.7137   12.3948 N   0  0  0  0  0  0  0  0  0  0  0  0
    6.7963    1.3283   11.9494 C   0  0  0  0  0  0  0  0  0  0  0  0
    8.4513   -0.8479    7.7819 C   0  0  0  0  0  0  0  0  0  0  0  0
    9.1130   -2.2054    7.7201 C   0  0  0  0  0  0  0  0  0  0  0  0
    8.2098   -3.3333    8.0283 N   0  0  0  0  0  0  0  0  0  0  0  0
    7.1355   -4.1537    8.6325 C   0  0  0  0  0  0  0  0  0  0  0  0
    7.6678   -4.1509   10.0711 C   0  0  0  0  0  0  0  0  0  0  0  0
    8.3160   -5.4934   10.4581 C   0  0  0  0  0  0  0  0  0  0  0  0
    9.0170   -5.3953   11.8095 C   0  0  0  0  0  0  0  0  0  0  0  0
    8.0339   -5.2460   12.8732 N   0  0  0  0  0  0  0  0  0  0  0  0
   11.6091   -3.2378   10.9477 N   0  0  0  0  0  0  0  0  0  0  0  0
   10.2506    0.8473   11.6486 C   0  0  0  0  0  0  0  0  0  0  0  0
   10.4995    1.8890   11.5178 O   0  0  0  0  0  0  0  0  0  0  0  0
   10.9060   -0.4323   12.1075 C   0  0  2  0  0  0  0  0  0  0  0  0
   11.6170   -0.2394   13.2647 O   0  0  0  0  0  0  0  0  0  0  0  0
   11.9133   -0.8235   11.0319 C   0  0  0  0  0  0  0  0  0  0  0  0
   12.6084   -2.1877   11.1920 C   0  0  0  0  0  0  0  0  0  0  0  0
  1  2  1  1  0  0  0
  1  3  1  0  0  0  0
  3  4  1  1  0  0  0
  3  5  1  0  0  0  0
  5  6  1  1  0  0  0
  5  7  1  0  0  0  0
  7  8  1  1  0  0  0
  9  7  1  0  0  0  0
  9 10  1  0  0  0  0
  9 11  1  6  0  0  0
 10  1  1  0  0  0  0
 11 12  1  0  0  0  0
 13 14  1  1  0  0  0
 13 15  1  0  0  0  0
 13 22  1  0  0  0  0
 14 32  1  0  0  0  0
 15 16  1  6  0  0  0
 15 17  1  0  0  0  0
 16 23  1  0  0  0  0
 17 18  1  1  0  0  0
 17 19  1  0  0  0  0
 19  2  1  6  0  0  0
 19 20  1  0  0  0  0
 20 21  1  1  0  0  0
 20 22  1  0  0  0  0
 23 24  1  0  0  0  0
 24 25  1  0  0  0  0
 25 26  1  0  0  0  0
 26 27  1  0  0  0  0
 27 28  1  0  0  0  0
 28 29  1  0  0  0  0
 29 30  1  0  0  0  0
 31 37  1  0  0  0  0
 32 33  2  0  0  0  0
 34 32  1  6  0  0  0
 34 35  1  0  0  0  0
 34 36  1  0  0  0  0
 36 37  1  0  0  0  0
M  END
>  <CHROM.1>
80.50502668,71.38339742,150.63021515,-67.62489217,168.37784899,106.12860912
43.68199330,-36.11773759,-62.28679860,-104.57341601,171.53907208,69.02465972
-135.05071920,-173.44126927,70.13396127,6.42417566,-0.66114826,10.79212993
-2.77042600,0.07438583,-2.82607383

>  <Name>
1o9m_lig

>  <RI>
0

>  <Rbt.Current_Directory>
/home/itssahil/PROJECTS/Mol_Feturizer/New_Systems/rnas/1o9m

>  <Rbt.Executable>
rbdock ($Id: //depot/dev/client3/rdock/2013.1/src/exe/rbdock.cxx#4 $)

>  <Rbt.Library>
libRbt.so (2013.1, Build901 2013/11/27)

>  <Rbt.Parameter_File>
/export/apps/rDock/src/rDock_2013.1_src/data/scripts/dock_solv.prm

>  <Rbt.Receptor>
prm/blind_docking_100.prm

>  <SCORE>
-5.3886

>  <SCORE.INTER>
-8.83126

>  <SCORE.INTER.CONST>
1

>  <SCORE.INTER.POLAR>
-1.98844

>  <SCORE.INTER.ROT>
15

>  <SCORE.INTER.SOLV>
21.2475

>  <SCORE.INTER.VDW>
-19.9419

>  <SCORE.INTER.norm>
-0.238683

>  <SCORE.INTRA>
3.43603

>  <SCORE.INTRA.DIHEDRAL>
-1.95767

>  <SCORE.INTRA.DIHEDRAL.0>
21.5987

>  <SCORE.INTRA.POLAR>
0

>  <SCORE.INTRA.POLAR.0>
0

>  <SCORE.INTRA.REPUL>
0

>  <SCORE.INTRA.REPUL.0>
0

>  <SCORE.INTRA.SOLV>
9.87479

>  <SCORE.INTRA.SOLV.lig_0>
-108.715

>  <SCORE.INTRA.VDW>
-0.522531

>  <SCORE.INTRA.VDW.0>
-3.9485

>  <SCORE.INTRA.norm>
0.0928656

>  <SCORE.RESTR>
0.00662882

>  <SCORE.RESTR.CAVITY>
0.00662882

>  <SCORE.RESTR.norm>
0.000179157

>  <SCORE.SYSTEM>
0

>  <SCORE.SYSTEM.CONST>
0

>  <SCORE.SYSTEM.DIHEDRAL>
0

>  <SCORE.SYSTEM.SOLV>
0

>  <SCORE.SYSTEM.norm>
0

>  <SCORE.heavy>
37

>  <SCORE.norm>
-0.145638

>  <RMSD>
24.083

$$$$
1o9m_lig
 OpenBabel11021811403D
libRbt.so/2013.1/901 2013/11/27
 37 38  0  0  0  0  0  0  0  0999 V2000
   11.0316   -2.0069    7.5203 C   0  0  2  0  0  0  0  0  0  0  0  0
   10.2054   -3.1666    7.8441 O   0  0  0  0  0  0  0  0  0  0  0  0
   12.5253   -2.4535    7.7295 C   0  0  2  0  0  0  0  0  0  0  0  0
   12.8867   -3.6029    6.8814 N   0  0  0  0  0  0  0  0  0  0  0  0
   12.7535   -2.7900    9.2522 C   0  0  1  0  0  0  0  0  0  0  0  0
   14.1072   -3.1977    9.4688 O   0  0  0  0  0  0  0  0  0  0  0  0
   12.3750   -1.5252   10.0914 C   0  0  2  0  0  0  0  0  0  0  0  0
   12.5303   -1.7275   11.5056 O   0  0  0  0  0  0  0  0  0  0  0  0
   10.9146   -1.0967    9.8050 C   0  0  2  0  0  0  0  0  0  0  0  0
   10.7116   -0.8781    8.4013 O   0  0  0  0  0  0  0  0  0  0  0  0
   10.5426    0.1536   10.5592 C   0  0  0  0  0  0  0  0  0  0  0  0
    9.1921    0.3878   10.4557 N   0  0  0  0  0  0  0  0  0  0  0  0
    6.0354   -2.0365    8.2372 C   0  0  1  0  0  0  0  0  0  0  0  0
    4.5601   -2.0320    8.0296 N   0  0  0  0  0  0  0  0  0  0  0  0
    6.4538   -3.4029    8.7628 C   0  0  2  0  0  0  0  0  0  0  0  0
    5.7439   -3.6457    9.9406 O   0  0  0  0  0  0  0  0  0  0  0  0
    7.9942   -3.4484    9.0134 C   0  0  1  0  0  0  0  0  0  0  0  0
    8.3861   -4.7696    9.4963 O   0  0  0  0  0  0  0  0  0  0  0  0
    8.7608   -3.1540    7.6601 C   0  0  1  0  0  0  0  0  0  0  0  0
    8.3650   -1.7825    7.1345 C   0  0  1  0  0  0  0  0  0  0  0  0
    9.0912   -1.5262    5.8998 N   0  0  0  0  0  0  0  0  0  0  0  0
    6.8309   -1.7309    6.9039 C   0  0  0  0  0  0  0  0  0  0  0  0
    5.2258   -3.4241   11.2707 C   0  0  0  0  0  0  0  0  0  0  0  0
    4.2846   -2.2417   11.2472 C   0  0  0  0  0  0  0  0  0  0  0  0
    4.9623   -0.9302   11.1867 N   0  0  0  0  0  0  0  0  0  0  0  0
    5.3609    0.4319   10.7644 C   0  0  0  0  0  0  0  0  0  0  0  0
    3.9500    1.0160   10.6180 C   0  0  0  0  0  0  0  0  0  0  0  0
    3.1235    0.8807   11.9106 C   0  0  0  0  0  0  0  0  0  0  0  0
    3.6840    1.7698   13.0163 C   0  0  0  0  0  0  0  0  0  0  0  0
    3.0547    1.4431   14.2881 N   0  0  0  0  0  0  0  0  0  0  0  0
    1.5733    1.0135    6.5129 N   0  0  0  0  0  0  0  0  0  0  0  0
    4.0903   -3.0872    6.6833 C   0  0  0  0  0  0  0  0  0  0  0  0
    4.6201   -3.7303    5.9979 O   0  0  0  0  0  0  0  0  0  0  0  0
    2.6772   -2.6370    6.9629 C   0  0  2  0  0  0  0  0  0  0  0  0
    1.7674   -3.3987    6.2744 O   0  0  0  0  0  0  0  0  0  0  0  0
    2.5530   -1.2140    6.4298 C   0  0  0  0  0  0  0  0  0  0  0  0
    1.3736   -0.3747    6.9535 C   0  0  0  0  0  0  0  0  0  0  0  0
  1  2  1  1  0  0  0
  1  3  1  0  0  0  0
  3  4  1  6  0  0  0
  3  5  1  0  0  0  0
  5  6  1  6  0  0  0
  5  7  1  0  0  0  0
  7  8  1  1  0  0  0
  9  7  1  0  0  0  0
  9 10  1  0  0  0  0
  9 11  1  1  0  0  0
 10  1  1  0  0  0  0
 11 12  1  0  0  0  0
 13 14  1  6  0  0  0
 13 15  1  0  0  0  0
 13 22  1  0  0  0  0
 14 32  1  0  0  0  0
 15 16  1  1  0  0  0
 15 17  1  0  0  0  0
 16 23  1  0  0  0  0
 17 18  1  6  0  0  0
 17 19  1  0  0  0  0
 19  2  1  1  0  0  0
 19 20  1  0  0  0  0
 20 21  1  6  0  0  0
 20 22  1  0  0  0  0
 23 24  1  0  0  0  0
 24 25  1  0  0  0  0
 25 26  1  0  0  0  0
 26 27  1  0  0  0  0
 27 28  1  0  0  0  0
 28 29  1  0  0  0  0
 29 30  1  0  0  0  0
 31 37  1  0  0  0  0
 32 33  2  0  0  0  0
 34 32  1  6  0  0  0
 34 35  1  0  0  0  0
 34 36  1  0  0  0  0
 36 37  1  0  0  0  0
M  END
>  <CHROM.1>
-175.02041175,-170.43521746,-68.88130870,-53.45645043,65.94196833,-121.79494753
-76.52462075,126.54930037,48.02427723,55.91416341,68.10062364,-169.30566128
-168.85820880,-162.02913224,170.01162317,7.15531978,-1.74874752,8.94891994
0.09217282,0.13679911,-2.10242015

>  <Name>
1o9m_lig

>  <RI>
0

>  <Rbt.Current_Directory>
/home/itssahil/PROJECTS/Mol_Feturizer/New_Systems/rnas/1o9m

>  <Rbt.Executable>
rbdock ($Id: //depot/dev/client3/rdock/2013.1/src/exe/rbdock.cxx#4 $)

>  <Rbt.Library>
libRbt.so (2013.1, Build901 2013/11/27)

>  <Rbt.Parameter_File>
/export/apps/rDock/src/rDock_2013.1_src/data/scripts/dock_solv.prm

>  <Rbt.Receptor>
prm/blind_docking_80.prm

>  <SCORE>
-0.909302

>  <SCORE.INTER>
-2.53757

>  <SCORE.INTER.CONST>
1

>  <SCORE.INTER.POLAR>
-0.782851

>  <SCORE.INTER.ROT>
15

>  <SCORE.INTER.SOLV>
17.5546

>  <SCORE.INTER.VDW>
-18.5337

>  <SCORE.INTER.norm>
-0.0685829

>  <SCORE.INTRA>
1.62091

>  <SCORE.INTRA.DIHEDRAL>
-8.01786

>  <SCORE.INTRA.DIHEDRAL.0>
21.5987

>  <SCORE.INTRA.POLAR>
0

>  <SCORE.INTRA.POLAR.0>
0

>  <SCORE.INTRA.REPUL>
0

>  <SCORE.INTRA.REPUL.0>
0

>  <SCORE.INTRA.SOLV>
3.90492

>  <SCORE.INTRA.SOLV.lig_0>
-108.715

>  <SCORE.INTRA.VDW>
3.67738

>  <SCORE.INTRA.VDW.0>
-3.9485

>  <SCORE.INTRA.norm>
0.0438083

>  <SCORE.RESTR>
0.00735901

>  <SCORE.RESTR.CAVITY>
0.00735901

>  <SCORE.RESTR.norm>
0.000198892

>  <SCORE.SYSTEM>
0

>  <SCORE.SYSTEM.CONST>
0

>  <SCORE.SYSTEM.DIHEDRAL>
0

>  <SCORE.SYSTEM.SOLV>
0

>  <SCORE.SYSTEM.norm>
0

>  <SCORE.heavy>
37

>  <SCORE.norm>
-0.0245757

>  <RMSD>
24.098

$$$$
1o9m_lig
 OpenBabel11021811403D
libRbt.so/2013.1/901 2013/11/27
 37 38  0  0  0  0  0  0  0  0999 V2000
    3.8007   -1.7563   14.0312 C   0  0  2  0  0  0  0  0  0  0  0  0
    3.3316   -2.3561   12.7852 O   0  0  0  0  0  0  0  0  0  0  0  0
    2.6304   -0.8438   14.5529 C   0  0  2  0  0  0  0  0  0  0  0  0
    1.3886   -1.6047   14.7768 N   0  0  0  0  0  0  0  0  0  0  0  0
    2.3907    0.3249   13.5231 C   0  0  1  0  0  0  0  0  0  0  0  0
    1.3307    1.1711   13.9767 O   0  0  0  0  0  0  0  0  0  0  0  0
    3.7365    1.1036   13.3499 C   0  0  2  0  0  0  0  0  0  0  0  0
    3.6364    2.1884   12.4128 O   0  0  0  0  0  0  0  0  0  0  0  0
    4.8650    0.1480   12.8900 C   0  0  2  0  0  0  0  0  0  0  0  0
    5.0062   -0.9525   13.8001 O   0  0  0  0  0  0  0  0  0  0  0  0
    6.1861    0.8629   12.7696 C   0  0  0  0  0  0  0  0  0  0  0  0
    6.5262    1.4394   13.9701 N   0  0  0  0  0  0  0  0  0  0  0  0
    4.6262   -2.6951    8.6585 C   0  0  1  0  0  0  0  0  0  0  0  0
    5.2383   -2.3354    7.3487 N   0  0  0  0  0  0  0  0  0  0  0  0
    5.6993   -2.6313    9.7368 C   0  0  2  0  0  0  0  0  0  0  0  0
    6.7303   -3.4981    9.3684 O   0  0  0  0  0  0  0  0  0  0  0  0
    5.1060   -3.0198   11.1277 C   0  0  1  0  0  0  0  0  0  0  0  0
    6.1388   -2.9338   12.1565 O   0  0  0  0  0  0  0  0  0  0  0  0
    3.9330   -2.0245   11.5009 C   0  0  1  0  0  0  0  0  0  0  0  0
    2.8452   -2.0933   10.4399 C   0  0  1  0  0  0  0  0  0  0  0  0
    1.7715   -1.1833   10.8095 N   0  0  0  0  0  0  0  0  0  0  0  0
    3.4394   -1.7261    9.0537 C   0  0  0  0  0  0  0  0  0  0  0  0
    7.8538   -4.0137    8.6210 C   0  0  0  0  0  0  0  0  0  0  0  0
    9.0344   -3.0861    8.7947 C   0  0  0  0  0  0  0  0  0  0  0  0
    9.5217   -2.9812   10.1856 N   0  0  0  0  0  0  0  0  0  0  0  0
    9.5574   -2.8560   11.6606 C   0  0  0  0  0  0  0  0  0  0  0  0
    9.2668   -1.3520   11.7401 C   0  0  0  0  0  0  0  0  0  0  0  0
   10.4197   -0.5023   11.1733 C   0  0  0  0  0  0  0  0  0  0  0  0
   10.0785    0.9840   11.2155 C   0  0  0  0  0  0  0  0  0  0  0  0
    8.9169    1.2545   10.3801 N   0  0  0  0  0  0  0  0  0  0  0  0
    9.5550   -2.5387    5.4567 N   0  0  0  0  0  0  0  0  0  0  0  0
    4.8858   -3.5552    6.1100 C   0  0  0  0  0  0  0  0  0  0  0  0
    4.3286   -4.4788    6.0863 O   0  0  0  0  0  0  0  0  0  0  0  0
    5.7215   -2.7041    5.1854 C   0  0  2  0  0  0  0  0  0  0  0  0
    5.4665   -3.0005    3.8705 O   0  0  0  0  0  0  0  0  0  0  0  0
    7.1788   -3.0699    5.4445 C   0  0  0  0  0  0  0  0  0  0  0  0
    8.2402   -2.0317    5.0377 C   0  0  0  0  0  0  0  0  0  0  0  0
  1  2  1  6  0  0  0
  1  3  1  0  0  0  0
  3  4  1  6  0  0  0
  3  5  1  0  0  0  0
  5  6  1  1  0  0  0
  5  7  1  0  0  0  0
  7  8  1  6  0  0  0
  9  7  1  0  0  0  0
  9 10  1  0  0  0  0
  9 11  1  1  0  0  0
 10  1  1  0  0  0  0
 11 12  1  0  0  0  0
 13 14  1  6  0  0  0
 13 15  1  0  0  0  0
 13 22  1  0  0  0  0
 14 32  1  0  0  0  0
 15 16  1  6  0  0  0
 15 17  1  0  0  0  0
 16 23  1  0  0  0  0
 17 18  1  1  0  0  0
 17 19  1  0  0  0  0
 19  2  1  1  0  0  0
 19 20  1  0  0  0  0
 20 21  1  1  0  0  0
 20 22  1  0  0  0  0
 23 24  1  0  0  0  0
 24 25  1  0  0  0  0
 25 26  1  0  0  0  0
 26 27  1  0  0  0  0
 27 28  1  0  0  0  0
 28 29  1  0  0  0  0
 29 30  1  0  0  0  0
 31 37  1  0  0  0  0
 32 33  2  0  0  0  0
 34 32  1  1  0  0  0
 34 35  1  0  0  0  0
 34 36  1  0  0  0  0
 36 37  1  0  0  0  0
M  END
>  <CHROM.1>
113.02270119,57.68922325,128.24571673,69.62264568,65.56421996,91.90537129
63.03893553,-43.13697325,-77.15536895,-67.47968802,177.75627780,-62.30958294
-161.22361805,-158.26743761,176.11039384,5.68621195,-1.57637396,10.37936299
2.04922558,0.09839999,1.14211922

>  <Name>
1o9m_lig

>  <RI>
0

>  <Rbt.Current_Directory>
/home/itssahil/PROJECTS/Mol_Feturizer/New_Systems/rnas/1o9m

>  <Rbt.Executable>
rbdock ($Id: //depot/dev/client3/rdock/2013.1/src/exe/rbdock.cxx#4 $)

>  <Rbt.Library>
libRbt.so (2013.1, Build901 2013/11/27)

>  <Rbt.Parameter_File>
/export/apps/rDock/src/rDock_2013.1_src/data/scripts/dock_solv.prm

>  <Rbt.Receptor>
prm/blind_docking_20.prm

>  <SCORE>
-9.95365

>  <SCORE.INTER>
-10.4647

>  <SCORE.INTER.CONST>
1

>  <SCORE.INTER.POLAR>
-2.58829

>  <SCORE.INTER.ROT>
15

>  <SCORE.INTER.SOLV>
19.6333

>  <SCORE.INTER.VDW>
-18.4933

>  <SCORE.INTER.norm>
-0.282829

>  <SCORE.INTRA>
0.264277

>  <SCORE.INTRA.DIHEDRAL>
-5.29371

>  <SCORE.INTRA.DIHEDRAL.0>
21.5987

>  <SCORE.INTRA.POLAR>
0

>  <SCORE.INTRA.POLAR.0>
0

>  <SCORE.INTRA.REPUL>
0

>  <SCORE.INTRA.REPUL.0>
0

>  <SCORE.INTRA.SOLV>
8.01039

>  <SCORE.INTRA.SOLV.lig_0>
-108.715

>  <SCORE.INTRA.VDW>
-1.09406

>  <SCORE.INTRA.VDW.0>
-3.9485

>  <SCORE.INTRA.norm>
0.00714262

>  <SCORE.RESTR>
0.24676

>  <SCORE.RESTR.CAVITY>
0.24676

>  <SCORE.RESTR.norm>
0.00666919

>  <SCORE.SYSTEM>
0

>  <SCORE.SYSTEM.CONST>
0

>  <SCORE.SYSTEM.DIHEDRAL>
0

>  <SCORE.SYSTEM.SOLV>
0

>  <SCORE.SYSTEM.norm>
0

>  <SCORE.heavy>
37

>  <SCORE.norm>
-0.269018

>  <RMSD>
24.110

$$$$
1o9m_lig
 OpenBabel11021811403D
libRbt.so/2013.1/901 2013/11/27
 37 38  0  0  0  0  0  0  0  0999 V2000
    3.4255   -0.9128   12.7660 C   0  0  2  0  0  0  0  0  0  0  0  0
    4.5690   -0.5486   13.5979 O   0  0  0  0  0  0  0  0  0  0  0  0
    3.3620    0.1503   11.6082 C   0  0  2  0  0  0  0  0  0  0  0  0
    4.5995    0.1772   10.8089 N   0  0  0  0  0  0  0  0  0  0  0  0
    3.0670    1.5691   12.2278 C   0  0  1  0  0  0  0  0  0  0  0  0
    3.0026    2.5543   11.1931 O   0  0  0  0  0  0  0  0  0  0  0  0
    1.7335    1.4766   13.0406 C   0  0  2  0  0  0  0  0  0  0  0  0
    1.3751    2.7191   13.6672 O   0  0  0  0  0  0  0  0  0  0  0  0
    1.8317    0.3783   14.1280 C   0  0  2  0  0  0  0  0  0  0  0  0
    2.1841   -0.8860   13.5477 O   0  0  0  0  0  0  0  0  0  0  0  0
    0.5396    0.2303   14.8889 C   0  0  0  0  0  0  0  0  0  0  0  0
    0.7796   -0.2934   16.1369 N   0  0  0  0  0  0  0  0  0  0  0  0
    8.1541   -0.7731   11.1654 C   0  0  1  0  0  0  0  0  0  0  0  0
    9.5597   -1.0639   10.7662 N   0  0  0  0  0  0  0  0  0  0  0  0
    7.4707   -2.0795   11.5459 C   0  0  2  0  0  0  0  0  0  0  0  0
    7.5516   -2.9414   10.4501 O   0  0  0  0  0  0  0  0  0  0  0  0
    5.9854   -1.8252   11.9547 C   0  0  1  0  0  0  0  0  0  0  0  0
    5.3475   -3.0816   12.3381 O   0  0  0  0  0  0  0  0  0  0  0  0
    5.9370   -0.8337   13.1879 C   0  0  1  0  0  0  0  0  0  0  0  0
    6.6005    0.4829   12.8135 C   0  0  1  0  0  0  0  0  0  0  0  0
    6.5318    1.3835   13.9545 N   0  0  0  0  0  0  0  0  0  0  0  0
    8.0713    0.2277   12.3882 C   0  0  0  0  0  0  0  0  0  0  0  0
    8.1492   -3.7906    9.4460 C   0  0  0  0  0  0  0  0  0  0  0  0
    7.0811   -4.2413    8.4762 C   0  0  0  0  0  0  0  0  0  0  0  0
    6.2272   -3.1488    7.9661 N   0  0  0  0  0  0  0  0  0  0  0  0
    5.5308   -1.8487    7.8348 C   0  0  0  0  0  0  0  0  0  0  0  0
    4.0949   -2.3841    7.9003 C   0  0  0  0  0  0  0  0  0  0  0  0
    3.0462   -1.2707    7.7193 C   0  0  0  0  0  0  0  0  0  0  0  0
    1.6427   -1.8543    7.5892 C   0  0  0  0  0  0  0  0  0  0  0  0
    0.6518   -0.7882    7.6312 N   0  0  0  0  0  0  0  0  0  0  0  0
   11.5569   -1.1930    6.5677 N   0  0  0  0  0  0  0  0  0  0  0  0
   10.2711    0.2866    9.8625 C   0  0  0  0  0  0  0  0  0  0  0  0
    9.9269    1.2602    9.5502 O   0  0  0  0  0  0  0  0  0  0  0  0
   11.5042   -0.5763    9.7513 C   0  0  2  0  0  0  0  0  0  0  0  0
   12.5128    0.0805    9.0929 O   0  0  0  0  0  0  0  0  0  0  0  0
   11.1269   -1.7778    8.8919 C   0  0  0  0  0  0  0  0  0  0  0  0
   10.4805   -1.4818    7.5264 C   0  0  0  0  0  0  0  0  0  0  0  0
  1  2  1  1  0  0  0
  1  3  1  0  0  0  0
  3  4  1  1  0  0  0
  3  5  1  0  0  0  0
  5  6  1  6  0  0  0
  5  7  1  0  0  0  0
  7  8  1  1  0  0  0
  9  7  1  0  0  0  0
  9 10  1  0  0  0  0
  9 11  1  6  0  0  0
 10  1  1  0  0  0  0
 11 12  1  0  0  0  0
 13 14  1  1  0  0  0
 13 15  1  0  0  0  0
 13 22  1  0  0  0  0
 14 32  1  0  0  0  0
 15 16  1  6  0  0  0
 15 17  1  0  0  0  0
 16 23  1  0  0  0  0
 17 18  1  1  0  0  0
 17 19  1  0  0  0  0
 19  2  1  6  0  0  0
 19 20  1  0  0  0  0
 20 21  1  1  0  0  0
 20 22  1  0  0  0  0
 23 24  1  0  0  0  0
 24 25  1  0  0  0  0
 25 26  1  0  0  0  0
 26 27  1  0  0  0  0
 27 28  1  0  0  0  0
 28 29  1  0  0  0  0
 29 30  1  0  0  0  0
 31 37  1  0  0  0  0
 32 33  2  0  0  0  0
 34 32  1  6  0  0  0
 34 35  1  0  0  0  0
 34 36  1  0  0  0  0
 36 37  1  0  0  0  0
M  END
>  <CHROM.1>
-76.84741329,-155.12254693,163.01354261,65.69713659,-174.21685554,-12.43283541
48.70999601,-20.58252274,-118.34089497,-177.13884300,171.88243545,171.07670981
-178.03069314,52.57051931,82.67836661,5.81586176,-0.71432488,10.91842155
-2.64098966,-0.04808707,-2.04157936

>  <Name>
1o9m_lig

>  <RI>
0

>  <Rbt.Current_Directory>
/home/itssahil/PROJECTS/Mol_Feturizer/New_Systems/rnas/1o9m

>  <Rbt.Executable>
rbdock ($Id: //depot/dev/client3/rdock/2013.1/src/exe/rbdock.cxx#4 $)

>  <Rbt.Library>
libRbt.so (2013.1, Build901 2013/11/27)

>  <Rbt.Parameter_File>
/export/apps/rDock/src/rDock_2013.1_src/data/scripts/dock_solv.prm

>  <Rbt.Receptor>
prm/blind_docking_40.prm

>  <SCORE>
4.8857

>  <SCORE.INTER>
1.73308

>  <SCORE.INTER.CONST>
1

>  <SCORE.INTER.POLAR>
-1.44058

>  <SCORE.INTER.ROT>
15

>  <SCORE.INTER.SOLV>
21.5074

>  <SCORE.INTER.VDW>
-14.8118

>  <SCORE.INTER.norm>
0.04684

>  <SCORE.INTRA>
3.15036

>  <SCORE.INTRA.DIHEDRAL>
-5.40026

>  <SCORE.INTRA.DIHEDRAL.0>
21.5987

>  <SCORE.INTRA.POLAR>
0

>  <SCORE.INTRA.POLAR.0>
0

>  <SCORE.INTRA.REPUL>
0.0135523

>  <SCORE.INTRA.REPUL.0>
0

>  <SCORE.INTRA.SOLV>
7.81914

>  <SCORE.INTRA.SOLV.lig_0>
-108.715

>  <SCORE.INTRA.VDW>
1.87316

>  <SCORE.INTRA.VDW.0>
-3.9485

>  <SCORE.INTRA.norm>
0.0851449

>  <SCORE.RESTR>
0.0022563

>  <SCORE.RESTR.CAVITY>
0.0022563

>  <SCORE.RESTR.norm>
6.0981e-05

>  <SCORE.SYSTEM>
0

>  <SCORE.SYSTEM.CONST>
0

>  <SCORE.SYSTEM.DIHEDRAL>
0

>  <SCORE.SYSTEM.SOLV>
0

>  <SCORE.SYSTEM.norm>
0

>  <SCORE.heavy>
37

>  <SCORE.norm>
0.132046

>  <RMSD>
24.110

$$$$
1o9m_lig
 OpenBabel11021811403D
libRbt.so/2013.1/901 2013/11/27
 37 38  0  0  0  0  0  0  0  0999 V2000
    9.5828   -3.6533    9.8475 C   0  0  2  0  0  0  0  0  0  0  0  0
    8.3988   -2.8427   10.1181 O   0  0  0  0  0  0  0  0  0  0  0  0
    9.3337   -5.0464   10.5345 C   0  0  2  0  0  0  0  0  0  0  0  0
    8.1212   -5.7098   10.0241 N   0  0  0  0  0  0  0  0  0  0  0  0
    9.2433   -4.8421   12.0946 C   0  0  1  0  0  0  0  0  0  0  0  0
    9.0185   -6.0968   12.7431 O   0  0  0  0  0  0  0  0  0  0  0  0
   10.5664   -4.1576   12.5726 C   0  0  2  0  0  0  0  0  0  0  0  0
   10.5849   -3.9070   13.9874 O   0  0  0  0  0  0  0  0  0  0  0  0
   10.7902   -2.8200   11.8248 C   0  0  2  0  0  0  0  0  0  0  0  0
   10.7842   -3.0210   10.4039 O   0  0  0  0  0  0  0  0  0  0  0  0
   12.0876   -2.1674   12.2265 C   0  0  0  0  0  0  0  0  0  0  0  0
   12.1714   -0.9047   11.6898 N   0  0  0  0  0  0  0  0  0  0  0  0
    4.4283   -2.4532    8.4140 C   0  0  1  0  0  0  0  0  0  0  0  0
    3.0971   -2.8333    7.8635 N   0  0  0  0  0  0  0  0  0  0  0  0
    4.5420   -2.9841    9.8365 C   0  0  2  0  0  0  0  0  0  0  0  0
    3.4825   -2.4564   10.5777 O   0  0  0  0  0  0  0  0  0  0  0  0
    5.9178   -2.5924   10.4621 C   0  0  1  0  0  0  0  0  0  0  0  0
    6.0236   -3.1255   11.8175 O   0  0  0  0  0  0  0  0  0  0  0  0
    7.0900   -3.1959    9.5859 C   0  0  1  0  0  0  0  0  0  0  0  0
    6.9981   -2.6577    8.1661 C   0  0  1  0  0  0  0  0  0  0  0  0
    8.0919   -3.2124    7.3828 N   0  0  0  0  0  0  0  0  0  0  0  0
    5.6225   -3.0301    7.5510 C   0  0  0  0  0  0  0  0  0  0  0  0
    2.6380   -2.1915   11.7192 C   0  0  0  0  0  0  0  0  0  0  0  0
    2.9719   -0.8278   12.2790 C   0  0  0  0  0  0  0  0  0  0  0  0
    4.3587   -0.6994   12.7721 N   0  0  0  0  0  0  0  0  0  0  0  0
    5.6348   -0.1248   13.2557 C   0  0  0  0  0  0  0  0  0  0  0  0
    5.3891    1.3189   12.7991 C   0  0  0  0  0  0  0  0  0  0  0  0
    6.1074    1.6446   11.4761 C   0  0  0  0  0  0  0  0  0  0  0  0
    5.4854    0.8809   10.3111 C   0  0  0  0  0  0  0  0  0  0  0  0
    6.1597    1.2285    9.0683 N   0  0  0  0  0  0  0  0  0  0  0  0
    0.0811   -4.0508    9.0447 N   0  0  0  0  0  0  0  0  0  0  0  0
    2.4814   -1.6027    6.7441 C   0  0  0  0  0  0  0  0  0  0  0  0
    2.8504   -0.6611    6.3683 O   0  0  0  0  0  0  0  0  0  0  0  0
    1.2610   -2.4813    6.6169 C   0  0  2  0  0  0  0  0  0  0  0  0
    0.6363   -2.2928    5.4101 O   0  0  0  0  0  0  0  0  0  0  0  0
    0.2800   -2.0340    7.6950 C   0  0  0  0  0  0  0  0  0  0  0  0
    0.4686   -2.6338    9.1002 C   0  0  0  0  0  0  0  0  0  0  0  0
  1  2  1  1  0  0  0
  1  3  1  0  0  0  0
  3  4  1  6  0  0  0
  3  5  1  0  0  0  0
  5  6  1  1  0  0  0
  5  7  1  0  0  0  0
  7  8  1  1  0  0  0
  9  7  1  0  0  0  0
  9 10  1  0  0  0  0
  9 11  1  1  0  0  0
 10  1  1  0  0  0  0
 11 12  1  0  0  0  0
 13 14  1  6  0  0  0
 13 15  1  0  0  0  0
 13 22  1  0  0  0  0
 14 32  1  0  0  0  0
 15 16  1  1  0  0  0
 15 17  1  0  0  0  0
 16 23  1  0  0  0  0
 17 18  1  1  0  0  0
 17 19  1  0  0  0  0
 19  2  1  1  0  0  0
 19 20  1  0  0  0  0
 20 21  1  6  0  0  0
 20 22  1  0  0  0  0
 23 24  1  0  0  0  0
 24 25  1  0  0  0  0
 25 26  1  0  0  0  0
 26 27  1  0  0  0  0
 27 28  1  0  0  0  0
 28 29  1  0  0  0  0
 29 30  1  0  0  0  0
 31 37  1  0  0  0  0
 32 33  2  0  0  0  0
 34 32  1  6  0  0  0
 34 35  1  0  0  0  0
 34 36  1  0  0  0  0
 36 37  1  0  0  0  0
M  END
>  <CHROM.1>
-64.89401669,-171.78112411,147.06348890,-178.43261915,100.65752608,155.65604846
-62.05130691,166.01620295,-16.76136946,-99.67144483,68.57428286,178.66502301
-153.74888717,-84.60019277,-70.76006389,6.02231310,-2.38737935,10.13605521
-0.18677885,0.40327989,-2.34968022

>  <Name>
1o9m_lig

>  <RI>
0

>  <Rbt.Current_Directory>
/home/itssahil/PROJECTS/Mol_Feturizer/New_Systems/rnas/1o9m

>  <Rbt.Executable>
rbdock ($Id: //depot/dev/client3/rdock/2013.1/src/exe/rbdock.cxx#4 $)

>  <Rbt.Library>
libRbt.so (2013.1, Build901 2013/11/27)

>  <Rbt.Parameter_File>
/export/apps/rDock/src/rDock_2013.1_src/data/scripts/dock_solv.prm

>  <Rbt.Receptor>
prm/blind_docking_100.prm

>  <SCORE>
-8.4755

>  <SCORE.INTER>
-9.6507

>  <SCORE.INTER.CONST>
1

>  <SCORE.INTER.POLAR>
-1.87178

>  <SCORE.INTER.ROT>
15

>  <SCORE.INTER.SOLV>
18.3633

>  <SCORE.INTER.VDW>
-19.9156

>  <SCORE.INTER.norm>
-0.26083

>  <SCORE.INTRA>
0.711345

>  <SCORE.INTRA.DIHEDRAL>
-2.96283

>  <SCORE.INTRA.DIHEDRAL.0>
21.5987

>  <SCORE.INTRA.POLAR>
0

>  <SCORE.INTRA.POLAR.0>
0

>  <SCORE.INTRA.REPUL>
0

>  <SCORE.INTRA.REPUL.0>
0

>  <SCORE.INTRA.SOLV>
8.4465

>  <SCORE.INTRA.SOLV.lig_0>
-108.715

>  <SCORE.INTRA.VDW>
-2.03049

>  <SCORE.INTRA.VDW.0>
-3.9485

>  <SCORE.INTRA.norm>
0.0192256

>  <SCORE.RESTR>
0.463856

>  <SCORE.RESTR.CAVITY>
0.463856

>  <SCORE.RESTR.norm>
0.0125366

>  <SCORE.SYSTEM>
0

>  <SCORE.SYSTEM.CONST>
0

>  <SCORE.SYSTEM.DIHEDRAL>
0

>  <SCORE.SYSTEM.SOLV>
0

>  <SCORE.SYSTEM.norm>
0

>  <SCORE.heavy>
37

>  <SCORE.norm>
-0.229068

>  <RMSD>
24.115

$$$$
1o9m_lig
 OpenBabel11021811403D
libRbt.so/2013.1/901 2013/11/27
 37 38  0  0  0  0  0  0  0  0999 V2000
   10.7844   -2.4088    9.5793 C   0  0  2  0  0  0  0  0  0  0  0  0
    9.8266   -2.5581    8.4873 O   0  0  0  0  0  0  0  0  0  0  0  0
   12.1755   -2.8822    9.0178 C   0  0  2  0  0  0  0  0  0  0  0  0
   12.5980   -2.0980    7.8441 N   0  0  0  0  0  0  0  0  0  0  0  0
   12.0927   -4.4157    8.6638 C   0  0  1  0  0  0  0  0  0  0  0  0
   13.3481   -4.8712    8.1520 O   0  0  0  0  0  0  0  0  0  0  0  0
   11.6638   -5.1898    9.9539 C   0  0  2  0  0  0  0  0  0  0  0  0
   11.5399   -6.6052    9.7396 O   0  0  0  0  0  0  0  0  0  0  0  0
   10.3183   -4.6462   10.4949 C   0  0  2  0  0  0  0  0  0  0  0  0
   10.3947   -3.2325   10.7292 O   0  0  0  0  0  0  0  0  0  0  0  0
    9.9102   -5.3377   11.7700 C   0  0  0  0  0  0  0  0  0  0  0  0
    8.6410   -4.9553   12.1336 N   0  0  0  0  0  0  0  0  0  0  0  0
    5.8365   -0.8664    8.2911 C   0  0  1  0  0  0  0  0  0  0  0  0
    4.3706   -0.7080    8.5043 N   0  0  0  0  0  0  0  0  0  0  0  0
    6.5302   -0.8953    9.6462 C   0  0  2  0  0  0  0  0  0  0  0  0
    6.2087    0.2859   10.3183 O   0  0  0  0  0  0  0  0  0  0  0  0
    8.0747   -1.0418    9.4712 C   0  0  1  0  0  0  0  0  0  0  0  0
    8.7263   -1.0901   10.7772 O   0  0  0  0  0  0  0  0  0  0  0  0
    8.3956   -2.3827    8.6934 C   0  0  1  0  0  0  0  0  0  0  0  0
    7.7230   -2.3576    7.3293 C   0  0  1  0  0  0  0  0  0  0  0  0
    8.0427   -3.5909    6.6262 N   0  0  0  0  0  0  0  0  0  0  0  0
    6.1894   -2.1921    7.5026 C   0  0  0  0  0  0  0  0  0  0  0  0
    6.0331    1.7018   10.5441 C   0  0  0  0  0  0  0  0  0  0  0  0
    5.5952    1.9269   11.9732 C   0  0  0  0  0  0  0  0  0  0  0  0
    4.1952    1.5410   12.2447 N   0  0  0  0  0  0  0  0  0  0  0  0
    2.8656    1.4202   12.8852 C   0  0  0  0  0  0  0  0  0  0  0  0
    2.4455    0.1009   12.2250 C   0  0  0  0  0  0  0  0  0  0  0  0
    3.1807   -1.1131   12.8232 C   0  0  0  0  0  0  0  0  0  0  0  0
    2.7804   -1.3352   14.2784 C   0  0  0  0  0  0  0  0  0  0  0  0
    1.3546   -1.6169   14.3676 N   0  0  0  0  0  0  0  0  0  0  0  0
    0.3030   -3.4037    7.7261 N   0  0  0  0  0  0  0  0  0  0  0  0
    3.6822   -2.1069    9.3502 C   0  0  0  0  0  0  0  0  0  0  0  0
    4.0788   -3.0275    9.7492 O   0  0  0  0  0  0  0  0  0  0  0  0
    2.3548   -1.4018    9.2143 C   0  0  2  0  0  0  0  0  0  0  0  0
    1.3955   -1.9928    9.9970 O   0  0  0  0  0  0  0  0  0  0  0  0
    1.9090   -1.5740    7.7665 C   0  0  0  0  0  0  0  0  0  0  0  0
    1.6495   -3.0127    7.2842 C   0  0  0  0  0  0  0  0  0  0  0  0
  1  2  1  6  0  0  0
  1  3  1  0  0  0  0
  3  4  1  6  0  0  0
  3  5  1  0  0  0  0
  5  6  1  1  0  0  0
  5  7  1  0  0  0  0
  7  8  1  6  0  0  0
  9  7  1  0  0  0  0
  9 10  1  0  0  0  0
  9 11  1  1  0  0  0
 10  1  1  0  0  0  0
 11 12  1  0  0  0  0
 13 14  1  1  0  0  0
 13 15  1  0  0  0  0
 13 22  1  0  0  0  0
 14 32  1  0  0  0  0
 15 16  1  6  0  0  0
 15 17  1  0  0  0  0
 16 23  1  0  0  0  0
 17 18  1  1  0  0  0
 17 19  1  0  0  0  0
 19  2  1  6  0  0  0
 19 20  1  0  0  0  0
 20 21  1  1  0  0  0
 20 22  1  0  0  0  0
 23 24  1  0  0  0  0
 24 25  1  0  0  0  0
 25 26  1  0  0  0  0
 26 27  1  0  0  0  0
 27 28  1  0  0  0  0
 28 29  1  0  0  0  0
 29 30  1  0  0  0  0
 31 37  1  0  0  0  0
 32 33  2  0  0  0  0
 34 32  1  6  0  0  0
 34 35  1  0  0  0  0
 34 36  1  0  0  0  0
 36 37  1  0  0  0  0
M  END
>  <CHROM.1>
171.67208318,-172.52291936,-64.37797458,-49.95978293,-176.45783100,49.17479794
-73.35526673,-162.58537306,-157.59509569,74.45565918,66.05473330,61.74172193
-167.74729712,62.71408966,81.36891701,6.69558641,-2.11964093,9.90998345,-0.32420196
-0.21589632,1.04533261

>  <Name>
1o9m_lig

>  <RI>
0

>  <Rbt.Current_Directory>
/home/itssahil/PROJECTS/Mol_Feturizer/New_Systems/rnas/1o9m

>  <Rbt.Executable>
rbdock ($Id: //depot/dev/client3/rdock/2013.1/src/exe/rbdock.cxx#4 $)

>  <Rbt.Library>
libRbt.so (2013.1, Build901 2013/11/27)

>  <Rbt.Parameter_File>
/export/apps/rDock/src/rDock_2013.1_src/data/scripts/dock_solv.prm

>  <Rbt.Receptor>
prm/blind_docking_100.prm

>  <SCORE>
-4.12598

>  <SCORE.INTER>
0.935935

>  <SCORE.INTER.CONST>
1

>  <SCORE.INTER.POLAR>
0

>  <SCORE.INTER.ROT>
15

>  <SCORE.INTER.SOLV>
14.8478

>  <SCORE.INTER.VDW>
-17.9253

>  <SCORE.INTER.norm>
0.0252955

>  <SCORE.INTRA>
-5.09774

>  <SCORE.INTRA.DIHEDRAL>
-15.0708

>  <SCORE.INTRA.DIHEDRAL.0>
21.5987

>  <SCORE.INTRA.POLAR>
0

>  <SCORE.INTRA.POLAR.0>
0

>  <SCORE.INTRA.REPUL>
0.0260105

>  <SCORE.INTRA.REPUL.0>
0

>  <SCORE.INTRA.SOLV>
3.7795

>  <SCORE.INTRA.SOLV.lig_0>
-108.715

>  <SCORE.INTRA.VDW>
0.417845

>  <SCORE.INTRA.VDW.0>
-3.9485

>  <SCORE.INTRA.norm>
-0.137777

>  <SCORE.RESTR>
0.0358159

>  <SCORE.RESTR.CAVITY>
0.0358159

>  <SCORE.RESTR.norm>
0.000967997

>  <SCORE.SYSTEM>
0

>  <SCORE.SYSTEM.CONST>
0

>  <SCORE.SYSTEM.DIHEDRAL>
0

>  <SCORE.SYSTEM.SOLV>
0

>  <SCORE.SYSTEM.norm>
0

>  <SCORE.heavy>
37

>  <SCORE.norm>
-0.111513

>  <RMSD>
24.121

$$$$
1o9m_lig
 OpenBabel11021811403D
libRbt.so/2013.1/901 2013/11/27
 37 38  0  0  0  0  0  0  0  0999 V2000
    4.2524   -2.4690    7.3899 C   0  0  2  0  0  0  0  0  0  0  0  0
    5.2863   -1.8919    6.5353 O   0  0  0  0  0  0  0  0  0  0  0  0
    3.0573   -2.8544    6.4425 C   0  0  2  0  0  0  0  0  0  0  0  0
    3.4617   -3.8106    5.3970 N   0  0  0  0  0  0  0  0  0  0  0  0
    2.4659   -1.5423    5.8001 C   0  0  1  0  0  0  0  0  0  0  0  0
    1.3748   -1.8666    4.9343 O   0  0  0  0  0  0  0  0  0  0  0  0
    2.0364   -0.5843    6.9599 C   0  0  2  0  0  0  0  0  0  0  0  0
    1.4951    0.6591    6.4846 O   0  0  0  0  0  0  0  0  0  0  0  0
    3.2359   -0.2836    7.8923 C   0  0  2  0  0  0  0  0  0  0  0  0
    3.8087   -1.4986    8.3970 O   0  0  0  0  0  0  0  0  0  0  0  0
    2.8352    0.5929    9.0507 C   0  0  0  0  0  0  0  0  0  0  0  0
    2.4473    1.8316    8.5983 N   0  0  0  0  0  0  0  0  0  0  0  0
    8.8584   -2.2932    8.9642 C   0  0  1  0  0  0  0  0  0  0  0  0
   10.2792   -2.1726    9.3960 N   0  0  0  0  0  0  0  0  0  0  0  0
    8.2823   -0.8968    8.7732 C   0  0  2  0  0  0  0  0  0  0  0  0
    8.4215   -0.2063    9.9791 O   0  0  0  0  0  0  0  0  0  0  0  0
    6.7850   -0.9738    8.3373 C   0  0  1  0  0  0  0  0  0  0  0  0
    6.2503    0.3701    8.1364 O   0  0  0  0  0  0  0  0  0  0  0  0
    6.6691   -1.7754    6.9772 C   0  0  1  0  0  0  0  0  0  0  0  0
    7.2247   -3.1795    7.1606 C   0  0  1  0  0  0  0  0  0  0  0  0
    7.0949   -3.9028    5.9046 N   0  0  0  0  0  0  0  0  0  0  0  0
    8.7075   -3.1028    7.6131 C   0  0  0  0  0  0  0  0  0  0  0  0
    9.0667    0.5182   11.0493 C   0  0  0  0  0  0  0  0  0  0  0  0
    8.1156    0.6292   12.2187 C   0  0  0  0  0  0  0  0  0  0  0  0
    6.8228    1.2638   11.8889 N   0  0  0  0  0  0  0  0  0  0  0  0
    5.5669    1.6239   11.1922 C   0  0  0  0  0  0  0  0  0  0  0  0
    4.7285    1.9322   12.4392 C   0  0  0  0  0  0  0  0  0  0  0  0
    4.3800    0.6627   13.2388 C   0  0  0  0  0  0  0  0  0  0  0  0
    3.4159   -0.2282   12.4616 C   0  0  0  0  0  0  0  0  0  0  0  0
    3.1137   -1.4277   13.2298 N   0  0  0  0  0  0  0  0  0  0  0  0
   13.5562   -4.0141   10.4962 N   0  0  0  0  0  0  0  0  0  0  0  0
   11.2792   -1.4227    8.1373 C   0  0  0  0  0  0  0  0  0  0  0  0
   11.0940   -1.0300    7.1496 O   0  0  0  0  0  0  0  0  0  0  0  0
   12.4357   -1.6222    9.0862 C   0  0  2  0  0  0  0  0  0  0  0  0
   13.1890   -0.4811    9.1987 O   0  0  0  0  0  0  0  0  0  0  0  0
   13.3367   -2.6853    8.4677 C   0  0  0  0  0  0  0  0  0  0  0  0
   14.3275   -3.3924    9.4100 C   0  0  0  0  0  0  0  0  0  0  0  0
  1  2  1  6  0  0  0
  1  3  1  0  0  0  0
  3  4  1  6  0  0  0
  3  5  1  0  0  0  0
  5  6  1  1  0  0  0
  5  7  1  0  0  0  0
  7  8  1  6  0  0  0
  9  7  1  0  0  0  0
  9 10  1  0  0  0  0
  9 11  1  1  0  0  0
 10  1  1  0  0  0  0
 11 12  1  0  0  0  0
 13 14  1  6  0  0  0
 13 15  1  0  0  0  0
 13 22  1  0  0  0  0
 14 32  1  0  0  0  0
 15 16  1  1  0  0  0
 15 17  1  0  0  0  0
 16 23  1  0  0  0  0
 17 18  1  6  0  0  0
 17 19  1  0  0  0  0
 19  2  1  1  0  0  0
 19 20  1  0  0  0  0
 20 21  1  6  0  0  0
 20 22  1  0  0  0  0
 23 24  1  0  0  0  0
 24 25  1  0  0  0  0
 25 26  1  0  0  0  0
 26 27  1  0  0  0  0
 27 28  1  0  0  0  0
 28 29  1  0  0  0  0
 29 30  1  0  0  0  0
 31 37  1  0  0  0  0
 32 33  2  0  0  0  0
 34 32  1  6  0  0  0
 34 35  1  0  0  0  0
 34 36  1  0  0  0  0
 36 37  1  0  0  0  0
M  END
>  <CHROM.1>
-161.85852860,-64.90342605,-64.32043713,75.09800237,-168.64323349,-55.61138236
-56.50811801,43.82359092,148.44335412,-70.76382522,-68.02677333,179.34418395
-132.52065465,-161.13298724,57.59419954,6.71147537,-1.09763129,8.76948226
-3.10057684,-0.19251879,1.04375105

>  <Name>
1o9m_lig

>  <RI>
0

>  <Rbt.Current_Directory>
/home/itssahil/PROJECTS/Mol_Feturizer/New_Systems/rnas/1o9m

>  <Rbt.Executable>
rbdock ($Id: //depot/dev/client3/rdock/2013.1/src/exe/rbdock.cxx#4 $)

>  <Rbt.Library>
libRbt.so (2013.1, Build901 2013/11/27)

>  <Rbt.Parameter_File>
/export/apps/rDock/src/rDock_2013.1_src/data/scripts/dock_solv.prm

>  <Rbt.Receptor>
prm/blind_docking_40.prm

>  <SCORE>
-7.36446

>  <SCORE.INTER>
-2.40217

>  <SCORE.INTER.CONST>
1

>  <SCORE.INTER.POLAR>
0

>  <SCORE.INTER.ROT>
15

>  <SCORE.INTER.SOLV>
18.1263

>  <SCORE.INTER.VDW>
-21.2436

>  <SCORE.INTER.norm>
-0.0649236

>  <SCORE.INTRA>
-4.979

>  <SCORE.INTRA.DIHEDRAL>
-13.0612

>  <SCORE.INTRA.DIHEDRAL.0>
21.5987

>  <SCORE.INTRA.POLAR>
0

>  <SCORE.INTRA.POLAR.0>
0

>  <SCORE.INTRA.REPUL>
0

>  <SCORE.INTRA.REPUL.0>
0

>  <SCORE.INTRA.SOLV>
5.54044

>  <SCORE.INTRA.SOLV.lig_0>
-108.715

>  <SCORE.INTRA.VDW>
-1.21863

>  <SCORE.INTRA.VDW.0>
-3.9485

>  <SCORE.INTRA.norm>
-0.134568

>  <SCORE.RESTR>
0.0167143

>  <SCORE.RESTR.CAVITY>
0.0167143

>  <SCORE.RESTR.norm>
0.000451739

>  <SCORE.SYSTEM>
0

>  <SCORE.SYSTEM.CONST>
0

>  <SCORE.SYSTEM.DIHEDRAL>
0

>  <SCORE.SYSTEM.SOLV>
0

>  <SCORE.SYSTEM.norm>
0

>  <SCORE.heavy>
37

>  <SCORE.norm>
-0.199039

>  <RMSD>
24.122

$$$$
1o9m_lig
 OpenBabel11021811403D
libRbt.so/2013.1/901 2013/11/27
 37 38  0  0  0  0  0  0  0  0999 V2000
   10.2398   -4.1416    9.6650 C   0  0  2  0  0  0  0  0  0  0  0  0
    8.9127   -3.6002    9.3859 O   0  0  0  0  0  0  0  0  0  0  0  0
   10.9887   -3.0594   10.5269 C   0  0  2  0  0  0  0  0  0  0  0  0
   10.2764   -2.7557   11.7804 N   0  0  0  0  0  0  0  0  0  0  0  0
   11.1790   -1.7550    9.6631 C   0  0  1  0  0  0  0  0  0  0  0  0
   11.8603   -0.7549   10.4254 O   0  0  0  0  0  0  0  0  0  0  0  0
   11.9593   -2.1422    8.3636 C   0  0  2  0  0  0  0  0  0  0  0  0
   12.1749   -1.0231    7.4883 O   0  0  0  0  0  0  0  0  0  0  0  0
   11.2068   -3.2489    7.5842 C   0  0  2  0  0  0  0  0  0  0  0  0
   10.9718   -4.3926    8.4185 O   0  0  0  0  0  0  0  0  0  0  0  0
   11.9662   -3.6801    6.3561 C   0  0  0  0  0  0  0  0  0  0  0  0
   13.1223   -4.3308    6.7156 N   0  0  0  0  0  0  0  0  0  0  0  0
    5.1057   -2.9599   11.3650 C   0  0  1  0  0  0  0  0  0  0  0  0
    4.1079   -2.7764   12.4560 N   0  0  0  0  0  0  0  0  0  0  0  0
    6.1531   -1.8595   11.4664 C   0  0  2  0  0  0  0  0  0  0  0  0
    5.4936   -0.6308   11.3915 O   0  0  0  0  0  0  0  0  0  0  0  0
    7.2125   -2.0011   10.3283 C   0  0  1  0  0  0  0  0  0  0  0  0
    8.2230   -0.9538   10.4491 O   0  0  0  0  0  0  0  0  0  0  0  0
    7.9253   -3.4101   10.4393 C   0  0  1  0  0  0  0  0  0  0  0  0
    6.8906   -4.5188   10.3204 C   0  0  1  0  0  0  0  0  0  0  0  0
    7.5679   -5.8037   10.4099 N   0  0  0  0  0  0  0  0  0  0  0  0
    5.8264   -4.3666   11.4400 C   0  0  0  0  0  0  0  0  0  0  0  0
    4.6257    0.4025   10.8761 C   0  0  0  0  0  0  0  0  0  0  0  0
    4.9958    0.6920    9.4396 C   0  0  0  0  0  0  0  0  0  0  0  0
    3.8593    1.1153    8.5957 N   0  0  0  0  0  0  0  0  0  0  0  0
    3.0616    1.7426    7.5174 C   0  0  0  0  0  0  0  0  0  0  0  0
    1.9037    0.7365    7.5150 C   0  0  0  0  0  0  0  0  0  0  0  0
    2.1249   -0.4082    6.5086 C   0  0  0  0  0  0  0  0  0  0  0  0
    3.2141   -1.3611    6.9914 C   0  0  0  0  0  0  0  0  0  0  0  0
    3.4344   -2.4097    6.0055 N   0  0  0  0  0  0  0  0  0  0  0  0
    0.5620   -0.0600   14.9401 N   0  0  0  0  0  0  0  0  0  0  0  0
    2.5170   -2.3273   11.8126 C   0  0  0  0  0  0  0  0  0  0  0  0
    2.1105   -2.1698   10.8257 O   0  0  0  0  0  0  0  0  0  0  0  0
    2.0695   -2.2669   13.2526 C   0  0  2  0  0  0  0  0  0  0  0  0
    0.7011   -2.2821   13.3491 O   0  0  0  0  0  0  0  0  0  0  0  0
    2.5348   -0.9238   13.8041 C   0  0  0  0  0  0  0  0  0  0  0  0
    1.9511   -0.4880   15.1603 C   0  0  0  0  0  0  0  0  0  0  0  0
  1  2  1  6  0  0  0
  1  3  1  0  0  0  0
  3  4  1  1  0  0  0
  3  5  1  0  0  0  0
  5  6  1  1  0  0  0
  5  7  1  0  0  0  0
  7  8  1  6  0  0  0
  9  7  1  0  0  0  0
  9 10  1  0  0  0  0
  9 11  1  6  0  0  0
 10  1  1  0  0  0  0
 11 12  1  0  0  0  0
 13 14  1  1  0  0  0
 13 15  1  0  0  0  0
 13 22  1  0  0  0  0
 14 32  1  0  0  0  0
 15 16  1  6  0  0  0
 15 17  1  0  0  0  0
 16 23  1  0  0  0  0
 17 18  1  1  0  0  0
 17 19  1  0  0  0  0
 19  2  1  6  0  0  0
 19 20  1  0  0  0  0
 20 21  1  1  0  0  0
 20 22  1  0  0  0  0
 23 24  1  0  0  0  0
 24 25  1  0  0  0  0
 25 26  1  0  0  0  0
 26 27  1  0  0  0  0
 27 28  1  0  0  0  0
 28 29  1  0  0  0  0
 29 30  1  0  0  0  0
 31 37  1  0  0  0  0
 32 33  2  0  0  0  0
 34 32  1  6  0  0  0
 34 35  1  0  0  0  0
 34 36  1  0  0  0  0
 36 37  1  0  0  0  0
M  END
>  <CHROM.1>
-67.52040183,67.75374860,112.70096026,-53.09662770,-53.58333632,134.91218963
148.70333953,154.00199367,152.46560587,-92.14256405,72.01070035,-178.22436687
-163.54770927,167.46959758,-74.56422721,6.47035587,-1.98444795,10.07532893
-0.22847164,-0.31445946,1.89076125

>  <Name>
1o9m_lig

>  <RI>
0

>  <Rbt.Current_Directory>
/home/itssahil/PROJECTS/Mol_Feturizer/New_Systems/rnas/1o9m

>  <Rbt.Executable>
rbdock ($Id: //depot/dev/client3/rdock/2013.1/src/exe/rbdock.cxx#4 $)

>  <Rbt.Library>
libRbt.so (2013.1, Build901 2013/11/27)

>  <Rbt.Parameter_File>
/export/apps/rDock/src/rDock_2013.1_src/data/scripts/dock_solv.prm

>  <Rbt.Receptor>
prm/blind_docking_80.prm

>  <SCORE>
-3.2601

>  <SCORE.INTER>
-4.39047

>  <SCORE.INTER.CONST>
1

>  <SCORE.INTER.POLAR>
0

>  <SCORE.INTER.ROT>
15

>  <SCORE.INTER.SOLV>
15.8395

>  <SCORE.INTER.VDW>
-21.8068

>  <SCORE.INTER.norm>
-0.118661

>  <SCORE.INTRA>
1.04749

>  <SCORE.INTRA.DIHEDRAL>
-3.18313

>  <SCORE.INTRA.DIHEDRAL.0>
21.5987

>  <SCORE.INTRA.POLAR>
0

>  <SCORE.INTRA.POLAR.0>
0

>  <SCORE.INTRA.REPUL>
0

>  <SCORE.INTRA.REPUL.0>
0

>  <SCORE.INTRA.SOLV>
6.13571

>  <SCORE.INTRA.SOLV.lig_0>
-108.715

>  <SCORE.INTRA.VDW>
-0.428801

>  <SCORE.INTRA.VDW.0>
-3.9485

>  <SCORE.INTRA.norm>
0.0283105

>  <SCORE.RESTR>
0.0828788

>  <SCORE.RESTR.CAVITY>
0.0828788

>  <SCORE.RESTR.norm>
0.00223997

>  <SCORE.SYSTEM>
0

>  <SCORE.SYSTEM.CONST>
0

>  <SCORE.SYSTEM.DIHEDRAL>
0

>  <SCORE.SYSTEM.SOLV>
0

>  <SCORE.SYSTEM.norm>
0

>  <SCORE.heavy>
37

>  <SCORE.norm>
-0.0881108

>  <RMSD>
24.135

$$$$
1o9m_lig
 OpenBabel11021811403D
libRbt.so/2013.1/901 2013/11/27
 37 38  0  0  0  0  0  0  0  0999 V2000
   11.6753   -2.2319   10.8194 C   0  0  2  0  0  0  0  0  0  0  0  0
   11.5222   -0.7971   10.5957 O   0  0  0  0  0  0  0  0  0  0  0  0
   13.2094   -2.5442   10.6660 C   0  0  2  0  0  0  0  0  0  0  0  0
   14.0314   -1.7784   11.6192 N   0  0  0  0  0  0  0  0  0  0  0  0
   13.6498   -2.2444    9.1827 C   0  0  1  0  0  0  0  0  0  0  0  0
   15.0428   -2.5227    9.0170 O   0  0  0  0  0  0  0  0  0  0  0  0
   12.7570   -3.1035    8.2276 C   0  0  2  0  0  0  0  0  0  0  0  0
   13.0637   -2.8942    6.8394 O   0  0  0  0  0  0  0  0  0  0  0  0
   11.2568   -2.7973    8.4600 C   0  0  2  0  0  0  0  0  0  0  0  0
   10.9010   -2.9972    9.8358 O   0  0  0  0  0  0  0  0  0  0  0  0
   10.3722   -3.6533    7.5909 C   0  0  0  0  0  0  0  0  0  0  0  0
   10.3910   -3.1949    6.2952 N   0  0  0  0  0  0  0  0  0  0  0  0
    7.3431   -0.1305   11.5501 C   0  0  1  0  0  0  0  0  0  0  0  0
    6.0417    0.5732   11.7258 N   0  0  0  0  0  0  0  0  0  0  0  0
    7.7633   -0.0297   10.0900 C   0  0  2  0  0  0  0  0  0  0  0  0
    6.7439   -0.5810    9.3109 O   0  0  0  0  0  0  0  0  0  0  0  0
    9.1169   -0.7712    9.8542 C   0  0  1  0  0  0  0  0  0  0  0  0
    9.5200   -0.6491    8.4560 O   0  0  0  0  0  0  0  0  0  0  0  0
   10.2402   -0.1273   10.7649 C   0  0  1  0  0  0  0  0  0  0  0  0
    9.8402   -0.2389   12.2283 C   0  0  1  0  0  0  0  0  0  0  0  0
   10.8919    0.3447   13.0475 N   0  0  0  0  0  0  0  0  0  0  0  0
    8.4848    0.4814   12.4589 C   0  0  0  0  0  0  0  0  0  0  0  0
    5.4261   -0.7577    8.7464 C   0  0  0  0  0  0  0  0  0  0  0  0
    5.4527   -1.9141    7.7735 C   0  0  0  0  0  0  0  0  0  0  0  0
    4.2712   -1.9881    6.8895 N   0  0  0  0  0  0  0  0  0  0  0  0
    3.3518   -2.3762    5.7956 C   0  0  0  0  0  0  0  0  0  0  0  0
    2.5522   -1.0686    5.7340 C   0  0  0  0  0  0  0  0  0  0  0  0
    1.6560   -0.8717    6.9710 C   0  0  0  0  0  0  0  0  0  0  0  0
    1.2576    0.5920    7.1330 C   0  0  0  0  0  0  0  0  0  0  0  0
    2.4009    1.3750    7.5801 N   0  0  0  0  0  0  0  0  0  0  0  0
    0.8981    1.4622   14.8545 N   0  0  0  0  0  0  0  0  0  0  0  0
    5.2493    0.1045   13.2420 C   0  0  0  0  0  0  0  0  0  0  0  0
    5.4962   -0.5558   14.0589 O   0  0  0  0  0  0  0  0  0  0  0  0
    4.1301    1.0236   12.8176 C   0  0  2  0  0  0  0  0  0  0  0  0
    4.4857    2.3404   12.9638 O   0  0  0  0  0  0  0  0  0  0  0  0
    2.9669    0.7732   13.7710 C   0  0  0  0  0  0  0  0  0  0  0  0
    1.8384    1.8202   13.7827 C   0  0  0  0  0  0  0  0  0  0  0  0
  1  2  1  6  0  0  0
  1  3  1  0  0  0  0
  3  4  1  1  0  0  0
  3  5  1  0  0  0  0
  5  6  1  1  0  0  0
  5  7  1  0  0  0  0
  7  8  1  6  0  0  0
  9  7  1  0  0  0  0
  9 10  1  0  0  0  0
  9 11  1  6  0  0  0
 10  1  1  0  0  0  0
 11 12  1  0  0  0  0
 13 14  1  6  0  0  0
 13 15  1  0  0  0  0
 13 22  1  0  0  0  0
 14 32  1  0  0  0  0
 15 16  1  6  0  0  0
 15 17  1  0  0  0  0
 16 23  1  0  0  0  0
 17 18  1  6  0  0  0
 17 19  1  0  0  0  0
 19  2  1  1  0  0  0
 19 20  1  0  0  0  0
 20 21  1  1  0  0  0
 20 22  1  0  0  0  0
 23 24  1  0  0  0  0
 24 25  1  0  0  0  0
 25 26  1  0  0  0  0
 26 27  1  0  0  0  0
 27 28  1  0  0  0  0
 28 29  1  0  0  0  0
 29 30  1  0  0  0  0
 31 37  1  0  0  0  0
 32 33  2  0  0  0  0
 34 32  1  1  0  0  0
 34 35  1  0  0  0  0
 34 36  1  0  0  0  0
 36 37  1  0  0  0  0
M  END
>  <CHROM.1>
-174.99163670,-75.59584679,162.98319148,60.06345770,179.21701267,-56.80428980
-165.68437405,169.55713034,-154.38238927,-69.91514222,160.39120975,-72.38309344
-74.21288880,165.03035886,-174.38454103,7.72680969,-0.86626179,10.00260113
-0.21901807,-0.21365425,1.20926906

>  <Name>
1o9m_lig

>  <RI>
0

>  <Rbt.Current_Directory>
/home/itssahil/PROJECTS/Mol_Feturizer/New_Systems/rnas/1o9m

>  <Rbt.Executable>
rbdock ($Id: //depot/dev/client3/rdock/2013.1/src/exe/rbdock.cxx#4 $)

>  <Rbt.Library>
libRbt.so (2013.1, Build901 2013/11/27)

>  <Rbt.Parameter_File>
/export/apps/rDock/src/rDock_2013.1_src/data/scripts/dock_solv.prm

>  <Rbt.Receptor>
prm/blind_docking_60.prm

>  <SCORE>
-8.9617

>  <SCORE.INTER>
-3.94435

>  <SCORE.INTER.CONST>
1

>  <SCORE.INTER.POLAR>
-0.990287

>  <SCORE.INTER.ROT>
15

>  <SCORE.INTER.SOLV>
15.7757

>  <SCORE.INTER.VDW>
-18.1872

>  <SCORE.INTER.norm>
-0.106604

>  <SCORE.INTRA>
-5.01926

>  <SCORE.INTRA.DIHEDRAL>
-14.8936

>  <SCORE.INTRA.DIHEDRAL.0>
21.5987

>  <SCORE.INTRA.POLAR>
0

>  <SCORE.INTRA.POLAR.0>
0

>  <SCORE.INTRA.REPUL>
0

>  <SCORE.INTRA.REPUL.0>
0

>  <SCORE.INTRA.SOLV>
3.33099

>  <SCORE.INTRA.SOLV.lig_0>
-108.715

>  <SCORE.INTRA.VDW>
0.762038

>  <SCORE.INTRA.VDW.0>
-3.9485

>  <SCORE.INTRA.norm>
-0.135656

>  <SCORE.RESTR>
0.00191114

>  <SCORE.RESTR.CAVITY>
0.00191114

>  <SCORE.RESTR.norm>
5.16525e-05

>  <SCORE.SYSTEM>
0

>  <SCORE.SYSTEM.CONST>
0

>  <SCORE.SYSTEM.DIHEDRAL>
0

>  <SCORE.SYSTEM.SOLV>
0

>  <SCORE.SYSTEM.norm>
0

>  <SCORE.heavy>
37

>  <SCORE.norm>
-0.242208

>  <RMSD>
24.136

$$$$
1o9m_lig
 OpenBabel11021811403D
libRbt.so/2013.1/901 2013/11/27
 37 38  0  0  0  0  0  0  0  0999 V2000
    3.1204    0.3530   11.4463 C   0  0  2  0  0  0  0  0  0  0  0  0
    4.3746    0.9660   11.8745 O   0  0  0  0  0  0  0  0  0  0  0  0
    2.0801    1.5242   11.3023 C   0  0  2  0  0  0  0  0  0  0  0  0
    2.5193    2.5426   10.3324 N   0  0  0  0  0  0  0  0  0  0  0  0
    1.8344    2.1713   12.7182 C   0  0  1  0  0  0  0  0  0  0  0  0
    0.8891    3.2395   12.6138 O   0  0  0  0  0  0  0  0  0  0  0  0
    1.3495    1.0450   13.6897 C   0  0  2  0  0  0  0  0  0  0  0  0
    1.1099    1.5239   15.0232 O   0  0  0  0  0  0  0  0  0  0  0  0
    2.3835   -0.1064   13.7501 C   0  0  2  0  0  0  0  0  0  0  0  0
    2.6526   -0.6218   12.4381 O   0  0  0  0  0  0  0  0  0  0  0  0
    1.9141   -1.2309   14.6366 C   0  0  0  0  0  0  0  0  0  0  0  0
    1.6786   -0.7673   15.9089 N   0  0  0  0  0  0  0  0  0  0  0  0
    8.5362    0.0188   11.0969 C   0  0  1  0  0  0  0  0  0  0  0  0
    9.8203   -0.7363   11.0759 N   0  0  0  0  0  0  0  0  0  0  0  0
    7.4744   -0.7963   10.3713 C   0  0  2  0  0  0  0  0  0  0  0  0
    7.9330   -1.0421    9.0754 O   0  0  0  0  0  0  0  0  0  0  0  0
    6.1123   -0.0335   10.3521 C   0  0  1  0  0  0  0  0  0  0  0  0
    5.0973   -0.8343    9.6731 O   0  0  0  0  0  0  0  0  0  0  0  0
    5.6355    0.2382   11.8370 C   0  0  1  0  0  0  0  0  0  0  0  0
    6.6803    1.0685   12.5670 C   0  0  1  0  0  0  0  0  0  0  0  0
    6.2160    1.3191   13.9232 N   0  0  0  0  0  0  0  0  0  0  0  0
    8.0395    0.3190   12.5690 C   0  0  0  0  0  0  0  0  0  0  0  0
    8.7912   -1.5284    8.0201 C   0  0  0  0  0  0  0  0  0  0  0  0
    8.1397   -1.2559    6.6839 C   0  0  0  0  0  0  0  0  0  0  0  0
    6.9330   -2.0674    6.4225 N   0  0  0  0  0  0  0  0  0  0  0  0
    5.9237   -3.1495    6.4764 C   0  0  0  0  0  0  0  0  0  0  0  0
    4.7463   -2.3525    5.9005 C   0  0  0  0  0  0  0  0  0  0  0  0
    3.4570   -3.1910    5.8170 C   0  0  0  0  0  0  0  0  0  0  0  0
    2.3026   -2.3683    5.2532 C   0  0  0  0  0  0  0  0  0  0  0  0
    2.5669   -2.0220    3.8639 N   0  0  0  0  0  0  0  0  0  0  0  0
   12.2276   -2.3538    7.8756 N   0  0  0  0  0  0  0  0  0  0  0  0
   11.1253    0.2213   10.3503 C   0  0  0  0  0  0  0  0  0  0  0  0
   11.2027    1.2149    9.9370 O   0  0  0  0  0  0  0  0  0  0  0  0
   11.9967   -0.9897   10.5777 C   0  0  2  0  0  0  0  0  0  0  0  0
   12.5468   -0.9775   11.8344 O   0  0  0  0  0  0  0  0  0  0  0  0
   13.1539   -0.8934    9.5896 C   0  0  0  0  0  0  0  0  0  0  0  0
   12.8061   -1.0203    8.0954 C   0  0  0  0  0  0  0  0  0  0  0  0
  1  2  1  1  0  0  0
  1  3  1  0  0  0  0
  3  4  1  6  0  0  0
  3  5  1  0  0  0  0
  5  6  1  6  0  0  0
  5  7  1  0  0  0  0
  7  8  1  1  0  0  0
  9  7  1  0  0  0  0
  9 10  1  0  0  0  0
  9 11  1  1  0  0  0
 10  1  1  0  0  0  0
 11 12  1  0  0  0  0
 13 14  1  1  0  0  0
 13 15  1  0  0  0  0
 13 22  1  0  0  0  0
 14 32  1  0  0  0  0
 15 16  1  6  0  0  0
 15 17  1  0  0  0  0
 16 23  1  0  0  0  0
 17 18  1  1  0  0  0
 17 19  1  0  0  0  0
 19  2  1  6  0  0  0
 19 20  1  0  0  0  0
 20 21  1  1  0  0  0
 20 22  1  0  0  0  0
 23 24  1  0  0  0  0
 24 25  1  0  0  0  0
 25 26  1  0  0  0  0
 26 27  1  0  0  0  0
 27 28  1  0  0  0  0
 28 29  1  0  0  0  0
 29 30  1  0  0  0  0
 31 37  1  0  0  0  0
 32 33  2  0  0  0  0
 34 32  1  1  0  0  0
 34 35  1  0  0  0  0
 34 36  1  0  0  0  0
 36 37  1  0  0  0  0
M  END
>  <CHROM.1>
-166.64872987,-58.37339186,123.71720038,59.91730952,175.22230940,68.95202674
-69.21121430,-22.05396755,159.00053399,-179.39373847,179.47719412,66.21989445
-86.94836187,-66.40389126,-61.96130949,6.07953133,-0.33442558,10.41043844
2.66756655,-0.03788555,1.19661869

>  <Name>
1o9m_lig

>  <RI>
0

>  <Rbt.Current_Directory>
/home/itssahil/PROJECTS/Mol_Feturizer/New_Systems/rnas/1o9m

>  <Rbt.Executable>
rbdock ($Id: //depot/dev/client3/rdock/2013.1/src/exe/rbdock.cxx#4 $)

>  <Rbt.Library>
libRbt.so (2013.1, Build901 2013/11/27)

>  <Rbt.Parameter_File>
/export/apps/rDock/src/rDock_2013.1_src/data/scripts/dock_solv.prm

>  <Rbt.Receptor>
prm/blind_docking_20.prm

>  <SCORE>
-10.8785

>  <SCORE.INTER>
-4.1887

>  <SCORE.INTER.CONST>
1

>  <SCORE.INTER.POLAR>
-1.44147

>  <SCORE.INTER.ROT>
15

>  <SCORE.INTER.SOLV>
23.4953

>  <SCORE.INTER.VDW>
-19.4193

>  <SCORE.INTER.norm>
-0.113208

>  <SCORE.INTRA>
-6.68981

>  <SCORE.INTRA.DIHEDRAL>
-15.9248

>  <SCORE.INTRA.DIHEDRAL.0>
21.5987

>  <SCORE.INTRA.POLAR>
0

>  <SCORE.INTRA.POLAR.0>
0

>  <SCORE.INTRA.REPUL>
0

>  <SCORE.INTRA.REPUL.0>
0

>  <SCORE.INTRA.SOLV>
3.42805

>  <SCORE.INTRA.SOLV.lig_0>
-108.715

>  <SCORE.INTRA.VDW>
-0.441434

>  <SCORE.INTRA.VDW.0>
-3.9485

>  <SCORE.INTRA.norm>
-0.180806

>  <SCORE.RESTR>
0

>  <SCORE.RESTR.CAVITY>
0

>  <SCORE.RESTR.norm>
0

>  <SCORE.SYSTEM>
0

>  <SCORE.SYSTEM.CONST>
0

>  <SCORE.SYSTEM.DIHEDRAL>
0

>  <SCORE.SYSTEM.SOLV>
0

>  <SCORE.SYSTEM.norm>
0

>  <SCORE.heavy>
37

>  <SCORE.norm>
-0.294014

>  <RMSD>
24.139

$$$$
1o9m_lig
 OpenBabel11021811403D
libRbt.so/2013.1/901 2013/11/27
 37 38  0  0  0  0  0  0  0  0999 V2000
    9.4326   -3.3139    8.7081 C   0  0  2  0  0  0  0  0  0  0  0  0
    9.7719   -2.0366    9.3290 O   0  0  0  0  0  0  0  0  0  0  0  0
    9.1242   -4.3116    9.8846 C   0  0  2  0  0  0  0  0  0  0  0  0
    8.0212   -3.8396   10.7399 N   0  0  0  0  0  0  0  0  0  0  0  0
   10.4347   -4.5281   10.7327 C   0  0  1  0  0  0  0  0  0  0  0  0
   10.1802   -5.4344   11.8094 O   0  0  0  0  0  0  0  0  0  0  0  0
   11.5544   -5.0496    9.7726 C   0  0  2  0  0  0  0  0  0  0  0  0
   12.8070   -5.2664   10.4425 O   0  0  0  0  0  0  0  0  0  0  0  0
   11.7773   -4.0578    8.6042 C   0  0  2  0  0  0  0  0  0  0  0  0
   10.5511   -3.8128    7.9001 O   0  0  0  0  0  0  0  0  0  0  0  0
   12.8125   -4.5642    7.6333 C   0  0  0  0  0  0  0  0  0  0  0  0
   12.8084   -3.7992    6.4914 N   0  0  0  0  0  0  0  0  0  0  0  0
    6.2298   -0.4342   11.2543 C   0  0  1  0  0  0  0  0  0  0  0  0
    5.1942    0.5439   11.6906 N   0  0  0  0  0  0  0  0  0  0  0  0
    6.2515   -0.4815    9.7326 C   0  0  2  0  0  0  0  0  0  0  0  0
    4.9701   -0.8235    9.2953 O   0  0  0  0  0  0  0  0  0  0  0  0
    7.3124   -1.5102    9.2287 C   0  0  1  0  0  0  0  0  0  0  0  0
    7.3390   -1.5306    7.7688 O   0  0  0  0  0  0  0  0  0  0  0  0
    8.7459   -1.0959    9.7573 C   0  0  1  0  0  0  0  0  0  0  0  0
    8.7420   -1.0635   11.2780 C   0  0  1  0  0  0  0  0  0  0  0  0
   10.0711   -0.6957   11.7425 N   0  0  0  0  0  0  0  0  0  0  0  0
    7.6736   -0.0553   11.7793 C   0  0  0  0  0  0  0  0  0  0  0  0
    3.5511   -0.6991    9.0557 C   0  0  0  0  0  0  0  0  0  0  0  0
    3.0422   -1.9685    8.4122 C   0  0  0  0  0  0  0  0  0  0  0  0
    1.6133   -1.9266    8.0388 N   0  0  0  0  0  0  0  0  0  0  0  0
    0.2904   -1.4457    7.5794 C   0  0  0  0  0  0  0  0  0  0  0  0
   -0.4667   -2.7713    7.7295 C   0  0  0  0  0  0  0  0  0  0  0  0
    0.0779   -3.8658    6.7926 C   0  0  0  0  0  0  0  0  0  0  0  0
   -0.1295   -3.4887    5.3290 C   0  0  0  0  0  0  0  0  0  0  0  0
   -1.5500   -3.4879    5.0091 N   0  0  0  0  0  0  0  0  0  0  0  0
    0.9264    2.4755   12.7819 N   0  0  0  0  0  0  0  0  0  0  0  0
    4.7571    0.3110   13.3939 C   0  0  0  0  0  0  0  0  0  0  0  0
    5.0732   -0.3603   14.1772 O   0  0  0  0  0  0  0  0  0  0  0  0
    3.7767    1.4395   13.1865 C   0  0  2  0  0  0  0  0  0  0  0  0
    4.2594    2.6175   13.6975 O   0  0  0  0  0  0  0  0  0  0  0  0
    2.5267    1.0917   13.9873 C   0  0  0  0  0  0  0  0  0  0  0  0
    1.4582    2.1916   14.1227 C   0  0  0  0  0  0  0  0  0  0  0  0
  1  2  1  1  0  0  0
  1  3  1  0  0  0  0
  3  4  1  1  0  0  0
  3  5  1  0  0  0  0
  5  6  1  1  0  0  0
  5  7  1  0  0  0  0
  7  8  1  1  0  0  0
  9  7  1  0  0  0  0
  9 10  1  0  0  0  0
  9 11  1  6  0  0  0
 10  1  1  0  0  0  0
 11 12  1  0  0  0  0
 13 14  1  6  0  0  0
 13 15  1  0  0  0  0
 13 22  1  0  0  0  0
 14 32  1  0  0  0  0
 15 16  1  1  0  0  0
 15 17  1  0  0  0  0
 16 23  1  0  0  0  0
 17 18  1  6  0  0  0
 17 19  1  0  0  0  0
 19  2  1  1  0  0  0
 19 20  1  0  0  0  0
 20 21  1  6  0  0  0
 20 22  1  0  0  0  0
 23 24  1  0  0  0  0
 24 25  1  0  0  0  0
 25 26  1  0  0  0  0
 26 27  1  0  0  0  0
 27 28  1  0  0  0  0
 28 29  1  0  0  0  0
 29 30  1  0  0  0  0
 31 37  1  0  0  0  0
 32 33  2  0  0  0  0
 34 32  1  1  0  0  0
 34 35  1  0  0  0  0
 34 36  1  0  0  0  0
 36 37  1  0  0  0  0
M  END
>  <CHROM.1>
-83.17052833,168.69959875,162.69916153,66.46426489,-177.12596095,-10.49068586
-176.28096842,34.98354554,-179.94588528,-63.62999054,-64.08366095,-67.49825199
-101.38471445,170.53332789,64.42720407,6.25856788,-1.81987356,9.96917303
0.22576411,0.23406368,-2.20902511

>  <Name>
1o9m_lig

>  <RI>
0

>  <Rbt.Current_Directory>
/home/itssahil/PROJECTS/Mol_Feturizer/New_Systems/rnas/1o9m

>  <Rbt.Executable>
rbdock ($Id: //depot/dev/client3/rdock/2013.1/src/exe/rbdock.cxx#4 $)

>  <Rbt.Library>
libRbt.so (2013.1, Build901 2013/11/27)

>  <Rbt.Parameter_File>
/export/apps/rDock/src/rDock_2013.1_src/data/scripts/dock_solv.prm

>  <Rbt.Receptor>
prm/blind_docking_80.prm

>  <SCORE>
-0.754101

>  <SCORE.INTER>
-1.95637

>  <SCORE.INTER.CONST>
1

>  <SCORE.INTER.POLAR>
-0.976345

>  <SCORE.INTER.ROT>
15

>  <SCORE.INTER.SOLV>
9.11573

>  <SCORE.INTER.VDW>
-14.6883

>  <SCORE.INTER.norm>
-0.0528748

>  <SCORE.INTRA>
1.166

>  <SCORE.INTRA.DIHEDRAL>
-8.52565

>  <SCORE.INTRA.DIHEDRAL.0>
21.5987

>  <SCORE.INTRA.POLAR>
0

>  <SCORE.INTRA.POLAR.0>
0

>  <SCORE.INTRA.REPUL>
0

>  <SCORE.INTRA.REPUL.0>
0

>  <SCORE.INTRA.SOLV>
6.2436

>  <SCORE.INTRA.SOLV.lig_0>
-108.715

>  <SCORE.INTRA.VDW>
2.30703

>  <SCORE.INTRA.VDW.0>
-3.9485

>  <SCORE.INTRA.norm>
0.0315136

>  <SCORE.RESTR>
0.0362655

>  <SCORE.RESTR.CAVITY>
0.0362655

>  <SCORE.RESTR.norm>
0.000980148

>  <SCORE.SYSTEM>
0

>  <SCORE.SYSTEM.CONST>
0

>  <SCORE.SYSTEM.DIHEDRAL>
0

>  <SCORE.SYSTEM.SOLV>
0

>  <SCORE.SYSTEM.norm>
0

>  <SCORE.heavy>
37

>  <SCORE.norm>
-0.0203811

>  <RMSD>
24.154

$$$$
1o9m_lig
 OpenBabel11021811403D
libRbt.so/2013.1/901 2013/11/27
 37 38  0  0  0  0  0  0  0  0999 V2000
    2.3567   -0.0350   13.2601 C   0  0  2  0  0  0  0  0  0  0  0  0
    3.6263   -0.5213   13.7929 O   0  0  0  0  0  0  0  0  0  0  0  0
    2.6286    1.4175   12.7207 C   0  0  2  0  0  0  0  0  0  0  0  0
    3.6718    1.4387   11.6804 N   0  0  0  0  0  0  0  0  0  0  0  0
    3.0259    2.3490   13.9283 C   0  0  1  0  0  0  0  0  0  0  0  0
    3.2768    3.6780   13.4631 O   0  0  0  0  0  0  0  0  0  0  0  0
    1.8699    2.2992   14.9813 C   0  0  2  0  0  0  0  0  0  0  0  0
    2.1365    3.1053   16.1405 O   0  0  0  0  0  0  0  0  0  0  0  0
    1.6072    0.8420   15.4352 C   0  0  2  0  0  0  0  0  0  0  0  0
    1.3309   -0.0029   14.3086 O   0  0  0  0  0  0  0  0  0  0  0  0
    0.4597    0.7598   16.4084 C   0  0  0  0  0  0  0  0  0  0  0  0
    0.8005   -0.0302   17.4803 N   0  0  0  0  0  0  0  0  0  0  0  0
    6.4386   -0.5946   10.4904 C   0  0  1  0  0  0  0  0  0  0  0  0
    7.5576   -1.0401    9.6136 N   0  0  0  0  0  0  0  0  0  0  0  0
    5.3991   -1.7049   10.5633 C   0  0  2  0  0  0  0  0  0  0  0  0
    4.9822   -1.9889    9.2611 O   0  0  0  0  0  0  0  0  0  0  0  0
    4.1953   -1.2741   11.4593 C   0  0  1  0  0  0  0  0  0  0  0  0
    3.2161   -2.3546   11.5390 O   0  0  0  0  0  0  0  0  0  0  0  0
    4.7112   -0.9473   12.9197 C   0  0  1  0  0  0  0  0  0  0  0  0
    5.7372    0.1743   12.8619 C   0  0  1  0  0  0  0  0  0  0  0  0
    6.1866    0.4687   14.2143 N   0  0  0  0  0  0  0  0  0  0  0  0
    6.9248   -0.2462   11.9553 C   0  0  0  0  0  0  0  0  0  0  0  0
    4.1413   -2.4759    8.1923 C   0  0  0  0  0  0  0  0  0  0  0  0
    4.9494   -2.5478    6.9171 C   0  0  0  0  0  0  0  0  0  0  0  0
    6.1858   -3.3489    7.0288 N   0  0  0  0  0  0  0  0  0  0  0  0
    7.4791   -3.8843    7.5114 C   0  0  0  0  0  0  0  0  0  0  0  0
    7.0356   -4.2180    8.9414 C   0  0  0  0  0  0  0  0  0  0  0  0
    8.1437   -4.9191    9.7494 C   0  0  0  0  0  0  0  0  0  0  0  0
    7.6279   -5.3694   11.1127 C   0  0  0  0  0  0  0  0  0  0  0  0
    7.2585   -4.2117   11.9150 N   0  0  0  0  0  0  0  0  0  0  0  0
   11.4537   -3.9452    9.7551 N   0  0  0  0  0  0  0  0  0  0  0  0
    8.8939    0.1266    9.6224 C   0  0  0  0  0  0  0  0  0  0  0  0
    9.0827    1.0656   10.1189 O   0  0  0  0  0  0  0  0  0  0  0  0
    9.5667   -0.7973    8.6368 C   0  0  2  0  0  0  0  0  0  0  0  0
    8.6966   -1.1934    7.6529 O   0  0  0  0  0  0  0  0  0  0  0  0
    9.9618   -2.0527    9.4066 C   0  0  0  0  0  0  0  0  0  0  0  0
   11.0024   -2.9755    8.7466 C   0  0  0  0  0  0  0  0  0  0  0  0
  1  2  1  1  0  0  0
  1  3  1  0  0  0  0
  3  4  1  6  0  0  0
  3  5  1  0  0  0  0
  5  6  1  6  0  0  0
  5  7  1  0  0  0  0
  7  8  1  1  0  0  0
  9  7  1  0  0  0  0
  9 10  1  0  0  0  0
  9 11  1  1  0  0  0
 10  1  1  0  0  0  0
 11 12  1  0  0  0  0
 13 14  1  6  0  0  0
 13 15  1  0  0  0  0
 13 22  1  0  0  0  0
 14 32  1  0  0  0  0
 15 16  1  6  0  0  0
 15 17  1  0  0  0  0
 16 23  1  0  0  0  0
 17 18  1  1  0  0  0
 17 19  1  0  0  0  0
 19  2  1  1  0  0  0
 19 20  1  0  0  0  0
 20 21  1  1  0  0  0
 20 22  1  0  0  0  0
 23 24  1  0  0  0  0
 24 25  1  0  0  0  0
 25 26  1  0  0  0  0
 26 27  1  0  0  0  0
 27 28  1  0  0  0  0
 28 29  1  0  0  0  0
 29 30  1  0  0  0  0
 31 37  1  0  0  0  0
 32 33  2  0  0  0  0
 34 32  1  1  0  0  0
 34 35  1  0  0  0  0
 34 36  1  0  0  0  0
 36 37  1  0  0  0  0
M  END
>  <CHROM.1>
-74.87145337,-133.43583030,-173.66297699,-158.93034453,-165.07836189,-19.06059895
54.92967913,-49.91453167,54.41172001,175.77477350,-174.00357631,-64.36893014
46.00199489,-163.20376513,167.87897154,5.48600148,-0.93676763,11.45648174
2.37093373,0.41364445,0.58370305

>  <Name>
1o9m_lig

>  <RI>
0

>  <Rbt.Current_Directory>
/home/itssahil/PROJECTS/Mol_Feturizer/New_Systems/rnas/1o9m

>  <Rbt.Executable>
rbdock ($Id: //depot/dev/client3/rdock/2013.1/src/exe/rbdock.cxx#4 $)

>  <Rbt.Library>
libRbt.so (2013.1, Build901 2013/11/27)

>  <Rbt.Parameter_File>
/export/apps/rDock/src/rDock_2013.1_src/data/scripts/dock_solv.prm

>  <Rbt.Receptor>
prm/blind_docking_40.prm

>  <SCORE>
-4.23725

>  <SCORE.INTER>
-10.1112

>  <SCORE.INTER.CONST>
1

>  <SCORE.INTER.POLAR>
-2.26277

>  <SCORE.INTER.ROT>
15

>  <SCORE.INTER.SOLV>
25.2787

>  <SCORE.INTER.VDW>
-21.2245

>  <SCORE.INTER.norm>
-0.273277

>  <SCORE.INTRA>
5.86865

>  <SCORE.INTRA.DIHEDRAL>
-4.45286

>  <SCORE.INTRA.DIHEDRAL.0>
21.5987

>  <SCORE.INTRA.POLAR>
0

>  <SCORE.INTRA.POLAR.0>
0

>  <SCORE.INTRA.REPUL>
0

>  <SCORE.INTRA.REPUL.0>
0

>  <SCORE.INTRA.SOLV>
11.6961

>  <SCORE.INTRA.SOLV.lig_0>
-108.715

>  <SCORE.INTRA.VDW>
2.24705

>  <SCORE.INTRA.VDW.0>
-3.9485

>  <SCORE.INTRA.norm>
0.158612

>  <SCORE.RESTR>
0.00534333

>  <SCORE.RESTR.CAVITY>
0.00534333

>  <SCORE.RESTR.norm>
0.000144414

>  <SCORE.SYSTEM>
0

>  <SCORE.SYSTEM.CONST>
0

>  <SCORE.SYSTEM.DIHEDRAL>
0

>  <SCORE.SYSTEM.SOLV>
0

>  <SCORE.SYSTEM.norm>
0

>  <SCORE.heavy>
37

>  <SCORE.norm>
-0.11452

>  <RMSD>
24.163

$$$$
1o9m_lig
 OpenBabel11021811403D
libRbt.so/2013.1/901 2013/11/27
 37 38  0  0  0  0  0  0  0  0999 V2000
   10.1800   -1.9766    7.5463 C   0  0  2  0  0  0  0  0  0  0  0  0
    9.2379   -2.8672    8.2182 O   0  0  0  0  0  0  0  0  0  0  0  0
   11.4541   -2.8404    7.2226 C   0  0  2  0  0  0  0  0  0  0  0  0
   11.1383   -4.0012    6.3718 N   0  0  0  0  0  0  0  0  0  0  0  0
   12.1188   -3.3037    8.5744 C   0  0  1  0  0  0  0  0  0  0  0  0
   13.2826   -4.0908    8.3063 O   0  0  0  0  0  0  0  0  0  0  0  0
   12.4489   -2.0271    9.4162 C   0  0  2  0  0  0  0  0  0  0  0  0
   13.0474   -2.3357   10.6857 O   0  0  0  0  0  0  0  0  0  0  0  0
   11.1709   -1.1863    9.6570 C   0  0  2  0  0  0  0  0  0  0  0  0
   10.5386   -0.8489    8.4137 O   0  0  0  0  0  0  0  0  0  0  0  0
   11.4715    0.0789   10.4184 C   0  0  0  0  0  0  0  0  0  0  0  0
   10.3041    0.7285   10.7416 N   0  0  0  0  0  0  0  0  0  0  0  0
    5.6019   -2.0595   10.4426 C   0  0  1  0  0  0  0  0  0  0  0  0
    4.7011   -1.5714   11.5242 N   0  0  0  0  0  0  0  0  0  0  0  0
    6.3550   -0.8728    9.8569 C   0  0  2  0  0  0  0  0  0  0  0  0
    5.4124    0.0493    9.3970 O   0  0  0  0  0  0  0  0  0  0  0  0
    7.3004   -1.3354    8.7037 C   0  0  1  0  0  0  0  0  0  0  0  0
    8.0327   -0.1925    8.1651 O   0  0  0  0  0  0  0  0  0  0  0  0
    8.3418   -2.3889    9.2618 C   0  0  1  0  0  0  0  0  0  0  0  0
    7.6013   -3.5886    9.8330 C   0  0  1  0  0  0  0  0  0  0  0  0
    8.5762   -4.5499   10.3261 N   0  0  0  0  0  0  0  0  0  0  0  0
    6.6468   -3.1261   10.9663 C   0  0  0  0  0  0  0  0  0  0  0  0
    4.8133    1.0533    8.5487 C   0  0  0  0  0  0  0  0  0  0  0  0
    3.4253    1.3695    9.0565 C   0  0  0  0  0  0  0  0  0  0  0  0
    2.4470    0.2796    8.8614 N   0  0  0  0  0  0  0  0  0  0  0  0
    1.5679   -0.7277    8.2251 C   0  0  0  0  0  0  0  0  0  0  0  0
    2.5029   -1.1067    7.0696 C   0  0  0  0  0  0  0  0  0  0  0  0
    1.8754   -2.1511    6.1274 C   0  0  0  0  0  0  0  0  0  0  0  0
    2.8448   -2.5400    5.0154 C   0  0  0  0  0  0  0  0  0  0  0  0
    4.0473   -3.1319    5.5845 N   0  0  0  0  0  0  0  0  0  0  0  0
    1.2539   -0.5118   15.0739 N   0  0  0  0  0  0  0  0  0  0  0  0
    3.5154   -2.8063   11.9889 C   0  0  0  0  0  0  0  0  0  0  0  0
    3.3080   -3.8188   11.6792 O   0  0  0  0  0  0  0  0  0  0  0  0
    2.9792   -1.7767   12.9532 C   0  0  2  0  0  0  0  0  0  0  0  0
    3.8263   -1.6046   14.0185 O   0  0  0  0  0  0  0  0  0  0  0  0
    1.6748   -2.3329   13.5135 C   0  0  0  0  0  0  0  0  0  0  0  0
    0.6354   -1.3091   14.0048 C   0  0  0  0  0  0  0  0  0  0  0  0
  1  2  1  1  0  0  0
  1  3  1  0  0  0  0
  3  4  1  6  0  0  0
  3  5  1  0  0  0  0
  5  6  1  6  0  0  0
  5  7  1  0  0  0  0
  7  8  1  1  0  0  0
  9  7  1  0  0  0  0
  9 10  1  0  0  0  0
  9 11  1  6  0  0  0
 10  1  1  0  0  0  0
 11 12  1  0  0  0  0
 13 14  1  1  0  0  0
 13 15  1  0  0  0  0
 13 22  1  0  0  0  0
 14 32  1  0  0  0  0
 15 16  1  6  0  0  0
 15 17  1  0  0  0  0
 16 23  1  0  0  0  0
 17 18  1  1  0  0  0
 17 19  1  0  0  0  0
 19  2  1  6  0  0  0
 19 20  1  0  0  0  0
 20 21  1  1  0  0  0
 20 22  1  0  0  0  0
 23 24  1  0  0  0  0
 24 25  1  0  0  0  0
 25 26  1  0  0  0  0
 26 27  1  0  0  0  0
 27 28  1  0  0  0  0
 28 29  1  0  0  0  0
 29 30  1  0  0  0  0
 31 37  1  0  0  0  0
 32 33  2  0  0  0  0
 34 32  1  6  0  0  0
 34 35  1  0  0  0  0
 34 36  1  0  0  0  0
 36 37  1  0  0  0  0
M  END
>  <CHROM.1>
146.17617579,-173.49608886,166.30819381,-143.25575045,175.64686756,64.58885175
-69.95818735,-62.09614068,36.24151741,-178.24775131,-178.19482546,61.09601468
-73.03732103,-153.88553758,-59.52385037,6.66002679,-1.76249640,9.61804521
0.24686528,0.10509062,-1.59879469

>  <Name>
1o9m_lig

>  <RI>
0

>  <Rbt.Current_Directory>
/home/itssahil/PROJECTS/Mol_Feturizer/New_Systems/rnas/1o9m

>  <Rbt.Executable>
rbdock ($Id: //depot/dev/client3/rdock/2013.1/src/exe/rbdock.cxx#4 $)

>  <Rbt.Library>
libRbt.so (2013.1, Build901 2013/11/27)

>  <Rbt.Parameter_File>
/export/apps/rDock/src/rDock_2013.1_src/data/scripts/dock_solv.prm

>  <Rbt.Receptor>
prm/blind_docking_80.prm

>  <SCORE>
-3.22789

>  <SCORE.INTER>
-0.375276

>  <SCORE.INTER.CONST>
1

>  <SCORE.INTER.POLAR>
0

>  <SCORE.INTER.ROT>
15

>  <SCORE.INTER.SOLV>
14.0698

>  <SCORE.INTER.VDW>
-18.5401

>  <SCORE.INTER.norm>
-0.0101426

>  <SCORE.INTRA>
-2.95713

>  <SCORE.INTRA.DIHEDRAL>
-8.18847

>  <SCORE.INTRA.DIHEDRAL.0>
21.5987

>  <SCORE.INTRA.POLAR>
0

>  <SCORE.INTRA.POLAR.0>
0

>  <SCORE.INTRA.REPUL>
0

>  <SCORE.INTRA.REPUL.0>
0

>  <SCORE.INTRA.SOLV>
3.14841

>  <SCORE.INTRA.SOLV.lig_0>
-108.715

>  <SCORE.INTRA.VDW>
-0.437101

>  <SCORE.INTRA.VDW.0>
-3.9485

>  <SCORE.INTRA.norm>
-0.0799224

>  <SCORE.RESTR>
0.104521

>  <SCORE.RESTR.CAVITY>
0.104521

>  <SCORE.RESTR.norm>
0.0028249

>  <SCORE.SYSTEM>
0

>  <SCORE.SYSTEM.CONST>
0

>  <SCORE.SYSTEM.DIHEDRAL>
0

>  <SCORE.SYSTEM.SOLV>
0

>  <SCORE.SYSTEM.norm>
0

>  <SCORE.heavy>
37

>  <SCORE.norm>
-0.0872401

>  <RMSD>
24.163

$$$$
1o9m_lig
 OpenBabel11021811403D
libRbt.so/2013.1/901 2013/11/27
 37 38  0  0  0  0  0  0  0  0999 V2000
    2.2719    0.7002   12.4626 C   0  0  2  0  0  0  0  0  0  0  0  0
    3.7303    0.6642   12.5260 O   0  0  0  0  0  0  0  0  0  0  0  0
    1.8743    2.2050   12.2352 C   0  0  2  0  0  0  0  0  0  0  0  0
    2.4625    2.7560   11.0017 N   0  0  0  0  0  0  0  0  0  0  0  0
    2.3169    3.0496   13.4900 C   0  0  1  0  0  0  0  0  0  0  0  0
    1.9641    4.4236   13.3080 O   0  0  0  0  0  0  0  0  0  0  0  0
    1.6414    2.4282   14.7569 C   0  0  2  0  0  0  0  0  0  0  0  0
    1.9923    3.1149   15.9694 O   0  0  0  0  0  0  0  0  0  0  0  0
    2.0213    0.9337   14.9007 C   0  0  2  0  0  0  0  0  0  0  0  0
    1.6846    0.2036   13.7120 O   0  0  0  0  0  0  0  0  0  0  0  0
    1.3381    0.2963   16.0829 C   0  0  0  0  0  0  0  0  0  0  0  0
    1.3641    1.1463   17.1627 N   0  0  0  0  0  0  0  0  0  0  0  0
    6.6628   -1.8182   10.5113 C   0  0  1  0  0  0  0  0  0  0  0  0
    7.4322   -3.0280   10.1063 N   0  0  0  0  0  0  0  0  0  0  0  0
    5.1949   -2.0309   10.1669 C   0  0  2  0  0  0  0  0  0  0  0  0
    5.1085   -2.2901    8.7974 O   0  0  0  0  0  0  0  0  0  0  0  0
    4.3504   -0.7773   10.5578 C   0  0  1  0  0  0  0  0  0  0  0  0
    2.9422   -1.0018   10.2429 O   0  0  0  0  0  0  0  0  0  0  0  0
    4.4869   -0.5093   12.1120 C   0  0  1  0  0  0  0  0  0  0  0  0
    5.9479   -0.2764   12.4656 C   0  0  1  0  0  0  0  0  0  0  0  0
    6.0490   -0.0175   13.8940 N   0  0  0  0  0  0  0  0  0  0  0  0
    6.7908   -1.5148   12.0590 C   0  0  0  0  0  0  0  0  0  0  0  0
    5.1580   -2.0450    7.3747 C   0  0  0  0  0  0  0  0  0  0  0  0
    4.8800   -3.3351    6.6379 C   0  0  0  0  0  0  0  0  0  0  0  0
    4.5593   -3.1573    5.2066 N   0  0  0  0  0  0  0  0  0  0  0  0
    3.9326   -2.6847    3.9511 C   0  0  0  0  0  0  0  0  0  0  0  0
    2.4758   -2.9743    4.3342 C   0  0  0  0  0  0  0  0  0  0  0  0
    1.9620   -2.0307    5.4378 C   0  0  0  0  0  0  0  0  0  0  0  0
    0.6940   -2.5804    6.0838 C   0  0  0  0  0  0  0  0  0  0  0  0
    0.2932   -1.7338    7.1986 N   0  0  0  0  0  0  0  0  0  0  0  0
   11.1014   -4.6001    9.8896 N   0  0  0  0  0  0  0  0  0  0  0  0
    7.1947   -4.3623   11.2508 C   0  0  0  0  0  0  0  0  0  0  0  0
    6.6202   -4.4990   12.1537 O   0  0  0  0  0  0  0  0  0  0  0  0
    8.1541   -5.1380   10.3816 C   0  0  2  0  0  0  0  0  0  0  0  0
    7.5847   -6.3006    9.9276 O   0  0  0  0  0  0  0  0  0  0  0  0
    9.3278   -5.5395   11.2681 C   0  0  0  0  0  0  0  0  0  0  0  0
   10.6648   -5.8317   10.5632 C   0  0  0  0  0  0  0  0  0  0  0  0
  1  2  1  1  0  0  0
  1  3  1  0  0  0  0
  3  4  1  6  0  0  0
  3  5  1  0  0  0  0
  5  6  1  6  0  0  0
  5  7  1  0  0  0  0
  7  8  1  1  0  0  0
  9  7  1  0  0  0  0
  9 10  1  0  0  0  0
  9 11  1  1  0  0  0
 10  1  1  0  0  0  0
 11 12  1  0  0  0  0
 13 14  1  1  0  0  0
 13 15  1  0  0  0  0
 13 22  1  0  0  0  0
 14 32  1  0  0  0  0
 15 16  1  6  0  0  0
 15 17  1  0  0  0  0
 16 23  1  0  0  0  0
 17 18  1  1  0  0  0
 17 19  1  0  0  0  0
 19  2  1  6  0  0  0
 19 20  1  0  0  0  0
 20 21  1  1  0  0  0
 20 22  1  0  0  0  0
 23 24  1  0  0  0  0
 24 25  1  0  0  0  0
 25 26  1  0  0  0  0
 26 27  1  0  0  0  0
 27 28  1  0  0  0  0
 28 29  1  0  0  0  0
 29 30  1  0  0  0  0
 31 37  1  0  0  0  0
 32 33  2  0  0  0  0
 34 32  1  1  0  0  0
 34 35  1  0  0  0  0
 34 36  1  0  0  0  0
 36 37  1  0  0  0  0
M  END
>  <CHROM.1>
-150.86708375,-42.05470094,-76.44203975,-69.49739723,176.88947272,66.11015568
165.04304193,-52.42031826,-53.24827117,69.56230781,-163.25486787,175.07540558
-122.88955235,-156.41278900,62.01190915,4.42076392,-1.29708506,10.82318422
2.17934074,-0.61343383,1.16907200

>  <Name>
1o9m_lig

>  <RI>
0

>  <Rbt.Current_Directory>
/home/itssahil/PROJECTS/Mol_Feturizer/New_Systems/rnas/1o9m

>  <Rbt.Executable>
rbdock ($Id: //depot/dev/client3/rdock/2013.1/src/exe/rbdock.cxx#4 $)

>  <Rbt.Library>
libRbt.so (2013.1, Build901 2013/11/27)

>  <Rbt.Parameter_File>
/export/apps/rDock/src/rDock_2013.1_src/data/scripts/dock_solv.prm

>  <Rbt.Receptor>
prm/blind_docking_60.prm

>  <SCORE>
-15.1036

>  <SCORE.INTER>
-13.2561

>  <SCORE.INTER.CONST>
1

>  <SCORE.INTER.POLAR>
-2.88351

>  <SCORE.INTER.ROT>
15

>  <SCORE.INTER.SOLV>
23.8539

>  <SCORE.INTER.VDW>
-20.777

>  <SCORE.INTER.norm>
-0.358272

>  <SCORE.INTRA>
-1.86243

>  <SCORE.INTRA.DIHEDRAL>
-9.58173

>  <SCORE.INTRA.DIHEDRAL.0>
21.5987

>  <SCORE.INTRA.POLAR>
0

>  <SCORE.INTRA.POLAR.0>
0

>  <SCORE.INTRA.REPUL>
0

>  <SCORE.INTRA.REPUL.0>
0

>  <SCORE.INTRA.SOLV>
2.27625

>  <SCORE.INTRA.SOLV.lig_0>
-108.715

>  <SCORE.INTRA.VDW>
1.79031

>  <SCORE.INTRA.VDW.0>
-3.9485

>  <SCORE.INTRA.norm>
-0.0503359

>  <SCORE.RESTR>
0.0148507

>  <SCORE.RESTR.CAVITY>
0.0148507

>  <SCORE.RESTR.norm>
0.000401369

>  <SCORE.SYSTEM>
0

>  <SCORE.SYSTEM.CONST>
0

>  <SCORE.SYSTEM.DIHEDRAL>
0

>  <SCORE.SYSTEM.SOLV>
0

>  <SCORE.SYSTEM.norm>
0

>  <SCORE.heavy>
37

>  <SCORE.norm>
-0.408206

>  <RMSD>
24.166

$$$$
1o9m_lig
 OpenBabel11021811403D
libRbt.so/2013.1/901 2013/11/27
 37 38  0  0  0  0  0  0  0  0999 V2000
   10.1642   -2.6458   10.5349 C   0  0  2  0  0  0  0  0  0  0  0  0
    8.8202   -2.8958   10.0219 O   0  0  0  0  0  0  0  0  0  0  0  0
   11.1522   -2.9107    9.3398 C   0  0  2  0  0  0  0  0  0  0  0  0
   10.8684   -2.0462    8.1809 N   0  0  0  0  0  0  0  0  0  0  0  0
   11.0731   -4.4316    8.9342 C   0  0  1  0  0  0  0  0  0  0  0  0
   11.9653   -4.6986    7.8487 O   0  0  0  0  0  0  0  0  0  0  0  0
   11.4066   -5.2898   10.1990 C   0  0  2  0  0  0  0  0  0  0  0  0
   11.3466   -6.7030    9.9455 O   0  0  0  0  0  0  0  0  0  0  0  0
   10.4407   -4.9487   11.3605 C   0  0  2  0  0  0  0  0  0  0  0  0
   10.4693   -3.5443   11.6540 O   0  0  0  0  0  0  0  0  0  0  0  0
   10.7763   -5.7220   12.6095 C   0  0  0  0  0  0  0  0  0  0  0  0
    9.7818   -5.5683   13.5459 N   0  0  0  0  0  0  0  0  0  0  0  0
    5.1518   -0.9834   11.3281 C   0  0  1  0  0  0  0  0  0  0  0  0
    4.0744    0.0372   11.4593 N   0  0  0  0  0  0  0  0  0  0  0  0
    5.2507   -1.4092    9.8695 C   0  0  2  0  0  0  0  0  0  0  0  0
    4.0006   -1.8929    9.4777 O   0  0  0  0  0  0  0  0  0  0  0  0
    6.3579   -2.4948    9.6867 C   0  0  1  0  0  0  0  0  0  0  0  0
    6.4580   -2.8789    8.2814 O   0  0  0  0  0  0  0  0  0  0  0  0
    7.7536   -1.9132   10.1552 C   0  0  1  0  0  0  0  0  0  0  0  0
    7.6728   -1.5015   11.6173 C   0  0  1  0  0  0  0  0  0  0  0  0
    8.9685   -0.9843   12.0310 N   0  0  0  0  0  0  0  0  0  0  0  0
    6.5588   -0.4365   11.8024 C   0  0  0  0  0  0  0  0  0  0  0  0
    2.8375   -2.7489    9.4456 C   0  0  0  0  0  0  0  0  0  0  0  0
    1.7845   -2.1239    8.5596 C   0  0  0  0  0  0  0  0  0  0  0  0
    2.0973   -2.1795    7.1167 N   0  0  0  0  0  0  0  0  0  0  0  0
    2.0773   -2.5521    5.6838 C   0  0  0  0  0  0  0  0  0  0  0  0
    3.4304   -1.9401    5.2998 C   0  0  0  0  0  0  0  0  0  0  0  0
    4.6132   -2.8516    5.6769 C   0  0  0  0  0  0  0  0  0  0  0  0
    5.9371   -2.2547    5.2095 C   0  0  0  0  0  0  0  0  0  0  0  0
    7.0171   -3.2091    5.4172 N   0  0  0  0  0  0  0  0  0  0  0  0
    1.4627    4.4605   14.5720 N   0  0  0  0  0  0  0  0  0  0  0  0
    3.8473    0.5286   13.1485 C   0  0  0  0  0  0  0  0  0  0  0  0
    4.3118    0.2689   14.0871 O   0  0  0  0  0  0  0  0  0  0  0  0
    2.7406    1.4147   12.6310 C   0  0  2  0  0  0  0  0  0  0  0  0
    3.1865    2.2277   11.6200 O   0  0  0  0  0  0  0  0  0  0  0  0
    2.3306    2.3273   13.7814 C   0  0  0  0  0  0  0  0  0  0  0  0
    1.4435    3.5353   13.4297 C   0  0  0  0  0  0  0  0  0  0  0  0
  1  2  1  6  0  0  0
  1  3  1  0  0  0  0
  3  4  1  6  0  0  0
  3  5  1  0  0  0  0
  5  6  1  6  0  0  0
  5  7  1  0  0  0  0
  7  8  1  6  0  0  0
  9  7  1  0  0  0  0
  9 10  1  0  0  0  0
  9 11  1  1  0  0  0
 10  1  1  0  0  0  0
 11 12  1  0  0  0  0
 13 14  1  6  0  0  0
 13 15  1  0  0  0  0
 13 22  1  0  0  0  0
 14 32  1  0  0  0  0
 15 16  1  1  0  0  0
 15 17  1  0  0  0  0
 16 23  1  0  0  0  0
 17 18  1  6  0  0  0
 17 19  1  0  0  0  0
 19  2  1  1  0  0  0
 19 20  1  0  0  0  0
 20 21  1  6  0  0  0
 20 22  1  0  0  0  0
 23 24  1  0  0  0  0
 24 25  1  0  0  0  0
 25 26  1  0  0  0  0
 26 27  1  0  0  0  0
 27 28  1  0  0  0  0
 28 29  1  0  0  0  0
 29 30  1  0  0  0  0
 31 37  1  0  0  0  0
 32 33  2  0  0  0  0
 34 32  1  1  0  0  0
 34 35  1  0  0  0  0
 34 36  1  0  0  0  0
 36 37  1  0  0  0  0
M  END
>  <CHROM.1>
-127.32220606,-170.12501278,177.34859901,-63.80637402,171.88933807,-172.73983119
72.35315987,107.24142407,-163.95263052,80.72461605,176.65803446,-172.52657226
-53.43725474,166.64229848,-165.12452992,6.48511061,-1.93385594,10.13751562
-0.42588323,-0.48706418,1.12653332

>  <Name>
1o9m_lig

>  <RI>
0

>  <Rbt.Current_Directory>
/home/itssahil/PROJECTS/Mol_Feturizer/New_Systems/rnas/1o9m

>  <Rbt.Executable>
rbdock ($Id: //depot/dev/client3/rdock/2013.1/src/exe/rbdock.cxx#4 $)

>  <Rbt.Library>
libRbt.so (2013.1, Build901 2013/11/27)

>  <Rbt.Parameter_File>
/export/apps/rDock/src/rDock_2013.1_src/data/scripts/dock_solv.prm

>  <Rbt.Receptor>
prm/blind_docking_40.prm

>  <SCORE>
-6.74497

>  <SCORE.INTER>
-7.30996

>  <SCORE.INTER.CONST>
1

>  <SCORE.INTER.POLAR>
-2.06162

>  <SCORE.INTER.ROT>
15

>  <SCORE.INTER.SOLV>
13.7078

>  <SCORE.INTER.VDW>
-16.1705

>  <SCORE.INTER.norm>
-0.197566

>  <SCORE.INTRA>
0.18811

>  <SCORE.INTRA.DIHEDRAL>
-7.74425

>  <SCORE.INTRA.DIHEDRAL.0>
21.5987

>  <SCORE.INTRA.POLAR>
0

>  <SCORE.INTRA.POLAR.0>
0

>  <SCORE.INTRA.REPUL>
0.000128964

>  <SCORE.INTRA.REPUL.0>
0

>  <SCORE.INTRA.SOLV>
2.53291

>  <SCORE.INTRA.SOLV.lig_0>
-108.715

>  <SCORE.INTRA.VDW>
2.79314

>  <SCORE.INTRA.VDW.0>
-3.9485

>  <SCORE.INTRA.norm>
0.00508406

>  <SCORE.RESTR>
0.376871

>  <SCORE.RESTR.CAVITY>
0.376871

>  <SCORE.RESTR.norm>
0.0101857

>  <SCORE.SYSTEM>
0

>  <SCORE.SYSTEM.CONST>
0

>  <SCORE.SYSTEM.DIHEDRAL>
0

>  <SCORE.SYSTEM.SOLV>
0

>  <SCORE.SYSTEM.norm>
0

>  <SCORE.heavy>
37

>  <SCORE.norm>
-0.182297

>  <RMSD>
24.170

$$$$
1o9m_lig
 OpenBabel11021811403D
libRbt.so/2013.1/901 2013/11/27
 37 38  0  0  0  0  0  0  0  0999 V2000
    4.4542    0.0234   13.5105 C   0  0  2  0  0  0  0  0  0  0  0  0
    4.0725    0.7658   12.3124 O   0  0  0  0  0  0  0  0  0  0  0  0
    4.3995   -1.5006   13.1248 C   0  0  2  0  0  0  0  0  0  0  0  0
    5.2994   -1.8238   12.0038 N   0  0  0  0  0  0  0  0  0  0  0  0
    2.9127   -1.8905   12.7770 C   0  0  1  0  0  0  0  0  0  0  0  0
    2.8363   -3.2744   12.4242 O   0  0  0  0  0  0  0  0  0  0  0  0
    2.0178   -1.5448   14.0128 C   0  0  2  0  0  0  0  0  0  0  0  0
    0.6294   -1.8461   13.7976 O   0  0  0  0  0  0  0  0  0  0  0  0
    2.1530   -0.0470   14.3829 C   0  0  2  0  0  0  0  0  0  0  0  0
    3.5260    0.3014   14.6123 O   0  0  0  0  0  0  0  0  0  0  0  0
    1.3436    0.3001   15.6056 C   0  0  0  0  0  0  0  0  0  0  0  0
    1.2248    1.6641   15.7262 N   0  0  0  0  0  0  0  0  0  0  0  0
    6.8914   -0.4043    9.2293 C   0  0  1  0  0  0  0  0  0  0  0  0
    7.7658   -0.3196    8.0260 N   0  0  0  0  0  0  0  0  0  0  0  0
    7.3350    0.6498   10.2346 C   0  0  2  0  0  0  0  0  0  0  0  0
    8.6807    0.4219   10.5301 O   0  0  0  0  0  0  0  0  0  0  0  0
    6.4561    0.5858   11.5235 C   0  0  1  0  0  0  0  0  0  0  0  0
    6.8767    1.6150   12.4703 O   0  0  0  0  0  0  0  0  0  0  0  0
    4.9393    0.8337   11.1441 C   0  0  1  0  0  0  0  0  0  0  0  0
    4.4788   -0.2252   10.1539 C   0  0  1  0  0  0  0  0  0  0  0  0
    3.0800    0.0121    9.8306 N   0  0  0  0  0  0  0  0  0  0  0  0
    5.3652   -0.1747    8.8806 C   0  0  0  0  0  0  0  0  0  0  0  0
   10.1179    0.4933   10.4042 C   0  0  0  0  0  0  0  0  0  0  0  0
   10.7302   -0.7657   10.9738 C   0  0  0  0  0  0  0  0  0  0  0  0
    9.9425   -1.3832   12.0606 N   0  0  0  0  0  0  0  0  0  0  0  0
    8.8086   -1.8129   12.9104 C   0  0  0  0  0  0  0  0  0  0  0  0
    9.3886   -3.1637   13.3485 C   0  0  0  0  0  0  0  0  0  0  0  0
    9.4221   -4.1872   12.1981 C   0  0  0  0  0  0  0  0  0  0  0  0
    8.0111   -4.5664   11.7592 C   0  0  0  0  0  0  0  0  0  0  0  0
    8.0683   -5.5400   10.6779 N   0  0  0  0  0  0  0  0  0  0  0  0
   11.0162   -1.4981    4.4288 N   0  0  0  0  0  0  0  0  0  0  0  0
    7.3092   -1.5228    6.8052 C   0  0  0  0  0  0  0  0  0  0  0  0
    6.5474   -2.2833    6.7319 O   0  0  0  0  0  0  0  0  0  0  0  0
    8.4628   -0.9832    5.9955 C   0  0  2  0  0  0  0  0  0  0  0  0
    8.3198   -1.2840    4.6647 O   0  0  0  0  0  0  0  0  0  0  0  0
    9.7167   -1.7042    6.4776 C   0  0  0  0  0  0  0  0  0  0  0  0
   11.0579   -1.2460    5.8765 C   0  0  0  0  0  0  0  0  0  0  0  0
  1  2  1  6  0  0  0
  1  3  1  0  0  0  0
  3  4  1  6  0  0  0
  3  5  1  0  0  0  0
  5  6  1  1  0  0  0
  5  7  1  0  0  0  0
  7  8  1  6  0  0  0
  9  7  1  0  0  0  0
  9 10  1  0  0  0  0
  9 11  1  1  0  0  0
 10  1  1  0  0  0  0
 11 12  1  0  0  0  0
 13 14  1  6  0  0  0
 13 15  1  0  0  0  0
 13 22  1  0  0  0  0
 14 32  1  0  0  0  0
 15 16  1  1  0  0  0
 15 17  1  0  0  0  0
 16 23  1  0  0  0  0
 17 18  1  1  0  0  0
 17 19  1  0  0  0  0
 19  2  1  1  0  0  0
 19 20  1  0  0  0  0
 20 21  1  6  0  0  0
 20 22  1  0  0  0  0
 23 24  1  0  0  0  0
 24 25  1  0  0  0  0
 25 26  1  0  0  0  0
 26 27  1  0  0  0  0
 27 28  1  0  0  0  0
 28 29  1  0  0  0  0
 29 30  1  0  0  0  0
 31 37  1  0  0  0  0
 32 33  2  0  0  0  0
 34 32  1  1  0  0  0
 34 35  1  0  0  0  0
 34 36  1  0  0  0  0
 36 37  1  0  0  0  0
M  END
>  <CHROM.1>
-69.96829384,-165.83017846,179.95692933,86.65532222,-151.18348464,-23.92128233
-29.49450066,30.31932990,146.17843321,-70.78272494,-66.08960769,-179.64243141
-159.10417138,-175.30840111,-62.38000029,6.30589442,-1.01007793,10.86028721
-2.42427812,0.34098896,-1.35989912

>  <Name>
1o9m_lig

>  <RI>
0

>  <Rbt.Current_Directory>
/home/itssahil/PROJECTS/Mol_Feturizer/New_Systems/rnas/1o9m

>  <Rbt.Executable>
rbdock ($Id: //depot/dev/client3/rdock/2013.1/src/exe/rbdock.cxx#4 $)

>  <Rbt.Library>
libRbt.so (2013.1, Build901 2013/11/27)

>  <Rbt.Parameter_File>
/export/apps/rDock/src/rDock_2013.1_src/data/scripts/dock_solv.prm

>  <Rbt.Receptor>
prm/blind_docking_100.prm

>  <SCORE>
-5.01899

>  <SCORE.INTER>
-10.185

>  <SCORE.INTER.CONST>
1

>  <SCORE.INTER.POLAR>
-0.894427

>  <SCORE.INTER.ROT>
15

>  <SCORE.INTER.SOLV>
14.7722

>  <SCORE.INTER.VDW>
-22.3326

>  <SCORE.INTER.norm>
-0.275269

>  <SCORE.INTRA>
5.14146

>  <SCORE.INTRA.DIHEDRAL>
-3.08539

>  <SCORE.INTRA.DIHEDRAL.0>
21.5987

>  <SCORE.INTRA.POLAR>
0

>  <SCORE.INTRA.POLAR.0>
0

>  <SCORE.INTRA.REPUL>
0.0221995

>  <SCORE.INTRA.REPUL.0>
0

>  <SCORE.INTRA.SOLV>
9.28607

>  <SCORE.INTRA.SOLV.lig_0>
-108.715

>  <SCORE.INTRA.VDW>
1.93013

>  <SCORE.INTRA.VDW.0>
-3.9485

>  <SCORE.INTRA.norm>
0.138958

>  <SCORE.RESTR>
0.024525

>  <SCORE.RESTR.CAVITY>
0.024525

>  <SCORE.RESTR.norm>
0.000662839

>  <SCORE.SYSTEM>
0

>  <SCORE.SYSTEM.CONST>
0

>  <SCORE.SYSTEM.DIHEDRAL>
0

>  <SCORE.SYSTEM.SOLV>
0

>  <SCORE.SYSTEM.norm>
0

>  <SCORE.heavy>
37

>  <SCORE.norm>
-0.135648

>  <RMSD>
24.185

$$$$
1o9m_lig
 OpenBabel11021811403D
libRbt.so/2013.1/901 2013/11/27
 37 38  0  0  0  0  0  0  0  0999 V2000
   10.1496   -2.7226   11.3747 C   0  0  2  0  0  0  0  0  0  0  0  0
    9.5408   -2.3054   10.1147 O   0  0  0  0  0  0  0  0  0  0  0  0
   11.3288   -1.7191   11.6519 C   0  0  2  0  0  0  0  0  0  0  0  0
   10.8639   -0.3234   11.7355 N   0  0  0  0  0  0  0  0  0  0  0  0
   12.4163   -1.8782   10.5224 C   0  0  1  0  0  0  0  0  0  0  0  0
   13.5017   -0.9760   10.7534 O   0  0  0  0  0  0  0  0  0  0  0  0
   12.8821   -3.3716   10.5032 C   0  0  2  0  0  0  0  0  0  0  0  0
   13.8683   -3.6351    9.4918 O   0  0  0  0  0  0  0  0  0  0  0  0
   11.6755   -4.3172   10.2835 C   0  0  2  0  0  0  0  0  0  0  0  0
   10.6629   -4.0935   11.2755 O   0  0  0  0  0  0  0  0  0  0  0  0
   12.0893   -5.7657   10.3170 C   0  0  0  0  0  0  0  0  0  0  0  0
   10.9982   -6.5771   10.1161 N   0  0  0  0  0  0  0  0  0  0  0  0
    5.4017   -2.3383    8.8156 C   0  0  1  0  0  0  0  0  0  0  0  0
    4.0751   -2.8569    8.3789 N   0  0  0  0  0  0  0  0  0  0  0  0
    5.7175   -2.8966   10.1966 C   0  0  2  0  0  0  0  0  0  0  0  0
    4.6835   -2.5227   11.0576 O   0  0  0  0  0  0  0  0  0  0  0  0
    7.0944   -2.3637   10.7043 C   0  0  1  0  0  0  0  0  0  0  0  0
    7.3959   -2.9229   12.0192 O   0  0  0  0  0  0  0  0  0  0  0  0
    8.2350   -2.7951    9.6951 C   0  0  1  0  0  0  0  0  0  0  0  0
    7.9403   -2.2271    8.3151 C   0  0  1  0  0  0  0  0  0  0  0  0
    9.0072   -2.6225    7.4078 N   0  0  0  0  0  0  0  0  0  0  0  0
    6.5625   -2.7412    7.8186 C   0  0  0  0  0  0  0  0  0  0  0  0
    3.8624   -1.6700   11.8854 C   0  0  0  0  0  0  0  0  0  0  0  0
    2.7509   -2.4917   12.4970 C   0  0  0  0  0  0  0  0  0  0  0  0
    2.2467   -1.9656   13.7823 N   0  0  0  0  0  0  0  0  0  0  0  0
    1.9075   -1.0474   14.8933 C   0  0  0  0  0  0  0  0  0  0  0  0
    0.9855   -0.1103   14.1029 C   0  0  0  0  0  0  0  0  0  0  0  0
    1.7594    0.7571   13.0925 C   0  0  0  0  0  0  0  0  0  0  0  0
    2.5612    1.8436   13.8024 C   0  0  0  0  0  0  0  0  0  0  0  0
    1.6607    2.7979   14.4337 N   0  0  0  0  0  0  0  0  0  0  0  0
   -0.6895   -3.4687    6.3007 N   0  0  0  0  0  0  0  0  0  0  0  0
    3.0235   -1.5490    7.8042 C   0  0  0  0  0  0  0  0  0  0  0  0
    3.1278   -0.4812    7.6903 O   0  0  0  0  0  0  0  0  0  0  0  0
    1.9833   -2.6217    7.5925 C   0  0  2  0  0  0  0  0  0  0  0  0
    2.0831   -3.1705    6.3391 O   0  0  0  0  0  0  0  0  0  0  0  0
    0.6223   -1.9385    7.6669 C   0  0  0  0  0  0  0  0  0  0  0  0
   -0.6174   -2.8505    7.6326 C   0  0  0  0  0  0  0  0  0  0  0  0
  1  2  1  6  0  0  0
  1  3  1  0  0  0  0
  3  4  1  6  0  0  0
  3  5  1  0  0  0  0
  5  6  1  1  0  0  0
  5  7  1  0  0  0  0
  7  8  1  6  0  0  0
  9  7  1  0  0  0  0
  9 10  1  0  0  0  0
  9 11  1  1  0  0  0
 10  1  1  0  0  0  0
 11 12  1  0  0  0  0
 13 14  1  6  0  0  0
 13 15  1  0  0  0  0
 13 22  1  0  0  0  0
 14 32  1  0  0  0  0
 15 16  1  1  0  0  0
 15 17  1  0  0  0  0
 16 23  1  0  0  0  0
 17 18  1  1  0  0  0
 17 19  1  0  0  0  0
 19  2  1  1  0  0  0
 19 20  1  0  0  0  0
 20 21  1  6  0  0  0
 20 22  1  0  0  0  0
 23 24  1  0  0  0  0
 24 25  1  0  0  0  0
 25 26  1  0  0  0  0
 26 27  1  0  0  0  0
 27 28  1  0  0  0  0
 28 29  1  0  0  0  0
 29 30  1  0  0  0  0
 31 37  1  0  0  0  0
 32 33  2  0  0  0  0
 34 32  1  6  0  0  0
 34 35  1  0  0  0  0
 34 36  1  0  0  0  0
 36 37  1  0  0  0  0
M  END
>  <CHROM.1>
-165.25744185,-179.85664789,130.23169040,-72.91584494,-179.88839818,62.30330665
153.05317694,24.62987379,60.64345172,-70.40992115,-72.65019861,-66.47480926
-88.97232370,-173.55841039,-67.21461446,6.32522104,-2.21673995,10.32878376
-0.09032078,-0.16581961,1.09915267

>  <Name>
1o9m_lig

>  <RI>
0

>  <Rbt.Current_Directory>
/home/itssahil/PROJECTS/Mol_Feturizer/New_Systems/rnas/1o9m

>  <Rbt.Executable>
rbdock ($Id: //depot/dev/client3/rdock/2013.1/src/exe/rbdock.cxx#4 $)

>  <Rbt.Library>
libRbt.so (2013.1, Build901 2013/11/27)

>  <Rbt.Parameter_File>
/export/apps/rDock/src/rDock_2013.1_src/data/scripts/dock_solv.prm

>  <Rbt.Receptor>
prm/blind_docking_100.prm

>  <SCORE>
-6.04906

>  <SCORE.INTER>
-1.18958

>  <SCORE.INTER.CONST>
1

>  <SCORE.INTER.POLAR>
-0.86545

>  <SCORE.INTER.ROT>
15

>  <SCORE.INTER.SOLV>
12.164

>  <SCORE.INTER.VDW>
-15.5629

>  <SCORE.INTER.norm>
-0.0321508

>  <SCORE.INTRA>
-4.86341

>  <SCORE.INTRA.DIHEDRAL>
-12.5962

>  <SCORE.INTRA.DIHEDRAL.0>
21.5987

>  <SCORE.INTRA.POLAR>
0

>  <SCORE.INTRA.POLAR.0>
0

>  <SCORE.INTRA.REPUL>
0

>  <SCORE.INTRA.REPUL.0>
0

>  <SCORE.INTRA.SOLV>
1.54138

>  <SCORE.INTRA.SOLV.lig_0>
-108.715

>  <SCORE.INTRA.VDW>
0.663975

>  <SCORE.INTRA.VDW.0>
-3.9485

>  <SCORE.INTRA.norm>
-0.131444

>  <SCORE.RESTR>
0.00393392

>  <SCORE.RESTR.CAVITY>
0.00393392

>  <SCORE.RESTR.norm>
0.000106322

>  <SCORE.SYSTEM>
0

>  <SCORE.SYSTEM.CONST>
0

>  <SCORE.SYSTEM.DIHEDRAL>
0

>  <SCORE.SYSTEM.SOLV>
0

>  <SCORE.SYSTEM.norm>
0

>  <SCORE.heavy>
37

>  <SCORE.norm>
-0.163488

>  <RMSD>
24.197

$$$$
1o9m_lig
 OpenBabel11021811403D
libRbt.so/2013.1/901 2013/11/27
 37 38  0  0  0  0  0  0  0  0999 V2000
    2.8370    0.4132   10.5882 C   0  0  2  0  0  0  0  0  0  0  0  0
    4.0845    1.0124   10.1225 O   0  0  0  0  0  0  0  0  0  0  0  0
    2.4482    1.1692   11.9118 C   0  0  2  0  0  0  0  0  0  0  0  0
    2.2815    2.6174   11.6971 N   0  0  0  0  0  0  0  0  0  0  0  0
    3.5476    0.8902   13.0059 C   0  0  1  0  0  0  0  0  0  0  0  0
    3.2153    1.5665   14.2215 O   0  0  0  0  0  0  0  0  0  0  0  0
    3.6569   -0.6582   13.2012 C   0  0  2  0  0  0  0  0  0  0  0  0
    4.6496   -1.0291   14.1717 O   0  0  0  0  0  0  0  0  0  0  0  0
    3.9853   -1.3561   11.8582 C   0  0  2  0  0  0  0  0  0  0  0  0
    3.0157   -1.0183   10.8556 O   0  0  0  0  0  0  0  0  0  0  0  0
    4.0407   -2.8545   12.0078 C   0  0  0  0  0  0  0  0  0  0  0  0
    2.7838   -3.3553   12.2503 N   0  0  0  0  0  0  0  0  0  0  0  0
    6.3055   -2.2992    8.4134 C   0  0  1  0  0  0  0  0  0  0  0  0
    7.2759   -3.0442    7.5631 N   0  0  0  0  0  0  0  0  0  0  0  0
    7.0692   -1.2980    9.2693 C   0  0  2  0  0  0  0  0  0  0  0  0
    8.0106   -2.0051   10.0203 O   0  0  0  0  0  0  0  0  0  0  0  0
    6.0918   -0.5047   10.1930 C   0  0  1  0  0  0  0  0  0  0  0  0
    6.8330    0.4667   10.9926 O   0  0  0  0  0  0  0  0  0  0  0  0
    5.0338    0.2691    9.3056 C   0  0  1  0  0  0  0  0  0  0  0  0
    4.2509   -0.7231    8.4592 C   0  0  1  0  0  0  0  0  0  0  0  0
    3.2753    0.0067    7.6635 N   0  0  0  0  0  0  0  0  0  0  0  0
    5.2246   -1.5255    7.5551 C   0  0  0  0  0  0  0  0  0  0  0  0
    8.5334   -2.9000   11.0265 C   0  0  0  0  0  0  0  0  0  0  0  0
    8.3883   -2.2578   12.3870 C   0  0  0  0  0  0  0  0  0  0  0  0
    9.4524   -1.2862   12.7138 N   0  0  0  0  0  0  0  0  0  0  0  0
   10.5663   -0.3195   12.5836 C   0  0  0  0  0  0  0  0  0  0  0  0
   11.7012   -1.3414   12.4393 C   0  0  0  0  0  0  0  0  0  0  0  0
   13.0894   -0.7078   12.6481 C   0  0  0  0  0  0  0  0  0  0  0  0
   14.1994   -1.7281   12.4148 C   0  0  0  0  0  0  0  0  0  0  0  0
   15.5013   -1.0973   12.5795 N   0  0  0  0  0  0  0  0  0  0  0  0
    5.7134   -3.6192    4.9230 N   0  0  0  0  0  0  0  0  0  0  0  0
    8.1445   -1.9567    6.4634 C   0  0  0  0  0  0  0  0  0  0  0  0
    8.1384   -0.8935    6.2802 O   0  0  0  0  0  0  0  0  0  0  0  0
    8.8284   -3.1986    5.9460 C   0  0  2  0  0  0  0  0  0  0  0  0
   10.1414   -2.9504    5.6355 O   0  0  0  0  0  0  0  0  0  0  0  0
    8.1318   -3.5766    4.6435 C   0  0  0  0  0  0  0  0  0  0  0  0
    6.8917   -4.4820    4.7543 C   0  0  0  0  0  0  0  0  0  0  0  0
  1  2  1  1  0  0  0
  1  3  1  0  0  0  0
  3  4  1  6  0  0  0
  3  5  1  0  0  0  0
  5  6  1  1  0  0  0
  5  7  1  0  0  0  0
  7  8  1  1  0  0  0
  9  7  1  0  0  0  0
  9 10  1  0  0  0  0
  9 11  1  1  0  0  0
 10  1  1  0  0  0  0
 11 12  1  0  0  0  0
 13 14  1  6  0  0  0
 13 15  1  0  0  0  0
 13 22  1  0  0  0  0
 14 32  1  0  0  0  0
 15 16  1  1  0  0  0
 15 17  1  0  0  0  0
 16 23  1  0  0  0  0
 17 18  1  6  0  0  0
 17 19  1  0  0  0  0
 19  2  1  1  0  0  0
 19 20  1  0  0  0  0
 20 21  1  6  0  0  0
 20 22  1  0  0  0  0
 23 24  1  0  0  0  0
 24 25  1  0  0  0  0
 25 26  1  0  0  0  0
 26 27  1  0  0  0  0
 27 28  1  0  0  0  0
 28 29  1  0  0  0  0
 29 30  1  0  0  0  0
 31 37  1  0  0  0  0
 32 33  2  0  0  0  0
 34 32  1  6  0  0  0
 34 35  1  0  0  0  0
 34 36  1  0  0  0  0
 36 37  1  0  0  0  0
M  END
>  <CHROM.1>
153.46511435,69.12015120,-61.62541849,-69.43767922,-72.53734769,-89.74076260
-81.49865273,19.80872959,-80.59870162,-164.87839281,-176.53299533,178.34931391
-143.28914077,-87.52550022,88.85068055,6.69643720,-1.22206887,10.09261546
2.82081479,-0.16487498,1.23266265

>  <Name>
1o9m_lig

>  <RI>
0

>  <Rbt.Current_Directory>
/home/itssahil/PROJECTS/Mol_Feturizer/New_Systems/rnas/1o9m

>  <Rbt.Executable>
rbdock ($Id: //depot/dev/client3/rdock/2013.1/src/exe/rbdock.cxx#4 $)

>  <Rbt.Library>
libRbt.so (2013.1, Build901 2013/11/27)

>  <Rbt.Parameter_File>
/export/apps/rDock/src/rDock_2013.1_src/data/scripts/dock_solv.prm

>  <Rbt.Receptor>
prm/blind_docking_40.prm

>  <SCORE>
-6.76494

>  <SCORE.INTER>
-8.124

>  <SCORE.INTER.CONST>
1

>  <SCORE.INTER.POLAR>
-2.6016

>  <SCORE.INTER.ROT>
15

>  <SCORE.INTER.SOLV>
15.9502

>  <SCORE.INTER.VDW>
-15.6607

>  <SCORE.INTER.norm>
-0.219568

>  <SCORE.INTRA>
1.35599

>  <SCORE.INTRA.DIHEDRAL>
-3.01418

>  <SCORE.INTRA.DIHEDRAL.0>
21.5987

>  <SCORE.INTRA.POLAR>
0

>  <SCORE.INTRA.POLAR.0>
0

>  <SCORE.INTRA.REPUL>
0

>  <SCORE.INTRA.REPUL.0>
0

>  <SCORE.INTRA.SOLV>
6.28257

>  <SCORE.INTRA.SOLV.lig_0>
-108.715

>  <SCORE.INTRA.VDW>
-0.278198

>  <SCORE.INTRA.VDW.0>
-3.9485

>  <SCORE.INTRA.norm>
0.0366485

>  <SCORE.RESTR>
0.00305826

>  <SCORE.RESTR.CAVITY>
0.00305826

>  <SCORE.RESTR.norm>
8.26558e-05

>  <SCORE.SYSTEM>
0

>  <SCORE.SYSTEM.CONST>
0

>  <SCORE.SYSTEM.DIHEDRAL>
0

>  <SCORE.SYSTEM.SOLV>
0

>  <SCORE.SYSTEM.norm>
0

>  <SCORE.heavy>
37

>  <SCORE.norm>
-0.182836

>  <RMSD>
24.197

$$$$
1o9m_lig
 OpenBabel11021811403D
libRbt.so/2013.1/901 2013/11/27
 37 38  0  0  0  0  0  0  0  0999 V2000
    9.8540   -2.9488    9.1837 C   0  0  2  0  0  0  0  0  0  0  0  0
    9.8427   -1.5227    9.4974 O   0  0  0  0  0  0  0  0  0  0  0  0
   10.7621   -3.6352   10.2694 C   0  0  2  0  0  0  0  0  0  0  0  0
   10.2635   -3.4072   11.6370 N   0  0  0  0  0  0  0  0  0  0  0  0
   12.2377   -3.1028   10.1174 C   0  0  1  0  0  0  0  0  0  0  0  0
   13.0848   -3.7144   11.0941 O   0  0  0  0  0  0  0  0  0  0  0  0
   12.7121   -3.3962    8.6558 C   0  0  2  0  0  0  0  0  0  0  0  0
   14.0483   -2.9337    8.3999 O   0  0  0  0  0  0  0  0  0  0  0  0
   11.7525   -2.7455    7.6292 C   0  0  2  0  0  0  0  0  0  0  0  0
   10.4022   -3.1820    7.8429 O   0  0  0  0  0  0  0  0  0  0  0  0
   12.1558   -3.0604    6.2119 C   0  0  0  0  0  0  0  0  0  0  0  0
   12.1454   -4.4193    6.0050 N   0  0  0  0  0  0  0  0  0  0  0  0
    6.4950   -0.9953   12.2058 C   0  0  1  0  0  0  0  0  0  0  0  0
    5.3679   -0.3420   12.9286 N   0  0  0  0  0  0  0  0  0  0  0  0
    6.2132   -0.9477   10.7102 C   0  0  2  0  0  0  0  0  0  0  0  0
    4.9894   -1.5810   10.4835 O   0  0  0  0  0  0  0  0  0  0  0  0
    7.3625   -1.6394    9.9111 C   0  0  1  0  0  0  0  0  0  0  0  0
    7.0917   -1.5682    8.4779 O   0  0  0  0  0  0  0  0  0  0  0  0
    8.7320   -0.9027   10.2066 C   0  0  1  0  0  0  0  0  0  0  0  0
    9.0340   -0.9600   11.6964 C   0  0  1  0  0  0  0  0  0  0  0  0
   10.3025   -0.2912   11.9437 N   0  0  0  0  0  0  0  0  0  0  0  0
    7.8821   -0.2898   12.4921 C   0  0  0  0  0  0  0  0  0  0  0  0
    3.5580   -1.7715   10.4476 C   0  0  0  0  0  0  0  0  0  0  0  0
    3.2562   -3.2041   10.0722 C   0  0  0  0  0  0  0  0  0  0  0  0
    1.8665   -3.4325    9.6257 N   0  0  0  0  0  0  0  0  0  0  0  0
    0.6487   -3.4963    8.7858 C   0  0  0  0  0  0  0  0  0  0  0  0
    1.2690   -2.9501    7.4935 C   0  0  0  0  0  0  0  0  0  0  0  0
    0.2027   -2.5240    6.4670 C   0  0  0  0  0  0  0  0  0  0  0  0
   -0.6045   -3.7247    5.9833 C   0  0  0  0  0  0  0  0  0  0  0  0
   -1.5122   -3.3210    4.9186 N   0  0  0  0  0  0  0  0  0  0  0  0
    2.4328    3.0902   15.4933 N   0  0  0  0  0  0  0  0  0  0  0  0
    5.1061    1.3176   12.3596 C   0  0  0  0  0  0  0  0  0  0  0  0
    5.5630    1.9486   11.6131 O   0  0  0  0  0  0  0  0  0  0  0  0
    4.0107    1.3870   13.3954 C   0  0  2  0  0  0  0  0  0  0  0  0
    3.0253    0.4676   13.1391 O   0  0  0  0  0  0  0  0  0  0  0  0
    3.3704    2.7650   13.2699 C   0  0  0  0  0  0  0  0  0  0  0  0
    2.0773    3.0074   14.0693 C   0  0  0  0  0  0  0  0  0  0  0  0
  1  2  1  1  0  0  0
  1  3  1  0  0  0  0
  3  4  1  1  0  0  0
  3  5  1  0  0  0  0
  5  6  1  1  0  0  0
  5  7  1  0  0  0  0
  7  8  1  1  0  0  0
  9  7  1  0  0  0  0
  9 10  1  0  0  0  0
  9 11  1  6  0  0  0
 10  1  1  0  0  0  0
 11 12  1  0  0  0  0
 13 14  1  1  0  0  0
 13 15  1  0  0  0  0
 13 22  1  0  0  0  0
 14 32  1  0  0  0  0
 15 16  1  1  0  0  0
 15 17  1  0  0  0  0
 16 23  1  0  0  0  0
 17 18  1  6  0  0  0
 17 19  1  0  0  0  0
 19  2  1  6  0  0  0
 19 20  1  0  0  0  0
 20 21  1  6  0  0  0
 20 22  1  0  0  0  0
 23 24  1  0  0  0  0
 24 25  1  0  0  0  0
 25 26  1  0  0  0  0
 26 27  1  0  0  0  0
 27 28  1  0  0  0  0
 28 29  1  0  0  0  0
 29 30  1  0  0  0  0
 31 37  1  0  0  0  0
 32 33  2  0  0  0  0
 34 32  1  6  0  0  0
 34 35  1  0  0  0  0
 34 36  1  0  0  0  0
 36 37  1  0  0  0  0
M  END
>  <CHROM.1>
-99.97251250,59.76357973,-56.20099293,76.04082697,-172.09942129,-30.12321064
-163.31518064,81.02837713,0.31827406,-165.05323114,-65.06259289,-174.31238653
-62.05495817,170.64029490,71.44424870,6.68766436,-1.57256110,10.11246083
0.22282430,0.09581801,-2.21426740

>  <Name>
1o9m_lig

>  <RI>
0

>  <Rbt.Current_Directory>
/home/itssahil/PROJECTS/Mol_Feturizer/New_Systems/rnas/1o9m

>  <Rbt.Executable>
rbdock ($Id: //depot/dev/client3/rdock/2013.1/src/exe/rbdock.cxx#4 $)

>  <Rbt.Library>
libRbt.so (2013.1, Build901 2013/11/27)

>  <Rbt.Parameter_File>
/export/apps/rDock/src/rDock_2013.1_src/data/scripts/dock_solv.prm

>  <Rbt.Receptor>
prm/blind_docking_40.prm

>  <SCORE>
0.964774

>  <SCORE.INTER>
-0.848991

>  <SCORE.INTER.CONST>
1

>  <SCORE.INTER.POLAR>
-0.851032

>  <SCORE.INTER.ROT>
15

>  <SCORE.INTER.SOLV>
16.683

>  <SCORE.INTER.VDW>
-16.8902

>  <SCORE.INTER.norm>
-0.0229457

>  <SCORE.INTRA>
1.78728

>  <SCORE.INTRA.DIHEDRAL>
-5.95516

>  <SCORE.INTRA.DIHEDRAL.0>
21.5987

>  <SCORE.INTRA.POLAR>
0

>  <SCORE.INTRA.POLAR.0>
0

>  <SCORE.INTRA.REPUL>
0

>  <SCORE.INTRA.REPUL.0>
0

>  <SCORE.INTRA.SOLV>
6.19604

>  <SCORE.INTRA.SOLV.lig_0>
-108.715

>  <SCORE.INTRA.VDW>
1.66684

>  <SCORE.INTRA.VDW.0>
-3.9485

>  <SCORE.INTRA.norm>
0.0483049

>  <SCORE.RESTR>
0.0264835

>  <SCORE.RESTR.CAVITY>
0.0264835

>  <SCORE.RESTR.norm>
0.00071577

>  <SCORE.SYSTEM>
0

>  <SCORE.SYSTEM.CONST>
0

>  <SCORE.SYSTEM.DIHEDRAL>
0

>  <SCORE.SYSTEM.SOLV>
0

>  <SCORE.SYSTEM.norm>
0

>  <SCORE.heavy>
37

>  <SCORE.norm>
0.026075

>  <RMSD>
24.199

$$$$
1o9m_lig
 OpenBabel11021811403D
libRbt.so/2013.1/901 2013/11/27
 37 38  0  0  0  0  0  0  0  0999 V2000
    3.0102    0.0846   13.8856 C   0  0  2  0  0  0  0  0  0  0  0  0
    2.8313   -0.9641   12.8853 O   0  0  0  0  0  0  0  0  0  0  0  0
    2.3355    1.3785   13.2981 C   0  0  2  0  0  0  0  0  0  0  0  0
    0.9056    1.1768   13.0057 N   0  0  0  0  0  0  0  0  0  0  0  0
    3.1134    1.8208   12.0007 C   0  0  1  0  0  0  0  0  0  0  0  0
    2.5191    2.9983   11.4478 O   0  0  0  0  0  0  0  0  0  0  0  0
    4.6140    2.0399   12.3848 C   0  0  2  0  0  0  0  0  0  0  0  0
    5.4247    2.4318   11.2650 O   0  0  0  0  0  0  0  0  0  0  0  0
    5.2112    0.7544   13.0089 C   0  0  2  0  0  0  0  0  0  0  0  0
    4.4354    0.3255   14.1374 O   0  0  0  0  0  0  0  0  0  0  0  0
    6.6410    0.9565   13.4395 C   0  0  0  0  0  0  0  0  0  0  0  0
    7.4538    1.0978   12.3401 N   0  0  0  0  0  0  0  0  0  0  0  0
    5.2835   -3.1513   10.0527 C   0  0  1  0  0  0  0  0  0  0  0  0
    6.3288   -3.4307    9.0286 N   0  0  0  0  0  0  0  0  0  0  0  0
    5.9565   -2.6134   11.3081 C   0  0  2  0  0  0  0  0  0  0  0  0
    6.8886   -3.5614   11.7354 O   0  0  0  0  0  0  0  0  0  0  0  0
    4.8982   -2.3228   12.4187 C   0  0  1  0  0  0  0  0  0  0  0  0
    5.5530   -1.7874   13.6092 O   0  0  0  0  0  0  0  0  0  0  0  0
    3.8538   -1.2570   11.8905 C   0  0  1  0  0  0  0  0  0  0  0  0
    3.1608   -1.7913   10.6463 C   0  0  1  0  0  0  0  0  0  0  0  0
    2.1958   -0.8039   10.1866 N   0  0  0  0  0  0  0  0  0  0  0  0
    4.2147   -2.0987    9.5490 C   0  0  0  0  0  0  0  0  0  0  0  0
    8.0497   -4.4199   11.6989 C   0  0  0  0  0  0  0  0  0  0  0  0
    9.2963   -3.5765   11.8381 C   0  0  0  0  0  0  0  0  0  0  0  0
   10.4439   -4.0573   11.0414 N   0  0  0  0  0  0  0  0  0  0  0  0
   11.2542   -4.7441   10.0098 C   0  0  0  0  0  0  0  0  0  0  0  0
   10.7534   -3.9464    8.7991 C   0  0  0  0  0  0  0  0  0  0  0  0
   11.4179   -2.5608    8.6956 C   0  0  0  0  0  0  0  0  0  0  0  0
   10.7202   -1.5484    9.5985 C   0  0  0  0  0  0  0  0  0  0  0  0
   11.3619   -0.2467    9.4798 N   0  0  0  0  0  0  0  0  0  0  0  0
    4.8830   -2.2367    6.0035 N   0  0  0  0  0  0  0  0  0  0  0  0
    6.7519   -1.9693    8.1165 C   0  0  0  0  0  0  0  0  0  0  0  0
    6.4375   -0.9375    8.1412 O   0  0  0  0  0  0  0  0  0  0  0  0
    7.6922   -2.8561    7.3374 C   0  0  2  0  0  0  0  0  0  0  0  0
    8.5751   -2.1136    6.5950 O   0  0  0  0  0  0  0  0  0  0  0  0
    6.8397   -3.6440    6.3490 C   0  0  0  0  0  0  0  0  0  0  0  0
    6.0393   -2.8299    5.3163 C   0  0  0  0  0  0  0  0  0  0  0  0
  1  2  1  6  0  0  0
  1  3  1  0  0  0  0
  3  4  1  6  0  0  0
  3  5  1  0  0  0  0
  5  6  1  1  0  0  0
  5  7  1  0  0  0  0
  7  8  1  6  0  0  0
  9  7  1  0  0  0  0
  9 10  1  0  0  0  0
  9 11  1  1  0  0  0
 10  1  1  0  0  0  0
 11 12  1  0  0  0  0
 13 14  1  6  0  0  0
 13 15  1  0  0  0  0
 13 22  1  0  0  0  0
 14 32  1  0  0  0  0
 15 16  1  1  0  0  0
 15 17  1  0  0  0  0
 16 23  1  0  0  0  0
 17 18  1  1  0  0  0
 17 19  1  0  0  0  0
 19  2  1  1  0  0  0
 19 20  1  0  0  0  0
 20 21  1  6  0  0  0
 20 22  1  0  0  0  0
 23 24  1  0  0  0  0
 24 25  1  0  0  0  0
 25 26  1  0  0  0  0
 26 27  1  0  0  0  0
 27 28  1  0  0  0  0
 28 29  1  0  0  0  0
 29 30  1  0  0  0  0
 31 37  1  0  0  0  0
 32 33  2  0  0  0  0
 34 32  1  6  0  0  0
 34 35  1  0  0  0  0
 34 36  1  0  0  0  0
 36 37  1  0  0  0  0
M  END
>  <CHROM.1>
94.42063918,-69.32838446,-84.08361054,61.90948863,71.76086973,88.47546741
-143.96543698,21.17667807,66.59754329,78.44664053,-82.71170225,-179.78044811
-166.23423921,60.56073935,-75.56714817,6.15321466,-1.34606289,10.61546813
-2.47684850,0.35871341,-1.93041578

>  <Name>
1o9m_lig

>  <RI>
0

>  <Rbt.Current_Directory>
/home/itssahil/PROJECTS/Mol_Feturizer/New_Systems/rnas/1o9m

>  <Rbt.Executable>
rbdock ($Id: //depot/dev/client3/rdock/2013.1/src/exe/rbdock.cxx#4 $)

>  <Rbt.Library>
libRbt.so (2013.1, Build901 2013/11/27)

>  <Rbt.Parameter_File>
/export/apps/rDock/src/rDock_2013.1_src/data/scripts/dock_solv.prm

>  <Rbt.Receptor>
prm/blind_docking_20.prm

>  <SCORE>
-1.94066

>  <SCORE.INTER>
-10.2601

>  <SCORE.INTER.CONST>
1

>  <SCORE.INTER.POLAR>
-2.83889

>  <SCORE.INTER.ROT>
15

>  <SCORE.INTER.SOLV>
14.5896

>  <SCORE.INTER.VDW>
-15.8403

>  <SCORE.INTER.norm>
-0.277299

>  <SCORE.INTRA>
7.63025

>  <SCORE.INTRA.DIHEDRAL>
-2.80224

>  <SCORE.INTRA.DIHEDRAL.0>
21.5987

>  <SCORE.INTRA.POLAR>
0

>  <SCORE.INTRA.POLAR.0>
0

>  <SCORE.INTRA.REPUL>
0

>  <SCORE.INTRA.REPUL.0>
0

>  <SCORE.INTRA.SOLV>
10.8013

>  <SCORE.INTRA.SOLV.lig_0>
-108.715

>  <SCORE.INTRA.VDW>
3.63073

>  <SCORE.INTRA.VDW.0>
-3.9485

>  <SCORE.INTRA.norm>
0.206223

>  <SCORE.RESTR>
0.689172

>  <SCORE.RESTR.CAVITY>
0.689172

>  <SCORE.RESTR.norm>
0.0186263

>  <SCORE.SYSTEM>
0

>  <SCORE.SYSTEM.CONST>
0

>  <SCORE.SYSTEM.DIHEDRAL>
0

>  <SCORE.SYSTEM.SOLV>
0

>  <SCORE.SYSTEM.norm>
0

>  <SCORE.heavy>
37

>  <SCORE.norm>
-0.0524502

>  <RMSD>
24.216

$$$$
1o9m_lig
 OpenBabel11021811403D
libRbt.so/2013.1/901 2013/11/27
 37 38  0  0  0  0  0  0  0  0999 V2000
   10.4617   -1.5843    9.3190 C   0  0  2  0  0  0  0  0  0  0  0  0
    9.9342   -1.8117    7.9764 O   0  0  0  0  0  0  0  0  0  0  0  0
   12.0125   -1.3763    9.1575 C   0  0  2  0  0  0  0  0  0  0  0  0
   12.3329   -0.2419    8.2735 N   0  0  0  0  0  0  0  0  0  0  0  0
   12.6564   -2.7076    8.6126 C   0  0  1  0  0  0  0  0  0  0  0  0
   14.0689   -2.5442    8.4587 O   0  0  0  0  0  0  0  0  0  0  0  0
   12.2991   -3.8623    9.6058 C   0  0  2  0  0  0  0  0  0  0  0  0
   12.8254   -5.1345    9.1944 O   0  0  0  0  0  0  0  0  0  0  0  0
   10.7641   -3.9857    9.7703 C   0  0  2  0  0  0  0  0  0  0  0  0
   10.1920   -2.7369   10.1858 O   0  0  0  0  0  0  0  0  0  0  0  0
   10.3945   -5.0547   10.7658 C   0  0  0  0  0  0  0  0  0  0  0  0
    9.0279   -5.1437   10.8832 N   0  0  0  0  0  0  0  0  0  0  0  0
    5.8885   -2.0465    6.4280 C   0  0  1  0  0  0  0  0  0  0  0  0
    4.4995   -2.5382    6.2083 N   0  0  0  0  0  0  0  0  0  0  0  0
    6.0664   -1.7186    7.9042 C   0  0  2  0  0  0  0  0  0  0  0  0
    5.0995   -0.7736    8.2537 O   0  0  0  0  0  0  0  0  0  0  0  0
    7.5060   -1.1804    8.1792 C   0  0  1  0  0  0  0  0  0  0  0  0
    7.6711   -0.8904    9.6009 O   0  0  0  0  0  0  0  0  0  0  0  0
    8.5705   -2.2731    7.7566 C   0  0  1  0  0  0  0  0  0  0  0  0
    8.4151   -2.5955    6.2781 C   0  0  1  0  0  0  0  0  0  0  0  0
    9.4115   -3.5893    5.9078 N   0  0  0  0  0  0  0  0  0  0  0  0
    6.9778   -3.1119    6.0013 C   0  0  0  0  0  0  0  0  0  0  0  0
    4.2457    0.0313    9.0962 C   0  0  0  0  0  0  0  0  0  0  0  0
    3.2990   -0.8722    9.8526 C   0  0  0  0  0  0  0  0  0  0  0  0
    3.9671   -1.8030   10.7855 N   0  0  0  0  0  0  0  0  0  0  0  0
    4.4465   -2.4507   12.0277 C   0  0  0  0  0  0  0  0  0  0  0  0
    4.6565   -1.1731   12.8504 C   0  0  0  0  0  0  0  0  0  0  0  0
    3.7875   -1.1461   14.1217 C   0  0  0  0  0  0  0  0  0  0  0  0
    2.3052   -1.0584   13.7717 C   0  0  0  0  0  0  0  0  0  0  0  0
    1.5124   -0.9173   14.9849 N   0  0  0  0  0  0  0  0  0  0  0  0
   -0.3401   -2.8914    5.8182 N   0  0  0  0  0  0  0  0  0  0  0  0
    3.8749   -2.0353    4.6260 C   0  0  0  0  0  0  0  0  0  0  0  0
    4.2696   -1.4724    3.7944 O   0  0  0  0  0  0  0  0  0  0  0  0
    2.5986   -2.7341    5.0262 C   0  0  2  0  0  0  0  0  0  0  0  0
    1.8178   -3.0084    3.9320 O   0  0  0  0  0  0  0  0  0  0  0  0
    1.8130   -1.7569    5.8937 C   0  0  0  0  0  0  0  0  0  0  0  0
    0.6664   -2.3419    6.7380 C   0  0  0  0  0  0  0  0  0  0  0  0
  1  2  1  6  0  0  0
  1  3  1  0  0  0  0
  3  4  1  6  0  0  0
  3  5  1  0  0  0  0
  5  6  1  1  0  0  0
  5  7  1  0  0  0  0
  7  8  1  6  0  0  0
  9  7  1  0  0  0  0
  9 10  1  0  0  0  0
  9 11  1  1  0  0  0
 10  1  1  0  0  0  0
 11 12  1  0  0  0  0
 13 14  1  1  0  0  0
 13 15  1  0  0  0  0
 13 22  1  0  0  0  0
 14 32  1  0  0  0  0
 15 16  1  6  0  0  0
 15 17  1  0  0  0  0
 16 23  1  0  0  0  0
 17 18  1  1  0  0  0
 17 19  1  0  0  0  0
 19  2  1  6  0  0  0
 19 20  1  0  0  0  0
 20 21  1  1  0  0  0
 20 22  1  0  0  0  0
 23 24  1  0  0  0  0
 24 25  1  0  0  0  0
 25 26  1  0  0  0  0
 26 27  1  0  0  0  0
 27 28  1  0  0  0  0
 28 29  1  0  0  0  0
 29 30  1  0  0  0  0
 31 37  1  0  0  0  0
 32 33  2  0  0  0  0
 34 32  1  6  0  0  0
 34 35  1  0  0  0  0
 34 36  1  0  0  0  0
 36 37  1  0  0  0  0
M  END
>  <CHROM.1>
169.10715547,-179.68298113,145.60169020,163.34410472,-63.51625903,67.26372653
63.48082020,108.50165041,-35.51075270,119.57855206,-66.43926146,-175.08858855
-161.27589554,-163.92904015,-63.19876658,6.76848222,-2.23031742,8.59563586
0.09418931,-0.13225242,1.47148218

>  <Name>
1o9m_lig

>  <RI>
0

>  <Rbt.Current_Directory>
/home/itssahil/PROJECTS/Mol_Feturizer/New_Systems/rnas/1o9m

>  <Rbt.Executable>
rbdock ($Id: //depot/dev/client3/rdock/2013.1/src/exe/rbdock.cxx#4 $)

>  <Rbt.Library>
libRbt.so (2013.1, Build901 2013/11/27)

>  <Rbt.Parameter_File>
/export/apps/rDock/src/rDock_2013.1_src/data/scripts/dock_solv.prm

>  <Rbt.Receptor>
prm/blind_docking_60.prm

>  <SCORE>
-6.33453

>  <SCORE.INTER>
-1.96942

>  <SCORE.INTER.CONST>
1

>  <SCORE.INTER.POLAR>
0

>  <SCORE.INTER.ROT>
15

>  <SCORE.INTER.SOLV>
16.291

>  <SCORE.INTER.VDW>
-20.3433

>  <SCORE.INTER.norm>
-0.0532276

>  <SCORE.INTRA>
-4.37594

>  <SCORE.INTRA.DIHEDRAL>
-9.09602

>  <SCORE.INTRA.DIHEDRAL.0>
21.5987

>  <SCORE.INTRA.POLAR>
0

>  <SCORE.INTRA.POLAR.0>
0

>  <SCORE.INTRA.REPUL>
0

>  <SCORE.INTRA.REPUL.0>
0

>  <SCORE.INTRA.SOLV>
1.56401

>  <SCORE.INTRA.SOLV.lig_0>
-108.715

>  <SCORE.INTRA.VDW>
-0.609938

>  <SCORE.INTRA.VDW.0>
-3.9485

>  <SCORE.INTRA.norm>
-0.118269

>  <SCORE.RESTR>
0.010828

>  <SCORE.RESTR.CAVITY>
0.010828

>  <SCORE.RESTR.norm>
0.000292648

>  <SCORE.SYSTEM>
0

>  <SCORE.SYSTEM.CONST>
0

>  <SCORE.SYSTEM.DIHEDRAL>
0

>  <SCORE.SYSTEM.SOLV>
0

>  <SCORE.SYSTEM.norm>
0

>  <SCORE.heavy>
37

>  <SCORE.norm>
-0.171204

>  <RMSD>
24.219

$$$$
1o9m_lig
 OpenBabel11021811403D
libRbt.so/2013.1/901 2013/11/27
 37 38  0  0  0  0  0  0  0  0999 V2000
   10.9829   -1.0944    8.2752 C   0  0  2  0  0  0  0  0  0  0  0  0
   10.7376   -0.8689    9.6969 O   0  0  0  0  0  0  0  0  0  0  0  0
   11.1663   -2.6465    8.0969 C   0  0  2  0  0  0  0  0  0  0  0  0
    9.9842   -3.4020    8.5472 N   0  0  0  0  0  0  0  0  0  0  0  0
   12.4541   -3.1060    8.8806 C   0  0  1  0  0  0  0  0  0  0  0  0
   12.6439   -4.5158    8.7321 O   0  0  0  0  0  0  0  0  0  0  0  0
   13.6710   -2.2850    8.3396 C   0  0  2  0  0  0  0  0  0  0  0  0
   14.9036   -2.6136    9.0011 O   0  0  0  0  0  0  0  0  0  0  0  0
   13.4135   -0.7651    8.4881 C   0  0  2  0  0  0  0  0  0  0  0  0
   12.1916   -0.3872    7.8374 O   0  0  0  0  0  0  0  0  0  0  0  0
   14.5477    0.0500    7.9225 C   0  0  0  0  0  0  0  0  0  0  0  0
   14.2753    1.3920    8.0425 N   0  0  0  0  0  0  0  0  0  0  0  0
    7.0389    0.0060   11.7885 C   0  0  1  0  0  0  0  0  0  0  0  0
    5.8447    0.7572   12.2672 N   0  0  0  0  0  0  0  0  0  0  0  0
    6.9944   -0.0714   10.2685 C   0  0  2  0  0  0  0  0  0  0  0  0
    5.7927   -0.6828    9.9048 O   0  0  0  0  0  0  0  0  0  0  0  0
    8.2206   -0.8684    9.7216 C   0  0  1  0  0  0  0  0  0  0  0  0
    8.1783   -0.9170    8.2627 O   0  0  0  0  0  0  0  0  0  0  0  0
    9.5602   -0.1525   10.1675 C   0  0  1  0  0  0  0  0  0  0  0  0
    9.6251   -0.0860   11.6858 C   0  0  1  0  0  0  0  0  0  0  0  0
   10.8694    0.5612   12.0739 N   0  0  0  0  0  0  0  0  0  0  0  0
    8.3958    0.6893   12.2308 C   0  0  0  0  0  0  0  0  0  0  0  0
    4.7618   -1.2236    9.0496 C   0  0  0  0  0  0  0  0  0  0  0  0
    3.6574   -1.8000    9.9056 C   0  0  0  0  0  0  0  0  0  0  0  0
    2.4838   -2.2716    9.1419 N   0  0  0  0  0  0  0  0  0  0  0  0
    1.2843   -2.2961    8.2742 C   0  0  0  0  0  0  0  0  0  0  0  0
    0.8055   -3.7078    8.6357 C   0  0  0  0  0  0  0  0  0  0  0  0
   -0.6417   -3.9701    8.1786 C   0  0  0  0  0  0  0  0  0  0  0  0
   -1.1075   -5.3600    8.6009 C   0  0  0  0  0  0  0  0  0  0  0  0
   -0.4069   -6.3779    7.8306 N   0  0  0  0  0  0  0  0  0  0  0  0
    1.9722    2.8481   11.5769 N   0  0  0  0  0  0  0  0  0  0  0  0
    4.5796   -0.3393   12.8535 C   0  0  0  0  0  0  0  0  0  0  0  0
    4.4834   -1.4095   12.9512 O   0  0  0  0  0  0  0  0  0  0  0  0
    3.7656    0.9061   13.1064 C   0  0  2  0  0  0  0  0  0  0  0  0
    3.6091    1.1334   14.4502 O   0  0  0  0  0  0  0  0  0  0  0  0
    2.3743    0.6477   12.5387 C   0  0  0  0  0  0  0  0  0  0  0  0
    1.4080    1.8452   12.4917 C   0  0  0  0  0  0  0  0  0  0  0  0
  1  2  1  1  0  0  0
  1  3  1  0  0  0  0
  3  4  1  1  0  0  0
  3  5  1  0  0  0  0
  5  6  1  6  0  0  0
  5  7  1  0  0  0  0
  7  8  1  1  0  0  0
  9  7  1  0  0  0  0
  9 10  1  0  0  0  0
  9 11  1  6  0  0  0
 10  1  1  0  0  0  0
 11 12  1  0  0  0  0
 13 14  1  6  0  0  0
 13 15  1  0  0  0  0
 13 22  1  0  0  0  0
 14 32  1  0  0  0  0
 15 16  1  1  0  0  0
 15 17  1  0  0  0  0
 16 23  1  0  0  0  0
 17 18  1  6  0  0  0
 17 19  1  0  0  0  0
 19  2  1  1  0  0  0
 19 20  1  0  0  0  0
 20 21  1  6  0  0  0
 20 22  1  0  0  0  0
 23 24  1  0  0  0  0
 24 25  1  0  0  0  0
 25 26  1  0  0  0  0
 26 27  1  0  0  0  0
 27 28  1  0  0  0  0
 28 29  1  0  0  0  0
 29 30  1  0  0  0  0
 31 37  1  0  0  0  0
 32 33  2  0  0  0  0
 34 32  1  1  0  0  0
 34 35  1  0  0  0  0
 34 36  1  0  0  0  0
 36 37  1  0  0  0  0
M  END
>  <CHROM.1>
-124.97995621,178.65461068,100.43003016,179.66073799,178.19615254,59.81197836
174.57990112,-63.88684510,-166.61837535,165.66266306,-177.72940443,-69.99759557
-110.66391512,-171.51949465,63.85415204,7.16278119,-1.15749788,9.98952025
0.05032219,-0.13323576,-2.43018826

>  <Name>
1o9m_lig

>  <RI>
0

>  <Rbt.Current_Directory>
/home/itssahil/PROJECTS/Mol_Feturizer/New_Systems/rnas/1o9m

>  <Rbt.Executable>
rbdock ($Id: //depot/dev/client3/rdock/2013.1/src/exe/rbdock.cxx#4 $)

>  <Rbt.Library>
libRbt.so (2013.1, Build901 2013/11/27)

>  <Rbt.Parameter_File>
/export/apps/rDock/src/rDock_2013.1_src/data/scripts/dock_solv.prm

>  <Rbt.Receptor>
prm/blind_docking_20.prm

>  <SCORE>
-9.68144

>  <SCORE.INTER>
-4.91825

>  <SCORE.INTER.CONST>
1

>  <SCORE.INTER.POLAR>
-1.62688

>  <SCORE.INTER.ROT>
15

>  <SCORE.INTER.SOLV>
22.4319

>  <SCORE.INTER.VDW>
-18.9332

>  <SCORE.INTER.norm>
-0.132926

>  <SCORE.INTRA>
-4.76319

>  <SCORE.INTRA.DIHEDRAL>
-9.6187

>  <SCORE.INTRA.DIHEDRAL.0>
21.5987

>  <SCORE.INTRA.POLAR>
0

>  <SCORE.INTRA.POLAR.0>
0

>  <SCORE.INTRA.REPUL>
0

>  <SCORE.INTRA.REPUL.0>
0

>  <SCORE.INTRA.SOLV>
2.04449

>  <SCORE.INTRA.SOLV.lig_0>
-108.715

>  <SCORE.INTRA.VDW>
-0.976086

>  <SCORE.INTRA.VDW.0>
-3.9485

>  <SCORE.INTRA.norm>
-0.128735

>  <SCORE.RESTR>
0

>  <SCORE.RESTR.CAVITY>
0

>  <SCORE.RESTR.norm>
0

>  <SCORE.SYSTEM>
0

>  <SCORE.SYSTEM.CONST>
0

>  <SCORE.SYSTEM.DIHEDRAL>
0

>  <SCORE.SYSTEM.SOLV>
0

>  <SCORE.SYSTEM.norm>
0

>  <SCORE.heavy>
37

>  <SCORE.norm>
-0.26166

>  <RMSD>
24.223

$$$$
1o9m_lig
 OpenBabel11021811403D
libRbt.so/2013.1/901 2013/11/27
 37 38  0  0  0  0  0  0  0  0999 V2000
   12.1846   -1.9918   11.5341 C   0  0  2  0  0  0  0  0  0  0  0  0
   11.8357   -0.8242   10.7298 O   0  0  0  0  0  0  0  0  0  0  0  0
   13.5551   -2.5235   10.9742 C   0  0  2  0  0  0  0  0  0  0  0  0
   14.6181   -1.5058   11.0460 N   0  0  0  0  0  0  0  0  0  0  0  0
   13.3498   -3.0123    9.4900 C   0  0  1  0  0  0  0  0  0  0  0  0
   14.5835   -3.5029    8.9582 O   0  0  0  0  0  0  0  0  0  0  0  0
   12.2291   -4.1038    9.4884 C   0  0  2  0  0  0  0  0  0  0  0  0
   11.9464   -4.6108    8.1739 O   0  0  0  0  0  0  0  0  0  0  0  0
   10.9212   -3.5445   10.1007 C   0  0  2  0  0  0  0  0  0  0  0  0
   11.1533   -3.0292   11.4197 O   0  0  0  0  0  0  0  0  0  0  0  0
    9.8416   -4.5939   10.1625 C   0  0  0  0  0  0  0  0  0  0  0  0
    8.7547   -4.1181   10.8565 N   0  0  0  0  0  0  0  0  0  0  0  0
    7.6325   -0.2030   11.6057 C   0  0  1  0  0  0  0  0  0  0  0  0
    6.3105    0.4749   11.7174 N   0  0  0  0  0  0  0  0  0  0  0  0
    8.0606   -0.2079   10.1444 C   0  0  2  0  0  0  0  0  0  0  0  0
    7.0630   -0.8489    9.4069 O   0  0  0  0  0  0  0  0  0  0  0  0
    9.4362   -0.9269    9.9761 C   0  0  1  0  0  0  0  0  0  0  0  0
    9.8462   -0.9059    8.5747 O   0  0  0  0  0  0  0  0  0  0  0  0
   10.5341   -0.1799   10.8379 C   0  0  1  0  0  0  0  0  0  0  0  0
   10.1265   -0.1850   12.3034 C   0  0  1  0  0  0  0  0  0  0  0  0
   11.1551    0.4923   13.0784 N   0  0  0  0  0  0  0  0  0  0  0  0
    8.7496    0.5124   12.4682 C   0  0  0  0  0  0  0  0  0  0  0  0
    6.4134   -1.4714    8.2768 C   0  0  0  0  0  0  0  0  0  0  0  0
    5.0123   -1.8789    8.6710 C   0  0  0  0  0  0  0  0  0  0  0  0
    4.0370   -0.7691    8.6709 N   0  0  0  0  0  0  0  0  0  0  0  0
    3.0101    0.2045    8.2347 C   0  0  0  0  0  0  0  0  0  0  0  0
    2.8126    0.9043    9.5853 C   0  0  0  0  0  0  0  0  0  0  0  0
    1.6446    1.9080    9.5592 C   0  0  0  0  0  0  0  0  0  0  0  0
    1.2100    2.2817   10.9730 C   0  0  0  0  0  0  0  0  0  0  0  0
    2.2532    3.0581   11.6281 N   0  0  0  0  0  0  0  0  0  0  0  0
    2.5725    0.3818   15.1038 N   0  0  0  0  0  0  0  0  0  0  0  0
    5.4642    0.0072   13.2045 C   0  0  0  0  0  0  0  0  0  0  0  0
    5.6897   -0.6381   14.0393 O   0  0  0  0  0  0  0  0  0  0  0  0
    4.3453    0.8974   12.7217 C   0  0  2  0  0  0  0  0  0  0  0  0
    4.1411    1.9486   13.5791 O   0  0  0  0  0  0  0  0  0  0  0  0
    3.0724    0.0583   12.7429 C   0  0  0  0  0  0  0  0  0  0  0  0
    2.7261   -0.6481   14.0661 C   0  0  0  0  0  0  0  0  0  0  0  0
  1  2  1  6  0  0  0
  1  3  1  0  0  0  0
  3  4  1  6  0  0  0
  3  5  1  0  0  0  0
  5  6  1  1  0  0  0
  5  7  1  0  0  0  0
  7  8  1  6  0  0  0
  9  7  1  0  0  0  0
  9 10  1  0  0  0  0
  9 11  1  1  0  0  0
 10  1  1  0  0  0  0
 11 12  1  0  0  0  0
 13 14  1  6  0  0  0
 13 15  1  0  0  0  0
 13 22  1  0  0  0  0
 14 32  1  0  0  0  0
 15 16  1  6  0  0  0
 15 17  1  0  0  0  0
 16 23  1  0  0  0  0
 17 18  1  6  0  0  0
 17 19  1  0  0  0  0
 19  2  1  1  0  0  0
 19 20  1  0  0  0  0
 20 21  1  1  0  0  0
 20 22  1  0  0  0  0
 23 24  1  0  0  0  0
 24 25  1  0  0  0  0
 25 26  1  0  0  0  0
 26 27  1  0  0  0  0
 27 28  1  0  0  0  0
 28 29  1  0  0  0  0
 29 30  1  0  0  0  0
 31 37  1  0  0  0  0
 32 33  2  0  0  0  0
 34 32  1  1  0  0  0
 34 35  1  0  0  0  0
 34 36  1  0  0  0  0
 36 37  1  0  0  0  0
M  END
>  <CHROM.1>
171.17294782,172.60542605,158.53149023,-170.08194302,-178.51317929,-82.22010391
79.19692035,89.82956848,176.92759313,-172.83848038,163.54652233,68.08395844
-116.74056224,53.30925706,59.68552920,7.80199078,-0.90610181,10.90510115
-0.28537456,-0.28480817,1.16102866

>  <Name>
1o9m_lig

>  <RI>
0

>  <Rbt.Current_Directory>
/home/itssahil/PROJECTS/Mol_Feturizer/New_Systems/rnas/1o9m

>  <Rbt.Executable>
rbdock ($Id: //depot/dev/client3/rdock/2013.1/src/exe/rbdock.cxx#4 $)

>  <Rbt.Library>
libRbt.so (2013.1, Build901 2013/11/27)

>  <Rbt.Parameter_File>
/export/apps/rDock/src/rDock_2013.1_src/data/scripts/dock_solv.prm

>  <Rbt.Receptor>
prm/blind_docking_60.prm

>  <SCORE>
-12.1613

>  <SCORE.INTER>
-10.2747

>  <SCORE.INTER.CONST>
1

>  <SCORE.INTER.POLAR>
-2.70265

>  <SCORE.INTER.ROT>
15

>  <SCORE.INTER.SOLV>
18.1256

>  <SCORE.INTER.VDW>
-17.4828

>  <SCORE.INTER.norm>
-0.277694

>  <SCORE.INTRA>
-2.42829

>  <SCORE.INTRA.DIHEDRAL>
-12.0863

>  <SCORE.INTRA.DIHEDRAL.0>
21.5987

>  <SCORE.INTRA.POLAR>
0

>  <SCORE.INTRA.POLAR.0>
0

>  <SCORE.INTRA.REPUL>
0.0250675

>  <SCORE.INTRA.REPUL.0>
0

>  <SCORE.INTRA.SOLV>
9.6612

>  <SCORE.INTRA.SOLV.lig_0>
-108.715

>  <SCORE.INTRA.VDW>
-1.34108

>  <SCORE.INTRA.VDW.0>
-3.9485

>  <SCORE.INTRA.norm>
-0.0656293

>  <SCORE.RESTR>
0.541625

>  <SCORE.RESTR.CAVITY>
0.541625

>  <SCORE.RESTR.norm>
0.0146385

>  <SCORE.SYSTEM>
0

>  <SCORE.SYSTEM.CONST>
0

>  <SCORE.SYSTEM.DIHEDRAL>
0

>  <SCORE.SYSTEM.SOLV>
0

>  <SCORE.SYSTEM.norm>
0

>  <SCORE.heavy>
37

>  <SCORE.norm>
-0.328685

>  <RMSD>
24.223

$$$$
1o9m_lig
 OpenBabel11021811403D
libRbt.so/2013.1/901 2013/11/27
 37 38  0  0  0  0  0  0  0  0999 V2000
   10.6487   -2.7452    7.1796 C   0  0  2  0  0  0  0  0  0  0  0  0
    9.6738   -3.8318    7.1453 O   0  0  0  0  0  0  0  0  0  0  0  0
   12.0600   -3.4198    7.3452 C   0  0  2  0  0  0  0  0  0  0  0  0
   12.3620   -4.3553    6.2476 N   0  0  0  0  0  0  0  0  0  0  0  0
   12.1186   -4.1557    8.7376 C   0  0  1  0  0  0  0  0  0  0  0  0
   13.3950   -4.7767    8.9129 O   0  0  0  0  0  0  0  0  0  0  0  0
   11.8133   -3.1050    9.8558 C   0  0  2  0  0  0  0  0  0  0  0  0
   11.8240   -3.6752   11.1747 O   0  0  0  0  0  0  0  0  0  0  0  0
   10.4395   -2.4326    9.6128 C   0  0  2  0  0  0  0  0  0  0  0  0
   10.3825   -1.8431    8.3057 O   0  0  0  0  0  0  0  0  0  0  0  0
   10.1462   -1.3752   10.6455 C   0  0  0  0  0  0  0  0  0  0  0  0
    9.1263   -0.5602   10.2157 N   0  0  0  0  0  0  0  0  0  0  0  0
    5.8619   -1.8134    7.6093 C   0  0  1  0  0  0  0  0  0  0  0  0
    4.3939   -1.5644    7.5594 N   0  0  0  0  0  0  0  0  0  0  0  0
    6.1230   -3.0444    8.4665 C   0  0  2  0  0  0  0  0  0  0  0  0
    5.5732   -2.8129    9.7292 O   0  0  0  0  0  0  0  0  0  0  0  0
    7.6542   -3.3337    8.5628 C   0  0  1  0  0  0  0  0  0  0  0  0
    7.8904   -4.5283    9.3688 O   0  0  0  0  0  0  0  0  0  0  0  0
    8.2407   -3.5752    7.1124 C   0  0  1  0  0  0  0  0  0  0  0  0
    8.0025   -2.3440    6.2515 C   0  0  1  0  0  0  0  0  0  0  0  0
    8.5616   -2.5812    4.9291 N   0  0  0  0  0  0  0  0  0  0  0  0
    6.4815   -2.0448    6.1719 C   0  0  0  0  0  0  0  0  0  0  0  0
    5.2419   -2.1063   10.9447 C   0  0  0  0  0  0  0  0  0  0  0  0
    6.5117   -1.5910   11.5823 C   0  0  0  0  0  0  0  0  0  0  0  0
    6.2896   -0.6227   12.6759 N   0  0  0  0  0  0  0  0  0  0  0  0
    5.8473    0.5699   13.4339 C   0  0  0  0  0  0  0  0  0  0  0  0
    4.3379    0.3085   13.3538 C   0  0  0  0  0  0  0  0  0  0  0  0
    3.9175   -0.9421   14.1486 C   0  0  0  0  0  0  0  0  0  0  0  0
    2.3984   -1.0651   14.2154 C   0  0  0  0  0  0  0  0  0  0  0  0
    1.8532   -1.2603   12.8794 N   0  0  0  0  0  0  0  0  0  0  0  0
    0.9961    0.6181    7.4032 N   0  0  0  0  0  0  0  0  0  0  0  0
    3.5588   -2.7948    6.5922 C   0  0  0  0  0  0  0  0  0  0  0  0
    3.8655   -3.6751    6.0490 O   0  0  0  0  0  0  0  0  0  0  0  0
    2.2985   -2.0184    6.8865 C   0  0  2  0  0  0  0  0  0  0  0  0
    1.1800   -2.7673    6.6219 O   0  0  0  0  0  0  0  0  0  0  0  0
    2.2736   -0.8352    5.9252 C   0  0  0  0  0  0  0  0  0  0  0  0
    2.1931    0.5689    6.5512 C   0  0  0  0  0  0  0  0  0  0  0  0
  1  2  1  1  0  0  0
  1  3  1  0  0  0  0
  3  4  1  6  0  0  0
  3  5  1  0  0  0  0
  5  6  1  1  0  0  0
  5  7  1  0  0  0  0
  7  8  1  1  0  0  0
  9  7  1  0  0  0  0
  9 10  1  0  0  0  0
  9 11  1  1  0  0  0
 10  1  1  0  0  0  0
 11 12  1  0  0  0  0
 13 14  1  6  0  0  0
 13 15  1  0  0  0  0
 13 22  1  0  0  0  0
 14 32  1  0  0  0  0
 15 16  1  1  0  0  0
 15 17  1  0  0  0  0
 16 23  1  0  0  0  0
 17 18  1  1  0  0  0
 17 19  1  0  0  0  0
 19  2  1  1  0  0  0
 19 20  1  0  0  0  0
 20 21  1  6  0  0  0
 20 22  1  0  0  0  0
 23 24  1  0  0  0  0
 24 25  1  0  0  0  0
 25 26  1  0  0  0  0
 26 27  1  0  0  0  0
 27 28  1  0  0  0  0
 28 29  1  0  0  0  0
 29 30  1  0  0  0  0
 31 37  1  0  0  0  0
 32 33  2  0  0  0  0
 34 32  1  6  0  0  0
 34 35  1  0  0  0  0
 34 36  1  0  0  0  0
 36 37  1  0  0  0  0
M  END
>  <CHROM.1>
174.79000643,163.71830148,-70.68151551,-43.98675306,-54.25798596,-83.97500994
168.15517342,-57.61954539,65.53547323,67.04589519,171.96711525,63.86336393
-163.84570060,-122.69713364,-56.69349073,6.91449785,-2.22536837,8.94373211
0.19213642,0.23957577,-1.79230408

>  <Name>
1o9m_lig

>  <RI>
0

>  <Rbt.Current_Directory>
/home/itssahil/PROJECTS/Mol_Feturizer/New_Systems/rnas/1o9m

>  <Rbt.Executable>
rbdock ($Id: //depot/dev/client3/rdock/2013.1/src/exe/rbdock.cxx#4 $)

>  <Rbt.Library>
libRbt.so (2013.1, Build901 2013/11/27)

>  <Rbt.Parameter_File>
/export/apps/rDock/src/rDock_2013.1_src/data/scripts/dock_solv.prm

>  <Rbt.Receptor>
prm/blind_docking_40.prm

>  <SCORE>
-8.152

>  <SCORE.INTER>
-6.57552

>  <SCORE.INTER.CONST>
1

>  <SCORE.INTER.POLAR>
0

>  <SCORE.INTER.ROT>
15

>  <SCORE.INTER.SOLV>
14.0101

>  <SCORE.INTER.VDW>
-22.6537

>  <SCORE.INTER.norm>
-0.177717

>  <SCORE.INTRA>
-1.57648

>  <SCORE.INTRA.DIHEDRAL>
-9.21026

>  <SCORE.INTRA.DIHEDRAL.0>
21.5987

>  <SCORE.INTRA.POLAR>
0

>  <SCORE.INTRA.POLAR.0>
0

>  <SCORE.INTRA.REPUL>
0

>  <SCORE.INTRA.REPUL.0>
0

>  <SCORE.INTRA.SOLV>
6.45776

>  <SCORE.INTRA.SOLV.lig_0>
-108.715

>  <SCORE.INTRA.VDW>
-0.200231

>  <SCORE.INTRA.VDW.0>
-3.9485

>  <SCORE.INTRA.norm>
-0.0426075

>  <SCORE.RESTR>
0

>  <SCORE.RESTR.CAVITY>
0

>  <SCORE.RESTR.norm>
0

>  <SCORE.SYSTEM>
0

>  <SCORE.SYSTEM.CONST>
0

>  <SCORE.SYSTEM.DIHEDRAL>
0

>  <SCORE.SYSTEM.SOLV>
0

>  <SCORE.SYSTEM.norm>
0

>  <SCORE.heavy>
37

>  <SCORE.norm>
-0.220324

>  <RMSD>
24.240

$$$$
1o9m_lig
 OpenBabel11021811403D
libRbt.so/2013.1/901 2013/11/27
 37 38  0  0  0  0  0  0  0  0999 V2000
    1.7750    0.6233   11.0222 C   0  0  2  0  0  0  0  0  0  0  0  0
    2.7594    0.9956   10.0100 O   0  0  0  0  0  0  0  0  0  0  0  0
    1.2334    1.9689   11.6311 C   0  0  2  0  0  0  0  0  0  0  0  0
    0.6250    2.8376   10.6083 N   0  0  0  0  0  0  0  0  0  0  0  0
    2.4128    2.7130   12.3654 C   0  0  1  0  0  0  0  0  0  0  0  0
    1.9445    3.9407   12.9300 O   0  0  0  0  0  0  0  0  0  0  0  0
    2.9962    1.7477   13.4495 C   0  0  2  0  0  0  0  0  0  0  0  0
    4.0965    2.3223   14.1736 O   0  0  0  0  0  0  0  0  0  0  0  0
    3.4617    0.4191   12.8041 C   0  0  2  0  0  0  0  0  0  0  0  0
    2.3921   -0.1960   12.0713 O   0  0  0  0  0  0  0  0  0  0  0  0
    3.9767   -0.5511   13.8356 C   0  0  0  0  0  0  0  0  0  0  0  0
    3.2719   -0.4177   15.0081 N   0  0  0  0  0  0  0  0  0  0  0  0
    5.8763   -2.0029   10.3476 C   0  0  1  0  0  0  0  0  0  0  0  0
    7.0031   -2.9005    9.9678 N   0  0  0  0  0  0  0  0  0  0  0  0
    6.3015   -0.5582   10.1235 C   0  0  2  0  0  0  0  0  0  0  0  0
    7.4523   -0.3270   10.8802 O   0  0  0  0  0  0  0  0  0  0  0  0
    5.1552    0.4221   10.5268 C   0  0  1  0  0  0  0  0  0  0  0  0
    5.5667    1.8026   10.2870 O   0  0  0  0  0  0  0  0  0  0  0  0
    3.8670    0.1178    9.6586 C   0  0  1  0  0  0  0  0  0  0  0  0
    3.4211   -1.3182    9.8886 C   0  0  1  0  0  0  0  0  0  0  0  0
    2.2288   -1.5718    9.0939 N   0  0  0  0  0  0  0  0  0  0  0  0
    4.5677   -2.2920    9.5062 C   0  0  0  0  0  0  0  0  0  0  0  0
    8.5726    0.3908   11.4425 C   0  0  0  0  0  0  0  0  0  0  0  0
    9.1525   -0.4094   12.5861 C   0  0  0  0  0  0  0  0  0  0  0  0
   10.0703   -1.4881   12.1654 N   0  0  0  0  0  0  0  0  0  0  0  0
   11.0871   -2.2607   11.4161 C   0  0  0  0  0  0  0  0  0  0  0  0
   11.1776   -1.3384   10.1938 C   0  0  0  0  0  0  0  0  0  0  0  0
   12.0953   -1.9092    9.0964 C   0  0  0  0  0  0  0  0  0  0  0  0
   12.2845   -0.9064    7.9624 C   0  0  0  0  0  0  0  0  0  0  0  0
   13.0523    0.2389    8.4305 N   0  0  0  0  0  0  0  0  0  0  0  0
   11.5360   -4.9251    9.9627 N   0  0  0  0  0  0  0  0  0  0  0  0
    7.3886   -4.0447   11.2674 C   0  0  0  0  0  0  0  0  0  0  0  0
    6.9921   -4.2431   12.2510 O   0  0  0  0  0  0  0  0  0  0  0  0
    8.4856   -4.5432   10.3587 C   0  0  2  0  0  0  0  0  0  0  0  0
    8.0073   -5.4627    9.4600 O   0  0  0  0  0  0  0  0  0  0  0  0
    9.4929   -5.2726   11.2408 C   0  0  0  0  0  0  0  0  0  0  0  0
   10.6675   -5.9675   10.5285 C   0  0  0  0  0  0  0  0  0  0  0  0
  1  2  1  6  0  0  0
  1  3  1  0  0  0  0
  3  4  1  6  0  0  0
  3  5  1  0  0  0  0
  5  6  1  1  0  0  0
  5  7  1  0  0  0  0
  7  8  1  6  0  0  0
  9  7  1  0  0  0  0
  9 10  1  0  0  0  0
  9 11  1  1  0  0  0
 10  1  1  0  0  0  0
 11 12  1  0  0  0  0
 13 14  1  6  0  0  0
 13 15  1  0  0  0  0
 13 22  1  0  0  0  0
 14 32  1  0  0  0  0
 15 16  1  1  0  0  0
 15 17  1  0  0  0  0
 16 23  1  0  0  0  0
 17 18  1  6  0  0  0
 17 19  1  0  0  0  0
 19  2  1  1  0  0  0
 19 20  1  0  0  0  0
 20 21  1  6  0  0  0
 20 22  1  0  0  0  0
 23 24  1  0  0  0  0
 24 25  1  0  0  0  0
 25 26  1  0  0  0  0
 26 27  1  0  0  0  0
 27 28  1  0  0  0  0
 28 29  1  0  0  0  0
 29 30  1  0  0  0  0
 31 37  1  0  0  0  0
 32 33  2  0  0  0  0
 34 32  1  1  0  0  0
 34 35  1  0  0  0  0
 34 36  1  0  0  0  0
 36 37  1  0  0  0  0
M  END
>  <CHROM.1>
152.30170203,34.20084569,127.89214298,-179.30372089,166.20925647,-91.61378937
81.55138116,33.82649954,-10.75037225,-175.06936812,-173.90113675,67.87869398
-83.94628900,175.72018590,68.46943292,6.28275069,-0.91195966,11.05386598
2.62310477,0.16464881,0.10437414

>  <Name>
1o9m_lig

>  <RI>
0

>  <Rbt.Current_Directory>
/home/itssahil/PROJECTS/Mol_Feturizer/New_Systems/rnas/1o9m

>  <Rbt.Executable>
rbdock ($Id: //depot/dev/client3/rdock/2013.1/src/exe/rbdock.cxx#4 $)

>  <Rbt.Library>
libRbt.so (2013.1, Build901 2013/11/27)

>  <Rbt.Parameter_File>
/export/apps/rDock/src/rDock_2013.1_src/data/scripts/dock_solv.prm

>  <Rbt.Receptor>
prm/blind_docking_80.prm

>  <SCORE>
0.910274

>  <SCORE.INTER>
-2.58135

>  <SCORE.INTER.CONST>
1

>  <SCORE.INTER.POLAR>
-1.77812

>  <SCORE.INTER.ROT>
15

>  <SCORE.INTER.SOLV>
21.5118

>  <SCORE.INTER.VDW>
-16.5644

>  <SCORE.INTER.norm>
-0.0697661

>  <SCORE.INTRA>
2.18178

>  <SCORE.INTRA.DIHEDRAL>
-5.25219

>  <SCORE.INTRA.DIHEDRAL.0>
21.5987

>  <SCORE.INTRA.POLAR>
0

>  <SCORE.INTRA.POLAR.0>
0

>  <SCORE.INTRA.REPUL>
0

>  <SCORE.INTRA.REPUL.0>
0

>  <SCORE.INTRA.SOLV>
7.89616

>  <SCORE.INTRA.SOLV.lig_0>
-108.715

>  <SCORE.INTRA.VDW>
0.859798

>  <SCORE.INTRA.VDW.0>
-3.9485

>  <SCORE.INTRA.norm>
0.0589671

>  <SCORE.RESTR>
1.30984

>  <SCORE.RESTR.CAVITY>
1.30984

>  <SCORE.RESTR.norm>
0.035401

>  <SCORE.SYSTEM>
0

>  <SCORE.SYSTEM.CONST>
0

>  <SCORE.SYSTEM.DIHEDRAL>
0

>  <SCORE.SYSTEM.SOLV>
0

>  <SCORE.SYSTEM.norm>
0

>  <SCORE.heavy>
37

>  <SCORE.norm>
0.024602

>  <RMSD>
24.240

$$$$
1o9m_lig
 OpenBabel11021811403D
libRbt.so/2013.1/901 2013/11/27
 37 38  0  0  0  0  0  0  0  0999 V2000
   10.5253   -3.2046    9.2541 C   0  0  2  0  0  0  0  0  0  0  0  0
   10.2186   -2.7933   10.6212 O   0  0  0  0  0  0  0  0  0  0  0  0
   11.5971   -4.3506    9.3650 C   0  0  2  0  0  0  0  0  0  0  0  0
   11.1093   -5.4944   10.1554 N   0  0  0  0  0  0  0  0  0  0  0  0
   12.9175   -3.7615    9.9921 C   0  0  1  0  0  0  0  0  0  0  0  0
   13.9098   -4.7856   10.1019 O   0  0  0  0  0  0  0  0  0  0  0  0
   13.3925   -2.5711    9.0951 C   0  0  2  0  0  0  0  0  0  0  0  0
   14.5882   -1.9444    9.5874 O   0  0  0  0  0  0  0  0  0  0  0  0
   12.2800   -1.5004    8.9746 C   0  0  2  0  0  0  0  0  0  0  0  0
   11.0636   -2.0798    8.4809 O   0  0  0  0  0  0  0  0  0  0  0  0
   12.6918   -0.3684    8.0693 C   0  0  0  0  0  0  0  0  0  0  0  0
   13.7978    0.2698    8.5781 N   0  0  0  0  0  0  0  0  0  0  0  0
    6.9641   -0.4436   12.2668 C   0  0  1  0  0  0  0  0  0  0  0  0
    6.0855    0.7252   12.5522 N   0  0  0  0  0  0  0  0  0  0  0  0
    6.9650   -0.7034   10.7665 C   0  0  2  0  0  0  0  0  0  0  0  0
    5.6437   -0.9131   10.3663 O   0  0  0  0  0  0  0  0  0  0  0  0
    7.8608   -1.9348   10.4215 C   0  0  1  0  0  0  0  0  0  0  0  0
    7.8710   -2.1603    8.9787 O   0  0  0  0  0  0  0  0  0  0  0  0
    9.3439   -1.6637   10.9039 C   0  0  1  0  0  0  0  0  0  0  0  0
    9.3584   -1.4212   12.4055 C   0  0  1  0  0  0  0  0  0  0  0  0
   10.7309   -1.1894   12.8297 N   0  0  0  0  0  0  0  0  0  0  0  0
    8.4523   -0.2092   12.7507 C   0  0  0  0  0  0  0  0  0  0  0  0
    4.5181   -1.0965    9.4797 C   0  0  0  0  0  0  0  0  0  0  0  0
    4.3046    0.1675    8.6789 C   0  0  0  0  0  0  0  0  0  0  0  0
    3.0459    0.1882    7.9056 N   0  0  0  0  0  0  0  0  0  0  0  0
    2.0146    0.5350    6.9013 C   0  0  0  0  0  0  0  0  0  0  0  0
    2.4579   -0.4499    5.8120 C   0  0  0  0  0  0  0  0  0  0  0  0
    2.0654   -1.9023    6.1413 C   0  0  0  0  0  0  0  0  0  0  0  0
    2.5280   -2.8579    5.0458 C   0  0  0  0  0  0  0  0  0  0  0  0
    3.9787   -2.9803    5.0685 N   0  0  0  0  0  0  0  0  0  0  0  0
    1.0531    2.4856   13.1038 N   0  0  0  0  0  0  0  0  0  0  0  0
    4.5584    0.2223   13.3017 C   0  0  0  0  0  0  0  0  0  0  0  0
    4.1318   -0.7216   13.6035 O   0  0  0  0  0  0  0  0  0  0  0  0
    4.1892    1.6855   13.2811 C   0  0  2  0  0  0  0  0  0  0  0  0
    3.5359    2.0497   14.4311 O   0  0  0  0  0  0  0  0  0  0  0  0
    3.2021    1.8761   12.1348 C   0  0  0  0  0  0  0  0  0  0  0  0
    1.7537    1.4154   12.3793 C   0  0  0  0  0  0  0  0  0  0  0  0
  1  2  1  1  0  0  0
  1  3  1  0  0  0  0
  3  4  1  1  0  0  0
  3  5  1  0  0  0  0
  5  6  1  6  0  0  0
  5  7  1  0  0  0  0
  7  8  1  1  0  0  0
  9  7  1  0  0  0  0
  9 10  1  0  0  0  0
  9 11  1  6  0  0  0
 10  1  1  0  0  0  0
 11 12  1  0  0  0  0
 13 14  1  6  0  0  0
 13 15  1  0  0  0  0
 13 22  1  0  0  0  0
 14 32  1  0  0  0  0
 15 16  1  1  0  0  0
 15 17  1  0  0  0  0
 16 23  1  0  0  0  0
 17 18  1  6  0  0  0
 17 19  1  0  0  0  0
 19  2  1  1  0  0  0
 19 20  1  0  0  0  0
 20 21  1  6  0  0  0
 20 22  1  0  0  0  0
 23 24  1  0  0  0  0
 24 25  1  0  0  0  0
 25 26  1  0  0  0  0
 26 27  1  0  0  0  0
 27 28  1  0  0  0  0
 28 29  1  0  0  0  0
 29 30  1  0  0  0  0
 31 37  1  0  0  0  0
 32 33  2  0  0  0  0
 34 32  1  1  0  0  0
 34 35  1  0  0  0  0
 34 36  1  0  0  0  0
 36 37  1  0  0  0  0
M  END
>  <CHROM.1>
174.57313525,-61.66044411,106.50837732,170.32019564,-64.54944933,65.14734024
-170.06107417,-160.44017497,88.64268468,74.97399484,-179.59682708,70.32805987
-140.19958381,76.90899604,82.51299727,7.43350488,-1.13911907,10.09937307
0.17259316,0.26267593,-1.96786085

>  <Name>
1o9m_lig

>  <RI>
0

>  <Rbt.Current_Directory>
/home/itssahil/PROJECTS/Mol_Feturizer/New_Systems/rnas/1o9m

>  <Rbt.Executable>
rbdock ($Id: //depot/dev/client3/rdock/2013.1/src/exe/rbdock.cxx#4 $)

>  <Rbt.Library>
libRbt.so (2013.1, Build901 2013/11/27)

>  <Rbt.Parameter_File>
/export/apps/rDock/src/rDock_2013.1_src/data/scripts/dock_solv.prm

>  <Rbt.Receptor>
prm/blind_docking_60.prm

>  <SCORE>
-6.22354

>  <SCORE.INTER>
-1.22716

>  <SCORE.INTER.CONST>
1

>  <SCORE.INTER.POLAR>
-0.233302

>  <SCORE.INTER.ROT>
15

>  <SCORE.INTER.SOLV>
14.673

>  <SCORE.INTER.VDW>
-18.5314

>  <SCORE.INTER.norm>
-0.0331666

>  <SCORE.INTRA>
-4.99664

>  <SCORE.INTRA.DIHEDRAL>
-12.4521

>  <SCORE.INTRA.DIHEDRAL.0>
21.5987

>  <SCORE.INTRA.POLAR>
0

>  <SCORE.INTRA.POLAR.0>
0

>  <SCORE.INTRA.REPUL>
0

>  <SCORE.INTRA.REPUL.0>
0

>  <SCORE.INTRA.SOLV>
2.69084

>  <SCORE.INTRA.SOLV.lig_0>
-108.715

>  <SCORE.INTRA.VDW>
-0.116005

>  <SCORE.INTRA.VDW.0>
-3.9485

>  <SCORE.INTRA.norm>
-0.135044

>  <SCORE.RESTR>
0.000260352

>  <SCORE.RESTR.CAVITY>
0.000260352

>  <SCORE.RESTR.norm>
7.03653e-06

>  <SCORE.SYSTEM>
0

>  <SCORE.SYSTEM.CONST>
0

>  <SCORE.SYSTEM.DIHEDRAL>
0

>  <SCORE.SYSTEM.SOLV>
0

>  <SCORE.SYSTEM.norm>
0

>  <SCORE.heavy>
37

>  <SCORE.norm>
-0.168204

>  <RMSD>
24.242

$$$$
1o9m_lig
 OpenBabel11021811403D
libRbt.so/2013.1/901 2013/11/27
 37 38  0  0  0  0  0  0  0  0999 V2000
   11.4012   -2.1280   12.5384 C   0  0  2  0  0  0  0  0  0  0  0  0
   10.7658   -0.9238   12.0107 O   0  0  0  0  0  0  0  0  0  0  0  0
   12.9432   -1.8240   12.6045 C   0  0  2  0  0  0  0  0  0  0  0  0
   13.2451   -0.6604   13.4564 N   0  0  0  0  0  0  0  0  0  0  0  0
   13.4869   -1.6011   11.1422 C   0  0  1  0  0  0  0  0  0  0  0  0
   14.8897   -1.3242   11.1755 O   0  0  0  0  0  0  0  0  0  0  0  0
   13.1556   -2.8775   10.3006 C   0  0  2  0  0  0  0  0  0  0  0  0
   13.5948   -2.7753    8.9362 O   0  0  0  0  0  0  0  0  0  0  0  0
   11.6333   -3.1617   10.3160 C   0  0  2  0  0  0  0  0  0  0  0  0
   11.1478   -3.2767   11.6615 O   0  0  0  0  0  0  0  0  0  0  0  0
   11.2934   -4.4191    9.5583 C   0  0  0  0  0  0  0  0  0  0  0  0
   11.9426   -5.4975   10.1105 N   0  0  0  0  0  0  0  0  0  0  0  0
    6.6130    0.1107   11.3004 C   0  0  1  0  0  0  0  0  0  0  0  0
    5.2415    0.0788   10.7196 N   0  0  0  0  0  0  0  0  0  0  0  0
    6.9100   -1.2413   11.9347 C   0  0  2  0  0  0  0  0  0  0  0  0
    5.9255   -1.4915   12.8930 O   0  0  0  0  0  0  0  0  0  0  0  0
    8.3342   -1.2485   12.5744 C   0  0  1  0  0  0  0  0  0  0  0  0
    8.6156   -2.5563   13.1599 O   0  0  0  0  0  0  0  0  0  0  0  0
    9.4176   -0.9467   11.4605 C   0  0  1  0  0  0  0  0  0  0  0  0
    9.1424    0.4109   10.8320 C   0  0  1  0  0  0  0  0  0  0  0  0
   10.1571    0.6747    9.8228 N   0  0  0  0  0  0  0  0  0  0  0  0
    7.7190    0.4246   10.2132 C   0  0  0  0  0  0  0  0  0  0  0  0
    4.6200   -1.5031   13.5113 C   0  0  0  0  0  0  0  0  0  0  0  0
    3.6220   -2.1136   12.5543 C   0  0  0  0  0  0  0  0  0  0  0  0
    2.3556   -2.5346   13.1883 N   0  0  0  0  0  0  0  0  0  0  0  0
    1.1432   -2.5532   14.0381 C   0  0  0  0  0  0  0  0  0  0  0  0
    0.8561   -1.0467   14.0088 C   0  0  0  0  0  0  0  0  0  0  0  0
    1.8146   -0.2504   14.9139 C   0  0  0  0  0  0  0  0  0  0  0  0
    1.3973    1.2144   15.0014 C   0  0  0  0  0  0  0  0  0  0  0  0
    2.5259    2.0316   15.4242 N   0  0  0  0  0  0  0  0  0  0  0  0
    2.0387    1.8067    8.8874 N   0  0  0  0  0  0  0  0  0  0  0  0
    5.0448   -1.2763    9.5920 C   0  0  0  0  0  0  0  0  0  0  0  0
    5.6790   -2.0770    9.2443 O   0  0  0  0  0  0  0  0  0  0  0  0
    3.6452   -0.7549    9.3757 C   0  0  2  0  0  0  0  0  0  0  0  0
    2.7817   -1.7695    9.0487 O   0  0  0  0  0  0  0  0  0  0  0  0
    3.7027    0.1794    8.1721 C   0  0  0  0  0  0  0  0  0  0  0  0
    2.3980    0.9002    7.7873 C   0  0  0  0  0  0  0  0  0  0  0  0
  1  2  1  6  0  0  0
  1  3  1  0  0  0  0
  3  4  1  1  0  0  0
  3  5  1  0  0  0  0
  5  6  1  1  0  0  0
  5  7  1  0  0  0  0
  7  8  1  6  0  0  0
  9  7  1  0  0  0  0
  9 10  1  0  0  0  0
  9 11  1  6  0  0  0
 10  1  1  0  0  0  0
 11 12  1  0  0  0  0
 13 14  1  6  0  0  0
 13 15  1  0  0  0  0
 13 22  1  0  0  0  0
 14 32  1  0  0  0  0
 15 16  1  1  0  0  0
 15 17  1  0  0  0  0
 16 23  1  0  0  0  0
 17 18  1  6  0  0  0
 17 19  1  0  0  0  0
 19  2  1  1  0  0  0
 19 20  1  0  0  0  0
 20 21  1  6  0  0  0
 20 22  1  0  0  0  0
 23 24  1  0  0  0  0
 24 25  1  0  0  0  0
 25 26  1  0  0  0  0
 26 27  1  0  0  0  0
 27 28  1  0  0  0  0
 28 29  1  0  0  0  0
 29 30  1  0  0  0  0
 31 37  1  0  0  0  0
 32 33  2  0  0  0  0
 34 32  1  6  0  0  0
 34 35  1  0  0  0  0
 34 36  1  0  0  0  0
 36 37  1  0  0  0  0
M  END
>  <CHROM.1>
162.46610117,59.35089426,-54.59955451,36.29671466,53.47536502,66.97471212
163.45224768,42.29473625,34.38064897,-75.59240890,-172.87805608,-159.27431405
-150.80986676,-177.09474078,64.75841055,7.34420289,-1.26389242,11.44216696
-0.10638555,-0.19038121,1.60447828

>  <Name>
1o9m_lig

>  <RI>
0

>  <Rbt.Current_Directory>
/home/itssahil/PROJECTS/Mol_Feturizer/New_Systems/rnas/1o9m

>  <Rbt.Executable>
rbdock ($Id: //depot/dev/client3/rdock/2013.1/src/exe/rbdock.cxx#4 $)

>  <Rbt.Library>
libRbt.so (2013.1, Build901 2013/11/27)

>  <Rbt.Parameter_File>
/export/apps/rDock/src/rDock_2013.1_src/data/scripts/dock_solv.prm

>  <Rbt.Receptor>
prm/blind_docking_100.prm

>  <SCORE>
-6.85548

>  <SCORE.INTER>
-1.76463

>  <SCORE.INTER.CONST>
1

>  <SCORE.INTER.POLAR>
-0.793407

>  <SCORE.INTER.ROT>
15

>  <SCORE.INTER.SOLV>
22.0162

>  <SCORE.INTER.VDW>
-19.4705

>  <SCORE.INTER.norm>
-0.0476928

>  <SCORE.INTRA>
-5.142

>  <SCORE.INTRA.DIHEDRAL>
-11.1461

>  <SCORE.INTRA.DIHEDRAL.0>
21.5987

>  <SCORE.INTRA.POLAR>
0

>  <SCORE.INTRA.POLAR.0>
0

>  <SCORE.INTRA.REPUL>
0

>  <SCORE.INTRA.REPUL.0>
0

>  <SCORE.INTRA.SOLV>
2.61912

>  <SCORE.INTRA.SOLV.lig_0>
-108.715

>  <SCORE.INTRA.VDW>
-0.878525

>  <SCORE.INTRA.VDW.0>
-3.9485

>  <SCORE.INTRA.norm>
-0.138973

>  <SCORE.RESTR>
0.0511599

>  <SCORE.RESTR.CAVITY>
0.0511599

>  <SCORE.RESTR.norm>
0.0013827

>  <SCORE.SYSTEM>
0

>  <SCORE.SYSTEM.CONST>
0

>  <SCORE.SYSTEM.DIHEDRAL>
0

>  <SCORE.SYSTEM.SOLV>
0

>  <SCORE.SYSTEM.norm>
0

>  <SCORE.heavy>
37

>  <SCORE.norm>
-0.185283

>  <RMSD>
24.247

$$$$
1o9m_lig
 OpenBabel11021811403D
libRbt.so/2013.1/901 2013/11/27
 37 38  0  0  0  0  0  0  0  0999 V2000
    9.4680   -2.4429    9.5931 C   0  0  2  0  0  0  0  0  0  0  0  0
    8.2608   -3.2455    9.4179 O   0  0  0  0  0  0  0  0  0  0  0  0
    9.8597   -1.9122    8.1650 C   0  0  2  0  0  0  0  0  0  0  0  0
    8.7850   -1.1094    7.5555 N   0  0  0  0  0  0  0  0  0  0  0  0
   10.2317   -3.1366    7.2451 C   0  0  1  0  0  0  0  0  0  0  0  0
   10.5938   -2.6791    5.9393 O   0  0  0  0  0  0  0  0  0  0  0  0
   11.3896   -3.9297    7.9364 C   0  0  2  0  0  0  0  0  0  0  0  0
   11.7993   -5.0850    7.1865 O   0  0  0  0  0  0  0  0  0  0  0  0
   10.9708   -4.3789    9.3581 C   0  0  2  0  0  0  0  0  0  0  0  0
   10.5565   -3.2551   10.1484 O   0  0  0  0  0  0  0  0  0  0  0  0
   12.0895   -5.0971   10.0676 C   0  0  0  0  0  0  0  0  0  0  0  0
   11.6476   -5.5964   11.2696 N   0  0  0  0  0  0  0  0  0  0  0  0
    4.1199   -3.2280   10.7113 C   0  0  1  0  0  0  0  0  0  0  0  0
    2.9234   -3.0230   11.5749 N   0  0  0  0  0  0  0  0  0  0  0  0
    4.7995   -1.8842   10.4856 C   0  0  2  0  0  0  0  0  0  0  0  0
    3.8636   -1.0207    9.9124 O   0  0  0  0  0  0  0  0  0  0  0  0
    6.0519   -2.0479    9.5679 C   0  0  1  0  0  0  0  0  0  0  0  0
    6.7071   -0.7568    9.3768 O   0  0  0  0  0  0  0  0  0  0  0  0
    7.0793   -3.0437   10.2451 C   0  0  1  0  0  0  0  0  0  0  0  0
    6.4173   -4.3965   10.4585 C   0  0  1  0  0  0  0  0  0  0  0  0
    7.3822   -5.2998   11.0673 N   0  0  0  0  0  0  0  0  0  0  0  0
    5.1609   -4.2310   11.3548 C   0  0  0  0  0  0  0  0  0  0  0  0
    2.6692   -0.2173    9.7919 C   0  0  0  0  0  0  0  0  0  0  0  0
    2.5706    0.3189    8.3822 C   0  0  0  0  0  0  0  0  0  0  0  0
    2.5626   -0.7254    7.3371 N   0  0  0  0  0  0  0  0  0  0  0  0
    3.0055   -1.7665    6.3819 C   0  0  0  0  0  0  0  0  0  0  0  0
    1.9586   -2.8276    6.7441 C   0  0  0  0  0  0  0  0  0  0  0  0
    0.5763   -2.5160    6.1404 C   0  0  0  0  0  0  0  0  0  0  0  0
   -0.4420   -3.5872    6.5185 C   0  0  0  0  0  0  0  0  0  0  0  0
   -0.0784   -4.8596    5.9109 N   0  0  0  0  0  0  0  0  0  0  0  0
    0.9249    0.4846   14.4081 N   0  0  0  0  0  0  0  0  0  0  0  0
    3.3246   -2.0920   13.0306 C   0  0  0  0  0  0  0  0  0  0  0  0
    4.2216   -1.6379   13.4219 O   0  0  0  0  0  0  0  0  0  0  0  0
    1.8758   -2.2691   13.4143 C   0  0  2  0  0  0  0  0  0  0  0  0
    1.0571   -1.4872   12.6395 O   0  0  0  0  0  0  0  0  0  0  0  0
    1.7341   -1.7694   14.8478 C   0  0  0  0  0  0  0  0  0  0  0  0
    1.9858   -0.2702   15.0907 C   0  0  0  0  0  0  0  0  0  0  0  0
  1  2  1  6  0  0  0
  1  3  1  0  0  0  0
  3  4  1  6  0  0  0
  3  5  1  0  0  0  0
  5  6  1  6  0  0  0
  5  7  1  0  0  0  0
  7  8  1  6  0  0  0
  9  7  1  0  0  0  0
  9 10  1  0  0  0  0
  9 11  1  1  0  0  0
 10  1  1  0  0  0  0
 11 12  1  0  0  0  0
 13 14  1  1  0  0  0
 13 15  1  0  0  0  0
 13 22  1  0  0  0  0
 14 32  1  0  0  0  0
 15 16  1  6  0  0  0
 15 17  1  0  0  0  0
 16 23  1  0  0  0  0
 17 18  1  1  0  0  0
 17 19  1  0  0  0  0
 19  2  1  6  0  0  0
 19 20  1  0  0  0  0
 20 21  1  1  0  0  0
 20 22  1  0  0  0  0
 23 24  1  0  0  0  0
 24 25  1  0  0  0  0
 25 26  1  0  0  0  0
 26 27  1  0  0  0  0
 27 28  1  0  0  0  0
 28 29  1  0  0  0  0
 29 30  1  0  0  0  0
 31 37  1  0  0  0  0
 32 33  2  0  0  0  0
 34 32  1  6  0  0  0
 34 35  1  0  0  0  0
 34 36  1  0  0  0  0
 36 37  1  0  0  0  0
M  END
>  <CHROM.1>
-129.81532093,-174.10399836,-50.44832786,63.70929953,-173.24684729,93.41240358
57.38412867,-78.27254425,131.53901410,76.93877257,-179.96441658,-65.67327748
-72.86302615,64.88788144,66.31042579,5.63974483,-2.58304375,9.78994475,-0.25156393
-0.20868826,1.46483146

>  <Name>
1o9m_lig

>  <RI>
0

>  <Rbt.Current_Directory>
/home/itssahil/PROJECTS/Mol_Feturizer/New_Systems/rnas/1o9m

>  <Rbt.Executable>
rbdock ($Id: //depot/dev/client3/rdock/2013.1/src/exe/rbdock.cxx#4 $)

>  <Rbt.Library>
libRbt.so (2013.1, Build901 2013/11/27)

>  <Rbt.Parameter_File>
/export/apps/rDock/src/rDock_2013.1_src/data/scripts/dock_solv.prm

>  <Rbt.Receptor>
prm/blind_docking_20.prm

>  <SCORE>
-6.82249

>  <SCORE.INTER>
-6.48314

>  <SCORE.INTER.CONST>
1

>  <SCORE.INTER.POLAR>
0

>  <SCORE.INTER.ROT>
15

>  <SCORE.INTER.SOLV>
11.8327

>  <SCORE.INTER.VDW>
-21.8663

>  <SCORE.INTER.norm>
-0.17522

>  <SCORE.INTRA>
-0.734276

>  <SCORE.INTRA.DIHEDRAL>
-6.48458

>  <SCORE.INTRA.DIHEDRAL.0>
21.5987

>  <SCORE.INTRA.POLAR>
0

>  <SCORE.INTRA.POLAR.0>
0

>  <SCORE.INTRA.REPUL>
0

>  <SCORE.INTRA.REPUL.0>
0

>  <SCORE.INTRA.SOLV>
6.00807

>  <SCORE.INTRA.SOLV.lig_0>
-108.715

>  <SCORE.INTRA.VDW>
-0.496024

>  <SCORE.INTRA.VDW.0>
-3.9485

>  <SCORE.INTRA.norm>
-0.0198453

>  <SCORE.RESTR>
0.394926

>  <SCORE.RESTR.CAVITY>
0.394926

>  <SCORE.RESTR.norm>
0.0106737

>  <SCORE.SYSTEM>
0

>  <SCORE.SYSTEM.CONST>
0

>  <SCORE.SYSTEM.DIHEDRAL>
0

>  <SCORE.SYSTEM.SOLV>
0

>  <SCORE.SYSTEM.norm>
0

>  <SCORE.heavy>
37

>  <SCORE.norm>
-0.184392

>  <RMSD>
24.250

$$$$
1o9m_lig
 OpenBabel11021811403D
libRbt.so/2013.1/901 2013/11/27
 37 38  0  0  0  0  0  0  0  0999 V2000
    3.4132    0.5952   10.7289 C   0  0  2  0  0  0  0  0  0  0  0  0
    4.7296    1.2122   10.5920 O   0  0  0  0  0  0  0  0  0  0  0  0
    2.8007    1.1482   12.0681 C   0  0  2  0  0  0  0  0  0  0  0  0
    2.6889    2.6173   12.0642 N   0  0  0  0  0  0  0  0  0  0  0  0
    3.6836    0.6590   13.2785 C   0  0  1  0  0  0  0  0  0  0  0  0
    3.1452    1.1482   14.5099 O   0  0  0  0  0  0  0  0  0  0  0  0
    3.7415   -0.9038   13.2374 C   0  0  2  0  0  0  0  0  0  0  0  0
    4.5407   -1.4601   14.2942 O   0  0  0  0  0  0  0  0  0  0  0  0
    4.2986   -1.3941   11.8781 C   0  0  2  0  0  0  0  0  0  0  0  0
    3.5275   -0.8663   10.7889 O   0  0  0  0  0  0  0  0  0  0  0  0
    4.3121   -2.8984   11.7913 C   0  0  0  0  0  0  0  0  0  0  0  0
    3.0277   -3.3876   11.8080 N   0  0  0  0  0  0  0  0  0  0  0  0
    8.6472    0.0023    9.1746 C   0  0  1  0  0  0  0  0  0  0  0  0
    9.8733   -0.8213    8.9804 N   0  0  0  0  0  0  0  0  0  0  0  0
    7.4406   -0.7904    8.6909 C   0  0  2  0  0  0  0  0  0  0  0  0
    7.6563   -1.1271    7.3529 O   0  0  0  0  0  0  0  0  0  0  0  0
    6.1310    0.0430    8.8585 C   0  0  1  0  0  0  0  0  0  0  0  0
    4.9791   -0.7355    8.4118 O   0  0  0  0  0  0  0  0  0  0  0  0
    5.9313    0.4163   10.3838 C   0  0  1  0  0  0  0  0  0  0  0  0
    7.1226    1.2253   10.8738 C   0  0  1  0  0  0  0  0  0  0  0  0
    6.9119    1.5702   12.2718 N   0  0  0  0  0  0  0  0  0  0  0  0
    8.4269    0.4044   10.6891 C   0  0  0  0  0  0  0  0  0  0  0  0
    7.3992   -1.6892    6.0473 C   0  0  0  0  0  0  0  0  0  0  0  0
    7.0391   -3.1494    6.1968 C   0  0  0  0  0  0  0  0  0  0  0  0
    5.7199   -3.5076    5.6359 N   0  0  0  0  0  0  0  0  0  0  0  0
    4.2572   -3.6143    5.4321 C   0  0  0  0  0  0  0  0  0  0  0  0
    4.0270   -2.1964    4.8939 C   0  0  0  0  0  0  0  0  0  0  0  0
    2.5431   -1.9206    4.5871 C   0  0  0  0  0  0  0  0  0  0  0  0
    1.7132   -1.8956    5.8670 C   0  0  0  0  0  0  0  0  0  0  0  0
    2.0376   -0.7118    6.6503 N   0  0  0  0  0  0  0  0  0  0  0  0
   13.7349    1.2817    8.2177 N   0  0  0  0  0  0  0  0  0  0  0  0
   11.3342    0.0666    9.4539 C   0  0  0  0  0  0  0  0  0  0  0  0
   11.5333    1.0483    9.8546 O   0  0  0  0  0  0  0  0  0  0  0  0
   12.0939   -1.1632    9.0201 C   0  0  2  0  0  0  0  0  0  0  0  0
   11.7419   -2.2557    9.7715 O   0  0  0  0  0  0  0  0  0  0  0  0
   13.5683   -0.8933    9.2994 C   0  0  0  0  0  0  0  0  0  0  0  0
   14.3337   -0.0604    8.2553 C   0  0  0  0  0  0  0  0  0  0  0  0
  1  2  1  1  0  0  0
  1  3  1  0  0  0  0
  3  4  1  6  0  0  0
  3  5  1  0  0  0  0
  5  6  1  1  0  0  0
  5  7  1  0  0  0  0
  7  8  1  1  0  0  0
  9  7  1  0  0  0  0
  9 10  1  0  0  0  0
  9 11  1  1  0  0  0
 10  1  1  0  0  0  0
 11 12  1  0  0  0  0
 13 14  1  1  0  0  0
 13 15  1  0  0  0  0
 13 22  1  0  0  0  0
 14 32  1  0  0  0  0
 15 16  1  6  0  0  0
 15 17  1  0  0  0  0
 16 23  1  0  0  0  0
 17 18  1  1  0  0  0
 17 19  1  0  0  0  0
 19  2  1  6  0  0  0
 19 20  1  0  0  0  0
 20 21  1  1  0  0  0
 20 22  1  0  0  0  0
 23 24  1  0  0  0  0
 24 25  1  0  0  0  0
 25 26  1  0  0  0  0
 26 27  1  0  0  0  0
 27 28  1  0  0  0  0
 28 29  1  0  0  0  0
 29 30  1  0  0  0  0
 31 37  1  0  0  0  0
 32 33  2  0  0  0  0
 34 32  1  1  0  0  0
 34 35  1  0  0  0  0
 34 36  1  0  0  0  0
 36 37  1  0  0  0  0
M  END
>  <CHROM.1>
126.61751250,65.45417055,177.39728086,-179.00777448,-53.04061619,83.40488015
122.40352579,-69.47409640,74.66137629,-178.67187382,67.20614802,69.99242083
-61.87236595,-81.45595131,63.64159244,6.48219290,-0.65691880,9.52099185,-2.96594509
-0.09844454,-1.94849116

>  <Name>
1o9m_lig

>  <RI>
0

>  <Rbt.Current_Directory>
/home/itssahil/PROJECTS/Mol_Feturizer/New_Systems/rnas/1o9m

>  <Rbt.Executable>
rbdock ($Id: //depot/dev/client3/rdock/2013.1/src/exe/rbdock.cxx#4 $)

>  <Rbt.Library>
libRbt.so (2013.1, Build901 2013/11/27)

>  <Rbt.Parameter_File>
/export/apps/rDock/src/rDock_2013.1_src/data/scripts/dock_solv.prm

>  <Rbt.Receptor>
prm/blind_docking_60.prm

>  <SCORE>
-11.8258

>  <SCORE.INTER>
-14.279

>  <SCORE.INTER.CONST>
1

>  <SCORE.INTER.POLAR>
-2.56492

>  <SCORE.INTER.ROT>
15

>  <SCORE.INTER.SOLV>
25.9433

>  <SCORE.INTER.VDW>
-23.2174

>  <SCORE.INTER.norm>
-0.385919

>  <SCORE.INTRA>
2.45321

>  <SCORE.INTRA.DIHEDRAL>
-3.2032

>  <SCORE.INTRA.DIHEDRAL.0>
21.5987

>  <SCORE.INTRA.POLAR>
0

>  <SCORE.INTRA.POLAR.0>
0

>  <SCORE.INTRA.REPUL>
0.00426539

>  <SCORE.INTRA.REPUL.0>
0

>  <SCORE.INTRA.SOLV>
6.67535

>  <SCORE.INTRA.SOLV.lig_0>
-108.715

>  <SCORE.INTRA.VDW>
0.695813

>  <SCORE.INTRA.VDW.0>
-3.9485

>  <SCORE.INTRA.norm>
0.0663031

>  <SCORE.RESTR>
0

>  <SCORE.RESTR.CAVITY>
0

>  <SCORE.RESTR.norm>
0

>  <SCORE.SYSTEM>
0

>  <SCORE.SYSTEM.CONST>
0

>  <SCORE.SYSTEM.DIHEDRAL>
0

>  <SCORE.SYSTEM.SOLV>
0

>  <SCORE.SYSTEM.norm>
0

>  <SCORE.heavy>
37

>  <SCORE.norm>
-0.319616

>  <RMSD>
24.251

$$$$
1o9m_lig
 OpenBabel11021811403D
libRbt.so/2013.1/901 2013/11/27
 37 38  0  0  0  0  0  0  0  0999 V2000
    2.0774    1.9750   13.1097 C   0  0  2  0  0  0  0  0  0  0  0  0
    3.5147    1.7818   13.2802 O   0  0  0  0  0  0  0  0  0  0  0  0
    1.5775    2.7419   14.3889 C   0  0  2  0  0  0  0  0  0  0  0  0
    2.2594    4.0363   14.5639 N   0  0  0  0  0  0  0  0  0  0  0  0
    1.7876    1.8251   15.6535 C   0  0  1  0  0  0  0  0  0  0  0  0
    1.3382    2.5005   16.8314 O   0  0  0  0  0  0  0  0  0  0  0  0
    1.0217    0.4823   15.4129 C   0  0  2  0  0  0  0  0  0  0  0  0
    1.1603   -0.4420   16.5044 O   0  0  0  0  0  0  0  0  0  0  0  0
    1.5132   -0.2013   14.1131 C   0  0  2  0  0  0  0  0  0  0  0  0
    1.3896    0.6845   12.9909 O   0  0  0  0  0  0  0  0  0  0  0  0
    0.7514   -1.4698   13.8283 C   0  0  0  0  0  0  0  0  0  0  0  0
    1.1907   -2.4828   14.6470 N   0  0  0  0  0  0  0  0  0  0  0  0
    6.7943   -0.3657   11.4221 C   0  0  1  0  0  0  0  0  0  0  0  0
    7.5280   -1.4142   10.6592 N   0  0  0  0  0  0  0  0  0  0  0  0
    5.7524    0.2676   10.5101 C   0  0  2  0  0  0  0  0  0  0  0  0
    6.4147    0.7797    9.3924 O   0  0  0  0  0  0  0  0  0  0  0  0
    4.9691    1.3883   11.2638 C   0  0  1  0  0  0  0  0  0  0  0  0
    3.9589    1.9727   10.3861 O   0  0  0  0  0  0  0  0  0  0  0  0
    4.2466    0.7708   12.5297 C   0  0  1  0  0  0  0  0  0  0  0  0
    5.2798    0.1512   13.4584 C   0  0  1  0  0  0  0  0  0  0  0  0
    4.5968   -0.3963   14.6209 N   0  0  0  0  0  0  0  0  0  0  0  0
    6.0720   -0.9494   12.7032 C   0  0  0  0  0  0  0  0  0  0  0  0
    7.0806    0.7932    8.1106 C   0  0  0  0  0  0  0  0  0  0  0  0
    8.0812   -0.3384    8.0581 C   0  0  0  0  0  0  0  0  0  0  0  0
    7.5908   -1.5478    7.3655 N   0  0  0  0  0  0  0  0  0  0  0  0
    7.4972   -2.7052    6.4468 C   0  0  0  0  0  0  0  0  0  0  0  0
    8.8328   -2.4934    5.7226 C   0  0  0  0  0  0  0  0  0  0  0  0
   10.0267   -3.0467    6.5230 C   0  0  0  0  0  0  0  0  0  0  0  0
   10.6586   -1.9604    7.3879 C   0  0  0  0  0  0  0  0  0  0  0  0
   11.9339   -2.4218    7.9179 N   0  0  0  0  0  0  0  0  0  0  0  0
   11.8470   -5.6599   10.3710 N   0  0  0  0  0  0  0  0  0  0  0  0
    8.4412   -2.4845   11.7395 C   0  0  0  0  0  0  0  0  0  0  0  0
    8.5757   -2.5550   12.8077 O   0  0  0  0  0  0  0  0  0  0  0  0
    8.9094   -3.1777   10.4834 C   0  0  2  0  0  0  0  0  0  0  0  0
    7.9119   -3.9454    9.9380 O   0  0  0  0  0  0  0  0  0  0  0  0
   10.0245   -4.1326   10.8950 C   0  0  0  0  0  0  0  0  0  0  0  0
   10.8710   -4.7435    9.7636 C   0  0  0  0  0  0  0  0  0  0  0  0
  1  2  1  1  0  0  0
  1  3  1  0  0  0  0
  3  4  1  1  0  0  0
  3  5  1  0  0  0  0
  5  6  1  1  0  0  0
  5  7  1  0  0  0  0
  7  8  1  1  0  0  0
  9  7  1  0  0  0  0
  9 10  1  0  0  0  0
  9 11  1  6  0  0  0
 10  1  1  0  0  0  0
 11 12  1  0  0  0  0
 13 14  1  6  0  0  0
 13 15  1  0  0  0  0
 13 22  1  0  0  0  0
 14 32  1  0  0  0  0
 15 16  1  6  0  0  0
 15 17  1  0  0  0  0
 16 23  1  0  0  0  0
 17 18  1  6  0  0  0
 17 19  1  0  0  0  0
 19  2  1  1  0  0  0
 19 20  1  0  0  0  0
 20 21  1  1  0  0  0
 20 22  1  0  0  0  0
 23 24  1  0  0  0  0
 24 25  1  0  0  0  0
 25 26  1  0  0  0  0
 26 27  1  0  0  0  0
 27 28  1  0  0  0  0
 28 29  1  0  0  0  0
 29 30  1  0  0  0  0
 31 37  1  0  0  0  0
 32 33  2  0  0  0  0
 34 32  1  1  0  0  0
 34 35  1  0  0  0  0
 34 36  1  0  0  0  0
 36 37  1  0  0  0  0
M  END
>  <CHROM.1>
160.43594995,-76.65812394,-164.77350371,78.83640870,-45.48075002,97.94458600
98.04339622,128.74331637,0.15154745,81.21792493,-93.62491501,-168.39103611
-74.17859999,-167.54475613,-178.07012153,5.75183055,-0.71873389,11.51488041
2.90165050,-0.72289535,2.21155528

>  <Name>
1o9m_lig

>  <RI>
0

>  <Rbt.Current_Directory>
/home/itssahil/PROJECTS/Mol_Feturizer/New_Systems/rnas/1o9m

>  <Rbt.Executable>
rbdock ($Id: //depot/dev/client3/rdock/2013.1/src/exe/rbdock.cxx#4 $)

>  <Rbt.Library>
libRbt.so (2013.1, Build901 2013/11/27)

>  <Rbt.Parameter_File>
/export/apps/rDock/src/rDock_2013.1_src/data/scripts/dock_solv.prm

>  <Rbt.Receptor>
prm/blind_docking_20.prm

>  <SCORE>
-2.39133

>  <SCORE.INTER>
-6.65582

>  <SCORE.INTER.CONST>
1

>  <SCORE.INTER.POLAR>
-1.50358

>  <SCORE.INTER.ROT>
15

>  <SCORE.INTER.SOLV>
23.9199

>  <SCORE.INTER.VDW>
-20.9986

>  <SCORE.INTER.norm>
-0.179887

>  <SCORE.INTRA>
3.91292

>  <SCORE.INTRA.DIHEDRAL>
2.24737

>  <SCORE.INTRA.DIHEDRAL.0>
21.5987

>  <SCORE.INTRA.POLAR>
0

>  <SCORE.INTRA.POLAR.0>
0

>  <SCORE.INTRA.REPUL>
0.00734338

>  <SCORE.INTRA.REPUL.0>
0

>  <SCORE.INTRA.SOLV>
7.4408

>  <SCORE.INTRA.SOLV.lig_0>
-108.715

>  <SCORE.INTRA.VDW>
-0.967875

>  <SCORE.INTRA.VDW.0>
-3.9485

>  <SCORE.INTRA.norm>
0.105755

>  <SCORE.RESTR>
0.351563

>  <SCORE.RESTR.CAVITY>
0.351563

>  <SCORE.RESTR.norm>
0.0095017

>  <SCORE.SYSTEM>
0

>  <SCORE.SYSTEM.CONST>
0

>  <SCORE.SYSTEM.DIHEDRAL>
0

>  <SCORE.SYSTEM.SOLV>
0

>  <SCORE.SYSTEM.norm>
0

>  <SCORE.heavy>
37

>  <SCORE.norm>
-0.0646306

>  <RMSD>
24.267

$$$$
1o9m_lig
 OpenBabel11021811403D
libRbt.so/2013.1/901 2013/11/27
 37 38  0  0  0  0  0  0  0  0999 V2000
   10.6049   -1.8470   10.5633 C   0  0  2  0  0  0  0  0  0  0  0  0
    9.4159   -1.7703    9.7191 O   0  0  0  0  0  0  0  0  0  0  0  0
   11.6560   -0.8558    9.9410 C   0  0  2  0  0  0  0  0  0  0  0  0
   11.1495    0.5264    9.8799 N   0  0  0  0  0  0  0  0  0  0  0  0
   12.0581   -1.3667    8.5053 C   0  0  1  0  0  0  0  0  0  0  0  0
   13.0160   -0.4817    7.9182 O   0  0  0  0  0  0  0  0  0  0  0  0
   12.6074   -2.8250    8.6446 C   0  0  2  0  0  0  0  0  0  0  0  0
   12.9907   -3.3991    7.3843 O   0  0  0  0  0  0  0  0  0  0  0  0
   11.5547   -3.7434    9.3130 C   0  0  2  0  0  0  0  0  0  0  0  0
   11.1432   -3.2118   10.5809 O   0  0  0  0  0  0  0  0  0  0  0  0
   12.0802   -5.1418    9.5101 C   0  0  0  0  0  0  0  0  0  0  0  0
   11.2158   -5.8691   10.2931 N   0  0  0  0  0  0  0  0  0  0  0  0
    5.2356   -2.8414   10.1647 C   0  0  1  0  0  0  0  0  0  0  0  0
    3.8704   -2.9405   10.7528 N   0  0  0  0  0  0  0  0  0  0  0  0
    5.5739   -1.3721    9.9519 C   0  0  2  0  0  0  0  0  0  0  0  0
    4.5913   -0.8204    9.1271 O   0  0  0  0  0  0  0  0  0  0  0  0
    6.9926   -1.2199    9.3182 C   0  0  1  0  0  0  0  0  0  0  0  0
    7.3142    0.1933    9.1393 O   0  0  0  0  0  0  0  0  0  0  0  0
    8.0735   -1.8697   10.2749 C   0  0  1  0  0  0  0  0  0  0  0  0
    7.7567   -3.3433   10.4801 C   0  0  1  0  0  0  0  0  0  0  0  0
    8.7694   -3.9239   11.3491 N   0  0  0  0  0  0  0  0  0  0  0  0
    6.3384   -3.4956   11.0919 C   0  0  0  0  0  0  0  0  0  0  0  0
    3.8970    0.1687    8.3358 C   0  0  0  0  0  0  0  0  0  0  0  0
    2.4527    0.2337    8.7766 C   0  0  0  0  0  0  0  0  0  0  0  0
    1.6683   -0.9775    8.4591 N   0  0  0  0  0  0  0  0  0  0  0  0
    1.2265   -2.3882    8.3743 C   0  0  0  0  0  0  0  0  0  0  0  0
    2.4322   -2.9280    7.5946 C   0  0  0  0  0  0  0  0  0  0  0  0
    2.1273   -3.1070    6.0955 C   0  0  0  0  0  0  0  0  0  0  0  0
    1.9718   -1.7571    5.4019 C   0  0  0  0  0  0  0  0  0  0  0  0
    3.2452   -1.0511    5.3902 N   0  0  0  0  0  0  0  0  0  0  0  0
    1.3033   -0.8745   15.6428 N   0  0  0  0  0  0  0  0  0  0  0  0
    3.6953   -1.8878   12.1697 C   0  0  0  0  0  0  0  0  0  0  0  0
    4.3389   -1.1944   12.6885 O   0  0  0  0  0  0  0  0  0  0  0  0
    2.2942   -2.4388   12.2737 C   0  0  2  0  0  0  0  0  0  0  0  0
    1.6011   -2.2587   11.1036 O   0  0  0  0  0  0  0  0  0  0  0  0
    1.5757   -1.6211   13.3413 C   0  0  0  0  0  0  0  0  0  0  0  0
    1.9925   -1.8649   14.8030 C   0  0  0  0  0  0  0  0  0  0  0  0
  1  2  1  6  0  0  0
  1  3  1  0  0  0  0
  3  4  1  6  0  0  0
  3  5  1  0  0  0  0
  5  6  1  1  0  0  0
  5  7  1  0  0  0  0
  7  8  1  6  0  0  0
  9  7  1  0  0  0  0
  9 10  1  0  0  0  0
  9 11  1  1  0  0  0
 10  1  1  0  0  0  0
 11 12  1  0  0  0  0
 13 14  1  1  0  0  0
 13 15  1  0  0  0  0
 13 22  1  0  0  0  0
 14 32  1  0  0  0  0
 15 16  1  6  0  0  0
 15 17  1  0  0  0  0
 16 23  1  0  0  0  0
 17 18  1  1  0  0  0
 17 19  1  0  0  0  0
 19  2  1  6  0  0  0
 19 20  1  0  0  0  0
 20 21  1  1  0  0  0
 20 22  1  0  0  0  0
 23 24  1  0  0  0  0
 24 25  1  0  0  0  0
 25 26  1  0  0  0  0
 26 27  1  0  0  0  0
 27 28  1  0  0  0  0
 28 29  1  0  0  0  0
 29 30  1  0  0  0  0
 31 37  1  0  0  0  0
 32 33  2  0  0  0  0
 34 32  1  6  0  0  0
 34 35  1  0  0  0  0
 34 36  1  0  0  0  0
 36 37  1  0  0  0  0
M  END
>  <CHROM.1>
-144.17067079,170.27001527,-50.73670067,-177.43997622,-128.00264804,157.92572183
-67.97456761,54.61728954,-61.93925104,-101.06934008,69.85323599,66.79729421
-55.38337990,-72.31846108,173.35923637,6.49567794,-2.02760890,9.83193289
-0.10825077,-0.10922770,1.67160036

>  <Name>
1o9m_lig

>  <RI>
0

>  <Rbt.Current_Directory>
/home/itssahil/PROJECTS/Mol_Feturizer/New_Systems/rnas/1o9m

>  <Rbt.Executable>
rbdock ($Id: //depot/dev/client3/rdock/2013.1/src/exe/rbdock.cxx#4 $)

>  <Rbt.Library>
libRbt.so (2013.1, Build901 2013/11/27)

>  <Rbt.Parameter_File>
/export/apps/rDock/src/rDock_2013.1_src/data/scripts/dock_solv.prm

>  <Rbt.Receptor>
prm/blind_docking_100.prm

>  <SCORE>
6.94655

>  <SCORE.INTER>
2.08302

>  <SCORE.INTER.CONST>
1

>  <SCORE.INTER.POLAR>
0

>  <SCORE.INTER.ROT>
15

>  <SCORE.INTER.SOLV>
17.8993

>  <SCORE.INTER.VDW>
-18.1778

>  <SCORE.INTER.norm>
0.0562977

>  <SCORE.INTRA>
4.71425

>  <SCORE.INTRA.DIHEDRAL>
-0.752889

>  <SCORE.INTRA.DIHEDRAL.0>
21.5987

>  <SCORE.INTRA.POLAR>
0

>  <SCORE.INTRA.POLAR.0>
0

>  <SCORE.INTRA.REPUL>
0

>  <SCORE.INTRA.REPUL.0>
0

>  <SCORE.INTRA.SOLV>
10.3982

>  <SCORE.INTRA.SOLV.lig_0>
-108.715

>  <SCORE.INTRA.VDW>
-0.108383

>  <SCORE.INTRA.VDW.0>
-3.9485

>  <SCORE.INTRA.norm>
0.127412

>  <SCORE.RESTR>
0.149286

>  <SCORE.RESTR.CAVITY>
0.149286

>  <SCORE.RESTR.norm>
0.00403476

>  <SCORE.SYSTEM>
0

>  <SCORE.SYSTEM.CONST>
0

>  <SCORE.SYSTEM.DIHEDRAL>
0

>  <SCORE.SYSTEM.SOLV>
0

>  <SCORE.SYSTEM.norm>
0

>  <SCORE.heavy>
37

>  <SCORE.norm>
0.187745

>  <RMSD>
24.273

$$$$
1o9m_lig
 OpenBabel11021811403D
libRbt.so/2013.1/901 2013/11/27
 37 38  0  0  0  0  0  0  0  0999 V2000
    2.8484    0.8659   11.4891 C   0  0  2  0  0  0  0  0  0  0  0  0
    4.2639    1.0495   11.7968 O   0  0  0  0  0  0  0  0  0  0  0  0
    2.0528    1.7675   12.5034 C   0  0  2  0  0  0  0  0  0  0  0  0
    2.4282    3.1884   12.3980 N   0  0  0  0  0  0  0  0  0  0  0  0
    2.2949    1.2334   13.9662 C   0  0  1  0  0  0  0  0  0  0  0  0
    1.5794    2.0370   14.9084 O   0  0  0  0  0  0  0  0  0  0  0  0
    1.8558   -0.2674   14.0146 C   0  0  2  0  0  0  0  0  0  0  0  0
    2.0507   -0.8640   15.3072 O   0  0  0  0  0  0  0  0  0  0  0  0
    2.6285   -1.0967   12.9594 C   0  0  2  0  0  0  0  0  0  0  0  0
    2.4598   -0.5401   11.6475 O   0  0  0  0  0  0  0  0  0  0  0  0
    2.1833   -2.5362   12.9469 C   0  0  0  0  0  0  0  0  0  0  0  0
    2.7639   -3.2049   11.8957 N   0  0  0  0  0  0  0  0  0  0  0  0
    7.4756   -0.5049    9.3290 C   0  0  1  0  0  0  0  0  0  0  0  0
    8.5138   -0.5757    8.2629 N   0  0  0  0  0  0  0  0  0  0  0  0
    7.7872    0.6736   10.2414 C   0  0  2  0  0  0  0  0  0  0  0  0
    9.0734    0.4914   10.7540 O   0  0  0  0  0  0  0  0  0  0  0  0
    6.7326    0.7762   11.3881 C   0  0  1  0  0  0  0  0  0  0  0  0
    7.0295    1.9223   12.2430 O   0  0  0  0  0  0  0  0  0  0  0  0
    5.2895    0.9666   10.7661 C   0  0  1  0  0  0  0  0  0  0  0  0
    4.9588   -0.2148    9.8667 C   0  0  1  0  0  0  0  0  0  0  0  0
    3.6241   -0.0271    9.3180 N   0  0  0  0  0  0  0  0  0  0  0  0
    6.0183   -0.3287    8.7382 C   0  0  0  0  0  0  0  0  0  0  0  0
   10.5152    0.4062   10.7747 C   0  0  0  0  0  0  0  0  0  0  0  0
   10.9677   -0.0341   12.1480 C   0  0  0  0  0  0  0  0  0  0  0  0
   10.7894   -1.4773   12.4096 N   0  0  0  0  0  0  0  0  0  0  0  0
   10.9970   -2.9433   12.4222 C   0  0  0  0  0  0  0  0  0  0  0  0
    9.9733   -3.2989   11.3366 C   0  0  0  0  0  0  0  0  0  0  0  0
    8.5229   -3.0737   11.8034 C   0  0  0  0  0  0  0  0  0  0  0  0
    7.5785   -4.0916   11.1716 C   0  0  0  0  0  0  0  0  0  0  0  0
    6.3611   -4.2028   11.9628 N   0  0  0  0  0  0  0  0  0  0  0  0
   12.1670   -3.1619    8.0031 N   0  0  0  0  0  0  0  0  0  0  0  0
    8.7934   -2.2471    7.7384 C   0  0  0  0  0  0  0  0  0  0  0  0
    8.3816   -3.2084    8.0036 O   0  0  0  0  0  0  0  0  0  0  0  0
    9.8383   -1.6702    6.8147 C   0  0  2  0  0  0  0  0  0  0  0  0
    9.2604   -0.9717    5.7851 O   0  0  0  0  0  0  0  0  0  0  0  0
   10.5741   -2.8495    6.1883 C   0  0  0  0  0  0  0  0  0  0  0  0
   12.0631   -3.0100    6.5446 C   0  0  0  0  0  0  0  0  0  0  0  0
  1  2  1  1  0  0  0
  1  3  1  0  0  0  0
  3  4  1  1  0  0  0
  3  5  1  0  0  0  0
  5  6  1  1  0  0  0
  5  7  1  0  0  0  0
  7  8  1  1  0  0  0
  9  7  1  0  0  0  0
  9 10  1  0  0  0  0
  9 11  1  6  0  0  0
 10  1  1  0  0  0  0
 11 12  1  0  0  0  0
 13 14  1  6  0  0  0
 13 15  1  0  0  0  0
 13 22  1  0  0  0  0
 14 32  1  0  0  0  0
 15 16  1  1  0  0  0
 15 17  1  0  0  0  0
 16 23  1  0  0  0  0
 17 18  1  1  0  0  0
 17 19  1  0  0  0  0
 19  2  1  1  0  0  0
 19 20  1  0  0  0  0
 20 21  1  6  0  0  0
 20 22  1  0  0  0  0
 23 24  1  0  0  0  0
 24 25  1  0  0  0  0
 25 26  1  0  0  0  0
 26 27  1  0  0  0  0
 27 28  1  0  0  0  0
 28 29  1  0  0  0  0
 29 30  1  0  0  0  0
 31 37  1  0  0  0  0
 32 33  2  0  0  0  0
 34 32  1  1  0  0  0
 34 35  1  0  0  0  0
 34 36  1  0  0  0  0
 36 37  1  0  0  0  0
M  END
>  <CHROM.1>
-148.63230897,172.57997793,149.12829409,69.72116384,-175.30768988,-163.28752422
76.91930686,79.42049464,-100.97121417,-69.33832840,-147.04910761,158.83925299
-71.25380736,-114.72682607,59.29125831,6.55453247,-0.83053381,10.82506873
2.80038454,-0.48446533,1.97999354

>  <Name>
1o9m_lig

>  <RI>
0

>  <Rbt.Current_Directory>
/home/itssahil/PROJECTS/Mol_Feturizer/New_Systems/rnas/1o9m

>  <Rbt.Executable>
rbdock ($Id: //depot/dev/client3/rdock/2013.1/src/exe/rbdock.cxx#4 $)

>  <Rbt.Library>
libRbt.so (2013.1, Build901 2013/11/27)

>  <Rbt.Parameter_File>
/export/apps/rDock/src/rDock_2013.1_src/data/scripts/dock_solv.prm

>  <Rbt.Receptor>
prm/blind_docking_100.prm

>  <SCORE>
1.31724

>  <SCORE.INTER>
-1.99227

>  <SCORE.INTER.CONST>
1

>  <SCORE.INTER.POLAR>
-1.35341

>  <SCORE.INTER.ROT>
15

>  <SCORE.INTER.SOLV>
16.5566

>  <SCORE.INTER.VDW>
-15.9357

>  <SCORE.INTER.norm>
-0.0538453

>  <SCORE.INTRA>
3.30951

>  <SCORE.INTRA.DIHEDRAL>
-1.55089

>  <SCORE.INTRA.DIHEDRAL.0>
21.5987

>  <SCORE.INTRA.POLAR>
0

>  <SCORE.INTRA.POLAR.0>
0

>  <SCORE.INTRA.REPUL>
0.0323278

>  <SCORE.INTRA.REPUL.0>
0

>  <SCORE.INTRA.SOLV>
5.63542

>  <SCORE.INTRA.SOLV.lig_0>
-108.715

>  <SCORE.INTRA.VDW>
1.10561

>  <SCORE.INTRA.VDW.0>
-3.9485

>  <SCORE.INTRA.norm>
0.0894463

>  <SCORE.RESTR>
0

>  <SCORE.RESTR.CAVITY>
0

>  <SCORE.RESTR.norm>
0

>  <SCORE.SYSTEM>
0

>  <SCORE.SYSTEM.CONST>
0

>  <SCORE.SYSTEM.DIHEDRAL>
0

>  <SCORE.SYSTEM.SOLV>
0

>  <SCORE.SYSTEM.norm>
0

>  <SCORE.heavy>
37

>  <SCORE.norm>
0.035601

>  <RMSD>
24.285

$$$$
1o9m_lig
 OpenBabel11021811403D
libRbt.so/2013.1/901 2013/11/27
 37 38  0  0  0  0  0  0  0  0999 V2000
   11.8272   -1.9791   11.6927 C   0  0  2  0  0  0  0  0  0  0  0  0
   11.2679   -1.0421   10.7224 O   0  0  0  0  0  0  0  0  0  0  0  0
   13.2895   -2.2991   11.2091 C   0  0  2  0  0  0  0  0  0  0  0  0
   14.1226   -1.0875   11.1158 N   0  0  0  0  0  0  0  0  0  0  0  0
   13.2216   -3.0381    9.8187 C   0  0  1  0  0  0  0  0  0  0  0  0
   14.5410   -3.3420    9.3578 O   0  0  0  0  0  0  0  0  0  0  0  0
   12.3454   -4.3223    9.9931 C   0  0  2  0  0  0  0  0  0  0  0  0
   12.2015   -5.0689    8.7738 O   0  0  0  0  0  0  0  0  0  0  0  0
   10.9376   -3.9548   10.5236 C   0  0  2  0  0  0  0  0  0  0  0  0
   11.0301   -3.2097   11.7466 O   0  0  0  0  0  0  0  0  0  0  0  0
   10.0915   -5.1803   10.7539 C   0  0  0  0  0  0  0  0  0  0  0  0
    8.8508   -4.8206   11.2237 N   0  0  0  0  0  0  0  0  0  0  0  0
    7.2400   -0.4288   12.2125 C   0  0  1  0  0  0  0  0  0  0  0  0
    5.8608    0.1209   12.3352 N   0  0  0  0  0  0  0  0  0  0  0  0
    7.3999   -1.0523   10.8326 C   0  0  2  0  0  0  0  0  0  0  0  0
    6.4152   -2.0319   10.6874 O   0  0  0  0  0  0  0  0  0  0  0  0
    8.8284   -1.6597   10.6649 C   0  0  1  0  0  0  0  0  0  0  0  0
    8.9766   -2.2349    9.3309 O   0  0  0  0  0  0  0  0  0  0  0  0
    9.9136   -0.5224   10.8513 C   0  0  1  0  0  0  0  0  0  0  0  0
    9.7761    0.0957   12.2343 C   0  0  1  0  0  0  0  0  0  0  0  0
   10.7911    1.1268   12.3900 N   0  0  0  0  0  0  0  0  0  0  0  0
    8.3495    0.6822   12.4083 C   0  0  0  0  0  0  0  0  0  0  0  0
    5.6995   -3.1470   10.1122 C   0  0  0  0  0  0  0  0  0  0  0  0
    5.2332   -2.7756    8.7233 C   0  0  0  0  0  0  0  0  0  0  0  0
    3.8178   -2.3579    8.6519 N   0  0  0  0  0  0  0  0  0  0  0  0
    2.4527   -2.0855    8.1472 C   0  0  0  0  0  0  0  0  0  0  0  0
    2.8318   -1.0176    7.1133 C   0  0  0  0  0  0  0  0  0  0  0  0
    3.1118    0.3512    7.7615 C   0  0  0  0  0  0  0  0  0  0  0  0
    1.8235    0.9936    8.2662 C   0  0  0  0  0  0  0  0  0  0  0  0
    0.8831    1.1592    7.1668 N   0  0  0  0  0  0  0  0  0  0  0  0
    2.9036    1.5238   14.6055 N   0  0  0  0  0  0  0  0  0  0  0  0
    5.5441    1.3610   11.1070 C   0  0  0  0  0  0  0  0  0  0  0  0
    6.1101    1.7936   10.2967 O   0  0  0  0  0  0  0  0  0  0  0  0
    4.1846    1.4975   11.7480 C   0  0  2  0  0  0  0  0  0  0  0  0
    3.2733    2.0306   10.8721 O   0  0  0  0  0  0  0  0  0  0  0  0
    4.3330    2.4958   12.8908 C   0  0  0  0  0  0  0  0  0  0  0  0
    3.0976    2.7247   13.7802 C   0  0  0  0  0  0  0  0  0  0  0  0
  1  2  1  6  0  0  0
  1  3  1  0  0  0  0
  3  4  1  6  0  0  0
  3  5  1  0  0  0  0
  5  6  1  1  0  0  0
  5  7  1  0  0  0  0
  7  8  1  6  0  0  0
  9  7  1  0  0  0  0
  9 10  1  0  0  0  0
  9 11  1  1  0  0  0
 10  1  1  0  0  0  0
 11 12  1  0  0  0  0
 13 14  1  6  0  0  0
 13 15  1  0  0  0  0
 13 22  1  0  0  0  0
 14 32  1  0  0  0  0
 15 16  1  1  0  0  0
 15 17  1  0  0  0  0
 16 23  1  0  0  0  0
 17 18  1  6  0  0  0
 17 19  1  0  0  0  0
 19  2  1  1  0  0  0
 19 20  1  0  0  0  0
 20 21  1  6  0  0  0
 20 22  1  0  0  0  0
 23 24  1  0  0  0  0
 24 25  1  0  0  0  0
 25 26  1  0  0  0  0
 26 27  1  0  0  0  0
 27 28  1  0  0  0  0
 28 29  1  0  0  0  0
 29 30  1  0  0  0  0
 31 37  1  0  0  0  0
 32 33  2  0  0  0  0
 34 32  1  6  0  0  0
 34 35  1  0  0  0  0
 34 36  1  0  0  0  0
 36 37  1  0  0  0  0
M  END
>  <CHROM.1>
179.94377241,179.99782237,-59.96679306,-169.35530578,-60.91720496,-66.46596932
-99.41677340,-154.65973327,-64.51345886,-77.59752561,-71.39906019,-58.50538967
-157.30584019,-175.26283411,71.67952237,7.64544537,-1.11521634,10.57438610
-0.25368297,-0.30013748,0.75089588

>  <Name>
1o9m_lig

>  <RI>
0

>  <Rbt.Current_Directory>
/home/itssahil/PROJECTS/Mol_Feturizer/New_Systems/rnas/1o9m

>  <Rbt.Executable>
rbdock ($Id: //depot/dev/client3/rdock/2013.1/src/exe/rbdock.cxx#4 $)

>  <Rbt.Library>
libRbt.so (2013.1, Build901 2013/11/27)

>  <Rbt.Parameter_File>
/export/apps/rDock/src/rDock_2013.1_src/data/scripts/dock_solv.prm

>  <Rbt.Receptor>
prm/blind_docking_60.prm

>  <SCORE>
-5.48564

>  <SCORE.INTER>
-1.58697

>  <SCORE.INTER.CONST>
1

>  <SCORE.INTER.POLAR>
-0.773971

>  <SCORE.INTER.ROT>
15

>  <SCORE.INTER.SOLV>
20.5514

>  <SCORE.INTER.VDW>
-18.9285

>  <SCORE.INTER.norm>
-0.042891

>  <SCORE.INTRA>
-3.91896

>  <SCORE.INTRA.DIHEDRAL>
-12.5836

>  <SCORE.INTRA.DIHEDRAL.0>
21.5987

>  <SCORE.INTRA.POLAR>
0

>  <SCORE.INTRA.POLAR.0>
0

>  <SCORE.INTRA.REPUL>
0

>  <SCORE.INTRA.REPUL.0>
0

>  <SCORE.INTRA.SOLV>
6.46293

>  <SCORE.INTRA.SOLV.lig_0>
-108.715

>  <SCORE.INTRA.VDW>
-0.85863

>  <SCORE.INTRA.VDW.0>
-3.9485

>  <SCORE.INTRA.norm>
-0.105918

>  <SCORE.RESTR>
0.0202869

>  <SCORE.RESTR.CAVITY>
0.0202869

>  <SCORE.RESTR.norm>
0.000548295

>  <SCORE.SYSTEM>
0

>  <SCORE.SYSTEM.CONST>
0

>  <SCORE.SYSTEM.DIHEDRAL>
0

>  <SCORE.SYSTEM.SOLV>
0

>  <SCORE.SYSTEM.norm>
0

>  <SCORE.heavy>
37

>  <SCORE.norm>
-0.148261

>  <RMSD>
24.288

$$$$
1o9m_lig
 OpenBabel11021811403D
libRbt.so/2013.1/901 2013/11/27
 37 38  0  0  0  0  0  0  0  0999 V2000
    2.3197    0.7238   12.0601 C   0  0  2  0  0  0  0  0  0  0  0  0
    3.7773    0.7009   11.9757 O   0  0  0  0  0  0  0  0  0  0  0  0
    1.8918    2.2331   11.9439 C   0  0  2  0  0  0  0  0  0  0  0  0
    2.3497    2.8461   10.6848 N   0  0  0  0  0  0  0  0  0  0  0  0
    2.4528    3.0242   13.1862 C   0  0  1  0  0  0  0  0  0  0  0  0
    2.0748    4.4012   13.1044 O   0  0  0  0  0  0  0  0  0  0  0  0
    1.9118    2.3382   14.4839 C   0  0  2  0  0  0  0  0  0  0  0  0
    2.3783    2.9726   15.6859 O   0  0  0  0  0  0  0  0  0  0  0  0
    2.3136    0.8430   14.5193 C   0  0  2  0  0  0  0  0  0  0  0  0
    1.8639    0.1643   13.3376 O   0  0  0  0  0  0  0  0  0  0  0  0
    1.7566    0.1449   15.7329 C   0  0  0  0  0  0  0  0  0  0  0  0
    0.3925    0.0160   15.6236 N   0  0  0  0  0  0  0  0  0  0  0  0
    6.8829   -2.1998   11.1030 C   0  0  1  0  0  0  0  0  0  0  0  0
    7.6383   -3.4839   11.0978 N   0  0  0  0  0  0  0  0  0  0  0  0
    5.4997   -2.4408   10.5138 C   0  0  2  0  0  0  0  0  0  0  0  0
    5.6652   -2.9626    9.2291 O   0  0  0  0  0  0  0  0  0  0  0  0
    4.6761   -1.1147   10.4819 C   0  0  1  0  0  0  0  0  0  0  0  0
    3.3449   -1.3628    9.9353 O   0  0  0  0  0  0  0  0  0  0  0  0
    4.5243   -0.5490   11.9525 C   0  0  1  0  0  0  0  0  0  0  0  0
    5.9003   -0.2863   12.5454 C   0  0  1  0  0  0  0  0  0  0  0  0
    5.7376    0.2464   13.8897 N   0  0  0  0  0  0  0  0  0  0  0  0
    6.7261   -1.6005   12.5590 C   0  0  0  0  0  0  0  0  0  0  0  0
    5.9623   -2.9928    7.8158 C   0  0  0  0  0  0  0  0  0  0  0  0
    7.4431   -2.7667    7.6140 C   0  0  0  0  0  0  0  0  0  0  0  0
    7.9823   -1.6018    8.3455 N   0  0  0  0  0  0  0  0  0  0  0  0
    8.1578   -0.2334    8.8831 C   0  0  0  0  0  0  0  0  0  0  0  0
    9.5326   -0.4476    9.5288 C   0  0  0  0  0  0  0  0  0  0  0  0
   10.0889    0.8412   10.1627 C   0  0  0  0  0  0  0  0  0  0  0  0
    9.6368    0.9791   11.6132 C   0  0  0  0  0  0  0  0  0  0  0  0
   10.5943    0.3320   12.4991 N   0  0  0  0  0  0  0  0  0  0  0  0
   10.9102   -4.1348    9.2802 N   0  0  0  0  0  0  0  0  0  0  0  0
    8.8317   -3.5408   12.4091 C   0  0  0  0  0  0  0  0  0  0  0  0
    9.1232   -2.8722   13.2041 O   0  0  0  0  0  0  0  0  0  0  0  0
    9.2091   -4.8965   11.8638 C   0  0  2  0  0  0  0  0  0  0  0  0
    8.9951   -5.8831   12.7927 O   0  0  0  0  0  0  0  0  0  0  0  0
   10.7095   -4.8627   11.5950 C   0  0  0  0  0  0  0  0  0  0  0  0
   11.2252   -3.7507   10.6638 C   0  0  0  0  0  0  0  0  0  0  0  0
  1  2  1  1  0  0  0
  1  3  1  0  0  0  0
  3  4  1  6  0  0  0
  3  5  1  0  0  0  0
  5  6  1  6  0  0  0
  5  7  1  0  0  0  0
  7  8  1  1  0  0  0
  9  7  1  0  0  0  0
  9 10  1  0  0  0  0
  9 11  1  1  0  0  0
 10  1  1  0  0  0  0
 11 12  1  0  0  0  0
 13 14  1  1  0  0  0
 13 15  1  0  0  0  0
 13 22  1  0  0  0  0
 14 32  1  0  0  0  0
 15 16  1  6  0  0  0
 15 17  1  0  0  0  0
 16 23  1  0  0  0  0
 17 18  1  1  0  0  0
 17 19  1  0  0  0  0
 19  2  1  6  0  0  0
 19 20  1  0  0  0  0
 20 21  1  1  0  0  0
 20 22  1  0  0  0  0
 23 24  1  0  0  0  0
 24 25  1  0  0  0  0
 25 26  1  0  0  0  0
 26 27  1  0  0  0  0
 27 28  1  0  0  0  0
 28 29  1  0  0  0  0
 29 30  1  0  0  0  0
 31 37  1  0  0  0  0
 32 33  2  0  0  0  0
 34 32  1  1  0  0  0
 34 35  1  0  0  0  0
 34 36  1  0  0  0  0
 36 37  1  0  0  0  0
M  END
>  <CHROM.1>
-175.57311223,70.08991979,-151.48333745,-74.57645014,68.77784036,87.09096272
-49.41409425,-49.01281911,-172.33884042,177.39498684,89.02424730,89.50154154
-118.52972010,-55.96907940,-77.02507816,5.94286402,-0.83842246,11.73454064
2.96213875,-0.65038000,1.84616708

>  <Name>
1o9m_lig

>  <RI>
0

>  <Rbt.Current_Directory>
/home/itssahil/PROJECTS/Mol_Feturizer/New_Systems/rnas/1o9m

>  <Rbt.Executable>
rbdock ($Id: //depot/dev/client3/rdock/2013.1/src/exe/rbdock.cxx#4 $)

>  <Rbt.Library>
libRbt.so (2013.1, Build901 2013/11/27)

>  <Rbt.Parameter_File>
/export/apps/rDock/src/rDock_2013.1_src/data/scripts/dock_solv.prm

>  <Rbt.Receptor>
prm/blind_docking_60.prm

>  <SCORE>
-12.2655

>  <SCORE.INTER>
-10.7808

>  <SCORE.INTER.CONST>
1

>  <SCORE.INTER.POLAR>
-3.28651

>  <SCORE.INTER.ROT>
15

>  <SCORE.INTER.SOLV>
23.6907

>  <SCORE.INTER.VDW>
-17.7291

>  <SCORE.INTER.norm>
-0.291373

>  <SCORE.INTRA>
-1.50585

>  <SCORE.INTRA.DIHEDRAL>
-6.47112

>  <SCORE.INTRA.DIHEDRAL.0>
21.5987

>  <SCORE.INTRA.POLAR>
0

>  <SCORE.INTRA.POLAR.0>
0

>  <SCORE.INTRA.REPUL>
0

>  <SCORE.INTRA.REPUL.0>
0

>  <SCORE.INTRA.SOLV>
7.54312

>  <SCORE.INTRA.SOLV.lig_0>
-108.715

>  <SCORE.INTRA.VDW>
-2.04185

>  <SCORE.INTRA.VDW.0>
-3.9485

>  <SCORE.INTRA.norm>
-0.0406986

>  <SCORE.RESTR>
0.0211632

>  <SCORE.RESTR.CAVITY>
0.0211632

>  <SCORE.RESTR.norm>
0.00057198

>  <SCORE.SYSTEM>
0

>  <SCORE.SYSTEM.CONST>
0

>  <SCORE.SYSTEM.DIHEDRAL>
0

>  <SCORE.SYSTEM.SOLV>
0

>  <SCORE.SYSTEM.norm>
0

>  <SCORE.heavy>
37

>  <SCORE.norm>
-0.3315

>  <RMSD>
24.289

$$$$
1o9m_lig
 OpenBabel11021811403D
libRbt.so/2013.1/901 2013/11/27
 37 38  0  0  0  0  0  0  0  0999 V2000
    8.6067   -4.0466    9.9884 C   0  0  2  0  0  0  0  0  0  0  0  0
    8.5143   -3.1047   11.1004 O   0  0  0  0  0  0  0  0  0  0  0  0
    9.3811   -5.3026   10.5336 C   0  0  2  0  0  0  0  0  0  0  0  0
    8.6991   -5.9210   11.6840 N   0  0  0  0  0  0  0  0  0  0  0  0
   10.8485   -4.8754   10.9184 C   0  0  1  0  0  0  0  0  0  0  0  0
   11.5749   -6.0025   11.4160 O   0  0  0  0  0  0  0  0  0  0  0  0
   11.5209   -4.2507    9.6515 C   0  0  2  0  0  0  0  0  0  0  0  0
   12.8659   -3.8076    9.8953 O   0  0  0  0  0  0  0  0  0  0  0  0
   10.6885   -3.0556    9.1248 C   0  0  2  0  0  0  0  0  0  0  0  0
    9.3345   -3.4516    8.8619 O   0  0  0  0  0  0  0  0  0  0  0  0
   11.2851   -2.4706    7.8709 C   0  0  0  0  0  0  0  0  0  0  0  0
   11.2329   -3.3861    6.8470 N   0  0  0  0  0  0  0  0  0  0  0  0
    4.9027   -1.1541   12.5047 C   0  0  1  0  0  0  0  0  0  0  0  0
    3.7952   -0.1627   12.6057 N   0  0  0  0  0  0  0  0  0  0  0  0
    4.8793   -1.7776   11.1158 C   0  0  2  0  0  0  0  0  0  0  0  0
    3.6219   -2.3543   10.9251 O   0  0  0  0  0  0  0  0  0  0  0  0
    6.0145   -2.8395   10.9698 C   0  0  1  0  0  0  0  0  0  0  0  0
    5.9956   -3.4143    9.6275 O   0  0  0  0  0  0  0  0  0  0  0  0
    7.4196   -2.1502   11.2075 C   0  0  1  0  0  0  0  0  0  0  0  0
    7.4620   -1.5394   12.6000 C   0  0  1  0  0  0  0  0  0  0  0  0
    8.7654   -0.9250   12.8029 N   0  0  0  0  0  0  0  0  0  0  0  0
    6.3212   -0.4979   12.7518 C   0  0  0  0  0  0  0  0  0  0  0  0
    2.5697   -3.1097   10.2856 C   0  0  0  0  0  0  0  0  0  0  0  0
    2.2954   -2.5226    8.9201 C   0  0  0  0  0  0  0  0  0  0  0  0
    1.0450   -3.0018    8.2958 N   0  0  0  0  0  0  0  0  0  0  0  0
   -0.3643   -3.0881    7.8498 C   0  0  0  0  0  0  0  0  0  0  0  0
   -0.8633   -4.0355    8.9481 C   0  0  0  0  0  0  0  0  0  0  0  0
   -0.5316   -5.5088    8.6455 C   0  0  0  0  0  0  0  0  0  0  0  0
   -1.2827   -5.9983    7.4112 C   0  0  0  0  0  0  0  0  0  0  0  0
   -1.0269   -7.4161    7.1997 N   0  0  0  0  0  0  0  0  0  0  0  0
    2.1262    2.9127   15.8701 N   0  0  0  0  0  0  0  0  0  0  0  0
    4.2036    1.3538   11.7810 C   0  0  0  0  0  0  0  0  0  0  0  0
    5.0538    1.7127   11.2221 O   0  0  0  0  0  0  0  0  0  0  0  0
    2.8561    1.8472   12.2483 C   0  0  2  0  0  0  0  0  0  0  0  0
    2.4518    2.9440   11.5303 O   0  0  0  0  0  0  0  0  0  0  0  0
    3.0296    2.3057   13.6921 C   0  0  0  0  0  0  0  0  0  0  0  0
    1.7705    2.3091   14.5777 C   0  0  0  0  0  0  0  0  0  0  0  0
  1  2  1  1  0  0  0
  1  3  1  0  0  0  0
  3  4  1  1  0  0  0
  3  5  1  0  0  0  0
  5  6  1  6  0  0  0
  5  7  1  0  0  0  0
  7  8  1  1  0  0  0
  9  7  1  0  0  0  0
  9 10  1  0  0  0  0
  9 11  1  6  0  0  0
 10  1  1  0  0  0  0
 11 12  1  0  0  0  0
 13 14  1  6  0  0  0
 13 15  1  0  0  0  0
 13 22  1  0  0  0  0
 14 32  1  0  0  0  0
 15 16  1  1  0  0  0
 15 17  1  0  0  0  0
 16 23  1  0  0  0  0
 17 18  1  6  0  0  0
 17 19  1  0  0  0  0
 19  2  1  1  0  0  0
 19 20  1  0  0  0  0
 20 21  1  6  0  0  0
 20 22  1  0  0  0  0
 23 24  1  0  0  0  0
 24 25  1  0  0  0  0
 25 26  1  0  0  0  0
 26 27  1  0  0  0  0
 27 28  1  0  0  0  0
 28 29  1  0  0  0  0
 29 30  1  0  0  0  0
 31 37  1  0  0  0  0
 32 33  2  0  0  0  0
 34 32  1  6  0  0  0
 34 35  1  0  0  0  0
 34 36  1  0  0  0  0
 36 37  1  0  0  0  0
M  END
>  <CHROM.1>
-151.86386289,65.00691895,-77.62671010,-174.26961408,-58.13229930,47.42865658
-166.68946075,96.68372485,-99.33587595,-81.25470525,-65.50987422,-176.03640633
-162.03073044,-155.72129608,-174.10457015,5.61274541,-2.32157227,10.62074797
0.23518420,0.09308390,-2.53001542

>  <Name>
1o9m_lig

>  <RI>
0

>  <Rbt.Current_Directory>
/home/itssahil/PROJECTS/Mol_Feturizer/New_Systems/rnas/1o9m

>  <Rbt.Executable>
rbdock ($Id: //depot/dev/client3/rdock/2013.1/src/exe/rbdock.cxx#4 $)

>  <Rbt.Library>
libRbt.so (2013.1, Build901 2013/11/27)

>  <Rbt.Parameter_File>
/export/apps/rDock/src/rDock_2013.1_src/data/scripts/dock_solv.prm

>  <Rbt.Receptor>
prm/blind_docking_80.prm

>  <SCORE>
-11.3638

>  <SCORE.INTER>
-8.17544

>  <SCORE.INTER.CONST>
1

>  <SCORE.INTER.POLAR>
-1.79232

>  <SCORE.INTER.ROT>
15

>  <SCORE.INTER.SOLV>
20.213

>  <SCORE.INTER.VDW>
-19.8136

>  <SCORE.INTER.norm>
-0.220958

>  <SCORE.INTRA>
-3.18834

>  <SCORE.INTRA.DIHEDRAL>
-9.7748

>  <SCORE.INTRA.DIHEDRAL.0>
21.5987

>  <SCORE.INTRA.POLAR>
0

>  <SCORE.INTRA.POLAR.0>
0

>  <SCORE.INTRA.REPUL>
0

>  <SCORE.INTRA.REPUL.0>
0

>  <SCORE.INTRA.SOLV>
0.176339

>  <SCORE.INTRA.SOLV.lig_0>
-108.715

>  <SCORE.INTRA.VDW>
1.61089

>  <SCORE.INTRA.VDW.0>
-3.9485

>  <SCORE.INTRA.norm>
-0.0861713

>  <SCORE.RESTR>
0

>  <SCORE.RESTR.CAVITY>
0

>  <SCORE.RESTR.norm>
0

>  <SCORE.SYSTEM>
0

>  <SCORE.SYSTEM.CONST>
0

>  <SCORE.SYSTEM.DIHEDRAL>
0

>  <SCORE.SYSTEM.SOLV>
0

>  <SCORE.SYSTEM.norm>
0

>  <SCORE.heavy>
37

>  <SCORE.norm>
-0.307129

>  <RMSD>
24.292

$$$$
1o9m_lig
 OpenBabel11021811403D
libRbt.so/2013.1/901 2013/11/27
 37 38  0  0  0  0  0  0  0  0999 V2000
    1.7101    0.9989   12.5409 C   0  0  2  0  0  0  0  0  0  0  0  0
    3.1600    0.8972   12.4009 O   0  0  0  0  0  0  0  0  0  0  0  0
    1.3672    2.5338   12.5059 C   0  0  2  0  0  0  0  0  0  0  0  0
    1.8158    3.1760   11.2580 N   0  0  0  0  0  0  0  0  0  0  0  0
    2.0166    3.2349   13.7591 C   0  0  1  0  0  0  0  0  0  0  0  0
    1.7171    4.6334   13.7510 O   0  0  0  0  0  0  0  0  0  0  0  0
    1.4823    2.5229   15.0455 C   0  0  2  0  0  0  0  0  0  0  0  0
    2.0269    3.0748   16.2553 O   0  0  0  0  0  0  0  0  0  0  0  0
    1.7971    1.0072   15.0014 C   0  0  2  0  0  0  0  0  0  0  0  0
    1.2674    0.4091   13.8093 O   0  0  0  0  0  0  0  0  0  0  0  0
    1.2432    0.2877   16.2039 C   0  0  0  0  0  0  0  0  0  0  0  0
    1.2962   -1.0722   16.0111 N   0  0  0  0  0  0  0  0  0  0  0  0
    5.9810   -1.9268   10.7014 C   0  0  1  0  0  0  0  0  0  0  0  0
    6.6390   -3.2219   10.3708 N   0  0  0  0  0  0  0  0  0  0  0  0
    4.5476   -1.9586   10.1887 C   0  0  2  0  0  0  0  0  0  0  0  0
    4.5884   -2.2062    8.8150 O   0  0  0  0  0  0  0  0  0  0  0  0
    3.8224   -0.6108   10.4973 C   0  0  1  0  0  0  0  0  0  0  0  0
    2.4431   -0.6615   10.0206 O   0  0  0  0  0  0  0  0  0  0  0  0
    3.8109   -0.3603   12.0603 C   0  0  1  0  0  0  0  0  0  0  0  0
    5.2389   -0.3077   12.5817 C   0  0  1  0  0  0  0  0  0  0  0  0
    5.2058   -0.0621   14.0156 N   0  0  0  0  0  0  0  0  0  0  0  0
    5.9661   -1.6402   12.2575 C   0  0  0  0  0  0  0  0  0  0  0  0
    4.1102   -2.5179    7.4880 C   0  0  0  0  0  0  0  0  0  0  0  0
    5.2469   -2.3710    6.5026 C   0  0  0  0  0  0  0  0  0  0  0  0
    6.4185   -3.2206    6.7997 N   0  0  0  0  0  0  0  0  0  0  0  0
    7.6667   -3.7381    7.4052 C   0  0  0  0  0  0  0  0  0  0  0  0
    8.4224   -2.4050    7.4742 C   0  0  0  0  0  0  0  0  0  0  0  0
    9.9016   -2.5900    7.8612 C   0  0  0  0  0  0  0  0  0  0  0  0
   10.4062   -1.4077    8.6828 C   0  0  0  0  0  0  0  0  0  0  0  0
   11.8230   -1.5710    8.9763 N   0  0  0  0  0  0  0  0  0  0  0  0
    9.1874   -5.3237   13.1649 N   0  0  0  0  0  0  0  0  0  0  0  0
    8.1408   -3.4406   11.2892 C   0  0  0  0  0  0  0  0  0  0  0  0
    8.6727   -2.8633   12.0294 O   0  0  0  0  0  0  0  0  0  0  0  0
    8.2843   -4.7429   10.5402 C   0  0  2  0  0  0  0  0  0  0  0  0
    7.4370   -5.6994   11.0393 O   0  0  0  0  0  0  0  0  0  0  0  0
    9.7042   -5.2406   10.7870 C   0  0  0  0  0  0  0  0  0  0  0  0
    9.9595   -5.9909   12.1067 C   0  0  0  0  0  0  0  0  0  0  0  0
  1  2  1  1  0  0  0
  1  3  1  0  0  0  0
  3  4  1  6  0  0  0
  3  5  1  0  0  0  0
  5  6  1  1  0  0  0
  5  7  1  0  0  0  0
  7  8  1  1  0  0  0
  9  7  1  0  0  0  0
  9 10  1  0  0  0  0
  9 11  1  1  0  0  0
 10  1  1  0  0  0  0
 11 12  1  0  0  0  0
 13 14  1  1  0  0  0
 13 15  1  0  0  0  0
 13 22  1  0  0  0  0
 14 32  1  0  0  0  0
 15 16  1  6  0  0  0
 15 17  1  0  0  0  0
 16 23  1  0  0  0  0
 17 18  1  1  0  0  0
 17 19  1  0  0  0  0
 19  2  1  6  0  0  0
 19 20  1  0  0  0  0
 20 21  1  1  0  0  0
 20 22  1  0  0  0  0
 23 24  1  0  0  0  0
 24 25  1  0  0  0  0
 25 26  1  0  0  0  0
 26 27  1  0  0  0  0
 27 28  1  0  0  0  0
 28 29  1  0  0  0  0
 29 30  1  0  0  0  0
 31 37  1  0  0  0  0
 32 33  2  0  0  0  0
 34 32  1  1  0  0  0
 34 35  1  0  0  0  0
 34 36  1  0  0  0  0
 36 37  1  0  0  0  0
M  END
>  <CHROM.1>
-164.52907744,167.84098406,-164.95335974,169.80181537,173.35245198,84.02589876
57.90243454,-78.41716504,-42.69617422,-170.67015419,-147.01629970,-177.00818518
-76.10695511,81.90391873,-38.87260012,5.23975696,-1.18964048,11.41791020
2.69727885,-0.70005037,1.62967302

>  <Name>
1o9m_lig

>  <RI>
0

>  <Rbt.Current_Directory>
/home/itssahil/PROJECTS/Mol_Feturizer/New_Systems/rnas/1o9m

>  <Rbt.Executable>
rbdock ($Id: //depot/dev/client3/rdock/2013.1/src/exe/rbdock.cxx#4 $)

>  <Rbt.Library>
libRbt.so (2013.1, Build901 2013/11/27)

>  <Rbt.Parameter_File>
/export/apps/rDock/src/rDock_2013.1_src/data/scripts/dock_solv.prm

>  <Rbt.Receptor>
prm/blind_docking_20.prm

>  <SCORE>
-14.5495

>  <SCORE.INTER>
-12.5726

>  <SCORE.INTER.CONST>
1

>  <SCORE.INTER.POLAR>
-3.68455

>  <SCORE.INTER.ROT>
15

>  <SCORE.INTER.SOLV>
25.0741

>  <SCORE.INTER.VDW>
-18.0579

>  <SCORE.INTER.norm>
-0.339801

>  <SCORE.INTRA>
-2.25151

>  <SCORE.INTRA.DIHEDRAL>
-8.19319

>  <SCORE.INTRA.DIHEDRAL.0>
21.5987

>  <SCORE.INTRA.POLAR>
0

>  <SCORE.INTRA.POLAR.0>
0

>  <SCORE.INTRA.REPUL>
0.00243446

>  <SCORE.INTRA.REPUL.0>
0

>  <SCORE.INTRA.SOLV>
5.40125

>  <SCORE.INTRA.SOLV.lig_0>
-108.715

>  <SCORE.INTRA.VDW>
-0.867715

>  <SCORE.INTRA.VDW.0>
-3.9485

>  <SCORE.INTRA.norm>
-0.0608517

>  <SCORE.RESTR>
0.274592

>  <SCORE.RESTR.CAVITY>
0.274592

>  <SCORE.RESTR.norm>
0.00742139

>  <SCORE.SYSTEM>
0

>  <SCORE.SYSTEM.CONST>
0

>  <SCORE.SYSTEM.DIHEDRAL>
0

>  <SCORE.SYSTEM.SOLV>
0

>  <SCORE.SYSTEM.norm>
0

>  <SCORE.heavy>
37

>  <SCORE.norm>
-0.393231

>  <RMSD>
24.298

$$$$
1o9m_lig
 OpenBabel11021811403D
libRbt.so/2013.1/901 2013/11/27
 37 38  0  0  0  0  0  0  0  0999 V2000
    9.8713   -1.6927    7.3033 C   0  0  2  0  0  0  0  0  0  0  0  0
    8.9485   -2.4210    8.1696 O   0  0  0  0  0  0  0  0  0  0  0  0
   10.5589   -2.7677    6.3834 C   0  0  2  0  0  0  0  0  0  0  0  0
    9.5798   -3.5232    5.5825 N   0  0  0  0  0  0  0  0  0  0  0  0
   11.4155   -3.7402    7.2802 C   0  0  1  0  0  0  0  0  0  0  0  0
   12.0533   -4.7275    6.4654 O   0  0  0  0  0  0  0  0  0  0  0  0
   12.4463   -2.8797    8.0830 C   0  0  2  0  0  0  0  0  0  0  0  0
   13.2743   -3.6691    8.9525 O   0  0  0  0  0  0  0  0  0  0  0  0
   11.7195   -1.8030    8.9261 C   0  0  2  0  0  0  0  0  0  0  0  0
   10.8811   -0.9843    8.0977 O   0  0  0  0  0  0  0  0  0  0  0  0
   12.6937   -0.9234    9.6662 C   0  0  0  0  0  0  0  0  0  0  0  0
   13.3423   -1.6455   10.6396 N   0  0  0  0  0  0  0  0  0  0  0  0
    5.7701   -1.2050   10.8603 C   0  0  1  0  0  0  0  0  0  0  0  0
    5.0764   -0.5361   11.9964 N   0  0  0  0  0  0  0  0  0  0  0  0
    6.3923   -0.1395    9.9681 C   0  0  2  0  0  0  0  0  0  0  0  0
    5.3726    0.7168    9.5470 O   0  0  0  0  0  0  0  0  0  0  0  0
    7.1166   -0.7953    8.7503 C   0  0  1  0  0  0  0  0  0  0  0  0
    7.7273    0.2347    7.9144 O   0  0  0  0  0  0  0  0  0  0  0  0
    8.2526   -1.7678    9.2695 C   0  0  1  0  0  0  0  0  0  0  0  0
    7.6404   -2.8487   10.1474 C   0  0  1  0  0  0  0  0  0  0  0  0
    8.6982   -3.7390   10.6012 N   0  0  0  0  0  0  0  0  0  0  0  0
    6.9035   -2.1959   11.3475 C   0  0  0  0  0  0  0  0  0  0  0  0
    4.0491    1.1463    9.1592 C   0  0  0  0  0  0  0  0  0  0  0  0
    3.5226    0.2247    8.0831 C   0  0  0  0  0  0  0  0  0  0  0  0
    3.2780   -1.1594    8.5385 N   0  0  0  0  0  0  0  0  0  0  0  0
    3.1189   -2.6314    8.5509 C   0  0  0  0  0  0  0  0  0  0  0  0
    2.4001   -2.7655    7.2025 C   0  0  0  0  0  0  0  0  0  0  0  0
    3.3323   -2.4770    6.0109 C   0  0  0  0  0  0  0  0  0  0  0  0
    4.3790   -3.5757    5.8540 C   0  0  0  0  0  0  0  0  0  0  0  0
    5.3202   -3.2231    4.8004 N   0  0  0  0  0  0  0  0  0  0  0  0
    1.2759   -2.8655   13.8869 N   0  0  0  0  0  0  0  0  0  0  0  0
    3.7852   -1.5555   12.6601 C   0  0  0  0  0  0  0  0  0  0  0  0
    3.4007   -2.5390   12.4390 O   0  0  0  0  0  0  0  0  0  0  0  0
    3.5146   -0.4122   13.6073 C   0  0  2  0  0  0  0  0  0  0  0  0
    4.3260   -0.4787   14.7114 O   0  0  0  0  0  0  0  0  0  0  0  0
    2.0823   -0.5783   14.1028 C   0  0  0  0  0  0  0  0  0  0  0  0
    1.7547   -1.8761   14.8631 C   0  0  0  0  0  0  0  0  0  0  0  0
  1  2  1  1  0  0  0
  1  3  1  0  0  0  0
  3  4  1  1  0  0  0
  3  5  1  0  0  0  0
  5  6  1  6  0  0  0
  5  7  1  0  0  0  0
  7  8  1  1  0  0  0
  9  7  1  0  0  0  0
  9 10  1  0  0  0  0
  9 11  1  6  0  0  0
 10  1  1  0  0  0  0
 11 12  1  0  0  0  0
 13 14  1  1  0  0  0
 13 15  1  0  0  0  0
 13 22  1  0  0  0  0
 14 32  1  0  0  0  0
 15 16  1  6  0  0  0
 15 17  1  0  0  0  0
 16 23  1  0  0  0  0
 17 18  1  6  0  0  0
 17 19  1  0  0  0  0
 19  2  1  6  0  0  0
 19 20  1  0  0  0  0
 20 21  1  1  0  0  0
 20 22  1  0  0  0  0
 23 24  1  0  0  0  0
 24 25  1  0  0  0  0
 25 26  1  0  0  0  0
 26 27  1  0  0  0  0
 27 28  1  0  0  0  0
 28 29  1  0  0  0  0
 29 30  1  0  0  0  0
 31 37  1  0  0  0  0
 32 33  2  0  0  0  0
 34 32  1  6  0  0  0
 34 35  1  0  0  0  0
 34 36  1  0  0  0  0
 36 37  1  0  0  0  0
M  END
>  <CHROM.1>
172.36984300,-67.81556265,155.36123795,-30.83366607,-51.73526625,72.10394121
66.43988125,-152.31330926,-39.42323824,70.43555180,69.30456840,-174.91560247
-85.30314769,60.39332028,-91.60692006,6.91587539,-1.83108583,9.46750372,0.46900758
0.07352284,-1.75839184

>  <Name>
1o9m_lig

>  <RI>
0

>  <Rbt.Current_Directory>
/home/itssahil/PROJECTS/Mol_Feturizer/New_Systems/rnas/1o9m

>  <Rbt.Executable>
rbdock ($Id: //depot/dev/client3/rdock/2013.1/src/exe/rbdock.cxx#4 $)

>  <Rbt.Library>
libRbt.so (2013.1, Build901 2013/11/27)

>  <Rbt.Parameter_File>
/export/apps/rDock/src/rDock_2013.1_src/data/scripts/dock_solv.prm

>  <Rbt.Receptor>
prm/blind_docking_40.prm

>  <SCORE>
-9.4008

>  <SCORE.INTER>
-7.0788

>  <SCORE.INTER.CONST>
1

>  <SCORE.INTER.POLAR>
-1.18578

>  <SCORE.INTER.ROT>
15

>  <SCORE.INTER.SOLV>
15.6491

>  <SCORE.INTER.VDW>
-19.583

>  <SCORE.INTER.norm>
-0.191319

>  <SCORE.INTRA>
-2.35078

>  <SCORE.INTRA.DIHEDRAL>
-10.0861

>  <SCORE.INTRA.DIHEDRAL.0>
21.5987

>  <SCORE.INTRA.POLAR>
0

>  <SCORE.INTRA.POLAR.0>
0

>  <SCORE.INTRA.REPUL>
0

>  <SCORE.INTRA.REPUL.0>
0

>  <SCORE.INTRA.SOLV>
4.99388

>  <SCORE.INTRA.SOLV.lig_0>
-108.715

>  <SCORE.INTRA.VDW>
0.195357

>  <SCORE.INTRA.VDW.0>
-3.9485

>  <SCORE.INTRA.norm>
-0.0635345

>  <SCORE.RESTR>
0.0287718

>  <SCORE.RESTR.CAVITY>
0.0287718

>  <SCORE.RESTR.norm>
0.000777615

>  <SCORE.SYSTEM>
0

>  <SCORE.SYSTEM.CONST>
0

>  <SCORE.SYSTEM.DIHEDRAL>
0

>  <SCORE.SYSTEM.SOLV>
0

>  <SCORE.SYSTEM.norm>
0

>  <SCORE.heavy>
37

>  <SCORE.norm>
-0.254076

>  <RMSD>
24.303

$$$$
1o9m_lig
 OpenBabel11021811403D
libRbt.so/2013.1/901 2013/11/27
 37 38  0  0  0  0  0  0  0  0999 V2000
    3.0003    0.2841   11.5823 C   0  0  2  0  0  0  0  0  0  0  0  0
    4.2798    0.6626   12.1753 O   0  0  0  0  0  0  0  0  0  0  0  0
    2.0412    1.5165   11.7714 C   0  0  2  0  0  0  0  0  0  0  0  0
    2.5694    2.7357   11.1346 N   0  0  0  0  0  0  0  0  0  0  0  0
    1.8012    1.7504   13.3113 C   0  0  1  0  0  0  0  0  0  0  0  0
    0.9293    2.8666   13.5098 O   0  0  0  0  0  0  0  0  0  0  0  0
    1.2206    0.4308   13.9186 C   0  0  2  0  0  0  0  0  0  0  0  0
    0.9781    0.5268   15.3317 O   0  0  0  0  0  0  0  0  0  0  0  0
    2.1767   -0.7586   13.6550 C   0  0  2  0  0  0  0  0  0  0  0  0
    2.4458   -0.8976   12.2523 O   0  0  0  0  0  0  0  0  0  0  0  0
    1.6137   -2.0535   14.1813 C   0  0  0  0  0  0  0  0  0  0  0  0
    1.4935   -1.9989   15.5495 N   0  0  0  0  0  0  0  0  0  0  0  0
    8.3315   -0.3570   11.0069 C   0  0  1  0  0  0  0  0  0  0  0  0
    9.5646   -1.1636   10.7872 N   0  0  0  0  0  0  0  0  0  0  0  0
    7.1867   -0.9857   10.2241 C   0  0  2  0  0  0  0  0  0  0  0  0
    7.5633   -1.0380    8.8804 O   0  0  0  0  0  0  0  0  0  0  0  0
    5.8742   -0.1609   10.4101 C   0  0  1  0  0  0  0  0  0  0  0  0
    4.7793   -0.7855    9.6727 O   0  0  0  0  0  0  0  0  0  0  0  0
    5.4907   -0.1131   11.9452 C   0  0  1  0  0  0  0  0  0  0  0  0
    6.6196    0.5307   12.7358 C   0  0  1  0  0  0  0  0  0  0  0  0
    6.2408    0.5782   14.1400 N   0  0  0  0  0  0  0  0  0  0  0  0
    7.9292   -0.2780   12.5352 C   0  0  0  0  0  0  0  0  0  0  0  0
    7.8346   -0.5761    7.5389 C   0  0  0  0  0  0  0  0  0  0  0  0
    8.2943   -1.7425    6.6947 C   0  0  0  0  0  0  0  0  0  0  0  0
    7.2959   -2.8234    6.5616 N   0  0  0  0  0  0  0  0  0  0  0  0
    6.0623   -3.6285    6.7113 C   0  0  0  0  0  0  0  0  0  0  0  0
    5.0740   -2.4605    6.8210 C   0  0  0  0  0  0  0  0  0  0  0  0
    3.6107   -2.9362    6.8888 C   0  0  0  0  0  0  0  0  0  0  0  0
    2.6483   -1.7525    6.8952 C   0  0  0  0  0  0  0  0  0  0  0  0
    1.2756   -2.2246    7.0097 N   0  0  0  0  0  0  0  0  0  0  0  0
   12.5870   -3.4421    6.9210 N   0  0  0  0  0  0  0  0  0  0  0  0
   10.8656   -0.1834   10.0848 C   0  0  0  0  0  0  0  0  0  0  0  0
   10.9694    0.8506    9.7949 O   0  0  0  0  0  0  0  0  0  0  0  0
   11.6799   -1.4540   10.0868 C   0  0  2  0  0  0  0  0  0  0  0  0
   12.9406   -1.2358   10.5818 O   0  0  0  0  0  0  0  0  0  0  0  0
   11.8454   -1.8751    8.6308 C   0  0  0  0  0  0  0  0  0  0  0  0
   12.6227   -3.1774    8.3666 C   0  0  0  0  0  0  0  0  0  0  0  0
  1  2  1  1  0  0  0
  1  3  1  0  0  0  0
  3  4  1  1  0  0  0
  3  5  1  0  0  0  0
  5  6  1  6  0  0  0
  5  7  1  0  0  0  0
  7  8  1  1  0  0  0
  9  7  1  0  0  0  0
  9 10  1  0  0  0  0
  9 11  1  6  0  0  0
 10  1  1  0  0  0  0
 11 12  1  0  0  0  0
 13 14  1  1  0  0  0
 13 15  1  0  0  0  0
 13 22  1  0  0  0  0
 14 32  1  0  0  0  0
 15 16  1  6  0  0  0
 15 17  1  0  0  0  0
 16 23  1  0  0  0  0
 17 18  1  6  0  0  0
 17 19  1  0  0  0  0
 19  2  1  6  0  0  0
 19 20  1  0  0  0  0
 20 21  1  1  0  0  0
 20 22  1  0  0  0  0
 23 24  1  0  0  0  0
 24 25  1  0  0  0  0
 25 26  1  0  0  0  0
 26 27  1  0  0  0  0
 27 28  1  0  0  0  0
 28 29  1  0  0  0  0
 29 30  1  0  0  0  0
 31 37  1  0  0  0  0
 32 33  2  0  0  0  0
 34 32  1  6  0  0  0
 34 35  1  0  0  0  0
 34 36  1  0  0  0  0
 36 37  1  0  0  0  0
M  END
>  <CHROM.1>
-166.95456259,-64.01130752,121.31199299,-76.14183885,-179.71865981,60.85866134
61.43651128,-2.61946076,34.18323255,175.72192937,-175.88524092,-177.90076026
-133.87229844,-178.65931032,176.27284732,5.92899517,-0.73281103,10.55176825
2.62223120,-0.01092805,1.15536233

>  <Name>
1o9m_lig

>  <RI>
0

>  <Rbt.Current_Directory>
/home/itssahil/PROJECTS/Mol_Feturizer/New_Systems/rnas/1o9m

>  <Rbt.Executable>
rbdock ($Id: //depot/dev/client3/rdock/2013.1/src/exe/rbdock.cxx#4 $)

>  <Rbt.Library>
libRbt.so (2013.1, Build901 2013/11/27)

>  <Rbt.Parameter_File>
/export/apps/rDock/src/rDock_2013.1_src/data/scripts/dock_solv.prm

>  <Rbt.Receptor>
prm/blind_docking_80.prm

>  <SCORE>
-11.8874

>  <SCORE.INTER>
-3.71965

>  <SCORE.INTER.CONST>
1

>  <SCORE.INTER.POLAR>
-1.51685

>  <SCORE.INTER.ROT>
15

>  <SCORE.INTER.SOLV>
22.2137

>  <SCORE.INTER.VDW>
-18.4282

>  <SCORE.INTER.norm>
-0.100531

>  <SCORE.INTRA>
-8.26749

>  <SCORE.INTRA.DIHEDRAL>
-14.0711

>  <SCORE.INTRA.DIHEDRAL.0>
21.5987

>  <SCORE.INTRA.POLAR>
0

>  <SCORE.INTRA.POLAR.0>
0

>  <SCORE.INTRA.REPUL>
0

>  <SCORE.INTRA.REPUL.0>
0

>  <SCORE.INTRA.SOLV>
-0.195347

>  <SCORE.INTRA.SOLV.lig_0>
-108.715

>  <SCORE.INTRA.VDW>
-1.13425

>  <SCORE.INTRA.VDW.0>
-3.9485

>  <SCORE.INTRA.norm>
-0.223446

>  <SCORE.RESTR>
0.0996967

>  <SCORE.RESTR.CAVITY>
0.0996967

>  <SCORE.RESTR.norm>
0.00269451

>  <SCORE.SYSTEM>
0

>  <SCORE.SYSTEM.CONST>
0

>  <SCORE.SYSTEM.DIHEDRAL>
0

>  <SCORE.SYSTEM.SOLV>
0

>  <SCORE.SYSTEM.norm>
0

>  <SCORE.heavy>
37

>  <SCORE.norm>
-0.321282

>  <RMSD>
24.306

$$$$
1o9m_lig
 OpenBabel11021811403D
libRbt.so/2013.1/901 2013/11/27
 37 38  0  0  0  0  0  0  0  0999 V2000
    9.7519   -2.2563    8.0548 C   0  0  2  0  0  0  0  0  0  0  0  0
    8.8130   -3.2451    8.5772 O   0  0  0  0  0  0  0  0  0  0  0  0
   10.5723   -2.9776    6.9229 C   0  0  2  0  0  0  0  0  0  0  0  0
    9.7052   -3.4908    5.8478 N   0  0  0  0  0  0  0  0  0  0  0  0
   11.4170   -4.1440    7.5631 C   0  0  1  0  0  0  0  0  0  0  0  0
   12.1745   -4.8153    6.5526 O   0  0  0  0  0  0  0  0  0  0  0  0
   12.3289   -3.5295    8.6759 C   0  0  2  0  0  0  0  0  0  0  0  0
   13.1359   -4.5142    9.3422 O   0  0  0  0  0  0  0  0  0  0  0  0
   11.4752   -2.7848    9.7319 C   0  0  2  0  0  0  0  0  0  0  0  0
   10.6530   -1.7850    9.1124 O   0  0  0  0  0  0  0  0  0  0  0  0
   12.3344   -2.1352   10.7856 C   0  0  0  0  0  0  0  0  0  0  0  0
   13.1597   -1.1962   10.2144 N   0  0  0  0  0  0  0  0  0  0  0  0
    5.2067   -2.7813   10.9437 C   0  0  1  0  0  0  0  0  0  0  0  0
    4.3224   -2.4822   12.1048 N   0  0  0  0  0  0  0  0  0  0  0  0
    5.9862   -1.5241   10.5827 C   0  0  2  0  0  0  0  0  0  0  0  0
    5.0646   -0.5108   10.3104 O   0  0  0  0  0  0  0  0  0  0  0  0
    6.9155   -1.7858    9.3556 C   0  0  1  0  0  0  0  0  0  0  0  0
    7.6733   -0.5799    9.0329 O   0  0  0  0  0  0  0  0  0  0  0  0
    7.9330   -2.9487    9.6992 C   0  0  1  0  0  0  0  0  0  0  0  0
    7.1657   -4.2162   10.0434 C   0  0  1  0  0  0  0  0  0  0  0  0
    8.1188   -5.2749   10.3409 N   0  0  0  0  0  0  0  0  0  0  0  0
    6.2273   -3.9507   11.2510 C   0  0  0  0  0  0  0  0  0  0  0  0
    4.0360    0.4743   10.5512 C   0  0  0  0  0  0  0  0  0  0  0  0
    3.6216    1.0923    9.2356 C   0  0  0  0  0  0  0  0  0  0  0  0
    3.1728    0.1147    8.2228 N   0  0  0  0  0  0  0  0  0  0  0  0
    2.5468   -1.0649    7.5831 C   0  0  0  0  0  0  0  0  0  0  0  0
    2.5679   -0.5440    6.1405 C   0  0  0  0  0  0  0  0  0  0  0  0
    2.2253   -1.6423    5.1165 C   0  0  0  0  0  0  0  0  0  0  0  0
    3.4188   -2.5621    4.8779 C   0  0  0  0  0  0  0  0  0  0  0  0
    3.7247   -3.3090    6.0899 N   0  0  0  0  0  0  0  0  0  0  0  0
    2.5704    0.1788   15.0377 N   0  0  0  0  0  0  0  0  0  0  0  0
    2.6180   -2.4025   11.6198 C   0  0  0  0  0  0  0  0  0  0  0  0
    2.0827   -2.5301   10.6918 O   0  0  0  0  0  0  0  0  0  0  0  0
    2.3325   -2.0709   13.0642 C   0  0  2  0  0  0  0  0  0  0  0  0
    1.5577   -3.0381   13.6526 O   0  0  0  0  0  0  0  0  0  0  0  0
    1.5116   -0.7861   13.0687 C   0  0  0  0  0  0  0  0  0  0  0  0
    1.2636   -0.1231   14.4358 C   0  0  0  0  0  0  0  0  0  0  0  0
  1  2  1  1  0  0  0
  1  3  1  0  0  0  0
  3  4  1  6  0  0  0
  3  5  1  0  0  0  0
  5  6  1  6  0  0  0
  5  7  1  0  0  0  0
  7  8  1  1  0  0  0
  9  7  1  0  0  0  0
  9 10  1  0  0  0  0
  9 11  1  1  0  0  0
 10  1  1  0  0  0  0
 11 12  1  0  0  0  0
 13 14  1  1  0  0  0
 13 15  1  0  0  0  0
 13 22  1  0  0  0  0
 14 32  1  0  0  0  0
 15 16  1  6  0  0  0
 15 17  1  0  0  0  0
 16 23  1  0  0  0  0
 17 18  1  1  0  0  0
 17 19  1  0  0  0  0
 19  2  1  6  0  0  0
 19 20  1  0  0  0  0
 20 21  1  1  0  0  0
 20 22  1  0  0  0  0
 23 24  1  0  0  0  0
 24 25  1  0  0  0  0
 25 26  1  0  0  0  0
 26 27  1  0  0  0  0
 27 28  1  0  0  0  0
 28 29  1  0  0  0  0
 29 30  1  0  0  0  0
 31 37  1  0  0  0  0
 32 33  2  0  0  0  0
 34 32  1  6  0  0  0
 34 35  1  0  0  0  0
 34 36  1  0  0  0  0
 36 37  1  0  0  0  0
M  END
>  <CHROM.1>
176.52242019,61.65385639,107.97232682,68.23914659,-175.66225826,63.12968740
55.82872475,37.11390183,163.64007009,168.89623441,-77.71062767,65.88853368
-116.79673388,-171.35674331,58.43851200,6.48182542,-2.19201128,9.57519411
0.29647910,0.21398811,-1.62911860

>  <Name>
1o9m_lig

>  <RI>
0

>  <Rbt.Current_Directory>
/home/itssahil/PROJECTS/Mol_Feturizer/New_Systems/rnas/1o9m

>  <Rbt.Executable>
rbdock ($Id: //depot/dev/client3/rdock/2013.1/src/exe/rbdock.cxx#4 $)

>  <Rbt.Library>
libRbt.so (2013.1, Build901 2013/11/27)

>  <Rbt.Parameter_File>
/export/apps/rDock/src/rDock_2013.1_src/data/scripts/dock_solv.prm

>  <Rbt.Receptor>
prm/blind_docking_60.prm

>  <SCORE>
-11.3733

>  <SCORE.INTER>
-5.2357

>  <SCORE.INTER.CONST>
1

>  <SCORE.INTER.POLAR>
-0.894427

>  <SCORE.INTER.ROT>
15

>  <SCORE.INTER.SOLV>
17.5991

>  <SCORE.INTER.VDW>
-19.9754

>  <SCORE.INTER.norm>
-0.141505

>  <SCORE.INTRA>
-6.19736

>  <SCORE.INTRA.DIHEDRAL>
-14.8391

>  <SCORE.INTRA.DIHEDRAL.0>
21.5987

>  <SCORE.INTRA.POLAR>
0

>  <SCORE.INTRA.POLAR.0>
0

>  <SCORE.INTRA.REPUL>
0

>  <SCORE.INTRA.REPUL.0>
0

>  <SCORE.INTRA.SOLV>
4.4646

>  <SCORE.INTRA.SOLV.lig_0>
-108.715

>  <SCORE.INTRA.VDW>
-1.01009

>  <SCORE.INTRA.VDW.0>
-3.9485

>  <SCORE.INTRA.norm>
-0.167496

>  <SCORE.RESTR>
0.0597897

>  <SCORE.RESTR.CAVITY>
0.0597897

>  <SCORE.RESTR.norm>
0.00161594

>  <SCORE.SYSTEM>
0

>  <SCORE.SYSTEM.CONST>
0

>  <SCORE.SYSTEM.DIHEDRAL>
0

>  <SCORE.SYSTEM.SOLV>
0

>  <SCORE.SYSTEM.norm>
0

>  <SCORE.heavy>
37

>  <SCORE.norm>
-0.307386

>  <RMSD>
24.311

$$$$
1o9m_lig
 OpenBabel11021811403D
libRbt.so/2013.1/901 2013/11/27
 37 38  0  0  0  0  0  0  0  0999 V2000
   11.1943   -2.5512   11.5742 C   0  0  2  0  0  0  0  0  0  0  0  0
   10.5839   -1.3983   10.9181 O   0  0  0  0  0  0  0  0  0  0  0  0
   12.5853   -2.0643   12.1241 C   0  0  2  0  0  0  0  0  0  0  0  0
   12.4485   -0.9408   13.0676 N   0  0  0  0  0  0  0  0  0  0  0  0
   13.5073   -1.6643   10.9101 C   0  0  1  0  0  0  0  0  0  0  0  0
   14.7808   -1.2190   11.3849 O   0  0  0  0  0  0  0  0  0  0  0  0
   13.6292   -2.9039    9.9635 C   0  0  2  0  0  0  0  0  0  0  0  0
   14.4402   -2.6439    8.8060 O   0  0  0  0  0  0  0  0  0  0  0  0
   12.2294   -3.3750    9.4977 C   0  0  2  0  0  0  0  0  0  0  0  0
   11.3823   -3.6520   10.6225 O   0  0  0  0  0  0  0  0  0  0  0  0
   12.3153   -4.6031    8.6289 C   0  0  0  0  0  0  0  0  0  0  0  0
   12.8576   -4.2845    7.4068 N   0  0  0  0  0  0  0  0  0  0  0  0
    6.9512   -0.7872   13.2096 C   0  0  1  0  0  0  0  0  0  0  0  0
    5.6171   -0.2541   13.6037 N   0  0  0  0  0  0  0  0  0  0  0  0
    6.8289   -1.4631   11.8507 C   0  0  2  0  0  0  0  0  0  0  0  0
    5.8591   -2.4627   11.9541 O   0  0  0  0  0  0  0  0  0  0  0  0
    8.2030   -2.0549   11.4044 C   0  0  1  0  0  0  0  0  0  0  0  0
    8.0779   -2.6809   10.0910 O   0  0  0  0  0  0  0  0  0  0  0  0
    9.2760   -0.8946   11.3140 C   0  0  1  0  0  0  0  0  0  0  0  0
    9.4211   -0.2235   12.6714 C   0  0  1  0  0  0  0  0  0  0  0  0
   10.4215    0.8284   12.5698 N   0  0  0  0  0  0  0  0  0  0  0  0
    8.0506    0.3476   13.1242 C   0  0  0  0  0  0  0  0  0  0  0  0
    4.5491   -3.0710   11.9752 C   0  0  0  0  0  0  0  0  0  0  0  0
    3.8894   -2.8779   10.6291 C   0  0  0  0  0  0  0  0  0  0  0  0
    3.6128   -1.4672   10.2879 N   0  0  0  0  0  0  0  0  0  0  0  0
    3.7935   -0.0289    9.9862 C   0  0  0  0  0  0  0  0  0  0  0  0
    4.0503   -0.1718    8.4806 C   0  0  0  0  0  0  0  0  0  0  0  0
    2.8253    0.2285    7.6373 C   0  0  0  0  0  0  0  0  0  0  0  0
    1.7793   -0.8820    7.6266 C   0  0  0  0  0  0  0  0  0  0  0  0
    2.2883   -2.0416    6.9079 N   0  0  0  0  0  0  0  0  0  0  0  0
    2.1802    3.0268   15.4222 N   0  0  0  0  0  0  0  0  0  0  0  0
    5.2198    1.2267   12.7115 C   0  0  0  0  0  0  0  0  0  0  0  0
    5.7118    1.8144   11.9522 O   0  0  0  0  0  0  0  0  0  0  0  0
    3.9446    1.2442   13.5185 C   0  0  2  0  0  0  0  0  0  0  0  0
    3.0517    0.3104   13.0574 O   0  0  0  0  0  0  0  0  0  0  0  0
    3.3035    2.6106   13.3024 C   0  0  0  0  0  0  0  0  0  0  0  0
    1.9440    2.8570   13.9812 C   0  0  0  0  0  0  0  0  0  0  0  0
  1  2  1  6  0  0  0
  1  3  1  0  0  0  0
  3  4  1  1  0  0  0
  3  5  1  0  0  0  0
  5  6  1  1  0  0  0
  5  7  1  0  0  0  0
  7  8  1  6  0  0  0
  9  7  1  0  0  0  0
  9 10  1  0  0  0  0
  9 11  1  1  0  0  0
 10  1  1  0  0  0  0
 11 12  1  0  0  0  0
 13 14  1  6  0  0  0
 13 15  1  0  0  0  0
 13 22  1  0  0  0  0
 14 32  1  0  0  0  0
 15 16  1  1  0  0  0
 15 17  1  0  0  0  0
 16 23  1  0  0  0  0
 17 18  1  6  0  0  0
 17 19  1  0  0  0  0
 19  2  1  1  0  0  0
 19 20  1  0  0  0  0
 20 21  1  6  0  0  0
 20 22  1  0  0  0  0
 23 24  1  0  0  0  0
 24 25  1  0  0  0  0
 25 26  1  0  0  0  0
 26 27  1  0  0  0  0
 27 28  1  0  0  0  0
 28 29  1  0  0  0  0
 29 30  1  0  0  0  0
 31 37  1  0  0  0  0
 32 33  2  0  0  0  0
 34 32  1  6  0  0  0
 34 35  1  0  0  0  0
 34 36  1  0  0  0  0
 36 37  1  0  0  0  0
M  END
>  <CHROM.1>
-122.93013157,-70.72062768,-75.89769887,83.35735523,61.87560923,-49.18527637
-64.53769063,60.66736761,86.74223615,103.72971275,-78.17086794,-67.28380282
-75.80032639,177.46466031,73.37794861,7.65528842,-1.04385523,11.17560705
-0.28046069,-0.18524309,0.97462179

>  <Name>
1o9m_lig

>  <RI>
0

>  <Rbt.Current_Directory>
/home/itssahil/PROJECTS/Mol_Feturizer/New_Systems/rnas/1o9m

>  <Rbt.Executable>
rbdock ($Id: //depot/dev/client3/rdock/2013.1/src/exe/rbdock.cxx#4 $)

>  <Rbt.Library>
libRbt.so (2013.1, Build901 2013/11/27)

>  <Rbt.Parameter_File>
/export/apps/rDock/src/rDock_2013.1_src/data/scripts/dock_solv.prm

>  <Rbt.Receptor>
prm/blind_docking_60.prm

>  <SCORE>
-7.67165

>  <SCORE.INTER>
-9.92828

>  <SCORE.INTER.CONST>
1

>  <SCORE.INTER.POLAR>
-2.38958

>  <SCORE.INTER.ROT>
15

>  <SCORE.INTER.SOLV>
18.1908

>  <SCORE.INTER.VDW>
-18.3172

>  <SCORE.INTER.norm>
-0.268332

>  <SCORE.INTRA>
2.25664

>  <SCORE.INTRA.DIHEDRAL>
-2.62808

>  <SCORE.INTRA.DIHEDRAL.0>
21.5987

>  <SCORE.INTRA.POLAR>
0

>  <SCORE.INTRA.POLAR.0>
0

>  <SCORE.INTRA.REPUL>
0

>  <SCORE.INTRA.REPUL.0>
0

>  <SCORE.INTRA.SOLV>
9.40997

>  <SCORE.INTRA.SOLV.lig_0>
-108.715

>  <SCORE.INTRA.VDW>
-1.13431

>  <SCORE.INTRA.VDW.0>
-3.9485

>  <SCORE.INTRA.norm>
0.0609902

>  <SCORE.RESTR>
0

>  <SCORE.RESTR.CAVITY>
0

>  <SCORE.RESTR.norm>
0

>  <SCORE.SYSTEM>
0

>  <SCORE.SYSTEM.CONST>
0

>  <SCORE.SYSTEM.DIHEDRAL>
0

>  <SCORE.SYSTEM.SOLV>
0

>  <SCORE.SYSTEM.norm>
0

>  <SCORE.heavy>
37

>  <SCORE.norm>
-0.207342

>  <RMSD>
24.314

$$$$
1o9m_lig
 OpenBabel11021811403D
libRbt.so/2013.1/901 2013/11/27
 37 38  0  0  0  0  0  0  0  0999 V2000
   10.4262   -4.0155    8.9135 C   0  0  2  0  0  0  0  0  0  0  0  0
   10.8356   -2.9766    9.8544 O   0  0  0  0  0  0  0  0  0  0  0  0
   11.7216   -4.4386    8.1278 C   0  0  2  0  0  0  0  0  0  0  0  0
   12.7791   -4.9365    9.0249 N   0  0  0  0  0  0  0  0  0  0  0  0
   12.2369   -3.2102    7.2855 C   0  0  1  0  0  0  0  0  0  0  0  0
   13.4151   -3.5708    6.5594 O   0  0  0  0  0  0  0  0  0  0  0  0
   11.0783   -2.7480    6.3414 C   0  0  2  0  0  0  0  0  0  0  0  0
   11.4357   -1.6145    5.5338 O   0  0  0  0  0  0  0  0  0  0  0  0
    9.8121   -2.3981    7.1617 C   0  0  2  0  0  0  0  0  0  0  0  0
    9.4129   -3.5049    7.9834 O   0  0  0  0  0  0  0  0  0  0  0  0
    8.6626   -2.0033    6.2711 C   0  0  0  0  0  0  0  0  0  0  0  0
    8.9725   -0.8607    5.5726 N   0  0  0  0  0  0  0  0  0  0  0  0
    7.1085   -1.2768   11.2828 C   0  0  1  0  0  0  0  0  0  0  0  0
    6.1360   -0.5832   12.1731 N   0  0  0  0  0  0  0  0  0  0  0  0
    8.2479   -0.3200   10.9591 C   0  0  2  0  0  0  0  0  0  0  0  0
    7.6970    0.8199   10.3697 O   0  0  0  0  0  0  0  0  0  0  0  0
    9.2852   -0.9998   10.0106 C   0  0  1  0  0  0  0  0  0  0  0  0
   10.3832   -0.0804    9.7251 O   0  0  0  0  0  0  0  0  0  0  0  0
    9.8737   -2.2932   10.7080 C   0  0  1  0  0  0  0  0  0  0  0  0
    8.7463   -3.2657   11.0195 C   0  0  1  0  0  0  0  0  0  0  0  0
    9.3102   -4.4522   11.6456 N   0  0  0  0  0  0  0  0  0  0  0  0
    7.7050   -2.5835   11.9466 C   0  0  0  0  0  0  0  0  0  0  0  0
    7.2633    1.7213    9.3276 C   0  0  0  0  0  0  0  0  0  0  0  0
    6.2916    1.0020    8.4205 C   0  0  0  0  0  0  0  0  0  0  0  0
    4.9881    0.7010    9.0476 N   0  0  0  0  0  0  0  0  0  0  0  0
    3.9583    0.2114    9.9922 C   0  0  0  0  0  0  0  0  0  0  0  0
    3.8073   -1.1992    9.4089 C   0  0  0  0  0  0  0  0  0  0  0  0
    3.2149   -1.1845    7.9873 C   0  0  0  0  0  0  0  0  0  0  0  0
    3.0985   -2.5984    7.4263 C   0  0  0  0  0  0  0  0  0  0  0  0
    2.5706   -2.5564    6.0699 N   0  0  0  0  0  0  0  0  0  0  0  0
    0.6586   -0.2294   14.7876 N   0  0  0  0  0  0  0  0  0  0  0  0
    4.7289   -1.6061   12.5202 C   0  0  0  0  0  0  0  0  0  0  0  0
    4.4265   -2.6049   12.2466 O   0  0  0  0  0  0  0  0  0  0  0  0
    4.2085   -0.4359   13.3187 C   0  0  2  0  0  0  0  0  0  0  0  0
    4.8935   -0.2956   14.4990 O   0  0  0  0  0  0  0  0  0  0  0  0
    2.7636   -0.7577   13.6838 C   0  0  0  0  0  0  0  0  0  0  0  0
    2.0008    0.2987   14.5036 C   0  0  0  0  0  0  0  0  0  0  0  0
  1  2  1  1  0  0  0
  1  3  1  0  0  0  0
  3  4  1  1  0  0  0
  3  5  1  0  0  0  0
  5  6  1  6  0  0  0
  5  7  1  0  0  0  0
  7  8  1  1  0  0  0
  9  7  1  0  0  0  0
  9 10  1  0  0  0  0
  9 11  1  6  0  0  0
 10  1  1  0  0  0  0
 11 12  1  0  0  0  0
 13 14  1  1  0  0  0
 13 15  1  0  0  0  0
 13 22  1  0  0  0  0
 14 32  1  0  0  0  0
 15 16  1  6  0  0  0
 15 17  1  0  0  0  0
 16 23  1  0  0  0  0
 17 18  1  1  0  0  0
 17 19  1  0  0  0  0
 19  2  1  6  0  0  0
 19 20  1  0  0  0  0
 20 21  1  1  0  0  0
 20 22  1  0  0  0  0
 23 24  1  0  0  0  0
 24 25  1  0  0  0  0
 25 26  1  0  0  0  0
 26 27  1  0  0  0  0
 27 28  1  0  0  0  0
 28 29  1  0  0  0  0
 29 30  1  0  0  0  0
 31 37  1  0  0  0  0
 32 33  2  0  0  0  0
 34 32  1  6  0  0  0
 34 35  1  0  0  0  0
 34 36  1  0  0  0  0
 36 37  1  0  0  0  0
M  END
>  <CHROM.1>
176.67344087,-63.14802535,176.73606725,-95.70520597,56.55619990,-89.86004300
69.40235330,-53.13318306,-87.95559822,-65.93893667,179.06661851,-178.47083003
-73.67349890,-179.68472649,-177.84942561,7.42916803,-1.63300052,9.76454513
-0.50931332,-0.31785229,1.60561723

>  <Name>
1o9m_lig

>  <RI>
0

>  <Rbt.Current_Directory>
/home/itssahil/PROJECTS/Mol_Feturizer/New_Systems/rnas/1o9m

>  <Rbt.Executable>
rbdock ($Id: //depot/dev/client3/rdock/2013.1/src/exe/rbdock.cxx#4 $)

>  <Rbt.Library>
libRbt.so (2013.1, Build901 2013/11/27)

>  <Rbt.Parameter_File>
/export/apps/rDock/src/rDock_2013.1_src/data/scripts/dock_solv.prm

>  <Rbt.Receptor>
prm/blind_docking_100.prm

>  <SCORE>
-8.88383

>  <SCORE.INTER>
-4.75617

>  <SCORE.INTER.CONST>
1

>  <SCORE.INTER.POLAR>
-1.02961

>  <SCORE.INTER.ROT>
15

>  <SCORE.INTER.SOLV>
14.7395

>  <SCORE.INTER.VDW>
-18.2519

>  <SCORE.INTER.norm>
-0.128545

>  <SCORE.INTRA>
-4.68036

>  <SCORE.INTRA.DIHEDRAL>
-11.2364

>  <SCORE.INTRA.DIHEDRAL.0>
21.5987

>  <SCORE.INTRA.POLAR>
0

>  <SCORE.INTRA.POLAR.0>
0

>  <SCORE.INTRA.REPUL>
0

>  <SCORE.INTRA.REPUL.0>
0

>  <SCORE.INTRA.SOLV>
3.14745

>  <SCORE.INTRA.SOLV.lig_0>
-108.715

>  <SCORE.INTRA.VDW>
-0.635869

>  <SCORE.INTRA.VDW.0>
-3.9485

>  <SCORE.INTRA.norm>
-0.126496

>  <SCORE.RESTR>
0.552699

>  <SCORE.RESTR.CAVITY>
0.552699

>  <SCORE.RESTR.norm>
0.0149378

>  <SCORE.SYSTEM>
0

>  <SCORE.SYSTEM.CONST>
0

>  <SCORE.SYSTEM.DIHEDRAL>
0

>  <SCORE.SYSTEM.SOLV>
0

>  <SCORE.SYSTEM.norm>
0

>  <SCORE.heavy>
37

>  <SCORE.norm>
-0.240103

>  <RMSD>
24.325

$$$$
1o9m_lig
 OpenBabel11021811403D
libRbt.so/2013.1/901 2013/11/27
 37 38  0  0  0  0  0  0  0  0999 V2000
    2.8553    1.1706   11.9755 C   0  0  2  0  0  0  0  0  0  0  0  0
    4.2374    1.5458   12.2607 O   0  0  0  0  0  0  0  0  0  0  0  0
    1.9480    2.2035   12.7400 C   0  0  2  0  0  0  0  0  0  0  0  0
    2.2080    3.5913   12.3189 N   0  0  0  0  0  0  0  0  0  0  0  0
    2.1753    2.0391   14.2909 C   0  0  1  0  0  0  0  0  0  0  0  0
    1.3586    2.9678   15.0092 O   0  0  0  0  0  0  0  0  0  0  0  0
    1.8607    0.5552   14.6735 C   0  0  2  0  0  0  0  0  0  0  0  0
    2.0529    0.2873   16.0722 O   0  0  0  0  0  0  0  0  0  0  0  0
    2.7409   -0.4190   13.8522 C   0  0  2  0  0  0  0  0  0  0  0  0
    2.5789   -0.1919   12.4445 O   0  0  0  0  0  0  0  0  0  0  0  0
    2.4176   -1.8578   14.1615 C   0  0  0  0  0  0  0  0  0  0  0  0
    1.1003   -2.1225   13.8718 N   0  0  0  0  0  0  0  0  0  0  0  0
    8.0470    0.1522   10.7225 C   0  0  1  0  0  0  0  0  0  0  0  0
    9.1826   -0.7609   10.4127 N   0  0  0  0  0  0  0  0  0  0  0  0
    6.7787   -0.4098   10.0947 C   0  0  2  0  0  0  0  0  0  0  0  0
    7.0021   -0.5446    8.7228 O   0  0  0  0  0  0  0  0  0  0  0  0
    5.5621    0.5267   10.3785 C   0  0  1  0  0  0  0  0  0  0  0  0
    4.3486   -0.0337    9.7904 O   0  0  0  0  0  0  0  0  0  0  0  0
    5.3523    0.6648   11.9414 C   0  0  1  0  0  0  0  0  0  0  0  0
    6.6069    1.2435   12.5779 C   0  0  1  0  0  0  0  0  0  0  0  0
    6.3874    1.3760   14.0104 N   0  0  0  0  0  0  0  0  0  0  0  0
    7.8202    0.3227   12.2792 C   0  0  0  0  0  0  0  0  0  0  0  0
    7.3401   -0.1674    7.3700 C   0  0  0  0  0  0  0  0  0  0  0  0
    7.6199   -1.4134    6.5615 C   0  0  0  0  0  0  0  0  0  0  0  0
    8.6272   -2.3113    7.1631 N   0  0  0  0  0  0  0  0  0  0  0  0
    9.2873   -3.2923    8.0544 C   0  0  0  0  0  0  0  0  0  0  0  0
    8.0257   -4.0516    8.4843 C   0  0  0  0  0  0  0  0  0  0  0  0
    7.6730   -3.8104    9.9640 C   0  0  0  0  0  0  0  0  0  0  0  0
    6.8620   -4.9713   10.5314 C   0  0  0  0  0  0  0  0  0  0  0  0
    6.3591   -4.6305   11.8547 N   0  0  0  0  0  0  0  0  0  0  0  0
   12.1342   -0.8503    7.4431 N   0  0  0  0  0  0  0  0  0  0  0  0
   10.7180   -0.1200   11.0279 C   0  0  0  0  0  0  0  0  0  0  0  0
   11.0110    0.7616   11.5765 O   0  0  0  0  0  0  0  0  0  0  0  0
   11.3525   -1.3448   10.4156 C   0  0  2  0  0  0  0  0  0  0  0  0
   11.6441   -2.2843   11.3718 O   0  0  0  0  0  0  0  0  0  0  0  0
   12.6817   -0.9007    9.8150 C   0  0  0  0  0  0  0  0  0  0  0  0
   13.0403   -1.4607    8.4267 C   0  0  0  0  0  0  0  0  0  0  0  0
  1  2  1  1  0  0  0
  1  3  1  0  0  0  0
  3  4  1  6  0  0  0
  3  5  1  0  0  0  0
  5  6  1  1  0  0  0
  5  7  1  0  0  0  0
  7  8  1  1  0  0  0
  9  7  1  0  0  0  0
  9 10  1  0  0  0  0
  9 11  1  6  0  0  0
 10  1  1  0  0  0  0
 11 12  1  0  0  0  0
 13 14  1  1  0  0  0
 13 15  1  0  0  0  0
 13 22  1  0  0  0  0
 14 32  1  0  0  0  0
 15 16  1  6  0  0  0
 15 17  1  0  0  0  0
 16 23  1  0  0  0  0
 17 18  1  6  0  0  0
 17 19  1  0  0  0  0
 19  2  1  6  0  0  0
 19 20  1  0  0  0  0
 20 21  1  1  0  0  0
 20 22  1  0  0  0  0
 23 24  1  0  0  0  0
 24 25  1  0  0  0  0
 25 26  1  0  0  0  0
 26 27  1  0  0  0  0
 27 28  1  0  0  0  0
 28 29  1  0  0  0  0
 29 30  1  0  0  0  0
 31 37  1  0  0  0  0
 32 33  2  0  0  0  0
 34 32  1  1  0  0  0
 34 35  1  0  0  0  0
 34 36  1  0  0  0  0
 36 37  1  0  0  0  0
M  END
>  <CHROM.1>
167.60669316,59.69437439,176.49699891,-56.15141626,163.71645322,68.84910918
-53.27258416,72.78330137,27.72212757,-110.63032802,-154.87350321,-170.92105351
-102.65354862,-137.36940138,69.83332920,6.44525264,-0.50083720,11.21645962
-2.64164276,-0.32788283,-2.61296691

>  <Name>
1o9m_lig

>  <RI>
0

>  <Rbt.Current_Directory>
/home/itssahil/PROJECTS/Mol_Feturizer/New_Systems/rnas/1o9m

>  <Rbt.Executable>
rbdock ($Id: //depot/dev/client3/rdock/2013.1/src/exe/rbdock.cxx#4 $)

>  <Rbt.Library>
libRbt.so (2013.1, Build901 2013/11/27)

>  <Rbt.Parameter_File>
/export/apps/rDock/src/rDock_2013.1_src/data/scripts/dock_solv.prm

>  <Rbt.Receptor>
prm/blind_docking_100.prm

>  <SCORE>
-9.27474

>  <SCORE.INTER>
-6.43595

>  <SCORE.INTER.CONST>
1

>  <SCORE.INTER.POLAR>
-1.77747

>  <SCORE.INTER.ROT>
15

>  <SCORE.INTER.SOLV>
26.5159

>  <SCORE.INTER.VDW>
-20.8044

>  <SCORE.INTER.norm>
-0.173945

>  <SCORE.INTRA>
-2.91197

>  <SCORE.INTRA.DIHEDRAL>
-3.92675

>  <SCORE.INTRA.DIHEDRAL.0>
21.5987

>  <SCORE.INTRA.POLAR>
0

>  <SCORE.INTRA.POLAR.0>
0

>  <SCORE.INTRA.REPUL>
0

>  <SCORE.INTRA.REPUL.0>
0

>  <SCORE.INTRA.SOLV>
3.5846

>  <SCORE.INTRA.SOLV.lig_0>
-108.715

>  <SCORE.INTRA.VDW>
-2.74089

>  <SCORE.INTRA.VDW.0>
-3.9485

>  <SCORE.INTRA.norm>
-0.0787018

>  <SCORE.RESTR>
0.0731759

>  <SCORE.RESTR.CAVITY>
0.0731759

>  <SCORE.RESTR.norm>
0.00197773

>  <SCORE.SYSTEM>
0

>  <SCORE.SYSTEM.CONST>
0

>  <SCORE.SYSTEM.DIHEDRAL>
0

>  <SCORE.SYSTEM.SOLV>
0

>  <SCORE.SYSTEM.norm>
0

>  <SCORE.heavy>
37

>  <SCORE.norm>
-0.250669

>  <RMSD>
24.332

$$$$
1o9m_lig
 OpenBabel11021811403D
libRbt.so/2013.1/901 2013/11/27
 37 38  0  0  0  0  0  0  0  0999 V2000
    5.3788    1.8142   12.1501 C   0  0  2  0  0  0  0  0  0  0  0  0
    5.7317    0.4798   12.6266 O   0  0  0  0  0  0  0  0  0  0  0  0
    3.9383    2.1173   12.7047 C   0  0  2  0  0  0  0  0  0  0  0  0
    3.8846    2.0591   14.1759 N   0  0  0  0  0  0  0  0  0  0  0  0
    2.9171    1.0994   12.0683 C   0  0  1  0  0  0  0  0  0  0  0  0
    1.5975    1.3560   12.5563 O   0  0  0  0  0  0  0  0  0  0  0  0
    3.0079    1.2289   10.5119 C   0  0  2  0  0  0  0  0  0  0  0  0
    2.1247    0.3274    9.8249 O   0  0  0  0  0  0  0  0  0  0  0  0
    4.4567    0.9764   10.0265 C   0  0  2  0  0  0  0  0  0  0  0  0
    5.3776    1.8593   10.6836 O   0  0  0  0  0  0  0  0  0  0  0  0
    4.5831    1.1505    8.5351 C   0  0  0  0  0  0  0  0  0  0  0  0
    5.9073    1.1498    8.1664 N   0  0  0  0  0  0  0  0  0  0  0  0
    8.6655   -0.8779    9.7335 C   0  0  1  0  0  0  0  0  0  0  0  0
    9.7652   -1.6767    9.1237 N   0  0  0  0  0  0  0  0  0  0  0  0
    7.5035   -1.8073   10.0568 C   0  0  2  0  0  0  0  0  0  0  0  0
    7.1170   -2.4393    8.8730 O   0  0  0  0  0  0  0  0  0  0  0  0
    6.3171   -1.0084   10.6827 C   0  0  1  0  0  0  0  0  0  0  0  0
    5.2181   -1.9132   11.0083 O   0  0  0  0  0  0  0  0  0  0  0  0
    6.7996   -0.2963   12.0116 C   0  0  1  0  0  0  0  0  0  0  0  0
    7.9487    0.6498   11.6982 C   0  0  1  0  0  0  0  0  0  0  0  0
    8.3664    1.3041   12.9291 N   0  0  0  0  0  0  0  0  0  0  0  0
    9.1207   -0.1412   11.0578 C   0  0  0  0  0  0  0  0  0  0  0  0
    7.1837   -3.3315    7.7390 C   0  0  0  0  0  0  0  0  0  0  0  0
    5.9946   -3.0826    6.8398 C   0  0  0  0  0  0  0  0  0  0  0  0
    4.7050   -2.9884    7.5547 N   0  0  0  0  0  0  0  0  0  0  0  0
    3.4568   -2.4536    8.1450 C   0  0  0  0  0  0  0  0  0  0  0  0
    2.9493   -1.7132    6.9012 C   0  0  0  0  0  0  0  0  0  0  0  0
    2.2868   -2.6620    5.8848 C   0  0  0  0  0  0  0  0  0  0  0  0
    0.8893   -3.0679    6.3426 C   0  0  0  0  0  0  0  0  0  0  0  0
    0.2884   -3.9727    5.3728 N   0  0  0  0  0  0  0  0  0  0  0  0
   13.2392   -1.8628   11.0871 N   0  0  0  0  0  0  0  0  0  0  0  0
   11.2694   -0.7417    9.0242 C   0  0  0  0  0  0  0  0  0  0  0  0
   11.5679    0.2549    9.3103 O   0  0  0  0  0  0  0  0  0  0  0  0
   11.8610   -1.9640    8.3658 C   0  0  2  0  0  0  0  0  0  0  0  0
   11.0508   -2.4287    7.3610 O   0  0  0  0  0  0  0  0  0  0  0  0
   11.9150   -3.0560    9.4285 C   0  0  0  0  0  0  0  0  0  0  0  0
   13.1764   -3.1087   10.3094 C   0  0  0  0  0  0  0  0  0  0  0  0
  1  2  1  6  0  0  0
  1  3  1  0  0  0  0
  3  4  1  1  0  0  0
  3  5  1  0  0  0  0
  5  6  1  1  0  0  0
  5  7  1  0  0  0  0
  7  8  1  6  0  0  0
  9  7  1  0  0  0  0
  9 10  1  0  0  0  0
  9 11  1  6  0  0  0
 10  1  1  0  0  0  0
 11 12  1  0  0  0  0
 13 14  1  1  0  0  0
 13 15  1  0  0  0  0
 13 22  1  0  0  0  0
 14 32  1  0  0  0  0
 15 16  1  6  0  0  0
 15 17  1  0  0  0  0
 16 23  1  0  0  0  0
 17 18  1  1  0  0  0
 17 19  1  0  0  0  0
 19  2  1  6  0  0  0
 19 20  1  0  0  0  0
 20 21  1  1  0  0  0
 20 22  1  0  0  0  0
 23 24  1  0  0  0  0
 24 25  1  0  0  0  0
 25 26  1  0  0  0  0
 26 27  1  0  0  0  0
 27 28  1  0  0  0  0
 28 29  1  0  0  0  0
 29 30  1  0  0  0  0
 31 37  1  0  0  0  0
 32 33  2  0  0  0  0
 34 32  1  1  0  0  0
 34 35  1  0  0  0  0
 34 36  1  0  0  0  0
 36 37  1  0  0  0  0
M  END
>  <CHROM.1>
161.70576953,169.60912935,-168.32801968,71.09111275,-175.97982841,-80.40302340
-46.39232228,110.02062748,49.80850063,79.16615873,76.22140813,-179.51397776
48.75865019,-87.86162389,63.65689650,6.39933489,-0.78381520,9.74746409,-3.10388998
0.12596800,-2.24709178

>  <Name>
1o9m_lig

>  <RI>
0

>  <Rbt.Current_Directory>
/home/itssahil/PROJECTS/Mol_Feturizer/New_Systems/rnas/1o9m

>  <Rbt.Executable>
rbdock ($Id: //depot/dev/client3/rdock/2013.1/src/exe/rbdock.cxx#4 $)

>  <Rbt.Library>
libRbt.so (2013.1, Build901 2013/11/27)

>  <Rbt.Parameter_File>
/export/apps/rDock/src/rDock_2013.1_src/data/scripts/dock_solv.prm

>  <Rbt.Receptor>
prm/blind_docking_20.prm

>  <SCORE>
4.45348

>  <SCORE.INTER>
1.92381

>  <SCORE.INTER.CONST>
1

>  <SCORE.INTER.POLAR>
-0.27656

>  <SCORE.INTER.ROT>
15

>  <SCORE.INTER.SOLV>
19.1495

>  <SCORE.INTER.VDW>
-17.7788

>  <SCORE.INTER.norm>
0.0519949

>  <SCORE.INTRA>
2.47418

>  <SCORE.INTRA.DIHEDRAL>
-9.65535

>  <SCORE.INTRA.DIHEDRAL.0>
21.5987

>  <SCORE.INTRA.POLAR>
0

>  <SCORE.INTRA.POLAR.0>
0

>  <SCORE.INTRA.REPUL>
0

>  <SCORE.INTRA.REPUL.0>
0

>  <SCORE.INTRA.SOLV>
8.38186

>  <SCORE.INTRA.SOLV.lig_0>
-108.715

>  <SCORE.INTRA.VDW>
3.11093

>  <SCORE.INTRA.VDW.0>
-3.9485

>  <SCORE.INTRA.norm>
0.0668697

>  <SCORE.RESTR>
0.0554864

>  <SCORE.RESTR.CAVITY>
0.0554864

>  <SCORE.RESTR.norm>
0.00149963

>  <SCORE.SYSTEM>
0

>  <SCORE.SYSTEM.CONST>
0

>  <SCORE.SYSTEM.DIHEDRAL>
0

>  <SCORE.SYSTEM.SOLV>
0

>  <SCORE.SYSTEM.norm>
0

>  <SCORE.heavy>
37

>  <SCORE.norm>
0.120364

>  <RMSD>
24.338

$$$$
1o9m_lig
 OpenBabel11021811403D
libRbt.so/2013.1/901 2013/11/27
 37 38  0  0  0  0  0  0  0  0999 V2000
    9.8013   -4.2890    9.8310 C   0  0  2  0  0  0  0  0  0  0  0  0
    9.9235   -3.0889   10.6538 O   0  0  0  0  0  0  0  0  0  0  0  0
   11.1675   -5.0579    9.9615 C   0  0  2  0  0  0  0  0  0  0  0  0
   11.4749   -5.4135   11.3579 N   0  0  0  0  0  0  0  0  0  0  0  0
   12.3169   -4.1732    9.3450 C   0  0  1  0  0  0  0  0  0  0  0  0
   13.5711   -4.8525    9.4502 O   0  0  0  0  0  0  0  0  0  0  0  0
   11.9403   -3.8526    7.8608 C   0  0  2  0  0  0  0  0  0  0  0  0
   12.9182   -3.0308    7.2025 O   0  0  0  0  0  0  0  0  0  0  0  0
   10.5634   -3.1477    7.7869 C   0  0  2  0  0  0  0  0  0  0  0  0
    9.5503   -3.9353    8.4294 O   0  0  0  0  0  0  0  0  0  0  0  0
   10.1512   -2.8780    6.3628 C   0  0  0  0  0  0  0  0  0  0  0  0
    9.0367   -2.0740    6.3341 N   0  0  0  0  0  0  0  0  0  0  0  0
    6.8827   -0.3498   12.0932 C   0  0  1  0  0  0  0  0  0  0  0  0
    5.8389    0.7132   12.0860 N   0  0  0  0  0  0  0  0  0  0  0  0
    6.4436   -1.4764   11.1677 C   0  0  2  0  0  0  0  0  0  0  0  0
    5.2026   -1.9378   11.6119 O   0  0  0  0  0  0  0  0  0  0  0  0
    7.5013   -2.6247   11.1577 C   0  0  1  0  0  0  0  0  0  0  0  0
    7.0797   -3.6886   10.2506 O   0  0  0  0  0  0  0  0  0  0  0  0
    8.8945   -2.0583   10.6637 C   0  0  1  0  0  0  0  0  0  0  0  0
    9.3532   -0.9440   11.5921 C   0  0  1  0  0  0  0  0  0  0  0  0
   10.6408   -0.4485   11.1292 N   0  0  0  0  0  0  0  0  0  0  0  0
    8.2924    0.1889   11.6173 C   0  0  0  0  0  0  0  0  0  0  0  0
    4.0302   -2.7772   11.6984 C   0  0  0  0  0  0  0  0  0  0  0  0
    3.4572   -2.9753   10.3139 C   0  0  0  0  0  0  0  0  0  0  0  0
    2.9786   -1.7327    9.6739 N   0  0  0  0  0  0  0  0  0  0  0  0
    2.7021   -0.6818    8.6681 C   0  0  0  0  0  0  0  0  0  0  0  0
    2.6087   -1.5989    7.4420 C   0  0  0  0  0  0  0  0  0  0  0  0
    2.4692   -0.8074    6.1282 C   0  0  0  0  0  0  0  0  0  0  0  0
    2.3935   -1.7454    4.9275 C   0  0  0  0  0  0  0  0  0  0  0  0
    3.5851   -2.5801    4.8689 N   0  0  0  0  0  0  0  0  0  0  0  0
    2.2602   -0.5919   13.7996 N   0  0  0  0  0  0  0  0  0  0  0  0
    4.8213    0.6342   13.5369 C   0  0  0  0  0  0  0  0  0  0  0  0
    4.7932    0.0082   14.4152 O   0  0  0  0  0  0  0  0  0  0  0  0
    4.0640    1.7950   12.9397 C   0  0  2  0  0  0  0  0  0  0  0  0
    3.6221    2.6541   13.9137 O   0  0  0  0  0  0  0  0  0  0  0  0
    2.8239    1.2153   12.2683 C   0  0  0  0  0  0  0  0  0  0  0  0
    1.7359    0.6404   13.1932 C   0  0  0  0  0  0  0  0  0  0  0  0
  1  2  1  1  0  0  0
  1  3  1  0  0  0  0
  3  4  1  1  0  0  0
  3  5  1  0  0  0  0
  5  6  1  6  0  0  0
  5  7  1  0  0  0  0
  7  8  1  1  0  0  0
  9  7  1  0  0  0  0
  9 10  1  0  0  0  0
  9 11  1  6  0  0  0
 10  1  1  0  0  0  0
 11 12  1  0  0  0  0
 13 14  1  6  0  0  0
 13 15  1  0  0  0  0
 13 22  1  0  0  0  0
 14 32  1  0  0  0  0
 15 16  1  1  0  0  0
 15 17  1  0  0  0  0
 16 23  1  0  0  0  0
 17 18  1  6  0  0  0
 17 19  1  0  0  0  0
 19  2  1  1  0  0  0
 19 20  1  0  0  0  0
 20 21  1  6  0  0  0
 20 22  1  0  0  0  0
 23 24  1  0  0  0  0
 24 25  1  0  0  0  0
 25 26  1  0  0  0  0
 26 27  1  0  0  0  0
 27 28  1  0  0  0  0
 28 29  1  0  0  0  0
 29 30  1  0  0  0  0
 31 37  1  0  0  0  0
 32 33  2  0  0  0  0
 34 32  1  1  0  0  0
 34 35  1  0  0  0  0
 34 36  1  0  0  0  0
 36 37  1  0  0  0  0
M  END
>  <CHROM.1>
173.41775172,-170.66831792,101.82121030,-172.17292825,-50.37599396,60.65796319
-63.34588625,138.67095047,31.14803949,-173.77733835,179.40794259,-58.48229710
-145.14792249,69.31854047,-69.81828280,6.94974265,-1.81998940,10.15446653
-0.41444742,-0.30564428,1.21334041

>  <Name>
1o9m_lig

>  <RI>
0

>  <Rbt.Current_Directory>
/home/itssahil/PROJECTS/Mol_Feturizer/New_Systems/rnas/1o9m

>  <Rbt.Executable>
rbdock ($Id: //depot/dev/client3/rdock/2013.1/src/exe/rbdock.cxx#4 $)

>  <Rbt.Library>
libRbt.so (2013.1, Build901 2013/11/27)

>  <Rbt.Parameter_File>
/export/apps/rDock/src/rDock_2013.1_src/data/scripts/dock_solv.prm

>  <Rbt.Receptor>
prm/blind_docking_60.prm

>  <SCORE>
-12.1448

>  <SCORE.INTER>
-6.26373

>  <SCORE.INTER.CONST>
1

>  <SCORE.INTER.POLAR>
-0.847555

>  <SCORE.INTER.ROT>
15

>  <SCORE.INTER.SOLV>
9.39299

>  <SCORE.INTER.VDW>
-18.0816

>  <SCORE.INTER.norm>
-0.16929

>  <SCORE.INTRA>
-5.88692

>  <SCORE.INTRA.DIHEDRAL>
-14.9996

>  <SCORE.INTRA.DIHEDRAL.0>
21.5987

>  <SCORE.INTRA.POLAR>
0

>  <SCORE.INTRA.POLAR.0>
0

>  <SCORE.INTRA.REPUL>
0

>  <SCORE.INTRA.REPUL.0>
0

>  <SCORE.INTRA.SOLV>
5.45245

>  <SCORE.INTRA.SOLV.lig_0>
-108.715

>  <SCORE.INTRA.VDW>
-1.11334

>  <SCORE.INTRA.VDW.0>
-3.9485

>  <SCORE.INTRA.norm>
-0.159106

>  <SCORE.RESTR>
0.0058434

>  <SCORE.RESTR.CAVITY>
0.0058434

>  <SCORE.RESTR.norm>
0.00015793

>  <SCORE.SYSTEM>
0

>  <SCORE.SYSTEM.CONST>
0

>  <SCORE.SYSTEM.DIHEDRAL>
0

>  <SCORE.SYSTEM.SOLV>
0

>  <SCORE.SYSTEM.norm>
0

>  <SCORE.heavy>
37

>  <SCORE.norm>
-0.328238

>  <RMSD>
24.338

$$$$
1o9m_lig
 OpenBabel11021811403D
libRbt.so/2013.1/901 2013/11/27
 37 38  0  0  0  0  0  0  0  0999 V2000
    3.9547    1.9580   11.7691 C   0  0  2  0  0  0  0  0  0  0  0  0
    3.6827    0.7875   10.9395 O   0  0  0  0  0  0  0  0  0  0  0  0
    4.2588    1.4168   13.2145 C   0  0  2  0  0  0  0  0  0  0  0  0
    5.4035    0.4893   13.2322 N   0  0  0  0  0  0  0  0  0  0  0  0
    2.9662    0.7189   13.7854 C   0  0  1  0  0  0  0  0  0  0  0  0
    3.2172    0.2192   15.1018 O   0  0  0  0  0  0  0  0  0  0  0  0
    1.7999    1.7613   13.7606 C   0  0  2  0  0  0  0  0  0  0  0  0
    0.5600    1.2224   14.2474 O   0  0  0  0  0  0  0  0  0  0  0  0
    1.5812    2.3020   12.3259 C   0  0  2  0  0  0  0  0  0  0  0  0
    2.7949    2.8562   11.7975 O   0  0  0  0  0  0  0  0  0  0  0  0
    0.4996    3.3503   12.2844 C   0  0  0  0  0  0  0  0  0  0  0  0
    0.8890    4.4642   12.9893 N   0  0  0  0  0  0  0  0  0  0  0  0
    6.6253   -1.4232    8.6429 C   0  0  1  0  0  0  0  0  0  0  0  0
    7.5170   -1.8124    7.5146 N   0  0  0  0  0  0  0  0  0  0  0  0
    6.9871   -0.0140    9.0920 C   0  0  2  0  0  0  0  0  0  0  0  0
    8.3376   -0.0101    9.4475 O   0  0  0  0  0  0  0  0  0  0  0  0
    6.0879    0.4304   10.2886 C   0  0  1  0  0  0  0  0  0  0  0  0
    6.4294    1.7905   10.6958 O   0  0  0  0  0  0  0  0  0  0  0  0
    4.5672    0.3979    9.8501 C   0  0  1  0  0  0  0  0  0  0  0  0
    4.1885   -1.0101    9.4167 C   0  0  1  0  0  0  0  0  0  0  0  0
    2.7850   -1.0209    9.0326 N   0  0  0  0  0  0  0  0  0  0  0  0
    5.0956   -1.4596    8.2401 C   0  0  0  0  0  0  0  0  0  0  0  0
    9.5597   -0.4199   10.0994 C   0  0  0  0  0  0  0  0  0  0  0  0
    9.2813   -0.6749   11.5629 C   0  0  0  0  0  0  0  0  0  0  0  0
    9.5348   -2.0654   11.9935 N   0  0  0  0  0  0  0  0  0  0  0  0
    9.3315   -3.4505   12.4756 C   0  0  0  0  0  0  0  0  0  0  0  0
   10.1888   -4.1575   11.4182 C   0  0  0  0  0  0  0  0  0  0  0  0
   10.3906   -5.6519   11.7318 C   0  0  0  0  0  0  0  0  0  0  0  0
   11.3115   -6.3083   10.7079 C   0  0  0  0  0  0  0  0  0  0  0  0
   12.5260   -5.5206   10.5500 N   0  0  0  0  0  0  0  0  0  0  0  0
   11.3954   -1.3504    6.3394 N   0  0  0  0  0  0  0  0  0  0  0  0
    8.2398   -3.4106    7.7793 C   0  0  0  0  0  0  0  0  0  0  0  0
    8.1735   -4.1585    8.5541 O   0  0  0  0  0  0  0  0  0  0  0  0
    8.9538   -3.1874    6.4686 C   0  0  2  0  0  0  0  0  0  0  0  0
    8.4815   -4.0309    5.4952 O   0  0  0  0  0  0  0  0  0  0  0  0
   10.4170   -3.5515    6.6947 C   0  0  0  0  0  0  0  0  0  0  0  0
   11.4646   -2.7514    5.8995 C   0  0  0  0  0  0  0  0  0  0  0  0
  1  2  1  6  0  0  0
  1  3  1  0  0  0  0
  3  4  1  6  0  0  0
  3  5  1  0  0  0  0
  5  6  1  1  0  0  0
  5  7  1  0  0  0  0
  7  8  1  6  0  0  0
  9  7  1  0  0  0  0
  9 10  1  0  0  0  0
  9 11  1  1  0  0  0
 10  1  1  0  0  0  0
 11 12  1  0  0  0  0
 13 14  1  6  0  0  0
 13 15  1  0  0  0  0
 13 22  1  0  0  0  0
 14 32  1  0  0  0  0
 15 16  1  1  0  0  0
 15 17  1  0  0  0  0
 16 23  1  0  0  0  0
 17 18  1  6  0  0  0
 17 19  1  0  0  0  0
 19  2  1  1  0  0  0
 19 20  1  0  0  0  0
 20 21  1  6  0  0  0
 20 22  1  0  0  0  0
 23 24  1  0  0  0  0
 24 25  1  0  0  0  0
 25 26  1  0  0  0  0
 26 27  1  0  0  0  0
 27 28  1  0  0  0  0
 28 29  1  0  0  0  0
 29 30  1  0  0  0  0
 31 37  1  0  0  0  0
 32 33  2  0  0  0  0
 34 32  1  1  0  0  0
 34 35  1  0  0  0  0
 34 36  1  0  0  0  0
 36 37  1  0  0  0  0
M  END
>  <CHROM.1>
-113.80824432,65.58859518,130.74022753,-51.34323768,-45.62186144,46.07100762
118.33854867,-112.86715389,132.34620974,171.29687041,-176.73411347,50.16724520
-111.00430579,-147.05296469,64.28229915,6.46430783,-0.89297854,10.43084380
2.79326985,-0.64832875,1.66365025

>  <Name>
1o9m_lig

>  <RI>
0

>  <Rbt.Current_Directory>
/home/itssahil/PROJECTS/Mol_Feturizer/New_Systems/rnas/1o9m

>  <Rbt.Executable>
rbdock ($Id: //depot/dev/client3/rdock/2013.1/src/exe/rbdock.cxx#4 $)

>  <Rbt.Library>
libRbt.so (2013.1, Build901 2013/11/27)

>  <Rbt.Parameter_File>
/export/apps/rDock/src/rDock_2013.1_src/data/scripts/dock_solv.prm

>  <Rbt.Receptor>
prm/blind_docking_100.prm

>  <SCORE>
0.38206

>  <SCORE.INTER>
-3.15674

>  <SCORE.INTER.CONST>
1

>  <SCORE.INTER.POLAR>
-1.30411

>  <SCORE.INTER.ROT>
15

>  <SCORE.INTER.SOLV>
14.9075

>  <SCORE.INTER.VDW>
-16.3266

>  <SCORE.INTER.norm>
-0.0853172

>  <SCORE.INTRA>
2.89099

>  <SCORE.INTRA.DIHEDRAL>
2.62007

>  <SCORE.INTRA.DIHEDRAL.0>
21.5987

>  <SCORE.INTRA.POLAR>
0

>  <SCORE.INTRA.POLAR.0>
0

>  <SCORE.INTRA.REPUL>
0

>  <SCORE.INTRA.REPUL.0>
0

>  <SCORE.INTRA.SOLV>
4.71694

>  <SCORE.INTRA.SOLV.lig_0>
-108.715

>  <SCORE.INTRA.VDW>
-0.777512

>  <SCORE.INTRA.VDW.0>
-3.9485

>  <SCORE.INTRA.norm>
0.078135

>  <SCORE.RESTR>
0.647804

>  <SCORE.RESTR.CAVITY>
0.647804

>  <SCORE.RESTR.norm>
0.0175082

>  <SCORE.SYSTEM>
0

>  <SCORE.SYSTEM.CONST>
0

>  <SCORE.SYSTEM.DIHEDRAL>
0

>  <SCORE.SYSTEM.SOLV>
0

>  <SCORE.SYSTEM.norm>
0

>  <SCORE.heavy>
37

>  <SCORE.norm>
0.0103259

>  <RMSD>
24.362

$$$$
1o9m_lig
 OpenBabel11021811403D
libRbt.so/2013.1/901 2013/11/27
 37 38  0  0  0  0  0  0  0  0999 V2000
   10.5226   -4.3604   10.1026 C   0  0  2  0  0  0  0  0  0  0  0  0
   10.5029   -3.0798   10.8039 O   0  0  0  0  0  0  0  0  0  0  0  0
   11.9795   -4.5336    9.5352 C   0  0  2  0  0  0  0  0  0  0  0  0
   12.9982   -4.5074   10.5994 N   0  0  0  0  0  0  0  0  0  0  0  0
   12.2551   -3.4042    8.4711 C   0  0  1  0  0  0  0  0  0  0  0  0
   13.5752   -3.5414    7.9382 O   0  0  0  0  0  0  0  0  0  0  0  0
   11.1561   -3.5029    7.3620 C   0  0  2  0  0  0  0  0  0  0  0  0
   11.3020   -2.5015    6.3418 O   0  0  0  0  0  0  0  0  0  0  0  0
    9.7421   -3.3825    7.9822 C   0  0  2  0  0  0  0  0  0  0  0  0
    9.5472   -4.3683    9.0067 O   0  0  0  0  0  0  0  0  0  0  0  0
    8.6627   -3.5307    6.9414 C   0  0  0  0  0  0  0  0  0  0  0  0
    8.5366   -2.3689    6.2177 N   0  0  0  0  0  0  0  0  0  0  0  0
    7.2924   -0.4265   12.0176 C   0  0  1  0  0  0  0  0  0  0  0  0
    6.1270    0.4968   11.9223 N   0  0  0  0  0  0  0  0  0  0  0  0
    6.9125   -1.7636   11.3961 C   0  0  2  0  0  0  0  0  0  0  0  0
    5.7876   -2.2456   12.0688 O   0  0  0  0  0  0  0  0  0  0  0  0
    8.1008   -2.7720   11.4902 C   0  0  1  0  0  0  0  0  0  0  0  0
    7.7320   -4.0425   10.8719 O   0  0  0  0  0  0  0  0  0  0  0  0
    9.3580   -2.1828   10.7299 C   0  0  1  0  0  0  0  0  0  0  0  0
    9.7589   -0.8550   11.3543 C   0  0  1  0  0  0  0  0  0  0  0  0
   10.9237   -0.3390   10.6511 N   0  0  0  0  0  0  0  0  0  0  0  0
    8.5710    0.1413   11.2784 C   0  0  0  0  0  0  0  0  0  0  0  0
    4.3935   -2.4852   12.3616 C   0  0  0  0  0  0  0  0  0  0  0  0
    3.8620   -3.5413   11.4200 C   0  0  0  0  0  0  0  0  0  0  0  0
    3.4674   -3.0254   10.0930 N   0  0  0  0  0  0  0  0  0  0  0  0
    3.4466   -2.2499    8.8318 C   0  0  0  0  0  0  0  0  0  0  0  0
    2.0590   -1.6202    9.0078 C   0  0  0  0  0  0  0  0  0  0  0  0
    0.9336   -2.6717    8.9980 C   0  0  0  0  0  0  0  0  0  0  0  0
    0.8173   -3.3388    7.6310 C   0  0  0  0  0  0  0  0  0  0  0  0
   -0.4049   -4.1273    7.5615 N   0  0  0  0  0  0  0  0  0  0  0  0
    1.3498    3.2846   14.4149 N   0  0  0  0  0  0  0  0  0  0  0  0
    5.0917    0.3866   13.3584 C   0  0  0  0  0  0  0  0  0  0  0  0
    5.1189   -0.1800   14.2762 O   0  0  0  0  0  0  0  0  0  0  0  0
    4.2130    1.4040   12.6725 C   0  0  2  0  0  0  0  0  0  0  0  0
    4.9148    2.5431   12.3694 O   0  0  0  0  0  0  0  0  0  0  0  0
    3.1354    1.8042   13.6741 C   0  0  0  0  0  0  0  0  0  0  0  0
    2.1759    2.9313   13.2513 C   0  0  0  0  0  0  0  0  0  0  0  0
  1  2  1  6  0  0  0
  1  3  1  0  0  0  0
  3  4  1  1  0  0  0
  3  5  1  0  0  0  0
  5  6  1  6  0  0  0
  5  7  1  0  0  0  0
  7  8  1  6  0  0  0
  9  7  1  0  0  0  0
  9 10  1  0  0  0  0
  9 11  1  6  0  0  0
 10  1  1  0  0  0  0
 11 12  1  0  0  0  0
 13 14  1  6  0  0  0
 13 15  1  0  0  0  0
 13 22  1  0  0  0  0
 14 32  1  0  0  0  0
 15 16  1  1  0  0  0
 15 17  1  0  0  0  0
 16 23  1  0  0  0  0
 17 18  1  6  0  0  0
 17 19  1  0  0  0  0
 19  2  1  1  0  0  0
 19 20  1  0  0  0  0
 20 21  1  6  0  0  0
 20 22  1  0  0  0  0
 23 24  1  0  0  0  0
 24 25  1  0  0  0  0
 25 26  1  0  0  0  0
 26 27  1  0  0  0  0
 27 28  1  0  0  0  0
 28 29  1  0  0  0  0
 29 30  1  0  0  0  0
 31 37  1  0  0  0  0
 32 33  2  0  0  0  0
 34 32  1  1  0  0  0
 34 35  1  0  0  0  0
 34 36  1  0  0  0  0
 36 37  1  0  0  0  0
M  END
>  <CHROM.1>
140.45500923,-77.44460310,90.78421916,92.84058436,76.05266798,69.22147190
-82.20076789,38.24908200,-121.31681735,-64.75012900,-66.05959329,-168.83985902
-57.19895052,174.89890660,-172.25438136,6.92498642,-1.84487210,10.39839599
0.47361883,0.05718559,-2.30781931

>  <Name>
1o9m_lig

>  <RI>
0

>  <Rbt.Current_Directory>
/home/itssahil/PROJECTS/Mol_Feturizer/New_Systems/rnas/1o9m

>  <Rbt.Executable>
rbdock ($Id: //depot/dev/client3/rdock/2013.1/src/exe/rbdock.cxx#4 $)

>  <Rbt.Library>
libRbt.so (2013.1, Build901 2013/11/27)

>  <Rbt.Parameter_File>
/export/apps/rDock/src/rDock_2013.1_src/data/scripts/dock_solv.prm

>  <Rbt.Receptor>
prm/blind_docking_100.prm

>  <SCORE>
-6.39558

>  <SCORE.INTER>
-6.89951

>  <SCORE.INTER.CONST>
1

>  <SCORE.INTER.POLAR>
-1.49238

>  <SCORE.INTER.ROT>
15

>  <SCORE.INTER.SOLV>
11.1735

>  <SCORE.INTER.VDW>
-16.9496

>  <SCORE.INTER.norm>
-0.186473

>  <SCORE.INTRA>
0.46235

>  <SCORE.INTRA.DIHEDRAL>
-3.80667

>  <SCORE.INTRA.DIHEDRAL.0>
21.5987

>  <SCORE.INTRA.POLAR>
0

>  <SCORE.INTRA.POLAR.0>
0

>  <SCORE.INTRA.REPUL>
0

>  <SCORE.INTRA.REPUL.0>
0

>  <SCORE.INTRA.SOLV>
1.59227

>  <SCORE.INTRA.SOLV.lig_0>
-108.715

>  <SCORE.INTRA.VDW>
1.56955

>  <SCORE.INTRA.VDW.0>
-3.9485

>  <SCORE.INTRA.norm>
0.0124959

>  <SCORE.RESTR>
0.0415806

>  <SCORE.RESTR.CAVITY>
0.0415806

>  <SCORE.RESTR.norm>
0.0011238

>  <SCORE.SYSTEM>
0

>  <SCORE.SYSTEM.CONST>
0

>  <SCORE.SYSTEM.DIHEDRAL>
0

>  <SCORE.SYSTEM.SOLV>
0

>  <SCORE.SYSTEM.norm>
0

>  <SCORE.heavy>
37

>  <SCORE.norm>
-0.172853

>  <RMSD>
24.363

$$$$
1o9m_lig
 OpenBabel11021811403D
libRbt.so/2013.1/901 2013/11/27
 37 38  0  0  0  0  0  0  0  0999 V2000
    1.9389    1.1298   11.9581 C   0  0  2  0  0  0  0  0  0  0  0  0
    3.3869    1.0627   11.7820 O   0  0  0  0  0  0  0  0  0  0  0  0
    1.5779    2.6550   12.0915 C   0  0  2  0  0  0  0  0  0  0  0  0
    1.9949    3.4310   10.9105 N   0  0  0  0  0  0  0  0  0  0  0  0
    2.2433    3.2289   13.3998 C   0  0  1  0  0  0  0  0  0  0  0  0
    1.9277    4.6164   13.5446 O   0  0  0  0  0  0  0  0  0  0  0  0
    1.7422    2.3783   14.6133 C   0  0  2  0  0  0  0  0  0  0  0  0
    2.3038    2.8071   15.8646 O   0  0  0  0  0  0  0  0  0  0  0  0
    2.0734    0.8800   14.4038 C   0  0  2  0  0  0  0  0  0  0  0  0
    1.5277    0.4038   13.1650 O   0  0  0  0  0  0  0  0  0  0  0  0
    1.5511    0.0306   15.5335 C   0  0  0  0  0  0  0  0  0  0  0  0
    1.7149   -1.3025   15.2416 N   0  0  0  0  0  0  0  0  0  0  0  0
    6.5947   -1.8534   11.6177 C   0  0  1  0  0  0  0  0  0  0  0  0
    7.3350   -3.1329   11.8033 N   0  0  0  0  0  0  0  0  0  0  0  0
    5.3457   -2.1236   10.7897 C   0  0  2  0  0  0  0  0  0  0  0  0
    5.7477   -2.6931    9.5797 O   0  0  0  0  0  0  0  0  0  0  0  0
    4.5456   -0.8038   10.5535 C   0  0  1  0  0  0  0  0  0  0  0  0
    3.3397   -1.0793    9.7774 O   0  0  0  0  0  0  0  0  0  0  0  0
    4.1224   -0.1834   11.9469 C   0  0  1  0  0  0  0  0  0  0  0  0
    5.3636    0.1086   12.7763 C   0  0  1  0  0  0  0  0  0  0  0  0
    4.9532    0.6914   14.0450 N   0  0  0  0  0  0  0  0  0  0  0  0
    6.1695   -1.1999   12.9946 C   0  0  0  0  0  0  0  0  0  0  0  0
    5.7098   -3.0479    8.1800 C   0  0  0  0  0  0  0  0  0  0  0  0
    6.1346   -1.8561    7.3531 C   0  0  0  0  0  0  0  0  0  0  0  0
    7.5914   -1.7675    7.1234 N   0  0  0  0  0  0  0  0  0  0  0  0
    8.9145   -1.3369    6.6171 C   0  0  0  0  0  0  0  0  0  0  0  0
    9.7750   -2.1953    7.5529 C   0  0  0  0  0  0  0  0  0  0  0  0
   11.2725   -1.8494    7.4526 C   0  0  0  0  0  0  0  0  0  0  0  0
   12.0918   -2.6621    8.4504 C   0  0  0  0  0  0  0  0  0  0  0  0
   12.1223   -4.0618    8.0500 N   0  0  0  0  0  0  0  0  0  0  0  0
    6.8257   -6.0176   10.4468 N   0  0  0  0  0  0  0  0  0  0  0  0
    9.0614   -2.9427   11.4428 C   0  0  0  0  0  0  0  0  0  0  0  0
    9.6901   -2.1216   11.1351 O   0  0  0  0  0  0  0  0  0  0  0  0
    9.1790   -4.4159   11.7487 C   0  0  2  0  0  0  0  0  0  0  0  0
   10.4015   -4.7142   12.2949 O   0  0  0  0  0  0  0  0  0  0  0  0
    9.1011   -5.1516   10.4155 C   0  0  0  0  0  0  0  0  0  0  0  0
    7.7404   -5.1459    9.6955 C   0  0  0  0  0  0  0  0  0  0  0  0
  1  2  1  1  0  0  0
  1  3  1  0  0  0  0
  3  4  1  6  0  0  0
  3  5  1  0  0  0  0
  5  6  1  1  0  0  0
  5  7  1  0  0  0  0
  7  8  1  1  0  0  0
  9  7  1  0  0  0  0
  9 10  1  0  0  0  0
  9 11  1  1  0  0  0
 10  1  1  0  0  0  0
 11 12  1  0  0  0  0
 13 14  1  1  0  0  0
 13 15  1  0  0  0  0
 13 22  1  0  0  0  0
 14 32  1  0  0  0  0
 15 16  1  6  0  0  0
 15 17  1  0  0  0  0
 16 23  1  0  0  0  0
 17 18  1  6  0  0  0
 17 19  1  0  0  0  0
 19  2  1  6  0  0  0
 19 20  1  0  0  0  0
 20 21  1  1  0  0  0
 20 22  1  0  0  0  0
 23 24  1  0  0  0  0
 24 25  1  0  0  0  0
 25 26  1  0  0  0  0
 26 27  1  0  0  0  0
 27 28  1  0  0  0  0
 28 29  1  0  0  0  0
 29 30  1  0  0  0  0
 31 37  1  0  0  0  0
 32 33  2  0  0  0  0
 34 32  1  6  0  0  0
 34 35  1  0  0  0  0
 34 36  1  0  0  0  0
 36 37  1  0  0  0  0
M  END
>  <CHROM.1>
164.86053253,172.65843339,131.93737505,-152.52482990,77.59057475,104.23391969
88.36428021,172.68660733,171.45372457,-171.48138230,176.76041762,69.89160191
-148.00110294,-69.54120006,-71.54080883,5.75358330,-1.07871521,11.25556186
2.97987720,-0.73581025,2.04358826

>  <Name>
1o9m_lig

>  <RI>
0

>  <Rbt.Current_Directory>
/home/itssahil/PROJECTS/Mol_Feturizer/New_Systems/rnas/1o9m

>  <Rbt.Executable>
rbdock ($Id: //depot/dev/client3/rdock/2013.1/src/exe/rbdock.cxx#4 $)

>  <Rbt.Library>
libRbt.so (2013.1, Build901 2013/11/27)

>  <Rbt.Parameter_File>
/export/apps/rDock/src/rDock_2013.1_src/data/scripts/dock_solv.prm

>  <Rbt.Receptor>
prm/blind_docking_100.prm

>  <SCORE>
-5.09254

>  <SCORE.INTER>
-4.65078

>  <SCORE.INTER.CONST>
1

>  <SCORE.INTER.POLAR>
-2.66731

>  <SCORE.INTER.ROT>
15

>  <SCORE.INTER.SOLV>
26.977

>  <SCORE.INTER.VDW>
-16.8018

>  <SCORE.INTER.norm>
-0.125697

>  <SCORE.INTRA>
-0.544896

>  <SCORE.INTRA.DIHEDRAL>
-2.65501

>  <SCORE.INTRA.DIHEDRAL.0>
21.5987

>  <SCORE.INTRA.POLAR>
0

>  <SCORE.INTRA.POLAR.0>
0

>  <SCORE.INTRA.REPUL>
0

>  <SCORE.INTRA.REPUL.0>
0

>  <SCORE.INTRA.SOLV>
7.69883

>  <SCORE.INTRA.SOLV.lig_0>
-108.715

>  <SCORE.INTRA.VDW>
-3.06681

>  <SCORE.INTRA.VDW.0>
-3.9485

>  <SCORE.INTRA.norm>
-0.0147269

>  <SCORE.RESTR>
0.10314

>  <SCORE.RESTR.CAVITY>
0.10314

>  <SCORE.RESTR.norm>
0.00278756

>  <SCORE.SYSTEM>
0

>  <SCORE.SYSTEM.CONST>
0

>  <SCORE.SYSTEM.DIHEDRAL>
0

>  <SCORE.SYSTEM.SOLV>
0

>  <SCORE.SYSTEM.norm>
0

>  <SCORE.heavy>
37

>  <SCORE.norm>
-0.137636

>  <RMSD>
24.376

$$$$
1o9m_lig
 OpenBabel11021811403D
libRbt.so/2013.1/901 2013/11/27
 37 38  0  0  0  0  0  0  0  0999 V2000
    2.3639    1.3312   12.3710 C   0  0  2  0  0  0  0  0  0  0  0  0
    3.8073    1.4535   12.5550 O   0  0  0  0  0  0  0  0  0  0  0  0
    1.7301    2.6535   12.9406 C   0  0  2  0  0  0  0  0  0  0  0  0
    2.2417    3.8549   12.2582 N   0  0  0  0  0  0  0  0  0  0  0  0
    2.0073    2.7312   14.4901 C   0  0  1  0  0  0  0  0  0  0  0  0
    1.4382    3.9259   15.0327 O   0  0  0  0  0  0  0  0  0  0  0  0
    1.4205    1.4419   15.1540 C   0  0  2  0  0  0  0  0  0  0  0  0
    1.6338    1.3997   16.5744 O   0  0  0  0  0  0  0  0  0  0  0  0
    2.0366    0.1714   14.5179 C   0  0  2  0  0  0  0  0  0  0  0  0
    1.8440    0.1663   13.0958 O   0  0  0  0  0  0  0  0  0  0  0  0
    1.4463   -1.0863   15.1014 C   0  0  0  0  0  0  0  0  0  0  0  0
    1.9801   -2.1929   14.4853 N   0  0  0  0  0  0  0  0  0  0  0  0
    7.4896   -0.4729   11.3099 C   0  0  1  0  0  0  0  0  0  0  0  0
    8.4219   -1.5232   10.8125 N   0  0  0  0  0  0  0  0  0  0  0  0
    6.4291   -0.2141   10.2485 C   0  0  2  0  0  0  0  0  0  0  0  0
    7.0816    0.1592    9.0716 O   0  0  0  0  0  0  0  0  0  0  0  0
    5.4377    0.8961   10.7199 C   0  0  1  0  0  0  0  0  0  0  0  0
    4.4133    1.1198    9.7035 O   0  0  0  0  0  0  0  0  0  0  0  0
    4.7314    0.4417   12.0617 C   0  0  1  0  0  0  0  0  0  0  0  0
    5.7802    0.1981   13.1362 C   0  0  1  0  0  0  0  0  0  0  0  0
    5.1095   -0.2036   14.3635 N   0  0  0  0  0  0  0  0  0  0  0  0
    6.7774   -0.8917   12.6595 C   0  0  0  0  0  0  0  0  0  0  0  0
    7.9158    0.0400    7.8984 C   0  0  0  0  0  0  0  0  0  0  0  0
    7.2109   -0.8167    6.8719 C   0  0  0  0  0  0  0  0  0  0  0  0
    7.5040   -2.2603    6.9848 N   0  0  0  0  0  0  0  0  0  0  0  0
    7.4562   -3.6793    7.4052 C   0  0  0  0  0  0  0  0  0  0  0  0
    6.0280   -3.9791    6.9328 C   0  0  0  0  0  0  0  0  0  0  0  0
    5.9382   -4.1360    5.4032 C   0  0  0  0  0  0  0  0  0  0  0  0
    4.5007   -4.3915    4.9609 C   0  0  0  0  0  0  0  0  0  0  0  0
    3.7145   -3.1723    5.0865 N   0  0  0  0  0  0  0  0  0  0  0  0
   10.8107   -6.3857   10.6221 N   0  0  0  0  0  0  0  0  0  0  0  0
    8.0207   -3.1170   11.4799 C   0  0  0  0  0  0  0  0  0  0  0  0
    7.2603   -3.4955   12.1452 O   0  0  0  0  0  0  0  0  0  0  0  0
    9.2144   -3.6232   10.7076 C   0  0  2  0  0  0  0  0  0  0  0  0
    8.8453   -4.5704    9.7864 O   0  0  0  0  0  0  0  0  0  0  0  0
   10.1280   -4.3179   11.7114 C   0  0  0  0  0  0  0  0  0  0  0  0
   10.0589   -5.8547   11.7683 C   0  0  0  0  0  0  0  0  0  0  0  0
  1  2  1  1  0  0  0
  1  3  1  0  0  0  0
  3  4  1  6  0  0  0
  3  5  1  0  0  0  0
  5  6  1  1  0  0  0
  5  7  1  0  0  0  0
  7  8  1  1  0  0  0
  9  7  1  0  0  0  0
  9 10  1  0  0  0  0
  9 11  1  1  0  0  0
 10  1  1  0  0  0  0
 11 12  1  0  0  0  0
 13 14  1  6  0  0  0
 13 15  1  0  0  0  0
 13 22  1  0  0  0  0
 14 32  1  0  0  0  0
 15 16  1  6  0  0  0
 15 17  1  0  0  0  0
 16 23  1  0  0  0  0
 17 18  1  6  0  0  0
 17 19  1  0  0  0  0
 19  2  1  1  0  0  0
 19 20  1  0  0  0  0
 20 21  1  1  0  0  0
 20 22  1  0  0  0  0
 23 24  1  0  0  0  0
 24 25  1  0  0  0  0
 25 26  1  0  0  0  0
 26 27  1  0  0  0  0
 27 28  1  0  0  0  0
 28 29  1  0  0  0  0
 29 30  1  0  0  0  0
 31 37  1  0  0  0  0
 32 33  2  0  0  0  0
 34 32  1  1  0  0  0
 34 35  1  0  0  0  0
 34 36  1  0  0  0  0
 36 37  1  0  0  0  0
M  END
>  <CHROM.1>
-176.00367319,177.97213403,-99.09475991,66.60031562,72.30398835,101.92391007
-89.89648864,85.04671385,62.42027699,75.35922663,-178.29459069,72.52856675
-119.22614747,100.07377958,77.61088142,5.39609257,-1.03041157,11.14972898
2.45029959,-0.69607770,1.47912033

>  <Name>
1o9m_lig

>  <RI>
0

>  <Rbt.Current_Directory>
/home/itssahil/PROJECTS/Mol_Feturizer/New_Systems/rnas/1o9m

>  <Rbt.Executable>
rbdock ($Id: //depot/dev/client3/rdock/2013.1/src/exe/rbdock.cxx#4 $)

>  <Rbt.Library>
libRbt.so (2013.1, Build901 2013/11/27)

>  <Rbt.Parameter_File>
/export/apps/rDock/src/rDock_2013.1_src/data/scripts/dock_solv.prm

>  <Rbt.Receptor>
prm/blind_docking_20.prm

>  <SCORE>
-0.971085

>  <SCORE.INTER>
-4.646

>  <SCORE.INTER.CONST>
1

>  <SCORE.INTER.POLAR>
-1.97725

>  <SCORE.INTER.ROT>
15

>  <SCORE.INTER.SOLV>
25.1539

>  <SCORE.INTER.VDW>
-18.4911

>  <SCORE.INTER.norm>
-0.125568

>  <SCORE.INTRA>
3.64694

>  <SCORE.INTRA.DIHEDRAL>
-1.98693

>  <SCORE.INTRA.DIHEDRAL.0>
21.5987

>  <SCORE.INTRA.POLAR>
0

>  <SCORE.INTRA.POLAR.0>
0

>  <SCORE.INTRA.REPUL>
0

>  <SCORE.INTRA.REPUL.0>
0

>  <SCORE.INTRA.SOLV>
5.59974

>  <SCORE.INTRA.SOLV.lig_0>
-108.715

>  <SCORE.INTRA.VDW>
1.84054

>  <SCORE.INTRA.VDW.0>
-3.9485

>  <SCORE.INTRA.norm>
0.098566

>  <SCORE.RESTR>
0.0279715

>  <SCORE.RESTR.CAVITY>
0.0279715

>  <SCORE.RESTR.norm>
0.000755986

>  <SCORE.SYSTEM>
0

>  <SCORE.SYSTEM.CONST>
0

>  <SCORE.SYSTEM.DIHEDRAL>
0

>  <SCORE.SYSTEM.SOLV>
0

>  <SCORE.SYSTEM.norm>
0

>  <SCORE.heavy>
37

>  <SCORE.norm>
-0.0262455

>  <RMSD>
24.377

$$$$
1o9m_lig
 OpenBabel11021811403D
libRbt.so/2013.1/901 2013/11/27
 37 38  0  0  0  0  0  0  0  0999 V2000
    2.6123    0.7132   11.9824 C   0  0  2  0  0  0  0  0  0  0  0  0
    4.0507    0.6140   12.2136 O   0  0  0  0  0  0  0  0  0  0  0  0
    2.1219    1.9818   12.7729 C   0  0  2  0  0  0  0  0  0  0  0  0
    2.8056    3.2105   12.3328 N   0  0  0  0  0  0  0  0  0  0  0  0
    2.3406    1.7434   14.3153 C   0  0  1  0  0  0  0  0  0  0  0  0
    1.9000    2.8841   15.0571 O   0  0  0  0  0  0  0  0  0  0  0  0
    1.5724    0.4419   14.7196 C   0  0  2  0  0  0  0  0  0  0  0  0
    1.7184    0.1180   16.1120 O   0  0  0  0  0  0  0  0  0  0  0  0
    2.0543   -0.7619   13.8730 C   0  0  2  0  0  0  0  0  0  0  0  0
    1.9231   -0.4865   12.4707 O   0  0  0  0  0  0  0  0  0  0  0  0
    1.2899   -2.0176   14.2040 C   0  0  0  0  0  0  0  0  0  0  0  0
    1.5982   -2.4413   15.4748 N   0  0  0  0  0  0  0  0  0  0  0  0
    7.3749   -1.5119   10.4105 C   0  0  1  0  0  0  0  0  0  0  0  0
    8.1777   -2.6285    9.8377 N   0  0  0  0  0  0  0  0  0  0  0  0
    6.1072   -1.3433    9.5841 C   0  0  2  0  0  0  0  0  0  0  0  0
    6.4855   -1.1101    8.2603 O   0  0  0  0  0  0  0  0  0  0  0  0
    5.2409   -0.1685   10.1382 C   0  0  1  0  0  0  0  0  0  0  0  0
    4.0184   -0.0309    9.3513 O   0  0  0  0  0  0  0  0  0  0  0  0
    4.8463   -0.4638   11.6425 C   0  0  1  0  0  0  0  0  0  0  0  0
    6.1054   -0.6156   12.4824 C   0  0  1  0  0  0  0  0  0  0  0  0
    5.7205   -0.8713   13.8623 N   0  0  0  0  0  0  0  0  0  0  0  0
    6.9762   -1.7708   11.9198 C   0  0  0  0  0  0  0  0  0  0  0  0
    7.0804   -1.3542    6.9668 C   0  0  0  0  0  0  0  0  0  0  0  0
    6.4799   -2.6071    6.3717 C   0  0  0  0  0  0  0  0  0  0  0  0
    5.0267   -2.5206    6.1197 N   0  0  0  0  0  0  0  0  0  0  0  0
    3.7028   -2.0480    5.6544 C   0  0  0  0  0  0  0  0  0  0  0  0
    2.8465   -2.8457    6.6461 C   0  0  0  0  0  0  0  0  0  0  0  0
    3.1641   -2.4912    8.1109 C   0  0  0  0  0  0  0  0  0  0  0  0
    2.2741   -3.2747    9.0708 C   0  0  0  0  0  0  0  0  0  0  0  0
    2.7856   -3.1649   10.4296 N   0  0  0  0  0  0  0  0  0  0  0  0
   12.1761   -3.1337    7.6146 N   0  0  0  0  0  0  0  0  0  0  0  0
    9.7659   -2.7536   10.6178 C   0  0  0  0  0  0  0  0  0  0  0  0
   10.2713   -2.2204   11.4080 O   0  0  0  0  0  0  0  0  0  0  0  0
   10.0275   -3.8921    9.6623 C   0  0  2  0  0  0  0  0  0  0  0  0
    9.3906   -5.0376   10.0676 O   0  0  0  0  0  0  0  0  0  0  0  0
   11.5241   -4.1785    9.7150 C   0  0  0  0  0  0  0  0  0  0  0  0
   12.4547   -3.1430    9.0580 C   0  0  0  0  0  0  0  0  0  0  0  0
  1  2  1  1  0  0  0
  1  3  1  0  0  0  0
  3  4  1  6  0  0  0
  3  5  1  0  0  0  0
  5  6  1  1  0  0  0
  5  7  1  0  0  0  0
  7  8  1  1  0  0  0
  9  7  1  0  0  0  0
  9 10  1  0  0  0  0
  9 11  1  1  0  0  0
 10  1  1  0  0  0  0
 11 12  1  0  0  0  0
 13 14  1  6  0  0  0
 13 15  1  0  0  0  0
 13 22  1  0  0  0  0
 14 32  1  0  0  0  0
 15 16  1  6  0  0  0
 15 17  1  0  0  0  0
 16 23  1  0  0  0  0
 17 18  1  6  0  0  0
 17 19  1  0  0  0  0
 19  2  1  1  0  0  0
 19 20  1  0  0  0  0
 20 21  1  1  0  0  0
 20 22  1  0  0  0  0
 23 24  1  0  0  0  0
 24 25  1  0  0  0  0
 25 26  1  0  0  0  0
 26 27  1  0  0  0  0
 27 28  1  0  0  0  0
 28 29  1  0  0  0  0
 29 30  1  0  0  0  0
 31 37  1  0  0  0  0
 32 33  2  0  0  0  0
 34 32  1  1  0  0  0
 34 35  1  0  0  0  0
 34 36  1  0  0  0  0
 36 37  1  0  0  0  0
M  END
>  <CHROM.1>
179.20875354,-68.17688374,172.76194649,61.89503481,58.29371111,81.79251077
62.56821912,51.25264114,-159.25239638,59.96188218,178.61309513,166.98498138
-77.48241200,-72.01526719,-64.82457812,5.28555327,-1.32408137,10.83332814
2.47392766,-0.25471615,1.28222129

>  <Name>
1o9m_lig

>  <RI>
0

>  <Rbt.Current_Directory>
/home/itssahil/PROJECTS/Mol_Feturizer/New_Systems/rnas/1o9m

>  <Rbt.Executable>
rbdock ($Id: //depot/dev/client3/rdock/2013.1/src/exe/rbdock.cxx#4 $)

>  <Rbt.Library>
libRbt.so (2013.1, Build901 2013/11/27)

>  <Rbt.Parameter_File>
/export/apps/rDock/src/rDock_2013.1_src/data/scripts/dock_solv.prm

>  <Rbt.Receptor>
prm/blind_docking_20.prm

>  <SCORE>
-7.69552

>  <SCORE.INTER>
-1.44516

>  <SCORE.INTER.CONST>
1

>  <SCORE.INTER.POLAR>
-1.40884

>  <SCORE.INTER.ROT>
15

>  <SCORE.INTER.SOLV>
24.0609

>  <SCORE.INTER.VDW>
-17.8876

>  <SCORE.INTER.norm>
-0.0390583

>  <SCORE.INTRA>
-6.25318

>  <SCORE.INTRA.DIHEDRAL>
-16.5667

>  <SCORE.INTRA.DIHEDRAL.0>
21.5987

>  <SCORE.INTRA.POLAR>
0

>  <SCORE.INTRA.POLAR.0>
0

>  <SCORE.INTRA.REPUL>
0.0179391

>  <SCORE.INTRA.REPUL.0>
0

>  <SCORE.INTRA.SOLV>
6.36562

>  <SCORE.INTRA.SOLV.lig_0>
-108.715

>  <SCORE.INTRA.VDW>
-1.24233

>  <SCORE.INTRA.VDW.0>
-3.9485

>  <SCORE.INTRA.norm>
-0.169005

>  <SCORE.RESTR>
0.00281339

>  <SCORE.RESTR.CAVITY>
0.00281339

>  <SCORE.RESTR.norm>
7.60376e-05

>  <SCORE.SYSTEM>
0

>  <SCORE.SYSTEM.CONST>
0

>  <SCORE.SYSTEM.DIHEDRAL>
0

>  <SCORE.SYSTEM.SOLV>
0

>  <SCORE.SYSTEM.norm>
0

>  <SCORE.heavy>
37

>  <SCORE.norm>
-0.207987

>  <RMSD>
24.388

$$$$
1o9m_lig
 OpenBabel11021811403D
libRbt.so/2013.1/901 2013/11/27
 37 38  0  0  0  0  0  0  0  0999 V2000
    9.8049   -4.3372    9.6533 C   0  0  2  0  0  0  0  0  0  0  0  0
    9.8158   -3.4504   10.8134 O   0  0  0  0  0  0  0  0  0  0  0  0
   11.2621   -4.9150    9.5222 C   0  0  2  0  0  0  0  0  0  0  0  0
   11.6823   -5.6449   10.7312 N   0  0  0  0  0  0  0  0  0  0  0  0
   12.2577   -3.7341    9.2091 C   0  0  1  0  0  0  0  0  0  0  0  0
   13.5914   -4.2350    9.0833 O   0  0  0  0  0  0  0  0  0  0  0  0
   11.7690   -3.0189    7.9064 C   0  0  2  0  0  0  0  0  0  0  0  0
   12.6005   -1.9073    7.5351 O   0  0  0  0  0  0  0  0  0  0  0  0
   10.3120   -2.5204    8.0709 C   0  0  2  0  0  0  0  0  0  0  0  0
    9.4405   -3.5997    8.4384 O   0  0  0  0  0  0  0  0  0  0  0  0
    9.7975   -1.8768    6.8093 C   0  0  0  0  0  0  0  0  0  0  0  0
    8.5446   -1.3520    7.0196 N   0  0  0  0  0  0  0  0  0  0  0  0
    6.6207   -1.0438   12.4928 C   0  0  1  0  0  0  0  0  0  0  0  0
    5.6293    0.0576   12.6458 N   0  0  0  0  0  0  0  0  0  0  0  0
    6.3489   -1.7718   11.1834 C   0  0  2  0  0  0  0  0  0  0  0  0
    5.0315   -2.2341   11.2147 O   0  0  0  0  0  0  0  0  0  0  0  0
    7.3552   -2.9495   10.9890 C   0  0  1  0  0  0  0  0  0  0  0  0
    7.0984   -3.6258    9.7204 O   0  0  0  0  0  0  0  0  0  0  0  0
    8.8345   -2.3863   10.9741 C   0  0  1  0  0  0  0  0  0  0  0  0
    9.1246   -1.6727   12.2858 C   0  0  1  0  0  0  0  0  0  0  0  0
   10.4923   -1.1765   12.2571 N   0  0  0  0  0  0  0  0  0  0  0  0
    8.1117   -0.5140   12.4886 C   0  0  0  0  0  0  0  0  0  0  0  0
    3.8857   -3.0087   11.6314 C   0  0  0  0  0  0  0  0  0  0  0  0
    2.6476   -2.4703   10.9518 C   0  0  0  0  0  0  0  0  0  0  0  0
    2.6145   -2.6919    9.4914 N   0  0  0  0  0  0  0  0  0  0  0  0
    2.1744   -2.7045    8.0777 C   0  0  0  0  0  0  0  0  0  0  0  0
    0.7021   -2.3514    8.3240 C   0  0  0  0  0  0  0  0  0  0  0  0
   -0.1513   -3.5923    8.6466 C   0  0  0  0  0  0  0  0  0  0  0  0
   -0.8960   -4.0834    7.4090 C   0  0  0  0  0  0  0  0  0  0  0  0
    0.0525   -4.4418    6.3639 N   0  0  0  0  0  0  0  0  0  0  0  0
    1.3104    2.8265   13.0680 N   0  0  0  0  0  0  0  0  0  0  0  0
    4.2649   -0.4336   13.6674 C   0  0  0  0  0  0  0  0  0  0  0  0
    3.9987   -1.3309   14.2041 O   0  0  0  0  0  0  0  0  0  0  0  0
    3.7063    0.9426   13.3997 C   0  0  2  0  0  0  0  0  0  0  0  0
    3.2843    1.5420   14.5593 O   0  0  0  0  0  0  0  0  0  0  0  0
    2.4710    0.7559   12.5258 C   0  0  0  0  0  0  0  0  0  0  0  0
    1.8288    2.0295   11.9467 C   0  0  0  0  0  0  0  0  0  0  0  0
  1  2  1  1  0  0  0
  1  3  1  0  0  0  0
  3  4  1  1  0  0  0
  3  5  1  0  0  0  0
  5  6  1  6  0  0  0
  5  7  1  0  0  0  0
  7  8  1  1  0  0  0
  9  7  1  0  0  0  0
  9 10  1  0  0  0  0
  9 11  1  6  0  0  0
 10  1  1  0  0  0  0
 11 12  1  0  0  0  0
 13 14  1  6  0  0  0
 13 15  1  0  0  0  0
 13 22  1  0  0  0  0
 14 32  1  0  0  0  0
 15 16  1  1  0  0  0
 15 17  1  0  0  0  0
 16 23  1  0  0  0  0
 17 18  1  6  0  0  0
 17 19  1  0  0  0  0
 19  2  1  1  0  0  0
 19 20  1  0  0  0  0
 20 21  1  6  0  0  0
 20 22  1  0  0  0  0
 23 24  1  0  0  0  0
 24 25  1  0  0  0  0
 25 26  1  0  0  0  0
 26 27  1  0  0  0  0
 27 28  1  0  0  0  0
 28 29  1  0  0  0  0
 29 30  1  0  0  0  0
 31 37  1  0  0  0  0
 32 33  2  0  0  0  0
 34 32  1  1  0  0  0
 34 35  1  0  0  0  0
 34 36  1  0  0  0  0
 36 37  1  0  0  0  0
M  END
>  <CHROM.1>
157.41511535,-175.24150723,96.99854521,-66.60614053,171.65215315,58.65771534
68.08064908,178.65641433,-14.02732057,-85.13197307,-98.48838167,60.11611930
-132.47499392,-171.61664535,-65.07198154,6.42459416,-2.08496877,10.40761946
0.27848966,0.08571178,-2.20263550

>  <Name>
1o9m_lig

>  <RI>
0

>  <Rbt.Current_Directory>
/home/itssahil/PROJECTS/Mol_Feturizer/New_Systems/rnas/1o9m

>  <Rbt.Executable>
rbdock ($Id: //depot/dev/client3/rdock/2013.1/src/exe/rbdock.cxx#4 $)

>  <Rbt.Library>
libRbt.so (2013.1, Build901 2013/11/27)

>  <Rbt.Parameter_File>
/export/apps/rDock/src/rDock_2013.1_src/data/scripts/dock_solv.prm

>  <Rbt.Receptor>
prm/blind_docking_100.prm

>  <SCORE>
-5.22465

>  <SCORE.INTER>
-2.8741

>  <SCORE.INTER.CONST>
1

>  <SCORE.INTER.POLAR>
-0.521615

>  <SCORE.INTER.ROT>
15

>  <SCORE.INTER.SOLV>
11.2562

>  <SCORE.INTER.VDW>
-17.5294

>  <SCORE.INTER.norm>
-0.0776784

>  <SCORE.INTRA>
-2.39505

>  <SCORE.INTRA.DIHEDRAL>
-7.43773

>  <SCORE.INTRA.DIHEDRAL.0>
21.5987

>  <SCORE.INTRA.POLAR>
0

>  <SCORE.INTRA.POLAR.0>
0

>  <SCORE.INTRA.REPUL>
0.0411727

>  <SCORE.INTRA.REPUL.0>
0

>  <SCORE.INTRA.SOLV>
3.9901

>  <SCORE.INTRA.SOLV.lig_0>
-108.715

>  <SCORE.INTRA.VDW>
-0.877096

>  <SCORE.INTRA.VDW.0>
-3.9485

>  <SCORE.INTRA.norm>
-0.064731

>  <SCORE.RESTR>
0.0444947

>  <SCORE.RESTR.CAVITY>
0.0444947

>  <SCORE.RESTR.norm>
0.00120256

>  <SCORE.SYSTEM>
0

>  <SCORE.SYSTEM.CONST>
0

>  <SCORE.SYSTEM.DIHEDRAL>
0

>  <SCORE.SYSTEM.SOLV>
0

>  <SCORE.SYSTEM.norm>
0

>  <SCORE.heavy>
37

>  <SCORE.norm>
-0.141207

>  <RMSD>
24.396

$$$$
1o9m_lig
 OpenBabel11021811403D
libRbt.so/2013.1/901 2013/11/27
 37 38  0  0  0  0  0  0  0  0999 V2000
   11.6457   -1.5422   11.2403 C   0  0  2  0  0  0  0  0  0  0  0  0
   10.9929   -0.7646   10.1909 O   0  0  0  0  0  0  0  0  0  0  0  0
   12.5778   -2.5783   10.5108 C   0  0  2  0  0  0  0  0  0  0  0  0
   13.5781   -1.9194    9.6528 N   0  0  0  0  0  0  0  0  0  0  0  0
   11.6866   -3.5689    9.6692 C   0  0  1  0  0  0  0  0  0  0  0  0
   12.5122   -4.5235    8.9966 O   0  0  0  0  0  0  0  0  0  0  0  0
   10.6662   -4.2493   10.6404 C   0  0  2  0  0  0  0  0  0  0  0  0
    9.7857   -5.1665    9.9710 O   0  0  0  0  0  0  0  0  0  0  0  0
    9.8147   -3.1828   11.3725 C   0  0  2  0  0  0  0  0  0  0  0  0
   10.6528   -2.2437   12.0617 O   0  0  0  0  0  0  0  0  0  0  0  0
    8.8615   -3.8102   12.3565 C   0  0  0  0  0  0  0  0  0  0  0  0
    9.5579   -4.5007   13.3196 N   0  0  0  0  0  0  0  0  0  0  0  0
    7.1995    0.4991   11.8741 C   0  0  1  0  0  0  0  0  0  0  0  0
    5.9927    1.3318   12.1387 N   0  0  0  0  0  0  0  0  0  0  0  0
    7.2370    0.1440   10.3940 C   0  0  2  0  0  0  0  0  0  0  0  0
    6.0476   -0.5174   10.0809 O   0  0  0  0  0  0  0  0  0  0  0  0
    8.4786   -0.7463   10.0726 C   0  0  1  0  0  0  0  0  0  0  0  0
    8.5154   -1.0619    8.6472 O   0  0  0  0  0  0  0  0  0  0  0  0
    9.8028    0.0322   10.4549 C   0  0  1  0  0  0  0  0  0  0  0  0
    9.7857    0.3762   11.9365 C   0  0  1  0  0  0  0  0  0  0  0  0
   11.0168    1.0771   12.2694 N   0  0  0  0  0  0  0  0  0  0  0  0
    8.5407    1.2449   12.2598 C   0  0  0  0  0  0  0  0  0  0  0  0
    5.0014   -1.5112   10.1481 C   0  0  0  0  0  0  0  0  0  0  0  0
    5.6132   -2.8870   10.0171 C   0  0  0  0  0  0  0  0  0  0  0  0
    6.1512   -3.1843    8.6736 N   0  0  0  0  0  0  0  0  0  0  0  0
    6.2411   -3.5150    7.2331 C   0  0  0  0  0  0  0  0  0  0  0  0
    5.5085   -2.2779    6.6985 C   0  0  0  0  0  0  0  0  0  0  0  0
    4.8725   -2.5254    5.3177 C   0  0  0  0  0  0  0  0  0  0  0  0
    3.6048   -3.3653    5.4397 C   0  0  0  0  0  0  0  0  0  0  0  0
    2.5200   -2.5579    5.9796 N   0  0  0  0  0  0  0  0  0  0  0  0
    1.9353    2.6602   11.1908 N   0  0  0  0  0  0  0  0  0  0  0  0
    5.0905    0.7392   13.5465 C   0  0  0  0  0  0  0  0  0  0  0  0
    5.2204   -0.0678   14.2506 O   0  0  0  0  0  0  0  0  0  0  0  0
    4.1143    1.8530   13.2564 C   0  0  2  0  0  0  0  0  0  0  0  0
    3.9216    2.6451   14.3598 O   0  0  0  0  0  0  0  0  0  0  0  0
    2.7737    1.1962   12.9465 C   0  0  0  0  0  0  0  0  0  0  0  0
    1.6229    2.1277   12.5249 C   0  0  0  0  0  0  0  0  0  0  0  0
  1  2  1  6  0  0  0
  1  3  1  0  0  0  0
  3  4  1  6  0  0  0
  3  5  1  0  0  0  0
  5  6  1  1  0  0  0
  5  7  1  0  0  0  0
  7  8  1  6  0  0  0
  9  7  1  0  0  0  0
  9 10  1  0  0  0  0
  9 11  1  1  0  0  0
 10  1  1  0  0  0  0
 11 12  1  0  0  0  0
 13 14  1  6  0  0  0
 13 15  1  0  0  0  0
 13 22  1  0  0  0  0
 14 32  1  0  0  0  0
 15 16  1  1  0  0  0
 15 17  1  0  0  0  0
 16 23  1  0  0  0  0
 17 18  1  6  0  0  0
 17 19  1  0  0  0  0
 19  2  1  1  0  0  0
 19 20  1  0  0  0  0
 20 21  1  6  0  0  0
 20 22  1  0  0  0  0
 23 24  1  0  0  0  0
 24 25  1  0  0  0  0
 25 26  1  0  0  0  0
 26 27  1  0  0  0  0
 27 28  1  0  0  0  0
 28 29  1  0  0  0  0
 29 30  1  0  0  0  0
 31 37  1  0  0  0  0
 32 33  2  0  0  0  0
 34 32  1  1  0  0  0
 34 35  1  0  0  0  0
 34 36  1  0  0  0  0
 36 37  1  0  0  0  0
M  END
>  <CHROM.1>
163.00512971,61.08993381,131.86961111,-56.64916008,-53.97930977,-96.58073936
-69.45612435,-73.95945427,61.99958036,-155.35703969,75.79456937,74.27186647
-125.67801361,-176.15548298,69.42495337,7.54279382,-1.26814611,10.57992547
-0.38387343,-0.29681164,0.92864030

>  <Name>
1o9m_lig

>  <RI>
0

>  <Rbt.Current_Directory>
/home/itssahil/PROJECTS/Mol_Feturizer/New_Systems/rnas/1o9m

>  <Rbt.Executable>
rbdock ($Id: //depot/dev/client3/rdock/2013.1/src/exe/rbdock.cxx#4 $)

>  <Rbt.Library>
libRbt.so (2013.1, Build901 2013/11/27)

>  <Rbt.Parameter_File>
/export/apps/rDock/src/rDock_2013.1_src/data/scripts/dock_solv.prm

>  <Rbt.Receptor>
prm/blind_docking_20.prm

>  <SCORE>
-6.4077

>  <SCORE.INTER>
-4.79866

>  <SCORE.INTER.CONST>
1

>  <SCORE.INTER.POLAR>
-1.69947

>  <SCORE.INTER.ROT>
15

>  <SCORE.INTER.SOLV>
19.1638

>  <SCORE.INTER.VDW>
-17.5221

>  <SCORE.INTER.norm>
-0.129693

>  <SCORE.INTRA>
-1.6493

>  <SCORE.INTRA.DIHEDRAL>
-7.07077

>  <SCORE.INTRA.DIHEDRAL.0>
21.5987

>  <SCORE.INTRA.POLAR>
0

>  <SCORE.INTRA.POLAR.0>
0

>  <SCORE.INTRA.REPUL>
0

>  <SCORE.INTRA.REPUL.0>
0

>  <SCORE.INTRA.SOLV>
4.67473

>  <SCORE.INTRA.SOLV.lig_0>
-108.715

>  <SCORE.INTRA.VDW>
-0.451276

>  <SCORE.INTRA.VDW.0>
-3.9485

>  <SCORE.INTRA.norm>
-0.0445756

>  <SCORE.RESTR>
0.0402587

>  <SCORE.RESTR.CAVITY>
0.0402587

>  <SCORE.RESTR.norm>
0.00108807

>  <SCORE.SYSTEM>
0

>  <SCORE.SYSTEM.CONST>
0

>  <SCORE.SYSTEM.DIHEDRAL>
0

>  <SCORE.SYSTEM.SOLV>
0

>  <SCORE.SYSTEM.norm>
0

>  <SCORE.heavy>
37

>  <SCORE.norm>
-0.173181

>  <RMSD>
24.398

$$$$
1o9m_lig
 OpenBabel11021811403D
libRbt.so/2013.1/901 2013/11/27
 37 38  0  0  0  0  0  0  0  0999 V2000
    3.1368    1.3217   12.8312 C   0  0  2  0  0  0  0  0  0  0  0  0
    4.4656    1.3161   13.4367 O   0  0  0  0  0  0  0  0  0  0  0  0
    2.3016    2.4085   13.6032 C   0  0  2  0  0  0  0  0  0  0  0  0
    2.9164    3.7450   13.5212 N   0  0  0  0  0  0  0  0  0  0  0  0
    2.1381    1.9607   15.1054 C   0  0  1  0  0  0  0  0  0  0  0  0
    1.3793    2.9333   15.8292 O   0  0  0  0  0  0  0  0  0  0  0  0
    1.4608    0.5505   15.1212 C   0  0  2  0  0  0  0  0  0  0  0  0
    1.2777    0.0348   16.4499 O   0  0  0  0  0  0  0  0  0  0  0  0
    2.2945   -0.4648   14.3011 C   0  0  2  0  0  0  0  0  0  0  0  0
    2.5004    0.0061   12.9613 O   0  0  0  0  0  0  0  0  0  0  0  0
    1.6343   -1.8185   14.2537 C   0  0  0  0  0  0  0  0  0  0  0  0
    2.2311   -2.6058   13.2981 N   0  0  0  0  0  0  0  0  0  0  0  0
    6.8256   -0.8588   10.5177 C   0  0  1  0  0  0  0  0  0  0  0  0
    8.0074   -1.4692    9.8467 N   0  0  0  0  0  0  0  0  0  0  0  0
    6.6839   -1.4620   11.9086 C   0  0  2  0  0  0  0  0  0  0  0  0
    6.5666   -2.8463   11.7663 O   0  0  0  0  0  0  0  0  0  0  0  0
    5.4437   -0.8637   12.6445 C   0  0  1  0  0  0  0  0  0  0  0  0
    5.3311   -1.4335   13.9844 O   0  0  0  0  0  0  0  0  0  0  0  0
    5.6084    0.7055   12.7718 C   0  0  1  0  0  0  0  0  0  0  0  0
    5.7320    1.3221   11.3867 C   0  0  1  0  0  0  0  0  0  0  0  0
    5.8672    2.7643   11.5260 N   0  0  0  0  0  0  0  0  0  0  0  0
    6.9534    0.7130   10.6476 C   0  0  0  0  0  0  0  0  0  0  0  0
    6.9252   -4.1981   11.4049 C   0  0  0  0  0  0  0  0  0  0  0  0
    7.4057   -4.2189    9.9721 C   0  0  0  0  0  0  0  0  0  0  0  0
    6.4727   -3.5939    9.0120 N   0  0  0  0  0  0  0  0  0  0  0  0
    5.5647   -2.6252    8.3564 C   0  0  0  0  0  0  0  0  0  0  0  0
    6.1241   -2.7587    6.9344 C   0  0  0  0  0  0  0  0  0  0  0  0
    5.6400   -4.0415    6.2329 C   0  0  0  0  0  0  0  0  0  0  0  0
    6.1347   -4.0989    4.7909 C   0  0  0  0  0  0  0  0  0  0  0  0
    5.4922   -3.0589    3.9999 N   0  0  0  0  0  0  0  0  0  0  0  0
   12.7476   -2.1444    7.9062 N   0  0  0  0  0  0  0  0  0  0  0  0
    9.4855   -1.2419   10.8008 C   0  0  0  0  0  0  0  0  0  0  0  0
    9.7184   -0.7790   11.7471 O   0  0  0  0  0  0  0  0  0  0  0  0
   10.1937   -1.9602    9.6782 C   0  0  2  0  0  0  0  0  0  0  0  0
   11.1856   -2.7772   10.1584 O   0  0  0  0  0  0  0  0  0  0  0  0
   10.8752   -0.8919    8.8304 C   0  0  0  0  0  0  0  0  0  0  0  0
   11.5592   -1.3631    7.5342 C   0  0  0  0  0  0  0  0  0  0  0  0
  1  2  1  1  0  0  0
  1  3  1  0  0  0  0
  3  4  1  1  0  0  0
  3  5  1  0  0  0  0
  5  6  1  1  0  0  0
  5  7  1  0  0  0  0
  7  8  1  1  0  0  0
  9  7  1  0  0  0  0
  9 10  1  0  0  0  0
  9 11  1  6  0  0  0
 10  1  1  0  0  0  0
 11 12  1  0  0  0  0
 13 14  1  1  0  0  0
 13 15  1  0  0  0  0
 13 22  1  0  0  0  0
 14 32  1  0  0  0  0
 15 16  1  6  0  0  0
 15 17  1  0  0  0  0
 16 23  1  0  0  0  0
 17 18  1  1  0  0  0
 17 19  1  0  0  0  0
 19  2  1  6  0  0  0
 19 20  1  0  0  0  0
 20 21  1  1  0  0  0
 20 22  1  0  0  0  0
 23 24  1  0  0  0  0
 24 25  1  0  0  0  0
 25 26  1  0  0  0  0
 26 27  1  0  0  0  0
 27 28  1  0  0  0  0
 28 29  1  0  0  0  0
 29 30  1  0  0  0  0
 31 37  1  0  0  0  0
 32 33  2  0  0  0  0
 34 32  1  1  0  0  0
 34 35  1  0  0  0  0
 34 36  1  0  0  0  0
 36 37  1  0  0  0  0
M  END
>  <CHROM.1>
-163.41605478,167.02406316,-56.87092819,60.87799498,-49.20465344,-66.14628995
-52.47509608,51.64145673,134.03614479,77.41358382,176.13509898,-67.70168730
-142.72495535,-174.28864650,-69.91039648,5.83894350,-0.92238255,11.25103929
2.30413804,0.15329533,0.92327839

>  <Name>
1o9m_lig

>  <RI>
0

>  <Rbt.Current_Directory>
/home/itssahil/PROJECTS/Mol_Feturizer/New_Systems/rnas/1o9m

>  <Rbt.Executable>
rbdock ($Id: //depot/dev/client3/rdock/2013.1/src/exe/rbdock.cxx#4 $)

>  <Rbt.Library>
libRbt.so (2013.1, Build901 2013/11/27)

>  <Rbt.Parameter_File>
/export/apps/rDock/src/rDock_2013.1_src/data/scripts/dock_solv.prm

>  <Rbt.Receptor>
prm/blind_docking_20.prm

>  <SCORE>
-9.03121

>  <SCORE.INTER>
-4.56334

>  <SCORE.INTER.CONST>
1

>  <SCORE.INTER.POLAR>
-1.26279

>  <SCORE.INTER.ROT>
15

>  <SCORE.INTER.SOLV>
21.9109

>  <SCORE.INTER.VDW>
-19.7366

>  <SCORE.INTER.norm>
-0.123334

>  <SCORE.INTRA>
-4.48857

>  <SCORE.INTRA.DIHEDRAL>
-13.7396

>  <SCORE.INTRA.DIHEDRAL.0>
21.5987

>  <SCORE.INTRA.POLAR>
0

>  <SCORE.INTRA.POLAR.0>
0

>  <SCORE.INTRA.REPUL>
0

>  <SCORE.INTRA.REPUL.0>
0

>  <SCORE.INTRA.SOLV>
7.38755

>  <SCORE.INTRA.SOLV.lig_0>
-108.715

>  <SCORE.INTRA.VDW>
-1.31253

>  <SCORE.INTRA.VDW.0>
-3.9485

>  <SCORE.INTRA.norm>
-0.121313

>  <SCORE.RESTR>
0.0207042

>  <SCORE.RESTR.CAVITY>
0.0207042

>  <SCORE.RESTR.norm>
0.000559573

>  <SCORE.SYSTEM>
0

>  <SCORE.SYSTEM.CONST>
0

>  <SCORE.SYSTEM.DIHEDRAL>
0

>  <SCORE.SYSTEM.SOLV>
0

>  <SCORE.SYSTEM.norm>
0

>  <SCORE.heavy>
37

>  <SCORE.norm>
-0.244087

>  <RMSD>
24.409

$$$$
1o9m_lig
 OpenBabel11021811403D
libRbt.so/2013.1/901 2013/11/27
 37 38  0  0  0  0  0  0  0  0999 V2000
    2.6740    0.7446   11.0847 C   0  0  2  0  0  0  0  0  0  0  0  0
    3.6668    1.7844   10.8294 O   0  0  0  0  0  0  0  0  0  0  0  0
    2.2094    0.9306   12.5760 C   0  0  2  0  0  0  0  0  0  0  0  0
    1.6375    2.2668   12.8183 N   0  0  0  0  0  0  0  0  0  0  0  0
    3.4330    0.6654   13.5332 C   0  0  1  0  0  0  0  0  0  0  0  0
    3.0349    0.8270   14.8973 O   0  0  0  0  0  0  0  0  0  0  0  0
    3.9754   -0.7727   13.2414 C   0  0  2  0  0  0  0  0  0  0  0  0
    5.1110   -1.1154   14.0525 O   0  0  0  0  0  0  0  0  0  0  0  0
    4.3646   -0.9173   11.7494 C   0  0  2  0  0  0  0  0  0  0  0  0
    3.2573   -0.5887   10.8978 O   0  0  0  0  0  0  0  0  0  0  0  0
    4.8378   -2.3116   11.4296 C   0  0  0  0  0  0  0  0  0  0  0  0
    5.9651   -2.6102   12.1572 N   0  0  0  0  0  0  0  0  0  0  0  0
    7.0436   -0.3245    9.1059 C   0  0  1  0  0  0  0  0  0  0  0  0
    8.2752   -0.5811    8.3079 N   0  0  0  0  0  0  0  0  0  0  0  0
    7.3342    0.7745   10.1190 C   0  0  2  0  0  0  0  0  0  0  0  0
    8.4092    0.3584   10.9073 O   0  0  0  0  0  0  0  0  0  0  0  0
    6.0734    1.0650   10.9929 C   0  0  1  0  0  0  0  0  0  0  0  0
    6.3577    2.1350   11.9453 O   0  0  0  0  0  0  0  0  0  0  0  0
    4.8758    1.5182   10.0623 C   0  0  1  0  0  0  0  0  0  0  0  0
    4.5635    0.4199    9.0573 C   0  0  1  0  0  0  0  0  0  0  0  0
    3.4516    0.8502    8.2229 N   0  0  0  0  0  0  0  0  0  0  0  0
    5.8226    0.1172    8.2016 C   0  0  0  0  0  0  0  0  0  0  0  0
    9.1231   -0.3411   11.9501 C   0  0  0  0  0  0  0  0  0  0  0  0
    8.8392   -1.8216   11.8402 C   0  0  0  0  0  0  0  0  0  0  0  0
    9.4351   -2.4651   10.6512 N   0  0  0  0  0  0  0  0  0  0  0  0
   10.3816   -3.1661    9.7539 C   0  0  0  0  0  0  0  0  0  0  0  0
   10.1046   -4.5920   10.2468 C   0  0  0  0  0  0  0  0  0  0  0  0
   10.8217   -4.9023   11.5740 C   0  0  0  0  0  0  0  0  0  0  0  0
    9.9249   -4.5913   12.7684 C   0  0  0  0  0  0  0  0  0  0  0  0
    8.8334   -5.5525   12.8378 N   0  0  0  0  0  0  0  0  0  0  0  0
   12.0710   -4.5038    5.9681 N   0  0  0  0  0  0  0  0  0  0  0  0
    8.1070   -2.0325    7.3020 C   0  0  0  0  0  0  0  0  0  0  0  0
    7.3240   -2.7547    7.1307 O   0  0  0  0  0  0  0  0  0  0  0  0
    9.5246   -1.7618    6.8607 C   0  0  2  0  0  0  0  0  0  0  0  0
    9.5529   -1.0557    5.6848 O   0  0  0  0  0  0  0  0  0  0  0  0
   10.1652   -3.1158    6.5767 C   0  0  0  0  0  0  0  0  0  0  0  0
   11.6323   -3.1079    6.1104 C   0  0  0  0  0  0  0  0  0  0  0  0
  1  2  1  1  0  0  0
  1  3  1  0  0  0  0
  3  4  1  6  0  0  0
  3  5  1  0  0  0  0
  5  6  1  1  0  0  0
  5  7  1  0  0  0  0
  7  8  1  1  0  0  0
  9  7  1  0  0  0  0
  9 10  1  0  0  0  0
  9 11  1  1  0  0  0
 10  1  1  0  0  0  0
 11 12  1  0  0  0  0
 13 14  1  6  0  0  0
 13 15  1  0  0  0  0
 13 22  1  0  0  0  0
 14 32  1  0  0  0  0
 15 16  1  1  0  0  0
 15 17  1  0  0  0  0
 16 23  1  0  0  0  0
 17 18  1  1  0  0  0
 17 19  1  0  0  0  0
 19  2  1  1  0  0  0
 19 20  1  0  0  0  0
 20 21  1  6  0  0  0
 20 22  1  0  0  0  0
 23 24  1  0  0  0  0
 24 25  1  0  0  0  0
 25 26  1  0  0  0  0
 26 27  1  0  0  0  0
 27 28  1  0  0  0  0
 28 29  1  0  0  0  0
 29 30  1  0  0  0  0
 31 37  1  0  0  0  0
 32 33  2  0  0  0  0
 34 32  1  6  0  0  0
 34 35  1  0  0  0  0
 34 36  1  0  0  0  0
 36 37  1  0  0  0  0
M  END
>  <CHROM.1>
139.21047965,-61.81818227,170.13580211,-79.70736053,54.04771359,-90.91636508
69.23761429,89.61411078,80.50991625,-78.77056656,92.08971919,70.07507789
-95.45310265,-179.75929884,176.88411629,6.81851289,-1.08776347,10.37980130
2.87521891,-0.65260071,1.93343074

>  <Name>
1o9m_lig

>  <RI>
0

>  <Rbt.Current_Directory>
/home/itssahil/PROJECTS/Mol_Feturizer/New_Systems/rnas/1o9m

>  <Rbt.Executable>
rbdock ($Id: //depot/dev/client3/rdock/2013.1/src/exe/rbdock.cxx#4 $)

>  <Rbt.Library>
libRbt.so (2013.1, Build901 2013/11/27)

>  <Rbt.Parameter_File>
/export/apps/rDock/src/rDock_2013.1_src/data/scripts/dock_solv.prm

>  <Rbt.Receptor>
prm/blind_docking_100.prm

>  <SCORE>
-7.40053

>  <SCORE.INTER>
-14.967

>  <SCORE.INTER.CONST>
1

>  <SCORE.INTER.POLAR>
-4.12695

>  <SCORE.INTER.ROT>
15

>  <SCORE.INTER.SOLV>
19.2779

>  <SCORE.INTER.VDW>
-16.2475

>  <SCORE.INTER.norm>
-0.404514

>  <SCORE.INTRA>
7.54152

>  <SCORE.INTRA.DIHEDRAL>
-2.33948

>  <SCORE.INTRA.DIHEDRAL.0>
21.5987

>  <SCORE.INTRA.POLAR>
0

>  <SCORE.INTRA.POLAR.0>
0

>  <SCORE.INTRA.REPUL>
0

>  <SCORE.INTRA.REPUL.0>
0

>  <SCORE.INTRA.SOLV>
10.4733

>  <SCORE.INTRA.SOLV.lig_0>
-108.715

>  <SCORE.INTRA.VDW>
3.4746

>  <SCORE.INTRA.VDW.0>
-3.9485

>  <SCORE.INTRA.norm>
0.203825

>  <SCORE.RESTR>
0.0249705

>  <SCORE.RESTR.CAVITY>
0.0249705

>  <SCORE.RESTR.norm>
0.000674879

>  <SCORE.SYSTEM>
0

>  <SCORE.SYSTEM.CONST>
0

>  <SCORE.SYSTEM.DIHEDRAL>
0

>  <SCORE.SYSTEM.SOLV>
0

>  <SCORE.SYSTEM.norm>
0

>  <SCORE.heavy>
37

>  <SCORE.norm>
-0.200014

>  <RMSD>
24.423

$$$$
1o9m_lig
 OpenBabel11021811403D
libRbt.so/2013.1/901 2013/11/27
 37 38  0  0  0  0  0  0  0  0999 V2000
    9.6907   -4.5992    9.9934 C   0  0  2  0  0  0  0  0  0  0  0  0
    9.6805   -3.6675   11.1178 O   0  0  0  0  0  0  0  0  0  0  0  0
   11.1473   -5.1884    9.9182 C   0  0  2  0  0  0  0  0  0  0  0  0
   11.5362   -5.8722   11.1640 N   0  0  0  0  0  0  0  0  0  0  0  0
   12.1562   -4.0254    9.5816 C   0  0  1  0  0  0  0  0  0  0  0  0
   13.4896   -4.5370    9.5058 O   0  0  0  0  0  0  0  0  0  0  0  0
   11.7008   -3.3598    8.2410 C   0  0  2  0  0  0  0  0  0  0  0  0
   12.5466   -2.2675    7.8454 O   0  0  0  0  0  0  0  0  0  0  0  0
   10.2432   -2.8485    8.3528 C   0  0  2  0  0  0  0  0  0  0  0  0
    9.3577   -3.9084    8.7426 O   0  0  0  0  0  0  0  0  0  0  0  0
    9.7607   -2.2526    7.0557 C   0  0  0  0  0  0  0  0  0  0  0  0
    8.5615   -1.6082    7.2450 N   0  0  0  0  0  0  0  0  0  0  0  0
    6.5151   -1.1191   12.6366 C   0  0  1  0  0  0  0  0  0  0  0  0
    5.5350    0.0000   12.7161 N   0  0  0  0  0  0  0  0  0  0  0  0
    6.2315   -1.9329   11.3812 C   0  0  2  0  0  0  0  0  0  0  0  0
    4.9098   -2.3788   11.4482 O   0  0  0  0  0  0  0  0  0  0  0  0
    7.2256   -3.1312   11.2656 C   0  0  1  0  0  0  0  0  0  0  0  0
    6.9576   -3.8907   10.0474 O   0  0  0  0  0  0  0  0  0  0  0  0
    8.7102   -2.5852   11.2077 C   0  0  1  0  0  0  0  0  0  0  0  0
    9.0119   -1.7857   12.4661 C   0  0  1  0  0  0  0  0  0  0  0  0
   10.3843   -1.3064   12.3993 N   0  0  0  0  0  0  0  0  0  0  0  0
    8.0112   -0.6059   12.5915 C   0  0  0  0  0  0  0  0  0  0  0  0
    3.6797   -3.0126   11.0336 C   0  0  0  0  0  0  0  0  0  0  0  0
    2.9585   -2.1093   10.0597 C   0  0  0  0  0  0  0  0  0  0  0  0
    1.8461   -2.7622    9.3392 N   0  0  0  0  0  0  0  0  0  0  0  0
    1.0051   -3.3255    8.2585 C   0  0  0  0  0  0  0  0  0  0  0  0
    0.8981   -2.0547    7.4062 C   0  0  0  0  0  0  0  0  0  0  0  0
    1.8380   -2.0871    6.1864 C   0  0  0  0  0  0  0  0  0  0  0  0
    3.2974   -1.9679    6.6144 C   0  0  0  0  0  0  0  0  0  0  0  0
    3.8151   -3.2744    6.9957 N   0  0  0  0  0  0  0  0  0  0  0  0
    2.8031    2.3156   10.7348 N   0  0  0  0  0  0  0  0  0  0  0  0
    4.0701   -0.4804   13.5936 C   0  0  0  0  0  0  0  0  0  0  0  0
    3.7367   -1.3812   14.0849 O   0  0  0  0  0  0  0  0  0  0  0  0
    3.5663    0.9118   13.3010 C   0  0  2  0  0  0  0  0  0  0  0  0
    3.2609    1.5833   14.4577 O   0  0  0  0  0  0  0  0  0  0  0  0
    2.2630    0.7562   12.5251 C   0  0  0  0  0  0  0  0  0  0  0  0
    1.7749    1.9813   11.7310 C   0  0  0  0  0  0  0  0  0  0  0  0
  1  2  1  1  0  0  0
  1  3  1  0  0  0  0
  3  4  1  1  0  0  0
  3  5  1  0  0  0  0
  5  6  1  6  0  0  0
  5  7  1  0  0  0  0
  7  8  1  1  0  0  0
  9  7  1  0  0  0  0
  9 10  1  0  0  0  0
  9 11  1  6  0  0  0
 10  1  1  0  0  0  0
 11 12  1  0  0  0  0
 13 14  1  6  0  0  0
 13 15  1  0  0  0  0
 13 22  1  0  0  0  0
 14 32  1  0  0  0  0
 15 16  1  1  0  0  0
 15 17  1  0  0  0  0
 16 23  1  0  0  0  0
 17 18  1  6  0  0  0
 17 19  1  0  0  0  0
 19  2  1  1  0  0  0
 19 20  1  0  0  0  0
 20 21  1  6  0  0  0
 20 22  1  0  0  0  0
 23 24  1  0  0  0  0
 24 25  1  0  0  0  0
 25 26  1  0  0  0  0
 26 27  1  0  0  0  0
 27 28  1  0  0  0  0
 28 29  1  0  0  0  0
 29 30  1  0  0  0  0
 31 37  1  0  0  0  0
 32 33  2  0  0  0  0
 34 32  1  1  0  0  0
 34 35  1  0  0  0  0
 34 36  1  0  0  0  0
 36 37  1  0  0  0  0
M  END
>  <CHROM.1>
156.78485044,-169.78598287,89.41388117,175.37540756,-77.00722995,61.19454952
167.24426262,-116.34478254,-56.88527952,101.96078052,-70.03649093,83.76532602
-122.07533107,-161.37811570,60.64610946,6.60573285,-2.10955583,10.35360643
0.28490896,0.25020204,-2.02565259

>  <Name>
1o9m_lig

>  <RI>
0

>  <Rbt.Current_Directory>
/home/itssahil/PROJECTS/Mol_Feturizer/New_Systems/rnas/1o9m

>  <Rbt.Executable>
rbdock ($Id: //depot/dev/client3/rdock/2013.1/src/exe/rbdock.cxx#4 $)

>  <Rbt.Library>
libRbt.so (2013.1, Build901 2013/11/27)

>  <Rbt.Parameter_File>
/export/apps/rDock/src/rDock_2013.1_src/data/scripts/dock_solv.prm

>  <Rbt.Receptor>
prm/blind_docking_100.prm

>  <SCORE>
-8.52972

>  <SCORE.INTER>
-7.85287

>  <SCORE.INTER.CONST>
1

>  <SCORE.INTER.POLAR>
-1.48039

>  <SCORE.INTER.ROT>
15

>  <SCORE.INTER.SOLV>
16.4009

>  <SCORE.INTER.VDW>
-19.3676

>  <SCORE.INTER.norm>
-0.21224

>  <SCORE.INTRA>
-0.710141

>  <SCORE.INTRA.DIHEDRAL>
-4.80447

>  <SCORE.INTRA.DIHEDRAL.0>
21.5987

>  <SCORE.INTRA.POLAR>
0

>  <SCORE.INTRA.POLAR.0>
0

>  <SCORE.INTRA.REPUL>
0.0012597

>  <SCORE.INTRA.REPUL.0>
0

>  <SCORE.INTRA.SOLV>
5.91727

>  <SCORE.INTRA.SOLV.lig_0>
-108.715

>  <SCORE.INTRA.VDW>
-1.27284

>  <SCORE.INTRA.VDW.0>
-3.9485

>  <SCORE.INTRA.norm>
-0.019193

>  <SCORE.RESTR>
0.0332882

>  <SCORE.RESTR.CAVITY>
0.0332882

>  <SCORE.RESTR.norm>
0.000899682

>  <SCORE.SYSTEM>
0

>  <SCORE.SYSTEM.CONST>
0

>  <SCORE.SYSTEM.DIHEDRAL>
0

>  <SCORE.SYSTEM.SOLV>
0

>  <SCORE.SYSTEM.norm>
0

>  <SCORE.heavy>
37

>  <SCORE.norm>
-0.230533

>  <RMSD>
24.428

$$$$
1o9m_lig
 OpenBabel11021811403D
libRbt.so/2013.1/901 2013/11/27
 37 38  0  0  0  0  0  0  0  0999 V2000
    4.4407    1.4105   11.9181 C   0  0  2  0  0  0  0  0  0  0  0  0
    4.3998    0.1074   12.5758 O   0  0  0  0  0  0  0  0  0  0  0  0
    3.1086    2.1487   12.3119 C   0  0  2  0  0  0  0  0  0  0  0  0
    2.9696    2.3061   13.7703 N   0  0  0  0  0  0  0  0  0  0  0  0
    1.8845    1.3538   11.7173 C   0  0  1  0  0  0  0  0  0  0  0  0
    0.6595    2.0072   12.0608 O   0  0  0  0  0  0  0  0  0  0  0  0
    2.0824    1.2434   10.1694 C   0  0  2  0  0  0  0  0  0  0  0  0
    1.0247    0.5172    9.5224 O   0  0  0  0  0  0  0  0  0  0  0  0
    3.4327    0.5608    9.8388 C   0  0  2  0  0  0  0  0  0  0  0  0
    4.5231    1.2554   10.4615 O   0  0  0  0  0  0  0  0  0  0  0  0
    3.6736    0.4927    8.3529 C   0  0  0  0  0  0  0  0  0  0  0  0
    3.4448    1.7196    7.7770 N   0  0  0  0  0  0  0  0  0  0  0  0
    8.2340   -1.6353   11.5352 C   0  0  1  0  0  0  0  0  0  0  0  0
    9.4040   -2.5573   11.5522 N   0  0  0  0  0  0  0  0  0  0  0  0
    6.9794   -2.4386   11.2203 C   0  0  2  0  0  0  0  0  0  0  0  0
    7.1767   -3.0804    9.9958 O   0  0  0  0  0  0  0  0  0  0  0  0
    5.7268   -1.5078   11.1736 C   0  0  1  0  0  0  0  0  0  0  0  0
    4.5277   -2.2925   10.8925 O   0  0  0  0  0  0  0  0  0  0  0  0
    5.5474   -0.7892   12.5726 C   0  0  1  0  0  0  0  0  0  0  0  0
    6.7877    0.0323   12.8898 C   0  0  1  0  0  0  0  0  0  0  0  0
    6.5959    0.6953   14.1709 N   0  0  0  0  0  0  0  0  0  0  0  0
    8.0360   -0.8899   12.9168 C   0  0  0  0  0  0  0  0  0  0  0  0
    6.8985   -3.9270    8.8589 C   0  0  0  0  0  0  0  0  0  0  0  0
    8.0968   -3.9319    7.9376 C   0  0  0  0  0  0  0  0  0  0  0  0
    8.3794   -2.6266    7.3058 N   0  0  0  0  0  0  0  0  0  0  0  0
    8.9251   -1.2745    7.0480 C   0  0  0  0  0  0  0  0  0  0  0  0
    8.6168   -0.6695    8.4235 C   0  0  0  0  0  0  0  0  0  0  0  0
    7.1584   -0.1875    8.5374 C   0  0  0  0  0  0  0  0  0  0  0  0
    7.0099    1.2399    8.0199 C   0  0  0  0  0  0  0  0  0  0  0  0
    7.9112    2.1290    8.7393 N   0  0  0  0  0  0  0  0  0  0  0  0
   12.8919   -3.9798    7.5112 N   0  0  0  0  0  0  0  0  0  0  0  0
   10.7818   -1.8750   10.6675 C   0  0  0  0  0  0  0  0  0  0  0  0
   10.9666   -0.9537   10.1372 O   0  0  0  0  0  0  0  0  0  0  0  0
   11.4971   -3.1613   11.0011 C   0  0  2  0  0  0  0  0  0  0  0  0
   12.2694   -3.0232   12.1265 O   0  0  0  0  0  0  0  0  0  0  0  0
   12.4497   -3.4498    9.8461 C   0  0  0  0  0  0  0  0  0  0  0  0
   11.8137   -3.8470    8.5017 C   0  0  0  0  0  0  0  0  0  0  0  0
  1  2  1  1  0  0  0
  1  3  1  0  0  0  0
  3  4  1  1  0  0  0
  3  5  1  0  0  0  0
  5  6  1  6  0  0  0
  5  7  1  0  0  0  0
  7  8  1  1  0  0  0
  9  7  1  0  0  0  0
  9 10  1  0  0  0  0
  9 11  1  6  0  0  0
 10  1  1  0  0  0  0
 11 12  1  0  0  0  0
 13 14  1  1  0  0  0
 13 15  1  0  0  0  0
 13 22  1  0  0  0  0
 14 32  1  0  0  0  0
 15 16  1  6  0  0  0
 15 17  1  0  0  0  0
 16 23  1  0  0  0  0
 17 18  1  1  0  0  0
 17 19  1  0  0  0  0
 19  2  1  6  0  0  0
 19 20  1  0  0  0  0
 20 21  1  1  0  0  0
 20 22  1  0  0  0  0
 23 24  1  0  0  0  0
 24 25  1  0  0  0  0
 25 26  1  0  0  0  0
 26 27  1  0  0  0  0
 27 28  1  0  0  0  0
 28 29  1  0  0  0  0
 29 30  1  0  0  0  0
 31 37  1  0  0  0  0
 32 33  2  0  0  0  0
 34 32  1  6  0  0  0
 34 35  1  0  0  0  0
 34 36  1  0  0  0  0
 36 37  1  0  0  0  0
M  END
>  <CHROM.1>
-172.22238850,48.53595257,134.88601002,177.83259238,-177.12751909,-75.97956052
-65.83734235,91.16483543,-49.63968591,-82.13741590,-86.52294273,-56.61846911
-95.69310615,-69.41784616,175.83676407,6.74584019,-0.78465383,10.37327676
-2.90210112,0.45097010,-1.69878447

>  <Name>
1o9m_lig

>  <RI>
0

>  <Rbt.Current_Directory>
/home/itssahil/PROJECTS/Mol_Feturizer/New_Systems/rnas/1o9m

>  <Rbt.Executable>
rbdock ($Id: //depot/dev/client3/rdock/2013.1/src/exe/rbdock.cxx#4 $)

>  <Rbt.Library>
libRbt.so (2013.1, Build901 2013/11/27)

>  <Rbt.Parameter_File>
/export/apps/rDock/src/rDock_2013.1_src/data/scripts/dock_solv.prm

>  <Rbt.Receptor>
prm/blind_docking_60.prm

>  <SCORE>
-1.76807

>  <SCORE.INTER>
3.31764

>  <SCORE.INTER.CONST>
1

>  <SCORE.INTER.POLAR>
-0.622167

>  <SCORE.INTER.ROT>
15

>  <SCORE.INTER.SOLV>
26.0411

>  <SCORE.INTER.VDW>
-17.9947

>  <SCORE.INTER.norm>
0.089666

>  <SCORE.INTRA>
-6.28647

>  <SCORE.INTRA.DIHEDRAL>
-11.4435

>  <SCORE.INTRA.DIHEDRAL.0>
21.5987

>  <SCORE.INTRA.POLAR>
0

>  <SCORE.INTRA.POLAR.0>
0

>  <SCORE.INTRA.REPUL>
0

>  <SCORE.INTRA.REPUL.0>
0

>  <SCORE.INTRA.SOLV>
6.05891

>  <SCORE.INTRA.SOLV.lig_0>
-108.715

>  <SCORE.INTRA.VDW>
-3.59419

>  <SCORE.INTRA.VDW.0>
-3.9485

>  <SCORE.INTRA.norm>
-0.169905

>  <SCORE.RESTR>
1.20076

>  <SCORE.RESTR.CAVITY>
1.20076

>  <SCORE.RESTR.norm>
0.0324529

>  <SCORE.SYSTEM>
0

>  <SCORE.SYSTEM.CONST>
0

>  <SCORE.SYSTEM.DIHEDRAL>
0

>  <SCORE.SYSTEM.SOLV>
0

>  <SCORE.SYSTEM.norm>
0

>  <SCORE.heavy>
37

>  <SCORE.norm>
-0.0477857

>  <RMSD>
24.429

$$$$
1o9m_lig
 OpenBabel11021811403D
libRbt.so/2013.1/901 2013/11/27
 37 38  0  0  0  0  0  0  0  0999 V2000
    9.8669   -1.6114    7.5223 C   0  0  2  0  0  0  0  0  0  0  0  0
    9.2175   -1.9162    8.7941 O   0  0  0  0  0  0  0  0  0  0  0  0
   10.2932   -2.9916    6.8994 C   0  0  2  0  0  0  0  0  0  0  0  0
    9.1426   -3.8888    6.6943 N   0  0  0  0  0  0  0  0  0  0  0  0
   11.3684   -3.6674    7.8327 C   0  0  1  0  0  0  0  0  0  0  0  0
   11.7740   -4.9252    7.2860 O   0  0  0  0  0  0  0  0  0  0  0  0
   12.5682   -2.6757    7.9892 C   0  0  2  0  0  0  0  0  0  0  0  0
   13.6068   -3.1870    8.8405 O   0  0  0  0  0  0  0  0  0  0  0  0
   12.0836   -1.3169    8.5524 C   0  0  2  0  0  0  0  0  0  0  0  0
   11.0458   -0.7631    7.7304 O   0  0  0  0  0  0  0  0  0  0  0  0
   13.2120   -0.3240    8.6601 C   0  0  0  0  0  0  0  0  0  0  0  0
   12.7152    0.9398    8.8724 N   0  0  0  0  0  0  0  0  0  0  0  0
    5.9060   -0.4401   11.1765 C   0  0  1  0  0  0  0  0  0  0  0  0
    4.5814    0.1486   11.5208 N   0  0  0  0  0  0  0  0  0  0  0  0
    5.6842   -1.7047   10.3579 C   0  0  2  0  0  0  0  0  0  0  0  0
    4.8901   -2.5708   11.1125 O   0  0  0  0  0  0  0  0  0  0  0  0
    7.0486   -2.3681    9.9890 C   0  0  1  0  0  0  0  0  0  0  0  0
    6.8237   -3.5670    9.1861 O   0  0  0  0  0  0  0  0  0  0  0  0
    7.9231   -1.3507    9.1488 C   0  0  1  0  0  0  0  0  0  0  0  0
    8.1675   -0.0899    9.9640 C   0  0  1  0  0  0  0  0  0  0  0  0
    8.9846    0.8241    9.1801 N   0  0  0  0  0  0  0  0  0  0  0  0
    6.8107    0.5590   10.3476 C   0  0  0  0  0  0  0  0  0  0  0  0
    4.1996   -3.7832   11.4864 C   0  0  0  0  0  0  0  0  0  0  0  0
    5.1177   -4.9646   11.2722 C   0  0  0  0  0  0  0  0  0  0  0  0
    6.4717   -4.7886   11.8367 N   0  0  0  0  0  0  0  0  0  0  0  0
    7.8231   -5.0714   12.3715 C   0  0  0  0  0  0  0  0  0  0  0  0
    8.3869   -3.6500   12.2504 C   0  0  0  0  0  0  0  0  0  0  0  0
    9.5597   -3.5683   11.2553 C   0  0  0  0  0  0  0  0  0  0  0  0
   10.8885   -3.8539   11.9482 C   0  0  0  0  0  0  0  0  0  0  0  0
   11.2146   -2.7743   12.8692 N   0  0  0  0  0  0  0  0  0  0  0  0
    2.0972    1.1346   15.8037 N   0  0  0  0  0  0  0  0  0  0  0  0
    4.7274    1.8585   11.9698 C   0  0  0  0  0  0  0  0  0  0  0  0
    5.5428    2.5617   12.0388 O   0  0  0  0  0  0  0  0  0  0  0  0
    3.2372    1.8145   12.2043 C   0  0  2  0  0  0  0  0  0  0  0  0
    2.6089    2.8800   11.6109 O   0  0  0  0  0  0  0  0  0  0  0  0
    3.0218    1.9575   13.7069 C   0  0  0  0  0  0  0  0  0  0  0  0
    1.9417    1.0642   14.3435 C   0  0  0  0  0  0  0  0  0  0  0  0
  1  2  1  1  0  0  0
  1  3  1  0  0  0  0
  3  4  1  1  0  0  0
  3  5  1  0  0  0  0
  5  6  1  6  0  0  0
  5  7  1  0  0  0  0
  7  8  1  1  0  0  0
  9  7  1  0  0  0  0
  9 10  1  0  0  0  0
  9 11  1  6  0  0  0
 10  1  1  0  0  0  0
 11 12  1  0  0  0  0
 13 14  1  6  0  0  0
 13 15  1  0  0  0  0
 13 22  1  0  0  0  0
 14 32  1  0  0  0  0
 15 16  1  1  0  0  0
 15 17  1  0  0  0  0
 16 23  1  0  0  0  0
 17 18  1  6  0  0  0
 17 19  1  0  0  0  0
 19  2  1  1  0  0  0
 19 20  1  0  0  0  0
 20 21  1  6  0  0  0
 20 22  1  0  0  0  0
 23 24  1  0  0  0  0
 24 25  1  0  0  0  0
 25 26  1  0  0  0  0
 26 27  1  0  0  0  0
 27 28  1  0  0  0  0
 28 29  1  0  0  0  0
 29 30  1  0  0  0  0
 31 37  1  0  0  0  0
 32 33  2  0  0  0  0
 34 32  1  1  0  0  0
 34 35  1  0  0  0  0
 34 36  1  0  0  0  0
 36 37  1  0  0  0  0
M  END
>  <CHROM.1>
-130.46394923,166.62795452,-160.53817072,-172.04108658,44.42733725,145.01613621
48.23887333,159.79174849,164.46765282,-116.00926959,-88.26828190,-68.41310176
-132.39444569,-138.86424896,167.67647239,7.86000817,-1.52665390,10.38877348
-0.31810781,0.51939980,-0.08046064

>  <Name>
1o9m_lig

>  <RI>
0

>  <Rbt.Current_Directory>
/home/itssahil/PROJECTS/Mol_Feturizer/New_Systems/rnas/1o9m

>  <Rbt.Executable>
rbdock ($Id: //depot/dev/client3/rdock/2013.1/src/exe/rbdock.cxx#4 $)

>  <Rbt.Library>
libRbt.so (2013.1, Build901 2013/11/27)

>  <Rbt.Parameter_File>
/export/apps/rDock/src/rDock_2013.1_src/data/scripts/dock_solv.prm

>  <Rbt.Receptor>
prm/blind_docking_100.prm

>  <SCORE>
8.73319

>  <SCORE.INTER>
2.88872

>  <SCORE.INTER.CONST>
1

>  <SCORE.INTER.POLAR>
-1.78629

>  <SCORE.INTER.ROT>
15

>  <SCORE.INTER.SOLV>
28.0752

>  <SCORE.INTER.VDW>
-15.0783

>  <SCORE.INTER.norm>
0.0780736

>  <SCORE.INTRA>
5.63496

>  <SCORE.INTRA.DIHEDRAL>
8.35977

>  <SCORE.INTRA.DIHEDRAL.0>
21.5987

>  <SCORE.INTRA.POLAR>
0

>  <SCORE.INTRA.POLAR.0>
0

>  <SCORE.INTRA.REPUL>
0.0228

>  <SCORE.INTRA.REPUL.0>
0

>  <SCORE.INTRA.SOLV>
5.30329

>  <SCORE.INTRA.SOLV.lig_0>
-108.715

>  <SCORE.INTRA.VDW>
-1.31057

>  <SCORE.INTRA.VDW.0>
-3.9485

>  <SCORE.INTRA.norm>
0.152296

>  <SCORE.RESTR>
0.209511

>  <SCORE.RESTR.CAVITY>
0.209511

>  <SCORE.RESTR.norm>
0.00566245

>  <SCORE.SYSTEM>
0

>  <SCORE.SYSTEM.CONST>
0

>  <SCORE.SYSTEM.DIHEDRAL>
0

>  <SCORE.SYSTEM.SOLV>
0

>  <SCORE.SYSTEM.norm>
0

>  <SCORE.heavy>
37

>  <SCORE.norm>
0.236032

>  <RMSD>
24.431

$$$$
1o9m_lig
 OpenBabel11021811403D
libRbt.so/2013.1/901 2013/11/27
 37 38  0  0  0  0  0  0  0  0999 V2000
    2.3157    1.0613   11.2557 C   0  0  2  0  0  0  0  0  0  0  0  0
    3.4422    1.9902   11.2372 O   0  0  0  0  0  0  0  0  0  0  0  0
    1.3754    1.5267   12.4277 C   0  0  2  0  0  0  0  0  0  0  0  0
    0.9051    2.9113   12.2477 N   0  0  0  0  0  0  0  0  0  0  0  0
    2.1426    1.3713   13.7956 C   0  0  1  0  0  0  0  0  0  0  0  0
    1.3065    1.7872   14.8789 O   0  0  0  0  0  0  0  0  0  0  0  0
    2.5920   -0.1207   13.9341 C   0  0  2  0  0  0  0  0  0  0  0  0
    3.3208   -0.3733   15.1465 O   0  0  0  0  0  0  0  0  0  0  0  0
    3.4670   -0.5417   12.7276 C   0  0  2  0  0  0  0  0  0  0  0  0
    2.7774   -0.3115   11.4904 O   0  0  0  0  0  0  0  0  0  0  0  0
    3.8670   -1.9922   12.8086 C   0  0  0  0  0  0  0  0  0  0  0  0
    5.1887   -2.1415   12.4620 N   0  0  0  0  0  0  0  0  0  0  0  0
    6.6122   -0.2066    9.2510 C   0  0  1  0  0  0  0  0  0  0  0  0
    7.8531   -0.4775    8.4723 N   0  0  0  0  0  0  0  0  0  0  0  0
    6.9755    0.6006   10.4898 C   0  0  2  0  0  0  0  0  0  0  0  0
    7.9184   -0.1293   11.2167 O   0  0  0  0  0  0  0  0  0  0  0  0
    5.7049    0.8930   11.3487 C   0  0  1  0  0  0  0  0  0  0  0  0
    6.0626    1.6858   12.5218 O   0  0  0  0  0  0  0  0  0  0  0  0
    4.6570    1.7071   10.4855 C   0  0  1  0  0  0  0  0  0  0  0  0
    4.2717    0.9021    9.2538 C   0  0  1  0  0  0  0  0  0  0  0  0
    3.2980    1.6611    8.4834 N   0  0  0  0  0  0  0  0  0  0  0  0
    5.5377    0.5945    8.4100 C   0  0  0  0  0  0  0  0  0  0  0  0
    8.4665   -1.1962   12.0216 C   0  0  0  0  0  0  0  0  0  0  0  0
    9.9588   -0.9994   12.1588 C   0  0  0  0  0  0  0  0  0  0  0  0
   10.7357   -2.2561   12.1747 N   0  0  0  0  0  0  0  0  0  0  0  0
   11.8051   -3.2485   12.4273 C   0  0  0  0  0  0  0  0  0  0  0  0
   10.9003   -4.4722   12.6192 C   0  0  0  0  0  0  0  0  0  0  0  0
   10.3491   -5.0077   11.2845 C   0  0  0  0  0  0  0  0  0  0  0  0
   11.3000   -6.0289   10.6679 C   0  0  0  0  0  0  0  0  0  0  0  0
   12.6077   -5.4268   10.4499 N   0  0  0  0  0  0  0  0  0  0  0  0
   13.2535   -2.2393    8.7222 N   0  0  0  0  0  0  0  0  0  0  0  0
    8.3959   -2.1538    8.6773 C   0  0  0  0  0  0  0  0  0  0  0  0
    8.0318   -3.0120    9.2204 O   0  0  0  0  0  0  0  0  0  0  0  0
    9.5511   -1.7773    7.7821 C   0  0  2  0  0  0  0  0  0  0  0  0
    9.5483   -2.5196    6.6283 O   0  0  0  0  0  0  0  0  0  0  0  0
   10.8281   -2.1367    8.5336 C   0  0  0  0  0  0  0  0  0  0  0  0
   12.1611   -1.8394    7.8233 C   0  0  0  0  0  0  0  0  0  0  0  0
  1  2  1  1  0  0  0
  1  3  1  0  0  0  0
  3  4  1  6  0  0  0
  3  5  1  0  0  0  0
  5  6  1  1  0  0  0
  5  7  1  0  0  0  0
  7  8  1  1  0  0  0
  9  7  1  0  0  0  0
  9 10  1  0  0  0  0
  9 11  1  1  0  0  0
 10  1  1  0  0  0  0
 11 12  1  0  0  0  0
 13 14  1  6  0  0  0
 13 15  1  0  0  0  0
 13 22  1  0  0  0  0
 14 32  1  0  0  0  0
 15 16  1  1  0  0  0
 15 17  1  0  0  0  0
 16 23  1  0  0  0  0
 17 18  1  1  0  0  0
 17 19  1  0  0  0  0
 19  2  1  1  0  0  0
 19 20  1  0  0  0  0
 20 21  1  6  0  0  0
 20 22  1  0  0  0  0
 23 24  1  0  0  0  0
 24 25  1  0  0  0  0
 25 26  1  0  0  0  0
 26 27  1  0  0  0  0
 27 28  1  0  0  0  0
 28 29  1  0  0  0  0
 29 30  1  0  0  0  0
 31 37  1  0  0  0  0
 32 33  2  0  0  0  0
 34 32  1  1  0  0  0
 34 35  1  0  0  0  0
 34 36  1  0  0  0  0
 36 37  1  0  0  0  0
M  END
>  <CHROM.1>
166.19000365,-137.36286666,104.17576217,-67.03254882,173.03206422,-88.65516242
-144.23002470,-153.97006152,143.90326595,75.95115690,88.60174654,-58.40095047
-118.16424220,-179.74597246,179.15387862,6.73990638,-0.86356503,10.98278944
3.07404929,-0.53929569,1.97316256

>  <Name>
1o9m_lig

>  <RI>
0

>  <Rbt.Current_Directory>
/home/itssahil/PROJECTS/Mol_Feturizer/New_Systems/rnas/1o9m

>  <Rbt.Executable>
rbdock ($Id: //depot/dev/client3/rdock/2013.1/src/exe/rbdock.cxx#4 $)

>  <Rbt.Library>
libRbt.so (2013.1, Build901 2013/11/27)

>  <Rbt.Parameter_File>
/export/apps/rDock/src/rDock_2013.1_src/data/scripts/dock_solv.prm

>  <Rbt.Receptor>
prm/blind_docking_60.prm

>  <SCORE>
-1.93796

>  <SCORE.INTER>
-4.11664

>  <SCORE.INTER.CONST>
1

>  <SCORE.INTER.POLAR>
-1.86414

>  <SCORE.INTER.ROT>
15

>  <SCORE.INTER.SOLV>
13.6179

>  <SCORE.INTER.VDW>
-14.6699

>  <SCORE.INTER.norm>
-0.111261

>  <SCORE.INTRA>
1.86924

>  <SCORE.INTRA.DIHEDRAL>
-0.598316

>  <SCORE.INTRA.DIHEDRAL.0>
21.5987

>  <SCORE.INTRA.POLAR>
0

>  <SCORE.INTRA.POLAR.0>
0

>  <SCORE.INTRA.REPUL>
0

>  <SCORE.INTRA.REPUL.0>
0

>  <SCORE.INTRA.SOLV>
8.45435

>  <SCORE.INTRA.SOLV.lig_0>
-108.715

>  <SCORE.INTRA.VDW>
-2.05878

>  <SCORE.INTRA.VDW.0>
-3.9485

>  <SCORE.INTRA.norm>
0.0505201

>  <SCORE.RESTR>
0.309438

>  <SCORE.RESTR.CAVITY>
0.309438

>  <SCORE.RESTR.norm>
0.0083632

>  <SCORE.SYSTEM>
0

>  <SCORE.SYSTEM.CONST>
0

>  <SCORE.SYSTEM.DIHEDRAL>
0

>  <SCORE.SYSTEM.SOLV>
0

>  <SCORE.SYSTEM.norm>
0

>  <SCORE.heavy>
37

>  <SCORE.norm>
-0.0523772

>  <RMSD>
24.432

$$$$
1o9m_lig
 OpenBabel11021811403D
libRbt.so/2013.1/901 2013/11/27
 37 38  0  0  0  0  0  0  0  0999 V2000
    3.3697   -1.1762    7.2494 C   0  0  2  0  0  0  0  0  0  0  0  0
    4.2457   -2.3171    7.5011 O   0  0  0  0  0  0  0  0  0  0  0  0
    1.9499   -1.5776    7.7949 C   0  0  2  0  0  0  0  0  0  0  0  0
    1.9777   -1.9054    9.2311 N   0  0  0  0  0  0  0  0  0  0  0  0
    1.4009   -2.7933    6.9556 C   0  0  1  0  0  0  0  0  0  0  0  0
    0.1080   -3.1765    7.4320 O   0  0  0  0  0  0  0  0  0  0  0  0
    1.3754   -2.3718    5.4492 C   0  0  2  0  0  0  0  0  0  0  0  0
    0.9041   -3.4187    4.5851 O   0  0  0  0  0  0  0  0  0  0  0  0
    2.7850   -1.9335    4.9809 C   0  0  2  0  0  0  0  0  0  0  0  0
    3.2972   -0.8830    5.8136 O   0  0  0  0  0  0  0  0  0  0  0  0
    2.7765   -1.4688    3.5475 C   0  0  0  0  0  0  0  0  0  0  0  0
    4.0630   -1.2953    3.0958 N   0  0  0  0  0  0  0  0  0  0  0  0
    8.5214   -2.8338    8.0225 C   0  0  1  0  0  0  0  0  0  0  0  0
    9.9840   -2.7668    7.7471 N   0  0  0  0  0  0  0  0  0  0  0  0
    7.9654   -1.4172    8.0741 C   0  0  2  0  0  0  0  0  0  0  0  0
    8.6667   -0.7162    9.0574 O   0  0  0  0  0  0  0  0  0  0  0  0
    6.4344   -1.4374    8.3796 C   0  0  1  0  0  0  0  0  0  0  0  0
    5.9089   -0.0752    8.4049 O   0  0  0  0  0  0  0  0  0  0  0  0
    5.6792   -2.2525    7.2522 C   0  0  1  0  0  0  0  0  0  0  0  0
    6.2132   -3.6760    7.2037 C   0  0  1  0  0  0  0  0  0  0  0  0
    5.4961   -4.4109    6.1726 N   0  0  0  0  0  0  0  0  0  0  0  0
    7.7390   -3.6553    6.9195 C   0  0  0  0  0  0  0  0  0  0  0  0
    9.7945   -0.2079    9.8031 C   0  0  0  0  0  0  0  0  0  0  0  0
    9.3036    0.7834   10.8331 C   0  0  0  0  0  0  0  0  0  0  0  0
    7.9937    0.4419   11.4250 N   0  0  0  0  0  0  0  0  0  0  0  0
    6.5745    0.0467   11.5736 C   0  0  0  0  0  0  0  0  0  0  0  0
    6.2104    1.0285   12.6946 C   0  0  0  0  0  0  0  0  0  0  0  0
    4.6876    1.1776   12.8703 C   0  0  0  0  0  0  0  0  0  0  0  0
    4.0488   -0.1481   13.2723 C   0  0  0  0  0  0  0  0  0  0  0  0
    4.4612   -0.5137   14.6201 N   0  0  0  0  0  0  0  0  0  0  0  0
   13.7242   -1.7995   11.2428 N   0  0  0  0  0  0  0  0  0  0  0  0
   10.8918   -3.8862    8.7812 C   0  0  0  0  0  0  0  0  0  0  0  0
   10.6293   -4.6015    9.5451 O   0  0  0  0  0  0  0  0  0  0  0  0
   12.1262   -3.3449    8.1023 C   0  0  2  0  0  0  0  0  0  0  0  0
   12.7281   -4.3036    7.3273 O   0  0  0  0  0  0  0  0  0  0  0  0
   13.1156   -2.9854    9.2052 C   0  0  0  0  0  0  0  0  0  0  0  0
   12.6345   -1.9875   10.2741 C   0  0  0  0  0  0  0  0  0  0  0  0
  1  2  1  6  0  0  0
  1  3  1  0  0  0  0
  3  4  1  1  0  0  0
  3  5  1  0  0  0  0
  5  6  1  1  0  0  0
  5  7  1  0  0  0  0
  7  8  1  6  0  0  0
  9  7  1  0  0  0  0
  9 10  1  0  0  0  0
  9 11  1  6  0  0  0
 10  1  1  0  0  0  0
 11 12  1  0  0  0  0
 13 14  1  6  0  0  0
 13 15  1  0  0  0  0
 13 22  1  0  0  0  0
 14 32  1  0  0  0  0
 15 16  1  1  0  0  0
 15 17  1  0  0  0  0
 16 23  1  0  0  0  0
 17 18  1  6  0  0  0
 17 19  1  0  0  0  0
 19  2  1  1  0  0  0
 19 20  1  0  0  0  0
 20 21  1  6  0  0  0
 20 22  1  0  0  0  0
 23 24  1  0  0  0  0
 24 25  1  0  0  0  0
 25 26  1  0  0  0  0
 26 27  1  0  0  0  0
 27 28  1  0  0  0  0
 28 29  1  0  0  0  0
 29 30  1  0  0  0  0
 31 37  1  0  0  0  0
 32 33  2  0  0  0  0
 34 32  1  1  0  0  0
 34 35  1  0  0  0  0
 34 36  1  0  0  0  0
 36 37  1  0  0  0  0
M  END
>  <CHROM.1>
-173.46578685,-170.23185565,136.23058378,48.77616021,173.23402262,76.19325433
35.49167028,-48.67067010,-139.52299881,164.52813784,62.30716460,68.41274622
-112.88268733,-56.86493281,179.12239711,6.46931032,-1.83537718,8.43895237
2.81830752,0.17391296,-2.02813365

>  <Name>
1o9m_lig

>  <RI>
0

>  <Rbt.Current_Directory>
/home/itssahil/PROJECTS/Mol_Feturizer/New_Systems/rnas/1o9m

>  <Rbt.Executable>
rbdock ($Id: //depot/dev/client3/rdock/2013.1/src/exe/rbdock.cxx#4 $)

>  <Rbt.Library>
libRbt.so (2013.1, Build901 2013/11/27)

>  <Rbt.Parameter_File>
/export/apps/rDock/src/rDock_2013.1_src/data/scripts/dock_solv.prm

>  <Rbt.Receptor>
prm/blind_docking_60.prm

>  <SCORE>
-11.9938

>  <SCORE.INTER>
-6.64433

>  <SCORE.INTER.CONST>
1

>  <SCORE.INTER.POLAR>
-1.23226

>  <SCORE.INTER.ROT>
15

>  <SCORE.INTER.SOLV>
21.3836

>  <SCORE.INTER.VDW>
-21.0499

>  <SCORE.INTER.norm>
-0.179577

>  <SCORE.INTRA>
-5.71706

>  <SCORE.INTRA.DIHEDRAL>
-11.5067

>  <SCORE.INTRA.DIHEDRAL.0>
21.5987

>  <SCORE.INTRA.POLAR>
0

>  <SCORE.INTRA.POLAR.0>
0

>  <SCORE.INTRA.REPUL>
0

>  <SCORE.INTRA.REPUL.0>
0

>  <SCORE.INTRA.SOLV>
1.43533

>  <SCORE.INTRA.SOLV.lig_0>
-108.715

>  <SCORE.INTRA.VDW>
-0.68139

>  <SCORE.INTRA.VDW.0>
-3.9485

>  <SCORE.INTRA.norm>
-0.154515

>  <SCORE.RESTR>
0.367618

>  <SCORE.RESTR.CAVITY>
0.367618

>  <SCORE.RESTR.norm>
0.00993563

>  <SCORE.SYSTEM>
0

>  <SCORE.SYSTEM.CONST>
0

>  <SCORE.SYSTEM.DIHEDRAL>
0

>  <SCORE.SYSTEM.SOLV>
0

>  <SCORE.SYSTEM.norm>
0

>  <SCORE.heavy>
37

>  <SCORE.norm>
-0.324156

>  <RMSD>
24.440

$$$$
1o9m_lig
 OpenBabel11021811403D
libRbt.so/2013.1/901 2013/11/27
 37 38  0  0  0  0  0  0  0  0999 V2000
    2.8406    0.6318   12.0477 C   0  0  2  0  0  0  0  0  0  0  0  0
    4.2371    0.9638   12.3152 O   0  0  0  0  0  0  0  0  0  0  0  0
    1.9847    1.8263   12.6090 C   0  0  2  0  0  0  0  0  0  0  0  0
    2.3435    3.1107   11.9825 N   0  0  0  0  0  0  0  0  0  0  0  0
    2.1654    1.8987   14.1730 C   0  0  1  0  0  0  0  0  0  0  0  0
    1.3943    2.9778   14.7082 O   0  0  0  0  0  0  0  0  0  0  0  0
    1.7468    0.5167   14.7750 C   0  0  2  0  0  0  0  0  0  0  0  0
    1.8893    0.4648   16.2039 O   0  0  0  0  0  0  0  0  0  0  0  0
    2.5807   -0.6274   14.1474 C   0  0  2  0  0  0  0  0  0  0  0  0
    2.4659   -0.6190   12.7170 O   0  0  0  0  0  0  0  0  0  0  0  0
    2.1580   -1.9762   14.6696 C   0  0  0  0  0  0  0  0  0  0  0  0
    0.8859   -2.2744   14.2430 N   0  0  0  0  0  0  0  0  0  0  0  0
    7.9271   -0.8711   10.9595 C   0  0  1  0  0  0  0  0  0  0  0  0
    9.0141   -1.8771   10.7983 N   0  0  0  0  0  0  0  0  0  0  0  0
    6.6146   -1.4864   10.4935 C   0  0  2  0  0  0  0  0  0  0  0  0
    6.7783   -1.8940    9.1679 O   0  0  0  0  0  0  0  0  0  0  0  0
    5.4467   -0.4589   10.6273 C   0  0  1  0  0  0  0  0  0  0  0  0
    4.1904   -1.0672   10.1981 O   0  0  0  0  0  0  0  0  0  0  0  0
    5.3042   -0.0115   12.1390 C   0  0  1  0  0  0  0  0  0  0  0  0
    6.6040    0.6223   12.6108 C   0  0  1  0  0  0  0  0  0  0  0  0
    6.4466    1.0392   13.9961 N   0  0  0  0  0  0  0  0  0  0  0  0
    7.7687   -0.3925   12.4594 C   0  0  0  0  0  0  0  0  0  0  0  0
    6.4593   -2.5008    7.8964 C   0  0  0  0  0  0  0  0  0  0  0  0
    5.2207   -1.8459    7.3296 C   0  0  0  0  0  0  0  0  0  0  0  0
    4.6852   -2.5077    6.1221 N   0  0  0  0  0  0  0  0  0  0  0  0
    4.5924   -3.2830    4.8640 C   0  0  0  0  0  0  0  0  0  0  0  0
    4.4368   -2.0936    3.9079 C   0  0  0  0  0  0  0  0  0  0  0  0
    2.9782   -1.6089    3.8091 C   0  0  0  0  0  0  0  0  0  0  0  0
    2.5746   -0.8250    5.0541 C   0  0  0  0  0  0  0  0  0  0  0  0
    2.1108   -1.7364    6.0906 N   0  0  0  0  0  0  0  0  0  0  0  0
   10.0977   -6.4146   13.9860 N   0  0  0  0  0  0  0  0  0  0  0  0
    8.6272   -3.3917   11.6367 C   0  0  0  0  0  0  0  0  0  0  0  0
    7.7920   -3.7489   12.2189 O   0  0  0  0  0  0  0  0  0  0  0  0
    9.9768   -3.8742   11.1642 C   0  0  2  0  0  0  0  0  0  0  0  0
    9.9607   -4.1599    9.8225 O   0  0  0  0  0  0  0  0  0  0  0  0
   10.2564   -5.1855   11.8902 C   0  0  0  0  0  0  0  0  0  0  0  0
   10.4562   -5.1084   13.4146 C   0  0  0  0  0  0  0  0  0  0  0  0
  1  2  1  1  0  0  0
  1  3  1  0  0  0  0
  3  4  1  6  0  0  0
  3  5  1  0  0  0  0
  5  6  1  1  0  0  0
  5  7  1  0  0  0  0
  7  8  1  1  0  0  0
  9  7  1  0  0  0  0
  9 10  1  0  0  0  0
  9 11  1  1  0  0  0
 10  1  1  0  0  0  0
 11 12  1  0  0  0  0
 13 14  1  1  0  0  0
 13 15  1  0  0  0  0
 13 22  1  0  0  0  0
 14 32  1  0  0  0  0
 15 16  1  6  0  0  0
 15 17  1  0  0  0  0
 16 23  1  0  0  0  0
 17 18  1  1  0  0  0
 17 19  1  0  0  0  0
 19  2  1  6  0  0  0
 19 20  1  0  0  0  0
 20 21  1  1  0  0  0
 20 22  1  0  0  0  0
 23 24  1  0  0  0  0
 24 25  1  0  0  0  0
 25 26  1  0  0  0  0
 26 27  1  0  0  0  0
 27 28  1  0  0  0  0
 28 29  1  0  0  0  0
 29 30  1  0  0  0  0
 31 37  1  0  0  0  0
 32 33  2  0  0  0  0
 34 32  1  1  0  0  0
 34 35  1  0  0  0  0
 34 36  1  0  0  0  0
 36 37  1  0  0  0  0
M  END
>  <CHROM.1>
169.40551586,67.01703276,-54.87942699,174.88595111,59.51956428,63.83026135
-171.87374672,-28.36561244,-104.29137821,-83.72039424,75.22293475,-85.77186083
-73.98536121,-66.44318610,154.37043467,5.20005535,-1.29501121,11.01109567
2.36453138,-0.55536980,1.38564811

>  <Name>
1o9m_lig

>  <RI>
0

>  <Rbt.Current_Directory>
/home/itssahil/PROJECTS/Mol_Feturizer/New_Systems/rnas/1o9m

>  <Rbt.Executable>
rbdock ($Id: //depot/dev/client3/rdock/2013.1/src/exe/rbdock.cxx#4 $)

>  <Rbt.Library>
libRbt.so (2013.1, Build901 2013/11/27)

>  <Rbt.Parameter_File>
/export/apps/rDock/src/rDock_2013.1_src/data/scripts/dock_solv.prm

>  <Rbt.Receptor>
prm/blind_docking_60.prm

>  <SCORE>
-12.4599

>  <SCORE.INTER>
-10.3736

>  <SCORE.INTER.CONST>
1

>  <SCORE.INTER.POLAR>
-2.96826

>  <SCORE.INTER.ROT>
15

>  <SCORE.INTER.SOLV>
28.3656

>  <SCORE.INTER.VDW>
-20.0767

>  <SCORE.INTER.norm>
-0.280369

>  <SCORE.INTRA>
-2.09193

>  <SCORE.INTRA.DIHEDRAL>
-10.5959

>  <SCORE.INTRA.DIHEDRAL.0>
21.5987

>  <SCORE.INTRA.POLAR>
0

>  <SCORE.INTRA.POLAR.0>
0

>  <SCORE.INTRA.REPUL>
0

>  <SCORE.INTRA.REPUL.0>
0

>  <SCORE.INTRA.SOLV>
5.76279

>  <SCORE.INTRA.SOLV.lig_0>
-108.715

>  <SCORE.INTRA.VDW>
0.324642

>  <SCORE.INTRA.VDW.0>
-3.9485

>  <SCORE.INTRA.norm>
-0.0565388

>  <SCORE.RESTR>
0.00568925

>  <SCORE.RESTR.CAVITY>
0.00568925

>  <SCORE.RESTR.norm>
0.000153764

>  <SCORE.SYSTEM>
0

>  <SCORE.SYSTEM.CONST>
0

>  <SCORE.SYSTEM.DIHEDRAL>
0

>  <SCORE.SYSTEM.SOLV>
0

>  <SCORE.SYSTEM.norm>
0

>  <SCORE.heavy>
37

>  <SCORE.norm>
-0.336754

>  <RMSD>
24.443

$$$$
1o9m_lig
 OpenBabel11021811403D
libRbt.so/2013.1/901 2013/11/27
 37 38  0  0  0  0  0  0  0  0999 V2000
   11.5239   -2.1746   11.4659 C   0  0  2  0  0  0  0  0  0  0  0  0
   10.8067   -1.1437   10.7210 O   0  0  0  0  0  0  0  0  0  0  0  0
   12.9080   -2.3633   10.7426 C   0  0  2  0  0  0  0  0  0  0  0  0
   13.6885   -1.1143   10.6998 N   0  0  0  0  0  0  0  0  0  0  0  0
   12.6575   -2.9149    9.2877 C   0  0  1  0  0  0  0  0  0  0  0  0
   13.9032   -3.0969    8.6090 O   0  0  0  0  0  0  0  0  0  0  0  0
   11.8480   -4.2483    9.4062 C   0  0  2  0  0  0  0  0  0  0  0  0
   11.5473   -4.8335    8.1287 O   0  0  0  0  0  0  0  0  0  0  0  0
   10.5234   -4.0165   10.1743 C   0  0  2  0  0  0  0  0  0  0  0  0
   10.7738   -3.4356   11.4624 O   0  0  0  0  0  0  0  0  0  0  0  0
    9.7503   -5.2978   10.3514 C   0  0  0  0  0  0  0  0  0  0  0  0
    8.5226   -5.0391   10.9127 N   0  0  0  0  0  0  0  0  0  0  0  0
    7.1438   -0.6703   12.9970 C   0  0  1  0  0  0  0  0  0  0  0  0
    5.8546   -0.0940   13.4716 N   0  0  0  0  0  0  0  0  0  0  0  0
    7.0221   -0.9922   11.5137 C   0  0  2  0  0  0  0  0  0  0  0  0
    5.9482   -1.8700   11.3516 O   0  0  0  0  0  0  0  0  0  0  0  0
    8.3476   -1.6174   10.9754 C   0  0  1  0  0  0  0  0  0  0  0  0
    8.2261   -1.9014    9.5481 O   0  0  0  0  0  0  0  0  0  0  0  0
    9.5404   -0.5992   11.1911 C   0  0  1  0  0  0  0  0  0  0  0  0
    9.6841   -0.2843   12.6723 C   0  0  1  0  0  0  0  0  0  0  0  0
   10.7939    0.6401   12.8495 N   0  0  0  0  0  0  0  0  0  0  0  0
    8.3598    0.3191   13.2121 C   0  0  0  0  0  0  0  0  0  0  0  0
    5.1975   -3.1031   11.4014 C   0  0  0  0  0  0  0  0  0  0  0  0
    3.7733   -2.8359   10.9715 C   0  0  0  0  0  0  0  0  0  0  0  0
    3.6528   -1.9567    9.7902 N   0  0  0  0  0  0  0  0  0  0  0  0
    3.7278   -1.4401    8.4046 C   0  0  0  0  0  0  0  0  0  0  0  0
    4.3771   -2.6747    7.7664 C   0  0  0  0  0  0  0  0  0  0  0  0
    4.4908   -2.5507    6.2355 C   0  0  0  0  0  0  0  0  0  0  0  0
    3.1124   -2.4621    5.5879 C   0  0  0  0  0  0  0  0  0  0  0  0
    3.2462   -2.2939    4.1477 N   0  0  0  0  0  0  0  0  0  0  0  0
    2.3397    3.1757   15.2971 N   0  0  0  0  0  0  0  0  0  0  0  0
    5.3596    1.2927   12.4825 C   0  0  0  0  0  0  0  0  0  0  0  0
    5.7675    1.7996   11.6218 O   0  0  0  0  0  0  0  0  0  0  0  0
    4.1743    1.3967   13.4109 C   0  0  2  0  0  0  0  0  0  0  0  0
    3.1768    0.5298   13.0427 O   0  0  0  0  0  0  0  0  0  0  0  0
    3.6129    2.8056   13.2549 C   0  0  0  0  0  0  0  0  0  0  0  0
    2.2115    3.0652   13.8368 C   0  0  0  0  0  0  0  0  0  0  0  0
  1  2  1  6  0  0  0
  1  3  1  0  0  0  0
  3  4  1  6  0  0  0
  3  5  1  0  0  0  0
  5  6  1  1  0  0  0
  5  7  1  0  0  0  0
  7  8  1  6  0  0  0
  9  7  1  0  0  0  0
  9 10  1  0  0  0  0
  9 11  1  1  0  0  0
 10  1  1  0  0  0  0
 11 12  1  0  0  0  0
 13 14  1  6  0  0  0
 13 15  1  0  0  0  0
 13 22  1  0  0  0  0
 14 32  1  0  0  0  0
 15 16  1  1  0  0  0
 15 17  1  0  0  0  0
 16 23  1  0  0  0  0
 17 18  1  6  0  0  0
 17 19  1  0  0  0  0
 19  2  1  1  0  0  0
 19 20  1  0  0  0  0
 20 21  1  6  0  0  0
 20 22  1  0  0  0  0
 23 24  1  0  0  0  0
 24 25  1  0  0  0  0
 25 26  1  0  0  0  0
 26 27  1  0  0  0  0
 27 28  1  0  0  0  0
 28 29  1  0  0  0  0
 29 30  1  0  0  0  0
 31 37  1  0  0  0  0
 32 33  2  0  0  0  0
 34 32  1  6  0  0  0
 34 35  1  0  0  0  0
 34 36  1  0  0  0  0
 36 37  1  0  0  0  0
M  END
>  <CHROM.1>
-173.07961209,-173.87235724,-53.92863963,-73.42475151,174.05771760,-74.60239854
43.22048082,66.99425562,0.13079408,174.31997177,-63.17700479,177.81522303
-82.83253624,165.93237761,76.09097800,7.50515887,-1.42035447,10.76022007
-0.42055526,-0.22700663,0.93753521

>  <Name>
1o9m_lig

>  <RI>
0

>  <Rbt.Current_Directory>
/home/itssahil/PROJECTS/Mol_Feturizer/New_Systems/rnas/1o9m

>  <Rbt.Executable>
rbdock ($Id: //depot/dev/client3/rdock/2013.1/src/exe/rbdock.cxx#4 $)

>  <Rbt.Library>
libRbt.so (2013.1, Build901 2013/11/27)

>  <Rbt.Parameter_File>
/export/apps/rDock/src/rDock_2013.1_src/data/scripts/dock_solv.prm

>  <Rbt.Receptor>
prm/blind_docking_40.prm

>  <SCORE>
-10.8703

>  <SCORE.INTER>
-5.701

>  <SCORE.INTER.CONST>
1

>  <SCORE.INTER.POLAR>
-1.16546

>  <SCORE.INTER.ROT>
15

>  <SCORE.INTER.SOLV>
18.3854

>  <SCORE.INTER.VDW>
-19.6443

>  <SCORE.INTER.norm>
-0.154081

>  <SCORE.INTRA>
-5.17129

>  <SCORE.INTRA.DIHEDRAL>
-13.9757

>  <SCORE.INTRA.DIHEDRAL.0>
21.5987

>  <SCORE.INTRA.POLAR>
0

>  <SCORE.INTRA.POLAR.0>
0

>  <SCORE.INTRA.REPUL>
0.00773846

>  <SCORE.INTRA.REPUL.0>
0

>  <SCORE.INTRA.SOLV>
4.32758

>  <SCORE.INTRA.SOLV.lig_0>
-108.715

>  <SCORE.INTRA.VDW>
-0.385905

>  <SCORE.INTRA.VDW.0>
-3.9485

>  <SCORE.INTRA.norm>
-0.139764

>  <SCORE.RESTR>
0.0019515

>  <SCORE.RESTR.CAVITY>
0.0019515

>  <SCORE.RESTR.norm>
5.27432e-05

>  <SCORE.SYSTEM>
0

>  <SCORE.SYSTEM.CONST>
0

>  <SCORE.SYSTEM.DIHEDRAL>
0

>  <SCORE.SYSTEM.SOLV>
0

>  <SCORE.SYSTEM.norm>
0

>  <SCORE.heavy>
37

>  <SCORE.norm>
-0.293793

>  <RMSD>
24.454

$$$$
1o9m_lig
 OpenBabel11021811403D
libRbt.so/2013.1/901 2013/11/27
 37 38  0  0  0  0  0  0  0  0999 V2000
    3.5242    0.2668   12.6748 C   0  0  2  0  0  0  0  0  0  0  0  0
    4.4096   -0.6366   13.4043 O   0  0  0  0  0  0  0  0  0  0  0  0
    2.4336    0.7455   13.7024 C   0  0  2  0  0  0  0  0  0  0  0  0
    3.0265    1.4260   14.8669 N   0  0  0  0  0  0  0  0  0  0  0  0
    1.5761   -0.4958   14.1583 C   0  0  1  0  0  0  0  0  0  0  0  0
    0.5745   -0.0855   15.0931 O   0  0  0  0  0  0  0  0  0  0  0  0
    0.9587   -1.1554   12.8811 C   0  0  2  0  0  0  0  0  0  0  0  0
    0.1652   -2.3154   13.1808 O   0  0  0  0  0  0  0  0  0  0  0  0
    2.0714   -1.5554   11.8810 C   0  0  2  0  0  0  0  0  0  0  0  0
    2.8898   -0.4249   11.5471 O   0  0  0  0  0  0  0  0  0  0  0  0
    1.4993   -2.1426   10.6166 C   0  0  0  0  0  0  0  0  0  0  0  0
    2.5008   -2.3749    9.7042 N   0  0  0  0  0  0  0  0  0  0  0  0
    7.9028   -0.8409   10.8398 C   0  0  1  0  0  0  0  0  0  0  0  0
    9.2219   -1.2774   10.3024 N   0  0  0  0  0  0  0  0  0  0  0  0
    6.9557   -2.0331   10.8468 C   0  0  2  0  0  0  0  0  0  0  0  0
    6.8701   -2.5211    9.5411 O   0  0  0  0  0  0  0  0  0  0  0  0
    5.5509   -1.6173   11.3865 C   0  0  1  0  0  0  0  0  0  0  0  0
    4.6588   -2.7732   11.4088 O   0  0  0  0  0  0  0  0  0  0  0  0
    5.6934   -1.0569   12.8601 C   0  0  1  0  0  0  0  0  0  0  0  0
    6.6230    0.1471   12.8631 C   0  0  1  0  0  0  0  0  0  0  0  0
    6.7280    0.6549   14.2228 N   0  0  0  0  0  0  0  0  0  0  0  0
    8.0138   -0.2616   12.3081 C   0  0  0  0  0  0  0  0  0  0  0  0
    6.5750   -2.5400    8.1272 C   0  0  0  0  0  0  0  0  0  0  0  0
    6.9426   -3.8921    7.5605 C   0  0  0  0  0  0  0  0  0  0  0  0
    6.4243   -4.1386    6.1991 N   0  0  0  0  0  0  0  0  0  0  0  0
    5.5084   -4.4079    5.0673 C   0  0  0  0  0  0  0  0  0  0  0  0
    4.2132   -3.9411    5.7436 C   0  0  0  0  0  0  0  0  0  0  0  0
    3.0198   -3.9184    4.7701 C   0  0  0  0  0  0  0  0  0  0  0  0
    2.9774   -2.6117    3.9838 C   0  0  0  0  0  0  0  0  0  0  0  0
    2.7258   -1.4947    4.8834 N   0  0  0  0  0  0  0  0  0  0  0  0
    9.8919   -2.0903    5.9984 N   0  0  0  0  0  0  0  0  0  0  0  0
   10.2250    0.1096    9.8369 C   0  0  0  0  0  0  0  0  0  0  0  0
   10.1038    1.1814    9.8640 O   0  0  0  0  0  0  0  0  0  0  0  0
   11.2472   -0.9113    9.4005 C   0  0  2  0  0  0  0  0  0  0  0  0
   12.5245   -0.4426    9.5768 O   0  0  0  0  0  0  0  0  0  0  0  0
   11.0561   -1.1154    7.9017 C   0  0  0  0  0  0  0  0  0  0  0  0
    9.8560   -1.9741    7.4634 C   0  0  0  0  0  0  0  0  0  0  0  0
  1  2  1  1  0  0  0
  1  3  1  0  0  0  0
  3  4  1  1  0  0  0
  3  5  1  0  0  0  0
  5  6  1  1  0  0  0
  5  7  1  0  0  0  0
  7  8  1  1  0  0  0
  9  7  1  0  0  0  0
  9 10  1  0  0  0  0
  9 11  1  6  0  0  0
 10  1  1  0  0  0  0
 11 12  1  0  0  0  0
 13 14  1  1  0  0  0
 13 15  1  0  0  0  0
 13 22  1  0  0  0  0
 14 32  1  0  0  0  0
 15 16  1  6  0  0  0
 15 17  1  0  0  0  0
 16 23  1  0  0  0  0
 17 18  1  1  0  0  0
 17 19  1  0  0  0  0
 19  2  1  6  0  0  0
 19 20  1  0  0  0  0
 20 21  1  1  0  0  0
 20 22  1  0  0  0  0
 23 24  1  0  0  0  0
 24 25  1  0  0  0  0
 25 26  1  0  0  0  0
 26 27  1  0  0  0  0
 27 28  1  0  0  0  0
 28 29  1  0  0  0  0
 29 30  1  0  0  0  0
 31 37  1  0  0  0  0
 32 33  2  0  0  0  0
 34 32  1  6  0  0  0
 34 35  1  0  0  0  0
 34 36  1  0  0  0  0
 36 37  1  0  0  0  0
M  END
>  <CHROM.1>
-166.92065167,174.59361796,164.08144106,-63.46446537,-178.23293845,-51.11259430
167.49232645,-71.10317803,20.85429920,173.01862687,-84.69011071,-65.10119577
-147.62877647,-76.48284045,-177.57539266,5.58423359,-1.42636317,10.18618616
-2.42393270,-0.15962707,-1.97709048

>  <Name>
1o9m_lig

>  <RI>
0

>  <Rbt.Current_Directory>
/home/itssahil/PROJECTS/Mol_Feturizer/New_Systems/rnas/1o9m

>  <Rbt.Executable>
rbdock ($Id: //depot/dev/client3/rdock/2013.1/src/exe/rbdock.cxx#4 $)

>  <Rbt.Library>
libRbt.so (2013.1, Build901 2013/11/27)

>  <Rbt.Parameter_File>
/export/apps/rDock/src/rDock_2013.1_src/data/scripts/dock_solv.prm

>  <Rbt.Receptor>
prm/blind_docking_40.prm

>  <SCORE>
-5.06788

>  <SCORE.INTER>
-0.893272

>  <SCORE.INTER.CONST>
1

>  <SCORE.INTER.POLAR>
-1.49955

>  <SCORE.INTER.ROT>
15

>  <SCORE.INTER.SOLV>
23.5804

>  <SCORE.INTER.VDW>
-17.0571

>  <SCORE.INTER.norm>
-0.0241425

>  <SCORE.INTRA>
-5.06795

>  <SCORE.INTRA.DIHEDRAL>
-13.1352

>  <SCORE.INTRA.DIHEDRAL.0>
21.5987

>  <SCORE.INTRA.POLAR>
0

>  <SCORE.INTRA.POLAR.0>
0

>  <SCORE.INTRA.REPUL>
0

>  <SCORE.INTRA.REPUL.0>
0

>  <SCORE.INTRA.SOLV>
4.69211

>  <SCORE.INTRA.SOLV.lig_0>
-108.715

>  <SCORE.INTRA.VDW>
-0.846413

>  <SCORE.INTRA.VDW.0>
-3.9485

>  <SCORE.INTRA.norm>
-0.136972

>  <SCORE.RESTR>
0.893341

>  <SCORE.RESTR.CAVITY>
0.893341

>  <SCORE.RESTR.norm>
0.0241444

>  <SCORE.SYSTEM>
0

>  <SCORE.SYSTEM.CONST>
0

>  <SCORE.SYSTEM.DIHEDRAL>
0

>  <SCORE.SYSTEM.SOLV>
0

>  <SCORE.SYSTEM.norm>
0

>  <SCORE.heavy>
37

>  <SCORE.norm>
-0.13697

>  <RMSD>
24.463

$$$$
1o9m_lig
 OpenBabel11021811403D
libRbt.so/2013.1/901 2013/11/27
 37 38  0  0  0  0  0  0  0  0999 V2000
    3.2925    0.8358   12.1794 C   0  0  2  0  0  0  0  0  0  0  0  0
    4.3941    1.0048   13.1229 O   0  0  0  0  0  0  0  0  0  0  0  0
    1.9694    1.0883   12.9918 C   0  0  2  0  0  0  0  0  0  0  0  0
    1.9352    2.4314   13.5966 N   0  0  0  0  0  0  0  0  0  0  0  0
    1.8239   -0.0254   14.0975 C   0  0  1  0  0  0  0  0  0  0  0  0
    0.6253    0.1816   14.8499 O   0  0  0  0  0  0  0  0  0  0  0  0
    1.8440   -1.4197   13.3884 C   0  0  2  0  0  0  0  0  0  0  0  0
    1.7340   -2.5160   14.3109 O   0  0  0  0  0  0  0  0  0  0  0  0
    3.1406   -1.5920   12.5592 C   0  0  2  0  0  0  0  0  0  0  0  0
    3.2920   -0.5196   11.6177 O   0  0  0  0  0  0  0  0  0  0  0  0
    3.1591   -2.9052   11.8204 C   0  0  0  0  0  0  0  0  0  0  0  0
    2.3417   -2.8421   10.7172 N   0  0  0  0  0  0  0  0  0  0  0  0
    7.7602   -0.7088   10.9888 C   0  0  1  0  0  0  0  0  0  0  0  0
    9.1638   -1.0771   10.6517 N   0  0  0  0  0  0  0  0  0  0  0  0
    7.4135   -1.2897   12.3529 C   0  0  2  0  0  0  0  0  0  0  0  0
    7.6078   -2.6713   12.2931 O   0  0  0  0  0  0  0  0  0  0  0  0
    5.9413   -0.9437   12.7408 C   0  0  1  0  0  0  0  0  0  0  0  0
    5.6279   -1.4873   14.0594 O   0  0  0  0  0  0  0  0  0  0  0  0
    5.7592    0.6282   12.7828 C   0  0  1  0  0  0  0  0  0  0  0  0
    6.0847    1.2187   11.4192 C   0  0  1  0  0  0  0  0  0  0  0  0
    5.8968    2.6606   11.4758 N   0  0  0  0  0  0  0  0  0  0  0  0
    7.5420    0.8580   11.0248 C   0  0  0  0  0  0  0  0  0  0  0  0
    7.7363   -3.9895   11.7164 C   0  0  0  0  0  0  0  0  0  0  0  0
    6.5793   -4.2356   10.7756 C   0  0  0  0  0  0  0  0  0  0  0  0
    6.5360   -3.3193    9.6174 N   0  0  0  0  0  0  0  0  0  0  0  0
    6.0417   -2.4816    8.5009 C   0  0  0  0  0  0  0  0  0  0  0  0
    6.5068   -3.3857    7.3523 C   0  0  0  0  0  0  0  0  0  0  0  0
    6.4224   -2.6837    5.9840 C   0  0  0  0  0  0  0  0  0  0  0  0
    7.4812   -1.5923    5.8605 C   0  0  0  0  0  0  0  0  0  0  0  0
    8.8119   -2.1835    5.8656 N   0  0  0  0  0  0  0  0  0  0  0  0
   12.9869   -2.0167    7.7170 N   0  0  0  0  0  0  0  0  0  0  0  0
   10.0518    0.3004    9.9731 C   0  0  0  0  0  0  0  0  0  0  0  0
    9.8141    1.3315    9.7622 O   0  0  0  0  0  0  0  0  0  0  0  0
   11.2148   -0.6519    9.8380 C   0  0  2  0  0  0  0  0  0  0  0  0
   11.8817   -0.7941   11.0284 O   0  0  0  0  0  0  0  0  0  0  0  0
   12.1947   -0.0167    8.8577 C   0  0  0  0  0  0  0  0  0  0  0  0
   13.4370   -0.8439    8.4806 C   0  0  0  0  0  0  0  0  0  0  0  0
  1  2  1  1  0  0  0
  1  3  1  0  0  0  0
  3  4  1  1  0  0  0
  3  5  1  0  0  0  0
  5  6  1  6  0  0  0
  5  7  1  0  0  0  0
  7  8  1  1  0  0  0
  9  7  1  0  0  0  0
  9 10  1  0  0  0  0
  9 11  1  6  0  0  0
 10  1  1  0  0  0  0
 11 12  1  0  0  0  0
 13 14  1  1  0  0  0
 13 15  1  0  0  0  0
 13 22  1  0  0  0  0
 14 32  1  0  0  0  0
 15 16  1  6  0  0  0
 15 17  1  0  0  0  0
 16 23  1  0  0  0  0
 17 18  1  1  0  0  0
 17 19  1  0  0  0  0
 19  2  1  6  0  0  0
 19 20  1  0  0  0  0
 20 21  1  1  0  0  0
 20 22  1  0  0  0  0
 23 24  1  0  0  0  0
 24 25  1  0  0  0  0
 25 26  1  0  0  0  0
 26 27  1  0  0  0  0
 27 28  1  0  0  0  0
 28 29  1  0  0  0  0
 29 30  1  0  0  0  0
 31 37  1  0  0  0  0
 32 33  2  0  0  0  0
 34 32  1  1  0  0  0
 34 35  1  0  0  0  0
 34 36  1  0  0  0  0
 36 37  1  0  0  0  0
M  END
>  <CHROM.1>
169.47010362,76.64946205,-136.11371770,-23.20366344,-48.70499812,-72.27350675
63.06644921,-150.22755870,-106.98324309,-167.85208552,70.54825476,65.61288464
-81.10782703,-176.25438453,66.75618406,6.36930010,-0.97499608,11.00896809
-2.70639507,-0.31578458,-2.33946788

>  <Name>
1o9m_lig

>  <RI>
0

>  <Rbt.Current_Directory>
/home/itssahil/PROJECTS/Mol_Feturizer/New_Systems/rnas/1o9m

>  <Rbt.Executable>
rbdock ($Id: //depot/dev/client3/rdock/2013.1/src/exe/rbdock.cxx#4 $)

>  <Rbt.Library>
libRbt.so (2013.1, Build901 2013/11/27)

>  <Rbt.Parameter_File>
/export/apps/rDock/src/rDock_2013.1_src/data/scripts/dock_solv.prm

>  <Rbt.Receptor>
prm/blind_docking_80.prm

>  <SCORE>
-6.53301

>  <SCORE.INTER>
-7.02938

>  <SCORE.INTER.CONST>
1

>  <SCORE.INTER.POLAR>
-1.14113

>  <SCORE.INTER.ROT>
15

>  <SCORE.INTER.SOLV>
16.7369

>  <SCORE.INTER.VDW>
-20.0614

>  <SCORE.INTER.norm>
-0.189983

>  <SCORE.INTRA>
0.447466

>  <SCORE.INTRA.DIHEDRAL>
-8.79617

>  <SCORE.INTRA.DIHEDRAL.0>
21.5987

>  <SCORE.INTRA.POLAR>
0

>  <SCORE.INTRA.POLAR.0>
0

>  <SCORE.INTRA.REPUL>
0

>  <SCORE.INTRA.REPUL.0>
0

>  <SCORE.INTRA.SOLV>
5.38555

>  <SCORE.INTRA.SOLV.lig_0>
-108.715

>  <SCORE.INTRA.VDW>
2.15278

>  <SCORE.INTRA.VDW.0>
-3.9485

>  <SCORE.INTRA.norm>
0.0120937

>  <SCORE.RESTR>
0.0489072

>  <SCORE.RESTR.CAVITY>
0.0489072

>  <SCORE.RESTR.norm>
0.00132182

>  <SCORE.SYSTEM>
0

>  <SCORE.SYSTEM.CONST>
0

>  <SCORE.SYSTEM.DIHEDRAL>
0

>  <SCORE.SYSTEM.SOLV>
0

>  <SCORE.SYSTEM.norm>
0

>  <SCORE.heavy>
37

>  <SCORE.norm>
-0.176568

>  <RMSD>
24.466

$$$$
1o9m_lig
 OpenBabel11021811403D
libRbt.so/2013.1/901 2013/11/27
 37 38  0  0  0  0  0  0  0  0999 V2000
    5.9862    0.5541   13.2685 C   0  0  2  0  0  0  0  0  0  0  0  0
    6.4656    0.7236   11.8997 O   0  0  0  0  0  0  0  0  0  0  0  0
    5.1637   -0.7866   13.2882 C   0  0  2  0  0  0  0  0  0  0  0  0
    5.9760   -1.9441   12.8742 N   0  0  0  0  0  0  0  0  0  0  0  0
    3.9012   -0.6297   12.3579 C   0  0  1  0  0  0  0  0  0  0  0  0
    3.1347   -1.8371   12.3604 O   0  0  0  0  0  0  0  0  0  0  0  0
    3.0737    0.5975   12.8648 C   0  0  2  0  0  0  0  0  0  0  0  0
    1.9006    0.8445   12.0724 O   0  0  0  0  0  0  0  0  0  0  0  0
    3.9465    1.8767   12.8782 C   0  0  2  0  0  0  0  0  0  0  0  0
    5.1314    1.6794   13.6633 O   0  0  0  0  0  0  0  0  0  0  0  0
    3.1886    3.0628   13.4159 C   0  0  0  0  0  0  0  0  0  0  0  0
    4.0039    4.1685   13.4597 N   0  0  0  0  0  0  0  0  0  0  0  0
    9.0487   -1.2925    9.0566 C   0  0  1  0  0  0  0  0  0  0  0  0
    9.7759   -2.3893    8.3581 N   0  0  0  0  0  0  0  0  0  0  0  0
    7.5527   -1.5639    8.9740 C   0  0  2  0  0  0  0  0  0  0  0  0
    7.2083   -1.6637    7.6243 O   0  0  0  0  0  0  0  0  0  0  0  0
    6.7471   -0.4271    9.6788 C   0  0  1  0  0  0  0  0  0  0  0  0
    5.3160   -0.7096    9.6120 O   0  0  0  0  0  0  0  0  0  0  0  0
    7.1768   -0.3370   11.1997 C   0  0  1  0  0  0  0  0  0  0  0  0
    8.6670   -0.0472   11.2951 C   0  0  1  0  0  0  0  0  0  0  0  0
    9.0374    0.0463   12.6993 N   0  0  0  0  0  0  0  0  0  0  0  0
    9.4671   -1.1671   10.5774 C   0  0  0  0  0  0  0  0  0  0  0  0
    6.9951   -2.2688    6.3301 C   0  0  0  0  0  0  0  0  0  0  0  0
    5.9069   -3.3118    6.4420 C   0  0  0  0  0  0  0  0  0  0  0  0
    4.6799   -2.8361    7.1137 N   0  0  0  0  0  0  0  0  0  0  0  0
    3.3304   -2.7989    7.7218 C   0  0  0  0  0  0  0  0  0  0  0  0
    2.5354   -2.5746    6.4293 C   0  0  0  0  0  0  0  0  0  0  0  0
    2.7401   -1.1605    5.8542 C   0  0  0  0  0  0  0  0  0  0  0  0
    2.2987   -0.0932    6.8509 C   0  0  0  0  0  0  0  0  0  0  0  0
    0.8749   -0.2245    7.1264 N   0  0  0  0  0  0  0  0  0  0  0  0
   10.4352   -0.9596    5.2528 N   0  0  0  0  0  0  0  0  0  0  0  0
   11.3792   -1.8614    7.8127 C   0  0  0  0  0  0  0  0  0  0  0  0
   11.9436   -0.9444    7.8800 O   0  0  0  0  0  0  0  0  0  0  0  0
   11.5223   -3.2483    7.2350 C   0  0  2  0  0  0  0  0  0  0  0  0
   12.8227   -3.5090    6.8845 O   0  0  0  0  0  0  0  0  0  0  0  0
   10.7052   -3.2774    5.9481 C   0  0  0  0  0  0  0  0  0  0  0  0
   11.0614   -2.2344    4.8733 C   0  0  0  0  0  0  0  0  0  0  0  0
  1  2  1  6  0  0  0
  1  3  1  0  0  0  0
  3  4  1  6  0  0  0
  3  5  1  0  0  0  0
  5  6  1  1  0  0  0
  5  7  1  0  0  0  0
  7  8  1  6  0  0  0
  9  7  1  0  0  0  0
  9 10  1  0  0  0  0
  9 11  1  1  0  0  0
 10  1  1  0  0  0  0
 11 12  1  0  0  0  0
 13 14  1  1  0  0  0
 13 15  1  0  0  0  0
 13 22  1  0  0  0  0
 14 32  1  0  0  0  0
 15 16  1  6  0  0  0
 15 17  1  0  0  0  0
 16 23  1  0  0  0  0
 17 18  1  1  0  0  0
 17 19  1  0  0  0  0
 19  2  1  6  0  0  0
 19 20  1  0  0  0  0
 20 21  1  1  0  0  0
 20 22  1  0  0  0  0
 23 24  1  0  0  0  0
 24 25  1  0  0  0  0
 25 26  1  0  0  0  0
 26 27  1  0  0  0  0
 27 28  1  0  0  0  0
 28 29  1  0  0  0  0
 29 30  1  0  0  0  0
 31 37  1  0  0  0  0
 32 33  2  0  0  0  0
 34 32  1  6  0  0  0
 34 35  1  0  0  0  0
 34 36  1  0  0  0  0
 36 37  1  0  0  0  0
M  END
>  <CHROM.1>
-51.47941857,177.84152006,156.25489154,86.94240132,63.69970745,140.55277633
49.95360621,-176.68153169,-84.47549237,-70.85278805,-59.72934775,-62.32478802
-166.52625380,57.02559715,-80.09895233,6.50208296,-0.87818138,9.54180336
-2.40847629,0.09346468,-2.00805914

>  <Name>
1o9m_lig

>  <RI>
0

>  <Rbt.Current_Directory>
/home/itssahil/PROJECTS/Mol_Feturizer/New_Systems/rnas/1o9m

>  <Rbt.Executable>
rbdock ($Id: //depot/dev/client3/rdock/2013.1/src/exe/rbdock.cxx#4 $)

>  <Rbt.Library>
libRbt.so (2013.1, Build901 2013/11/27)

>  <Rbt.Parameter_File>
/export/apps/rDock/src/rDock_2013.1_src/data/scripts/dock_solv.prm

>  <Rbt.Receptor>
prm/blind_docking_100.prm

>  <SCORE>
1.14826

>  <SCORE.INTER>
-1.65063

>  <SCORE.INTER.CONST>
1

>  <SCORE.INTER.POLAR>
-1.06403

>  <SCORE.INTER.ROT>
15

>  <SCORE.INTER.SOLV>
23.447

>  <SCORE.INTER.VDW>
-18.9693

>  <SCORE.INTER.norm>
-0.0446117

>  <SCORE.INTRA>
2.69975

>  <SCORE.INTRA.DIHEDRAL>
-8.58537

>  <SCORE.INTRA.DIHEDRAL.0>
21.5987

>  <SCORE.INTRA.POLAR>
0

>  <SCORE.INTRA.POLAR.0>
0

>  <SCORE.INTRA.REPUL>
0

>  <SCORE.INTRA.REPUL.0>
0

>  <SCORE.INTRA.SOLV>
11.0596

>  <SCORE.INTRA.SOLV.lig_0>
-108.715

>  <SCORE.INTRA.VDW>
1.46262

>  <SCORE.INTRA.VDW.0>
-3.9485

>  <SCORE.INTRA.norm>
0.0729662

>  <SCORE.RESTR>
0.0991411

>  <SCORE.RESTR.CAVITY>
0.0991411

>  <SCORE.RESTR.norm>
0.00267949

>  <SCORE.SYSTEM>
0

>  <SCORE.SYSTEM.CONST>
0

>  <SCORE.SYSTEM.DIHEDRAL>
0

>  <SCORE.SYSTEM.SOLV>
0

>  <SCORE.SYSTEM.norm>
0

>  <SCORE.heavy>
37

>  <SCORE.norm>
0.031034

>  <RMSD>
24.485

$$$$
1o9m_lig
 OpenBabel11021811403D
libRbt.so/2013.1/901 2013/11/27
 37 38  0  0  0  0  0  0  0  0999 V2000
    2.8249    0.2422   11.1343 C   0  0  2  0  0  0  0  0  0  0  0  0
    4.1943    0.7455   11.0722 O   0  0  0  0  0  0  0  0  0  0  0  0
    1.9147    1.4744   11.4916 C   0  0  2  0  0  0  0  0  0  0  0  0
    2.0270    2.5563   10.4977 N   0  0  0  0  0  0  0  0  0  0  0  0
    2.2955    1.9958   12.9293 C   0  0  1  0  0  0  0  0  0  0  0  0
    1.4791    3.1169   13.2786 O   0  0  0  0  0  0  0  0  0  0  0  0
    2.1329    0.8090   13.9356 C   0  0  2  0  0  0  0  0  0  0  0  0
    2.4729    1.1708   15.2840 O   0  0  0  0  0  0  0  0  0  0  0  0
    3.0065   -0.3952   13.5054 C   0  0  2  0  0  0  0  0  0  0  0  0
    2.6987   -0.7968   12.1625 O   0  0  0  0  0  0  0  0  0  0  0  0
    2.8250   -1.5729   14.4277 C   0  0  0  0  0  0  0  0  0  0  0  0
    1.4990   -1.9296   14.4888 N   0  0  0  0  0  0  0  0  0  0  0  0
    8.0477   -1.2344   10.8455 C   0  0  1  0  0  0  0  0  0  0  0  0
    9.2095   -2.0855   11.2269 N   0  0  0  0  0  0  0  0  0  0  0  0
    6.7984   -2.1031   10.7919 C   0  0  2  0  0  0  0  0  0  0  0  0
    7.0317   -3.1350    9.8804 O   0  0  0  0  0  0  0  0  0  0  0  0
    5.5552   -1.2546   10.3768 C   0  0  1  0  0  0  0  0  0  0  0  0
    4.3602   -2.0936   10.3501 O   0  0  0  0  0  0  0  0  0  0  0  0
    5.3344   -0.0891   11.4250 C   0  0  1  0  0  0  0  0  0  0  0  0
    6.5696    0.7973   11.4738 C   0  0  1  0  0  0  0  0  0  0  0  0
    6.3399    1.8691   12.4310 N   0  0  0  0  0  0  0  0  0  0  0  0
    7.8092   -0.0501   11.8674 C   0  0  0  0  0  0  0  0  0  0  0  0
    7.6844   -4.2688    9.2678 C   0  0  0  0  0  0  0  0  0  0  0  0
    8.9924   -3.8199    8.6579 C   0  0  0  0  0  0  0  0  0  0  0  0
    8.8407   -2.9789    7.4526 N   0  0  0  0  0  0  0  0  0  0  0  0
    8.3606   -2.4468    6.1569 C   0  0  0  0  0  0  0  0  0  0  0  0
    8.3401   -0.9632    6.5460 C   0  0  0  0  0  0  0  0  0  0  0  0
    7.1639   -0.6190    7.4789 C   0  0  0  0  0  0  0  0  0  0  0  0
    7.1917    0.8534    7.8772 C   0  0  0  0  0  0  0  0  0  0  0  0
    5.9423    1.2187    8.5298 N   0  0  0  0  0  0  0  0  0  0  0  0
   13.6049   -2.7704    9.7914 N   0  0  0  0  0  0  0  0  0  0  0  0
   10.6206   -1.1021   11.6610 C   0  0  0  0  0  0  0  0  0  0  0  0
   10.8230   -0.0441   11.7213 O   0  0  0  0  0  0  0  0  0  0  0  0
   11.3384   -2.4136   11.8669 C   0  0  2  0  0  0  0  0  0  0  0  0
   10.9600   -3.0079   13.0440 O   0  0  0  0  0  0  0  0  0  0  0  0
   12.8228   -2.0898   11.9945 C   0  0  0  0  0  0  0  0  0  0  0  0
   13.5474   -1.6295   10.7167 C   0  0  0  0  0  0  0  0  0  0  0  0
  1  2  1  1  0  0  0
  1  3  1  0  0  0  0
  3  4  1  6  0  0  0
  3  5  1  0  0  0  0
  5  6  1  1  0  0  0
  5  7  1  0  0  0  0
  7  8  1  1  0  0  0
  9  7  1  0  0  0  0
  9 10  1  0  0  0  0
  9 11  1  1  0  0  0
 10  1  1  0  0  0  0
 11 12  1  0  0  0  0
 13 14  1  1  0  0  0
 13 15  1  0  0  0  0
 13 22  1  0  0  0  0
 14 32  1  0  0  0  0
 15 16  1  6  0  0  0
 15 17  1  0  0  0  0
 16 23  1  0  0  0  0
 17 18  1  1  0  0  0
 17 19  1  0  0  0  0
 19  2  1  6  0  0  0
 19 20  1  0  0  0  0
 20 21  1  1  0  0  0
 20 22  1  0  0  0  0
 23 24  1  0  0  0  0
 24 25  1  0  0  0  0
 25 26  1  0  0  0  0
 26 27  1  0  0  0  0
 27 28  1  0  0  0  0
 28 29  1  0  0  0  0
 29 30  1  0  0  0  0
 31 37  1  0  0  0  0
 32 33  2  0  0  0  0
 34 32  1  1  0  0  0
 34 35  1  0  0  0  0
 34 36  1  0  0  0  0
 36 37  1  0  0  0  0
M  END
>  <CHROM.1>
148.87746643,56.36920126,-167.36835836,55.57130495,-69.76186768,68.45804941
-70.90055304,-41.34596274,136.62487769,-74.08157304,178.49998738,168.66938528
-76.04405098,-70.82306948,-67.90284062,6.54219011,-0.76095555,11.03105131
2.79922918,-0.32105009,1.48540206

>  <Name>
1o9m_lig

>  <RI>
0

>  <Rbt.Current_Directory>
/home/itssahil/PROJECTS/Mol_Feturizer/New_Systems/rnas/1o9m

>  <Rbt.Executable>
rbdock ($Id: //depot/dev/client3/rdock/2013.1/src/exe/rbdock.cxx#4 $)

>  <Rbt.Library>
libRbt.so (2013.1, Build901 2013/11/27)

>  <Rbt.Parameter_File>
/export/apps/rDock/src/rDock_2013.1_src/data/scripts/dock_solv.prm

>  <Rbt.Receptor>
prm/blind_docking_100.prm

>  <SCORE>
-4.83767

>  <SCORE.INTER>
-0.823148

>  <SCORE.INTER.CONST>
1

>  <SCORE.INTER.POLAR>
-1.04132

>  <SCORE.INTER.ROT>
15

>  <SCORE.INTER.SOLV>
19.3541

>  <SCORE.INTER.VDW>
-17.1291

>  <SCORE.INTER.norm>
-0.0222473

>  <SCORE.INTRA>
-4.01938

>  <SCORE.INTRA.DIHEDRAL>
-12.2154

>  <SCORE.INTRA.DIHEDRAL.0>
21.5987

>  <SCORE.INTRA.POLAR>
0

>  <SCORE.INTRA.POLAR.0>
0

>  <SCORE.INTRA.REPUL>
0

>  <SCORE.INTRA.REPUL.0>
0

>  <SCORE.INTRA.SOLV>
8.8014

>  <SCORE.INTRA.SOLV.lig_0>
-108.715

>  <SCORE.INTRA.VDW>
-2.31239

>  <SCORE.INTRA.VDW.0>
-3.9485

>  <SCORE.INTRA.norm>
-0.108632

>  <SCORE.RESTR>
0.00485783

>  <SCORE.RESTR.CAVITY>
0.00485783

>  <SCORE.RESTR.norm>
0.000131293

>  <SCORE.SYSTEM>
0

>  <SCORE.SYSTEM.CONST>
0

>  <SCORE.SYSTEM.DIHEDRAL>
0

>  <SCORE.SYSTEM.SOLV>
0

>  <SCORE.SYSTEM.norm>
0

>  <SCORE.heavy>
37

>  <SCORE.norm>
-0.130748

>  <RMSD>
24.513

$$$$
1o9m_lig
 OpenBabel11021811403D
libRbt.so/2013.1/901 2013/11/27
 37 38  0  0  0  0  0  0  0  0999 V2000
   11.7883   -3.2418   10.3359 C   0  0  2  0  0  0  0  0  0  0  0  0
   10.7458   -2.2196   10.3581 O   0  0  0  0  0  0  0  0  0  0  0  0
   12.9483   -2.7133   11.2576 C   0  0  2  0  0  0  0  0  0  0  0  0
   12.4936   -2.4638   12.6367 N   0  0  0  0  0  0  0  0  0  0  0  0
   13.5530   -1.4032   10.6238 C   0  0  1  0  0  0  0  0  0  0  0  0
   14.6127   -0.9033   11.4440 O   0  0  0  0  0  0  0  0  0  0  0  0
   14.0359   -1.7424    9.1749 C   0  0  2  0  0  0  0  0  0  0  0  0
   14.5934   -0.6071    8.4929 O   0  0  0  0  0  0  0  0  0  0  0  0
   12.8692   -2.3103    8.3295 C   0  0  2  0  0  0  0  0  0  0  0  0
   12.2815   -3.4520    8.9701 O   0  0  0  0  0  0  0  0  0  0  0  0
   13.3213   -2.6980    6.9453 C   0  0  0  0  0  0  0  0  0  0  0  0
   12.2481   -3.1109    6.1923 N   0  0  0  0  0  0  0  0  0  0  0  0
    6.4157   -2.4224   10.1858 C   0  0  1  0  0  0  0  0  0  0  0  0
    5.0139   -2.7638   10.5570 N   0  0  0  0  0  0  0  0  0  0  0  0
    7.0451   -1.6267   11.3212 C   0  0  2  0  0  0  0  0  0  0  0  0
    6.2561   -0.4957   11.5417 O   0  0  0  0  0  0  0  0  0  0  0  0
    8.5132   -1.2297   10.9676 C   0  0  1  0  0  0  0  0  0  0  0  0
    9.1128   -0.4864   12.0723 O   0  0  0  0  0  0  0  0  0  0  0  0
    9.3688   -2.5365   10.7109 C   0  0  1  0  0  0  0  0  0  0  0  0
    8.7603   -3.3310    9.5653 C   0  0  1  0  0  0  0  0  0  0  0  0
    9.5695   -4.5185    9.3365 N   0  0  0  0  0  0  0  0  0  0  0  0
    7.2944   -3.7088    9.9084 C   0  0  0  0  0  0  0  0  0  0  0  0
    5.8548    0.7813   12.0846 C   0  0  0  0  0  0  0  0  0  0  0  0
    5.8661    0.7056   13.5942 C   0  0  0  0  0  0  0  0  0  0  0  0
    4.8115   -0.1580   14.1643 N   0  0  0  0  0  0  0  0  0  0  0  0
    3.5219   -0.8539   14.3767 C   0  0  0  0  0  0  0  0  0  0  0  0
    2.6818   -0.0185   13.4024 C   0  0  0  0  0  0  0  0  0  0  0  0
    2.6901    1.4799   13.7584 C   0  0  0  0  0  0  0  0  0  0  0  0
    1.8732    1.7494   15.0184 C   0  0  0  0  0  0  0  0  0  0  0  0
    2.0626    3.1264   15.4522 N   0  0  0  0  0  0  0  0  0  0  0  0
    2.3922   -1.8850    7.9110 N   0  0  0  0  0  0  0  0  0  0  0  0
    3.9144   -1.4030   10.2640 C   0  0  0  0  0  0  0  0  0  0  0  0
    4.0258   -0.4032    9.8740 O   0  0  0  0  0  0  0  0  0  0  0  0
    2.8317   -2.2961   10.8187 C   0  0  2  0  0  0  0  0  0  0  0  0
    3.2339   -2.9010   11.9824 O   0  0  0  0  0  0  0  0  0  0  0  0
    2.6098   -3.4075    9.7987 C   0  0  0  0  0  0  0  0  0  0  0  0
    1.7753   -3.0541    8.5543 C   0  0  0  0  0  0  0  0  0  0  0  0
  1  2  1  6  0  0  0
  1  3  1  0  0  0  0
  3  4  1  1  0  0  0
  3  5  1  0  0  0  0
  5  6  1  1  0  0  0
  5  7  1  0  0  0  0
  7  8  1  6  0  0  0
  9  7  1  0  0  0  0
  9 10  1  0  0  0  0
  9 11  1  6  0  0  0
 10  1  1  0  0  0  0
 11 12  1  0  0  0  0
 13 14  1  1  0  0  0
 13 15  1  0  0  0  0
 13 22  1  0  0  0  0
 14 32  1  0  0  0  0
 15 16  1  6  0  0  0
 15 17  1  0  0  0  0
 16 23  1  0  0  0  0
 17 18  1  1  0  0  0
 17 19  1  0  0  0  0
 19  2  1  6  0  0  0
 19 20  1  0  0  0  0
 20 21  1  1  0  0  0
 20 22  1  0  0  0  0
 23 24  1  0  0  0  0
 24 25  1  0  0  0  0
 25 26  1  0  0  0  0
 26 27  1  0  0  0  0
 27 28  1  0  0  0  0
 28 29  1  0  0  0  0
 29 30  1  0  0  0  0
 31 37  1  0  0  0  0
 32 33  2  0  0  0  0
 34 32  1  6  0  0  0
 34 35  1  0  0  0  0
 34 36  1  0  0  0  0
 36 37  1  0  0  0  0
M  END
>  <CHROM.1>
-126.03194675,-175.87519052,80.86601474,-171.89593156,-55.44405626,167.57075796
-69.04593639,-35.07084821,-13.37374578,-58.57553485,-71.63718294,171.24092520
46.94366180,-78.15983016,54.90836663,7.66823974,-1.56347828,10.87047495,-0.34515254
0.02815310,0.93028122

>  <Name>
1o9m_lig

>  <RI>
0

>  <Rbt.Current_Directory>
/home/itssahil/PROJECTS/Mol_Feturizer/New_Systems/rnas/1o9m

>  <Rbt.Executable>
rbdock ($Id: //depot/dev/client3/rdock/2013.1/src/exe/rbdock.cxx#4 $)

>  <Rbt.Library>
libRbt.so (2013.1, Build901 2013/11/27)

>  <Rbt.Parameter_File>
/export/apps/rDock/src/rDock_2013.1_src/data/scripts/dock_solv.prm

>  <Rbt.Receptor>
prm/blind_docking_60.prm

>  <SCORE>
-1.08754

>  <SCORE.INTER>
-4.27045

>  <SCORE.INTER.CONST>
1

>  <SCORE.INTER.POLAR>
-1.89833

>  <SCORE.INTER.ROT>
15

>  <SCORE.INTER.SOLV>
11.9692

>  <SCORE.INTER.VDW>
-14.1089

>  <SCORE.INTER.norm>
-0.115417

>  <SCORE.INTRA>
3.10156

>  <SCORE.INTRA.DIHEDRAL>
-8.29748

>  <SCORE.INTRA.DIHEDRAL.0>
21.5987

>  <SCORE.INTRA.POLAR>
0

>  <SCORE.INTRA.POLAR.0>
0

>  <SCORE.INTRA.REPUL>
0

>  <SCORE.INTRA.REPUL.0>
0

>  <SCORE.INTRA.SOLV>
7.21342

>  <SCORE.INTRA.SOLV.lig_0>
-108.715

>  <SCORE.INTRA.VDW>
3.64359

>  <SCORE.INTRA.VDW.0>
-3.9485

>  <SCORE.INTRA.norm>
0.0838259

>  <SCORE.RESTR>
0.0813518

>  <SCORE.RESTR.CAVITY>
0.0813518

>  <SCORE.RESTR.norm>
0.0021987

>  <SCORE.SYSTEM>
0

>  <SCORE.SYSTEM.CONST>
0

>  <SCORE.SYSTEM.DIHEDRAL>
0

>  <SCORE.SYSTEM.SOLV>
0

>  <SCORE.SYSTEM.norm>
0

>  <SCORE.heavy>
37

>  <SCORE.norm>
-0.0293929

>  <RMSD>
24.531

$$$$
1o9m_lig
 OpenBabel11021811403D
libRbt.so/2013.1/901 2013/11/27
 37 38  0  0  0  0  0  0  0  0999 V2000
   11.6600   -2.0786   11.1414 C   0  0  2  0  0  0  0  0  0  0  0  0
   10.5495   -1.7076   10.2689 O   0  0  0  0  0  0  0  0  0  0  0  0
   12.6450   -2.9375   10.2658 C   0  0  2  0  0  0  0  0  0  0  0  0
   13.1329   -2.1975    9.0888 N   0  0  0  0  0  0  0  0  0  0  0  0
   11.9193   -4.2663    9.8282 C   0  0  1  0  0  0  0  0  0  0  0  0
   12.7964   -5.0667    9.0310 O   0  0  0  0  0  0  0  0  0  0  0  0
   11.4492   -5.0116   11.1208 C   0  0  2  0  0  0  0  0  0  0  0  0
   10.7551   -6.2373   10.8365 O   0  0  0  0  0  0  0  0  0  0  0  0
   10.5290   -4.1018   11.9717 C   0  0  2  0  0  0  0  0  0  0  0  0
   11.1827   -2.8634   12.2855 O   0  0  0  0  0  0  0  0  0  0  0  0
   10.1072   -4.7766   13.2513 C   0  0  0  0  0  0  0  0  0  0  0  0
    9.1164   -5.6956   13.0004 N   0  0  0  0  0  0  0  0  0  0  0  0
    7.1847   -1.0982   12.9386 C   0  0  1  0  0  0  0  0  0  0  0  0
    5.8986   -0.5685   13.4724 N   0  0  0  0  0  0  0  0  0  0  0  0
    6.9186   -1.7831   11.6050 C   0  0  2  0  0  0  0  0  0  0  0  0
    5.9710   -2.7862   11.8191 O   0  0  0  0  0  0  0  0  0  0  0  0
    8.2390   -2.3716   11.0151 C   0  0  1  0  0  0  0  0  0  0  0  0
    7.9749   -3.0063    9.7268 O   0  0  0  0  0  0  0  0  0  0  0  0
    9.2900   -1.2071   10.8018 C   0  0  1  0  0  0  0  0  0  0  0  0
    9.5784   -0.5270   12.1315 C   0  0  1  0  0  0  0  0  0  0  0  0
   10.5565    0.5287   11.9156 N   0  0  0  0  0  0  0  0  0  0  0  0
    8.2625    0.0409   12.7275 C   0  0  0  0  0  0  0  0  0  0  0  0
    5.0339   -3.8415   11.5109 C   0  0  0  0  0  0  0  0  0  0  0  0
    3.8114   -3.2444   10.8525 C   0  0  0  0  0  0  0  0  0  0  0  0
    4.0939   -2.5207    9.5958 N   0  0  0  0  0  0  0  0  0  0  0  0
    4.1412   -2.1506    8.1628 C   0  0  0  0  0  0  0  0  0  0  0  0
    4.4693   -0.6641    8.3516 C   0  0  0  0  0  0  0  0  0  0  0  0
    3.2708    0.1352    8.8965 C   0  0  0  0  0  0  0  0  0  0  0  0
    2.1913    0.3008    7.8313 C   0  0  0  0  0  0  0  0  0  0  0  0
    2.6715    1.1655    6.7627 N   0  0  0  0  0  0  0  0  0  0  0  0
    2.2788    2.7418   11.7930 N   0  0  0  0  0  0  0  0  0  0  0  0
    5.1850    0.6302   12.3768 C   0  0  0  0  0  0  0  0  0  0  0  0
    5.4601    1.0488   11.4212 O   0  0  0  0  0  0  0  0  0  0  0  0
    4.0891    0.7621   13.4060 C   0  0  2  0  0  0  0  0  0  0  0  0
    2.9137    0.2186   12.9531 O   0  0  0  0  0  0  0  0  0  0  0  0
    3.8394    2.2540   13.5971 C   0  0  0  0  0  0  0  0  0  0  0  0
    2.4315    2.7739   13.2548 C   0  0  0  0  0  0  0  0  0  0  0  0
  1  2  1  6  0  0  0
  1  3  1  0  0  0  0
  3  4  1  6  0  0  0
  3  5  1  0  0  0  0
  5  6  1  1  0  0  0
  5  7  1  0  0  0  0
  7  8  1  6  0  0  0
  9  7  1  0  0  0  0
  9 10  1  0  0  0  0
  9 11  1  1  0  0  0
 10  1  1  0  0  0  0
 11 12  1  0  0  0  0
 13 14  1  6  0  0  0
 13 15  1  0  0  0  0
 13 22  1  0  0  0  0
 14 32  1  0  0  0  0
 15 16  1  1  0  0  0
 15 17  1  0  0  0  0
 16 23  1  0  0  0  0
 17 18  1  6  0  0  0
 17 19  1  0  0  0  0
 19  2  1  1  0  0  0
 19 20  1  0  0  0  0
 20 21  1  6  0  0  0
 20 22  1  0  0  0  0
 23 24  1  0  0  0  0
 24 25  1  0  0  0  0
 25 26  1  0  0  0  0
 26 27  1  0  0  0  0
 27 28  1  0  0  0  0
 28 29  1  0  0  0  0
 29 30  1  0  0  0  0
 31 37  1  0  0  0  0
 32 33  2  0  0  0  0
 34 32  1  6  0  0  0
 34 35  1  0  0  0  0
 34 36  1  0  0  0  0
 36 37  1  0  0  0  0
M  END
>  <CHROM.1>
164.04613620,-77.21811636,-61.10234323,173.75657349,-71.49761138,-93.07315878
59.66896465,111.97684076,160.62115352,-71.76907112,-71.84708664,-67.75501249
-109.23579616,118.77246943,-71.53720691,7.33855532,-1.64844116,11.09377552
-0.30002171,-0.41633798,0.94046985

>  <Name>
1o9m_lig

>  <RI>
0

>  <Rbt.Current_Directory>
/home/itssahil/PROJECTS/Mol_Feturizer/New_Systems/rnas/1o9m

>  <Rbt.Executable>
rbdock ($Id: //depot/dev/client3/rdock/2013.1/src/exe/rbdock.cxx#4 $)

>  <Rbt.Library>
libRbt.so (2013.1, Build901 2013/11/27)

>  <Rbt.Parameter_File>
/export/apps/rDock/src/rDock_2013.1_src/data/scripts/dock_solv.prm

>  <Rbt.Receptor>
prm/blind_docking_40.prm

>  <SCORE>
-12.98

>  <SCORE.INTER>
-15.4893

>  <SCORE.INTER.CONST>
1

>  <SCORE.INTER.POLAR>
-3.31491

>  <SCORE.INTER.ROT>
15

>  <SCORE.INTER.SOLV>
22.485

>  <SCORE.INTER.VDW>
-20.3715

>  <SCORE.INTER.norm>
-0.418631

>  <SCORE.INTRA>
2.50329

>  <SCORE.INTRA.DIHEDRAL>
-3.86412

>  <SCORE.INTRA.DIHEDRAL.0>
21.5987

>  <SCORE.INTRA.POLAR>
0

>  <SCORE.INTRA.POLAR.0>
0

>  <SCORE.INTRA.REPUL>
0

>  <SCORE.INTRA.REPUL.0>
0

>  <SCORE.INTRA.SOLV>
7.63225

>  <SCORE.INTRA.SOLV.lig_0>
-108.715

>  <SCORE.INTRA.VDW>
0.619223

>  <SCORE.INTRA.VDW.0>
-3.9485

>  <SCORE.INTRA.norm>
0.0676565

>  <SCORE.RESTR>
0.0060298

>  <SCORE.RESTR.CAVITY>
0.0060298

>  <SCORE.RESTR.norm>
0.000162968

>  <SCORE.SYSTEM>
0

>  <SCORE.SYSTEM.CONST>
0

>  <SCORE.SYSTEM.DIHEDRAL>
0

>  <SCORE.SYSTEM.SOLV>
0

>  <SCORE.SYSTEM.norm>
0

>  <SCORE.heavy>
37

>  <SCORE.norm>
-0.350811

>  <RMSD>
24.533

$$$$
1o9m_lig
 OpenBabel11021811403D
libRbt.so/2013.1/901 2013/11/27
 37 38  0  0  0  0  0  0  0  0999 V2000
   10.5286   -2.3564    7.3427 C   0  0  2  0  0  0  0  0  0  0  0  0
    9.6066   -3.1479    8.1523 O   0  0  0  0  0  0  0  0  0  0  0  0
   11.8928   -3.1395    7.3296 C   0  0  2  0  0  0  0  0  0  0  0  0
   11.7496   -4.4979    6.7770 N   0  0  0  0  0  0  0  0  0  0  0  0
   12.4706   -3.1913    8.7950 C   0  0  1  0  0  0  0  0  0  0  0  0
   13.7139   -3.8981    8.8093 O   0  0  0  0  0  0  0  0  0  0  0  0
   12.6193   -1.7220    9.3110 C   0  0  2  0  0  0  0  0  0  0  0  0
   13.1259   -1.6511   10.6538 O   0  0  0  0  0  0  0  0  0  0  0  0
   11.2605   -0.9815    9.2494 C   0  0  2  0  0  0  0  0  0  0  0  0
   10.7156   -1.0216    7.9225 O   0  0  0  0  0  0  0  0  0  0  0  0
   11.3879    0.4543    9.6886 C   0  0  0  0  0  0  0  0  0  0  0  0
   11.3692    0.5358   11.0606 N   0  0  0  0  0  0  0  0  0  0  0  0
    6.2810   -2.2018   10.7726 C   0  0  1  0  0  0  0  0  0  0  0  0
    5.5096   -1.5930   11.8924 N   0  0  0  0  0  0  0  0  0  0  0  0
    6.8304   -1.0882    9.8914 C   0  0  2  0  0  0  0  0  0  0  0  0
    5.7517   -0.3206    9.4471 O   0  0  0  0  0  0  0  0  0  0  0  0
    7.6329   -1.6814    8.6907 C   0  0  1  0  0  0  0  0  0  0  0  0
    8.1726   -0.6041    7.8657 O   0  0  0  0  0  0  0  0  0  0  0  0
    8.8351   -2.5550    9.2359 C   0  0  1  0  0  0  0  0  0  0  0  0
    8.2972   -3.6830   10.1030 C   0  0  1  0  0  0  0  0  0  0  0  0
    9.4161   -4.4814   10.5809 N   0  0  0  0  0  0  0  0  0  0  0  0
    7.4828   -3.0940   11.2859 C   0  0  0  0  0  0  0  0  0  0  0  0
    5.0412    0.7363    8.7654 C   0  0  0  0  0  0  0  0  0  0  0  0
    3.5622    0.4247    8.7701 C   0  0  0  0  0  0  0  0  0  0  0  0
    3.2177   -0.8829    8.1746 N   0  0  0  0  0  0  0  0  0  0  0  0
    2.7278   -2.2702    8.0080 C   0  0  0  0  0  0  0  0  0  0  0  0
    1.4375   -2.1254    8.8247 C   0  0  0  0  0  0  0  0  0  0  0  0
    0.6373   -3.4397    8.8929 C   0  0  0  0  0  0  0  0  0  0  0  0
    0.0347   -3.7867    7.5350 C   0  0  0  0  0  0  0  0  0  0  0  0
   -0.8636   -4.9255    7.6628 N   0  0  0  0  0  0  0  0  0  0  0  0
    2.4555    0.0686   15.4680 N   0  0  0  0  0  0  0  0  0  0  0  0
    3.9792   -2.4470   12.1668 C   0  0  0  0  0  0  0  0  0  0  0  0
    3.4920   -3.3005   11.7216 O   0  0  0  0  0  0  0  0  0  0  0  0
    3.7262   -1.4261   13.2491 C   0  0  2  0  0  0  0  0  0  0  0  0
    4.6251   -1.5580   14.2770 O   0  0  0  0  0  0  0  0  0  0  0  0
    2.3483   -1.7279   13.8279 C   0  0  0  0  0  0  0  0  0  0  0  0
    1.5842   -0.5492   14.4578 C   0  0  0  0  0  0  0  0  0  0  0  0
  1  2  1  1  0  0  0
  1  3  1  0  0  0  0
  3  4  1  1  0  0  0
  3  5  1  0  0  0  0
  5  6  1  6  0  0  0
  5  7  1  0  0  0  0
  7  8  1  1  0  0  0
  9  7  1  0  0  0  0
  9 10  1  0  0  0  0
  9 11  1  6  0  0  0
 10  1  1  0  0  0  0
 11 12  1  0  0  0  0
 13 14  1  1  0  0  0
 13 15  1  0  0  0  0
 13 22  1  0  0  0  0
 14 32  1  0  0  0  0
 15 16  1  6  0  0  0
 15 17  1  0  0  0  0
 16 23  1  0  0  0  0
 17 18  1  6  0  0  0
 17 19  1  0  0  0  0
 19  2  1  6  0  0  0
 19 20  1  0  0  0  0
 20 21  1  1  0  0  0
 20 22  1  0  0  0  0
 23 24  1  0  0  0  0
 24 25  1  0  0  0  0
 25 26  1  0  0  0  0
 26 27  1  0  0  0  0
 27 28  1  0  0  0  0
 28 29  1  0  0  0  0
 29 30  1  0  0  0  0
 31 37  1  0  0  0  0
 32 33  2  0  0  0  0
 34 32  1  6  0  0  0
 34 35  1  0  0  0  0
 34 36  1  0  0  0  0
 36 37  1  0  0  0  0
M  END
>  <CHROM.1>
129.57538662,-81.59682873,136.10640597,178.51358141,168.52923034,74.90249261
-56.35566808,116.94240365,42.17747334,-179.14406551,-69.66739827,-172.21665344
-66.02697989,-153.43826811,-54.08584631,6.84603771,-1.96898631,9.90900909
0.19872519,-0.05275453,-1.92898244

>  <Name>
1o9m_lig

>  <RI>
0

>  <Rbt.Current_Directory>
/home/itssahil/PROJECTS/Mol_Feturizer/New_Systems/rnas/1o9m

>  <Rbt.Executable>
rbdock ($Id: //depot/dev/client3/rdock/2013.1/src/exe/rbdock.cxx#4 $)

>  <Rbt.Library>
libRbt.so (2013.1, Build901 2013/11/27)

>  <Rbt.Parameter_File>
/export/apps/rDock/src/rDock_2013.1_src/data/scripts/dock_solv.prm

>  <Rbt.Receptor>
prm/blind_docking_20.prm

>  <SCORE>
-11.1538

>  <SCORE.INTER>
-10.015

>  <SCORE.INTER.CONST>
1

>  <SCORE.INTER.POLAR>
-1.91423

>  <SCORE.INTER.ROT>
15

>  <SCORE.INTER.SOLV>
17.1096

>  <SCORE.INTER.VDW>
-19.5991

>  <SCORE.INTER.norm>
-0.270674

>  <SCORE.INTRA>
-1.13889

>  <SCORE.INTRA.DIHEDRAL>
-5.5188

>  <SCORE.INTRA.DIHEDRAL.0>
21.5987

>  <SCORE.INTRA.POLAR>
0

>  <SCORE.INTRA.POLAR.0>
0

>  <SCORE.INTRA.REPUL>
0

>  <SCORE.INTRA.REPUL.0>
0

>  <SCORE.INTRA.SOLV>
3.15538

>  <SCORE.INTRA.SOLV.lig_0>
-108.715

>  <SCORE.INTRA.VDW>
0.0428203

>  <SCORE.INTRA.VDW.0>
-3.9485

>  <SCORE.INTRA.norm>
-0.0307808

>  <SCORE.RESTR>
0

>  <SCORE.RESTR.CAVITY>
0

>  <SCORE.RESTR.norm>
0

>  <SCORE.SYSTEM>
0

>  <SCORE.SYSTEM.CONST>
0

>  <SCORE.SYSTEM.DIHEDRAL>
0

>  <SCORE.SYSTEM.SOLV>
0

>  <SCORE.SYSTEM.norm>
0

>  <SCORE.heavy>
37

>  <SCORE.norm>
-0.301455

>  <RMSD>
24.548

$$$$
1o9m_lig
 OpenBabel11021811403D
libRbt.so/2013.1/901 2013/11/27
 37 38  0  0  0  0  0  0  0  0999 V2000
    2.2407    0.9295   12.1672 C   0  0  2  0  0  0  0  0  0  0  0  0
    3.7008    0.9442   12.1835 O   0  0  0  0  0  0  0  0  0  0  0  0
    1.7750    2.2238   12.9303 C   0  0  2  0  0  0  0  0  0  0  0  0
    2.2900    3.4544   12.3047 N   0  0  0  0  0  0  0  0  0  0  0  0
    2.2350    2.1280   14.4347 C   0  0  1  0  0  0  0  0  0  0  0  0
    1.8211    3.2944   15.1513 O   0  0  0  0  0  0  0  0  0  0  0  0
    1.6371    0.8166   15.0431 C   0  0  2  0  0  0  0  0  0  0  0  0
    2.0102    0.6186   16.4166 O   0  0  0  0  0  0  0  0  0  0  0  0
    2.0813   -0.4186   14.2212 C   0  0  2  0  0  0  0  0  0  0  0  0
    1.7252   -0.2686   12.8392 O   0  0  0  0  0  0  0  0  0  0  0  0
    1.4729   -1.6902   14.7536 C   0  0  0  0  0  0  0  0  0  0  0  0
    1.7084   -2.7300   13.8860 N   0  0  0  0  0  0  0  0  0  0  0  0
    7.0043   -1.3846   10.6074 C   0  0  1  0  0  0  0  0  0  0  0  0
    7.7942   -2.5603   10.1456 N   0  0  0  0  0  0  0  0  0  0  0  0
    5.7438   -1.2755    9.7601 C   0  0  2  0  0  0  0  0  0  0  0  0
    6.1330   -1.1707    8.4231 O   0  0  0  0  0  0  0  0  0  0  0  0
    4.8914   -0.0427   10.1974 C   0  0  1  0  0  0  0  0  0  0  0  0
    3.6755    0.0385    9.3928 O   0  0  0  0  0  0  0  0  0  0  0  0
    4.4841   -0.1926   11.7198 C   0  0  1  0  0  0  0  0  0  0  0  0
    5.7361   -0.2835   12.5789 C   0  0  1  0  0  0  0  0  0  0  0  0
    5.3396   -0.4055   13.9737 N   0  0  0  0  0  0  0  0  0  0  0  0
    6.5934   -1.4976   12.1312 C   0  0  0  0  0  0  0  0  0  0  0  0
    6.9548   -1.3176    7.2442 C   0  0  0  0  0  0  0  0  0  0  0  0
    7.4053   -2.7557    7.1281 C   0  0  0  0  0  0  0  0  0  0  0  0
    8.8709   -2.9363    7.1768 N   0  0  0  0  0  0  0  0  0  0  0  0
   10.2116   -3.5553    7.2852 C   0  0  0  0  0  0  0  0  0  0  0  0
   11.0032   -2.2699    7.5575 C   0  0  0  0  0  0  0  0  0  0  0  0
   10.7271   -1.6987    8.9610 C   0  0  0  0  0  0  0  0  0  0  0  0
   11.5377   -0.4299    9.2067 C   0  0  0  0  0  0  0  0  0  0  0  0
   12.9604   -0.7400    9.2206 N   0  0  0  0  0  0  0  0  0  0  0  0
   10.4330   -4.9546   13.1177 N   0  0  0  0  0  0  0  0  0  0  0  0
    7.0411   -4.0863   10.6465 C   0  0  0  0  0  0  0  0  0  0  0  0
    6.1492   -4.3533   11.1917 O   0  0  0  0  0  0  0  0  0  0  0  0
    8.2156   -4.7614    9.9813 C   0  0  2  0  0  0  0  0  0  0  0  0
    7.9855   -6.1027    9.8085 O   0  0  0  0  0  0  0  0  0  0  0  0
    9.3966   -4.6369   10.9375 C   0  0  0  0  0  0  0  0  0  0  0  0
    9.2427   -5.2900   12.3230 C   0  0  0  0  0  0  0  0  0  0  0  0
  1  2  1  1  0  0  0
  1  3  1  0  0  0  0
  3  4  1  6  0  0  0
  3  5  1  0  0  0  0
  5  6  1  1  0  0  0
  5  7  1  0  0  0  0
  7  8  1  1  0  0  0
  9  7  1  0  0  0  0
  9 10  1  0  0  0  0
  9 11  1  1  0  0  0
 10  1  1  0  0  0  0
 11 12  1  0  0  0  0
 13 14  1  6  0  0  0
 13 15  1  0  0  0  0
 13 22  1  0  0  0  0
 14 32  1  0  0  0  0
 15 16  1  6  0  0  0
 15 17  1  0  0  0  0
 16 23  1  0  0  0  0
 17 18  1  6  0  0  0
 17 19  1  0  0  0  0
 19  2  1  1  0  0  0
 19 20  1  0  0  0  0
 20 21  1  1  0  0  0
 20 22  1  0  0  0  0
 23 24  1  0  0  0  0
 24 25  1  0  0  0  0
 25 26  1  0  0  0  0
 26 27  1  0  0  0  0
 27 28  1  0  0  0  0
 28 29  1  0  0  0  0
 29 30  1  0  0  0  0
 31 37  1  0  0  0  0
 32 33  2  0  0  0  0
 34 32  1  1  0  0  0
 34 35  1  0  0  0  0
 34 36  1  0  0  0  0
 36 37  1  0  0  0  0
M  END
>  <CHROM.1>
171.82577797,170.38661132,-73.44303734,25.47839739,49.57981921,93.80269395
-118.81124337,166.47286015,-163.32416753,70.90938114,179.45728970,-65.09273387
-165.99995929,60.84660457,-175.15230592,5.93061352,-1.33347816,11.27508205
-3.11379978,-0.69759704,2.48426515

>  <Name>
1o9m_lig

>  <RI>
0

>  <Rbt.Current_Directory>
/home/itssahil/PROJECTS/Mol_Feturizer/New_Systems/rnas/1o9m

>  <Rbt.Executable>
rbdock ($Id: //depot/dev/client3/rdock/2013.1/src/exe/rbdock.cxx#4 $)

>  <Rbt.Library>
libRbt.so (2013.1, Build901 2013/11/27)

>  <Rbt.Parameter_File>
/export/apps/rDock/src/rDock_2013.1_src/data/scripts/dock_solv.prm

>  <Rbt.Receptor>
prm/blind_docking_60.prm

>  <SCORE>
-6.85794

>  <SCORE.INTER>
-5.83528

>  <SCORE.INTER.CONST>
1

>  <SCORE.INTER.POLAR>
-1.48417

>  <SCORE.INTER.ROT>
15

>  <SCORE.INTER.SOLV>
22.7585

>  <SCORE.INTER.VDW>
-20.1291

>  <SCORE.INTER.norm>
-0.15771

>  <SCORE.INTRA>
-1.09733

>  <SCORE.INTRA.DIHEDRAL>
-3.87217

>  <SCORE.INTRA.DIHEDRAL.0>
21.5987

>  <SCORE.INTRA.POLAR>
0

>  <SCORE.INTRA.POLAR.0>
0

>  <SCORE.INTRA.REPUL>
0

>  <SCORE.INTRA.REPUL.0>
0

>  <SCORE.INTRA.SOLV>
4.40476

>  <SCORE.INTRA.SOLV.lig_0>
-108.715

>  <SCORE.INTRA.VDW>
-1.36363

>  <SCORE.INTRA.VDW.0>
-3.9485

>  <SCORE.INTRA.norm>
-0.0296575

>  <SCORE.RESTR>
0.0746667

>  <SCORE.RESTR.CAVITY>
0.0746667

>  <SCORE.RESTR.norm>
0.00201802

>  <SCORE.SYSTEM>
0

>  <SCORE.SYSTEM.CONST>
0

>  <SCORE.SYSTEM.DIHEDRAL>
0

>  <SCORE.SYSTEM.SOLV>
0

>  <SCORE.SYSTEM.norm>
0

>  <SCORE.heavy>
37

>  <SCORE.norm>
-0.18535

>  <RMSD>
24.578

$$$$
1o9m_lig
 OpenBabel11021811403D
libRbt.so/2013.1/901 2013/11/27
 37 38  0  0  0  0  0  0  0  0999 V2000
    9.8680   -4.4892   10.8676 C   0  0  2  0  0  0  0  0  0  0  0  0
    8.8397   -3.6014   10.3322 O   0  0  0  0  0  0  0  0  0  0  0  0
   10.5060   -3.7405   12.0952 C   0  0  2  0  0  0  0  0  0  0  0  0
    9.5080   -3.4167   13.1297 N   0  0  0  0  0  0  0  0  0  0  0  0
   11.2244   -2.4340   11.5845 C   0  0  1  0  0  0  0  0  0  0  0  0
   11.8150   -1.7353   12.6838 O   0  0  0  0  0  0  0  0  0  0  0  0
   12.2829   -2.8498   10.5102 C   0  0  2  0  0  0  0  0  0  0  0  0
   12.9906   -1.7263    9.9607 O   0  0  0  0  0  0  0  0  0  0  0  0
   11.6102   -3.6309    9.3545 C   0  0  2  0  0  0  0  0  0  0  0  0
   10.8927   -4.7683    9.8553 O   0  0  0  0  0  0  0  0  0  0  0  0
   12.6176   -4.0921    8.3331 C   0  0  0  0  0  0  0  0  0  0  0  0
   13.0241   -3.0347    7.5546 N   0  0  0  0  0  0  0  0  0  0  0  0
    4.6492   -2.8055   11.1240 C   0  0  1  0  0  0  0  0  0  0  0  0
    3.3912   -2.5469   11.8790 N   0  0  0  0  0  0  0  0  0  0  0  0
    5.6552   -1.7115   11.4552 C   0  0  2  0  0  0  0  0  0  0  0  0
    5.0758   -0.4830   11.1309 O   0  0  0  0  0  0  0  0  0  0  0  0
    6.9866   -1.9317   10.6701 C   0  0  1  0  0  0  0  0  0  0  0  0
    7.9503   -0.8893   11.0124 O   0  0  0  0  0  0  0  0  0  0  0  0
    7.6023   -3.3386   11.0538 C   0  0  1  0  0  0  0  0  0  0  0  0
    6.6133   -4.4420   10.7098 C   0  0  1  0  0  0  0  0  0  0  0  0
    7.2043   -5.7259   11.0561 N   0  0  0  0  0  0  0  0  0  0  0  0
    5.2827   -4.2123   11.4752 C   0  0  0  0  0  0  0  0  0  0  0  0
    4.9924    0.9090   10.7539 C   0  0  0  0  0  0  0  0  0  0  0  0
    5.1013    1.0245    9.2508 C   0  0  0  0  0  0  0  0  0  0  0  0
    3.9219    0.5190    8.5184 N   0  0  0  0  0  0  0  0  0  0  0  0
    3.0678   -0.2233    7.5634 C   0  0  0  0  0  0  0  0  0  0  0  0
    3.5993   -1.6289    7.8716 C   0  0  0  0  0  0  0  0  0  0  0  0
    2.9005   -2.7157    7.0332 C   0  0  0  0  0  0  0  0  0  0  0  0
    3.2968   -2.6148    5.5635 C   0  0  0  0  0  0  0  0  0  0  0  0
    4.6651   -3.0783    5.3814 N   0  0  0  0  0  0  0  0  0  0  0  0
    2.9080    0.8205   14.9105 N   0  0  0  0  0  0  0  0  0  0  0  0
    3.7223   -1.8270   13.4660 C   0  0  0  0  0  0  0  0  0  0  0  0
    4.6128   -1.5281   13.9968 O   0  0  0  0  0  0  0  0  0  0  0  0
    2.2284   -1.8654   13.6770 C   0  0  2  0  0  0  0  0  0  0  0  0
    1.5881   -0.9662   12.8624 O   0  0  0  0  0  0  0  0  0  0  0  0
    1.9730   -1.4186   15.1122 C   0  0  0  0  0  0  0  0  0  0  0  0
    1.7114    0.0815   15.3384 C   0  0  0  0  0  0  0  0  0  0  0  0
  1  2  1  6  0  0  0
  1  3  1  0  0  0  0
  3  4  1  1  0  0  0
  3  5  1  0  0  0  0
  5  6  1  1  0  0  0
  5  7  1  0  0  0  0
  7  8  1  6  0  0  0
  9  7  1  0  0  0  0
  9 10  1  0  0  0  0
  9 11  1  6  0  0  0
 10  1  1  0  0  0  0
 11 12  1  0  0  0  0
 13 14  1  1  0  0  0
 13 15  1  0  0  0  0
 13 22  1  0  0  0  0
 14 32  1  0  0  0  0
 15 16  1  6  0  0  0
 15 17  1  0  0  0  0
 16 23  1  0  0  0  0
 17 18  1  1  0  0  0
 17 19  1  0  0  0  0
 19  2  1  6  0  0  0
 19 20  1  0  0  0  0
 20 21  1  1  0  0  0
 20 22  1  0  0  0  0
 23 24  1  0  0  0  0
 24 25  1  0  0  0  0
 25 26  1  0  0  0  0
 26 27  1  0  0  0  0
 27 28  1  0  0  0  0
 28 29  1  0  0  0  0
 29 30  1  0  0  0  0
 31 37  1  0  0  0  0
 32 33  2  0  0  0  0
 34 32  1  6  0  0  0
 34 35  1  0  0  0  0
 34 36  1  0  0  0  0
 36 37  1  0  0  0  0
M  END
>  <CHROM.1>
-70.18680597,-75.25550895,-34.26795730,-154.54954139,83.54133546,153.71792413
70.40431328,-127.85924785,52.27144620,179.53354895,69.59044328,72.92555658
-69.40896087,92.20447404,-61.65933330,6.66568509,-2.19604090,10.78934787
-0.22972536,-0.24670707,1.47101269

>  <Name>
1o9m_lig

>  <RI>
0

>  <Rbt.Current_Directory>
/home/itssahil/PROJECTS/Mol_Feturizer/New_Systems/rnas/1o9m

>  <Rbt.Executable>
rbdock ($Id: //depot/dev/client3/rdock/2013.1/src/exe/rbdock.cxx#4 $)

>  <Rbt.Library>
libRbt.so (2013.1, Build901 2013/11/27)

>  <Rbt.Parameter_File>
/export/apps/rDock/src/rDock_2013.1_src/data/scripts/dock_solv.prm

>  <Rbt.Receptor>
prm/blind_docking_40.prm

>  <SCORE>
-7.69753

>  <SCORE.INTER>
-10.7262

>  <SCORE.INTER.CONST>
1

>  <SCORE.INTER.POLAR>
-1.53575

>  <SCORE.INTER.ROT>
15

>  <SCORE.INTER.SOLV>
14.9772

>  <SCORE.INTER.VDW>
-20.6241

>  <SCORE.INTER.norm>
-0.289898

>  <SCORE.INTRA>
2.96707

>  <SCORE.INTRA.DIHEDRAL>
-5.49758

>  <SCORE.INTRA.DIHEDRAL.0>
21.5987

>  <SCORE.INTRA.POLAR>
0

>  <SCORE.INTRA.POLAR.0>
0

>  <SCORE.INTRA.REPUL>
0

>  <SCORE.INTRA.REPUL.0>
0

>  <SCORE.INTRA.SOLV>
9.13103

>  <SCORE.INTRA.SOLV.lig_0>
-108.715

>  <SCORE.INTRA.VDW>
1.15034

>  <SCORE.INTRA.VDW.0>
-3.9485

>  <SCORE.INTRA.norm>
0.0801911

>  <SCORE.RESTR>
0.0616396

>  <SCORE.RESTR.CAVITY>
0.0616396

>  <SCORE.RESTR.norm>
0.00166593

>  <SCORE.SYSTEM>
0

>  <SCORE.SYSTEM.CONST>
0

>  <SCORE.SYSTEM.DIHEDRAL>
0

>  <SCORE.SYSTEM.SOLV>
0

>  <SCORE.SYSTEM.norm>
0

>  <SCORE.heavy>
37

>  <SCORE.norm>
-0.208041

>  <RMSD>
24.587

$$$$
1o9m_lig
 OpenBabel11021811403D
libRbt.so/2013.1/901 2013/11/27
 37 38  0  0  0  0  0  0  0  0999 V2000
    9.8136   -3.1967    9.1767 C   0  0  2  0  0  0  0  0  0  0  0  0
    9.2549   -3.9113    8.0324 O   0  0  0  0  0  0  0  0  0  0  0  0
   11.3735   -3.3841    9.0988 C   0  0  2  0  0  0  0  0  0  0  0  0
   11.9340   -2.8668    7.8382 N   0  0  0  0  0  0  0  0  0  0  0  0
   11.7180   -4.9116    9.2773 C   0  0  1  0  0  0  0  0  0  0  0  0
   13.1331   -5.1080    9.2119 O   0  0  0  0  0  0  0  0  0  0  0  0
   11.1167   -5.3893   10.6403 C   0  0  2  0  0  0  0  0  0  0  0  0
   11.3586   -6.7820   10.8989 O   0  0  0  0  0  0  0  0  0  0  0  0
    9.5905   -5.1302   10.6846 C   0  0  2  0  0  0  0  0  0  0  0  0
    9.2989   -3.7474   10.4355 O   0  0  0  0  0  0  0  0  0  0  0  0
    8.9956   -5.5303   12.0099 C   0  0  0  0  0  0  0  0  0  0  0  0
    9.5461   -4.7829   13.0237 N   0  0  0  0  0  0  0  0  0  0  0  0
    5.6005   -1.7428    7.1583 C   0  0  1  0  0  0  0  0  0  0  0  0
    4.2533   -1.4361    6.6011 N   0  0  0  0  0  0  0  0  0  0  0  0
    5.4985   -2.9818    8.0375 C   0  0  2  0  0  0  0  0  0  0  0  0
    4.5507   -2.7266    9.0308 O   0  0  0  0  0  0  0  0  0  0  0  0
    6.8872   -3.3312    8.6598 C   0  0  1  0  0  0  0  0  0  0  0  0
    6.7811   -4.5329    9.4827 O   0  0  0  0  0  0  0  0  0  0  0  0
    7.9346   -3.5982    7.5033 C   0  0  1  0  0  0  0  0  0  0  0  0
    8.0594   -2.3599    6.6287 C   0  0  1  0  0  0  0  0  0  0  0  0
    9.0367   -2.6213    5.5827 N   0  0  0  0  0  0  0  0  0  0  0  0
    6.6749   -2.0010    6.0257 C   0  0  0  0  0  0  0  0  0  0  0  0
    3.9048   -2.0568   10.1357 C   0  0  0  0  0  0  0  0  0  0  0  0
    4.7963   -2.1343   11.3539 C   0  0  0  0  0  0  0  0  0  0  0  0
    4.1049   -1.8508   12.6284 N   0  0  0  0  0  0  0  0  0  0  0  0
    3.8105   -1.3531   13.9915 C   0  0  0  0  0  0  0  0  0  0  0  0
    2.2919   -1.5667   13.9581 C   0  0  0  0  0  0  0  0  0  0  0  0
    1.6050   -1.0885   15.2510 C   0  0  0  0  0  0  0  0  0  0  0  0
    1.7211    0.4246   15.4073 C   0  0  0  0  0  0  0  0  0  0  0  0
    0.9962    1.0950   14.3371 N   0  0  0  0  0  0  0  0  0  0  0  0
   -0.8726   -4.1083    5.9622 N   0  0  0  0  0  0  0  0  0  0  0  0
    3.4336   -2.9048    6.0375 C   0  0  0  0  0  0  0  0  0  0  0  0
    3.6799   -3.9550    6.0164 O   0  0  0  0  0  0  0  0  0  0  0  0
    2.3094   -1.9890    5.6188 C   0  0  2  0  0  0  0  0  0  0  0  0
    1.9203   -1.1749    6.6522 O   0  0  0  0  0  0  0  0  0  0  0  0
    1.1163   -2.8777    5.2852 C   0  0  0  0  0  0  0  0  0  0  0  0
    0.3776   -3.5253    6.4704 C   0  0  0  0  0  0  0  0  0  0  0  0
  1  2  1  6  0  0  0
  1  3  1  0  0  0  0
  3  4  1  6  0  0  0
  3  5  1  0  0  0  0
  5  6  1  1  0  0  0
  5  7  1  0  0  0  0
  7  8  1  6  0  0  0
  9  7  1  0  0  0  0
  9 10  1  0  0  0  0
  9 11  1  1  0  0  0
 10  1  1  0  0  0  0
 11 12  1  0  0  0  0
 13 14  1  6  0  0  0
 13 15  1  0  0  0  0
 13 22  1  0  0  0  0
 14 32  1  0  0  0  0
 15 16  1  1  0  0  0
 15 17  1  0  0  0  0
 16 23  1  0  0  0  0
 17 18  1  1  0  0  0
 17 19  1  0  0  0  0
 19  2  1  1  0  0  0
 19 20  1  0  0  0  0
 20 21  1  6  0  0  0
 20 22  1  0  0  0  0
 23 24  1  0  0  0  0
 24 25  1  0  0  0  0
 25 26  1  0  0  0  0
 26 27  1  0  0  0  0
 27 28  1  0  0  0  0
 28 29  1  0  0  0  0
 29 30  1  0  0  0  0
 31 37  1  0  0  0  0
 32 33  2  0  0  0  0
 34 32  1  1  0  0  0
 34 35  1  0  0  0  0
 34 36  1  0  0  0  0
 36 37  1  0  0  0  0
M  END
>  <CHROM.1>
-158.31806187,61.89452048,-43.43771765,-56.03838020,-65.22100431,-40.88842629
-162.87776841,-141.04133422,165.02831853,-177.77406955,65.89041191,64.61794131
-51.85961089,73.49405335,168.97214107,6.15991158,-3.02458554,9.31519943,-0.08188597
-0.29742007,1.44158435

>  <Name>
1o9m_lig

>  <RI>
0

>  <Rbt.Current_Directory>
/home/itssahil/PROJECTS/Mol_Feturizer/New_Systems/rnas/1o9m

>  <Rbt.Executable>
rbdock ($Id: //depot/dev/client3/rdock/2013.1/src/exe/rbdock.cxx#4 $)

>  <Rbt.Library>
libRbt.so (2013.1, Build901 2013/11/27)

>  <Rbt.Parameter_File>
/export/apps/rDock/src/rDock_2013.1_src/data/scripts/dock_solv.prm

>  <Rbt.Receptor>
prm/blind_docking_40.prm

>  <SCORE>
-10.0504

>  <SCORE.INTER>
-7.83897

>  <SCORE.INTER.CONST>
1

>  <SCORE.INTER.POLAR>
0

>  <SCORE.INTER.ROT>
15

>  <SCORE.INTER.SOLV>
11.9947

>  <SCORE.INTER.VDW>
-22.8242

>  <SCORE.INTER.norm>
-0.211864

>  <SCORE.INTRA>
-2.23437

>  <SCORE.INTRA.DIHEDRAL>
-13.0464

>  <SCORE.INTRA.DIHEDRAL.0>
21.5987

>  <SCORE.INTRA.POLAR>
0

>  <SCORE.INTRA.POLAR.0>
0

>  <SCORE.INTRA.REPUL>
0

>  <SCORE.INTRA.REPUL.0>
0

>  <SCORE.INTRA.SOLV>
3.85973

>  <SCORE.INTRA.SOLV.lig_0>
-108.715

>  <SCORE.INTRA.VDW>
2.35899

>  <SCORE.INTRA.VDW.0>
-3.9485

>  <SCORE.INTRA.norm>
-0.0603883

>  <SCORE.RESTR>
0.0229453

>  <SCORE.RESTR.CAVITY>
0.0229453

>  <SCORE.RESTR.norm>
0.000620143

>  <SCORE.SYSTEM>
0

>  <SCORE.SYSTEM.CONST>
0

>  <SCORE.SYSTEM.DIHEDRAL>
0

>  <SCORE.SYSTEM.SOLV>
0

>  <SCORE.SYSTEM.norm>
0

>  <SCORE.heavy>
37

>  <SCORE.norm>
-0.271632

>  <RMSD>
24.593

$$$$
1o9m_lig
 OpenBabel11021811403D
libRbt.so/2013.1/901 2013/11/27
 37 38  0  0  0  0  0  0  0  0999 V2000
    9.6473   -4.2220   11.5674 C   0  0  2  0  0  0  0  0  0  0  0  0
    8.9032   -3.1325   10.9416 O   0  0  0  0  0  0  0  0  0  0  0  0
   10.5976   -3.5576   12.6304 C   0  0  2  0  0  0  0  0  0  0  0  0
    9.8507   -2.7894   13.6418 N   0  0  0  0  0  0  0  0  0  0  0  0
   11.6380   -2.6368   11.8864 C   0  0  1  0  0  0  0  0  0  0  0  0
   12.5161   -2.0216   12.8329 O   0  0  0  0  0  0  0  0  0  0  0  0
   12.4098   -3.5161   10.8479 C   0  0  2  0  0  0  0  0  0  0  0  0
   13.3792   -2.7685   10.0954 O   0  0  0  0  0  0  0  0  0  0  0  0
   11.4231   -4.1897    9.8624 C   0  0  2  0  0  0  0  0  0  0  0  0
   10.4355   -4.9539   10.5695 O   0  0  0  0  0  0  0  0  0  0  0  0
   12.1373   -5.0877    8.8856 C   0  0  0  0  0  0  0  0  0  0  0  0
   12.9517   -4.3452    8.0642 N   0  0  0  0  0  0  0  0  0  0  0  0
    5.4228   -2.4312    8.4485 C   0  0  1  0  0  0  0  0  0  0  0  0
    4.2512   -2.7055    7.5701 N   0  0  0  0  0  0  0  0  0  0  0  0
    5.2108   -3.1314    9.7839 C   0  0  2  0  0  0  0  0  0  0  0  0
    4.0109   -2.6668   10.3266 O   0  0  0  0  0  0  0  0  0  0  0  0
    6.4089   -2.8560   10.7464 C   0  0  1  0  0  0  0  0  0  0  0  0
    6.2045   -3.5500   12.0148 O   0  0  0  0  0  0  0  0  0  0  0  0
    7.7492   -3.3828   10.0892 C   0  0  1  0  0  0  0  0  0  0  0  0
    7.9819   -2.6763    8.7624 C   0  0  1  0  0  0  0  0  0  0  0  0
    9.2248   -3.1637    8.1833 N   0  0  0  0  0  0  0  0  0  0  0  0
    6.7817   -2.9339    7.8124 C   0  0  0  0  0  0  0  0  0  0  0  0
    2.5968   -2.3904   10.4286 C   0  0  0  0  0  0  0  0  0  0  0  0
    2.2213   -1.3372    9.4116 C   0  0  0  0  0  0  0  0  0  0  0  0
    2.6350    0.0328    9.7787 N   0  0  0  0  0  0  0  0  0  0  0  0
    3.0339    1.2206   10.5677 C   0  0  0  0  0  0  0  0  0  0  0  0
    4.3069    0.6301   11.1872 C   0  0  0  0  0  0  0  0  0  0  0  0
    4.8534    1.4953   12.3383 C   0  0  0  0  0  0  0  0  0  0  0  0
    5.9083    0.7394   13.1403 C   0  0  0  0  0  0  0  0  0  0  0  0
    5.2878   -0.3496   13.8815 N   0  0  0  0  0  0  0  0  0  0  0  0
    2.9922   -1.0054    2.1711 N   0  0  0  0  0  0  0  0  0  0  0  0
    4.6178   -2.3560    5.8701 C   0  0  0  0  0  0  0  0  0  0  0  0
    5.4861   -2.0058    5.3339 O   0  0  0  0  0  0  0  0  0  0  0  0
    3.1893   -2.7544    5.5904 C   0  0  2  0  0  0  0  0  0  0  0  0
    3.1078   -4.0638    5.1895 O   0  0  0  0  0  0  0  0  0  0  0  0
    2.7151   -1.9043    4.4169 C   0  0  0  0  0  0  0  0  0  0  0  0
    3.5405   -1.9853    3.1200 C   0  0  0  0  0  0  0  0  0  0  0  0
  1  2  1  6  0  0  0
  1  3  1  0  0  0  0
  3  4  1  1  0  0  0
  3  5  1  0  0  0  0
  5  6  1  1  0  0  0
  5  7  1  0  0  0  0
  7  8  1  6  0  0  0
  9  7  1  0  0  0  0
  9 10  1  0  0  0  0
  9 11  1  6  0  0  0
 10  1  1  0  0  0  0
 11 12  1  0  0  0  0
 13 14  1  6  0  0  0
 13 15  1  0  0  0  0
 13 22  1  0  0  0  0
 14 32  1  0  0  0  0
 15 16  1  1  0  0  0
 15 17  1  0  0  0  0
 16 23  1  0  0  0  0
 17 18  1  1  0  0  0
 17 19  1  0  0  0  0
 19  2  1  1  0  0  0
 19 20  1  0  0  0  0
 20 21  1  6  0  0  0
 20 22  1  0  0  0  0
 23 24  1  0  0  0  0
 24 25  1  0  0  0  0
 25 26  1  0  0  0  0
 26 27  1  0  0  0  0
 27 28  1  0  0  0  0
 28 29  1  0  0  0  0
 29 30  1  0  0  0  0
 31 37  1  0  0  0  0
 32 33  2  0  0  0  0
 34 32  1  6  0  0  0
 34 35  1  0  0  0  0
 34 36  1  0  0  0  0
 36 37  1  0  0  0  0
M  END
>  <CHROM.1>
-168.12761166,-65.58802686,-162.86834295,59.17714988,-68.91045029,112.85510304
-75.62993152,-23.91685560,60.93021950,-167.40116280,166.77859446,-68.97065331
-96.49510441,56.69776508,-174.78851634,6.92065693,-2.40424319,9.41360976
0.42071138,-0.35605409,1.27043780

>  <Name>
1o9m_lig

>  <RI>
0

>  <Rbt.Current_Directory>
/home/itssahil/PROJECTS/Mol_Feturizer/New_Systems/rnas/1o9m

>  <Rbt.Executable>
rbdock ($Id: //depot/dev/client3/rdock/2013.1/src/exe/rbdock.cxx#4 $)

>  <Rbt.Library>
libRbt.so (2013.1, Build901 2013/11/27)

>  <Rbt.Parameter_File>
/export/apps/rDock/src/rDock_2013.1_src/data/scripts/dock_solv.prm

>  <Rbt.Receptor>
prm/blind_docking_60.prm

>  <SCORE>
-6.31111

>  <SCORE.INTER>
-4.87094

>  <SCORE.INTER.CONST>
1

>  <SCORE.INTER.POLAR>
-1.83594

>  <SCORE.INTER.ROT>
15

>  <SCORE.INTER.SOLV>
22.0474

>  <SCORE.INTER.VDW>
-18.0766

>  <SCORE.INTER.norm>
-0.131647

>  <SCORE.INTRA>
-1.67716

>  <SCORE.INTRA.DIHEDRAL>
-8.13055

>  <SCORE.INTRA.DIHEDRAL.0>
21.5987

>  <SCORE.INTRA.POLAR>
0

>  <SCORE.INTRA.POLAR.0>
0

>  <SCORE.INTRA.REPUL>
0

>  <SCORE.INTRA.REPUL.0>
0

>  <SCORE.INTRA.SOLV>
5.43427

>  <SCORE.INTRA.SOLV.lig_0>
-108.715

>  <SCORE.INTRA.VDW>
-0.329023

>  <SCORE.INTRA.VDW.0>
-3.9485

>  <SCORE.INTRA.norm>
-0.0453287

>  <SCORE.RESTR>
0.236994

>  <SCORE.RESTR.CAVITY>
0.236994

>  <SCORE.RESTR.norm>
0.00640524

>  <SCORE.SYSTEM>
0

>  <SCORE.SYSTEM.CONST>
0

>  <SCORE.SYSTEM.DIHEDRAL>
0

>  <SCORE.SYSTEM.SOLV>
0

>  <SCORE.SYSTEM.norm>
0

>  <SCORE.heavy>
37

>  <SCORE.norm>
-0.17057

>  <RMSD>
24.602

$$$$
1o9m_lig
 OpenBabel11021811403D
libRbt.so/2013.1/901 2013/11/27
 37 38  0  0  0  0  0  0  0  0999 V2000
   10.9539   -2.5075   11.7230 C   0  0  2  0  0  0  0  0  0  0  0  0
   10.3800   -1.8732   10.5395 O   0  0  0  0  0  0  0  0  0  0  0  0
   12.3607   -3.0632   11.2910 C   0  0  2  0  0  0  0  0  0  0  0  0
   13.2486   -2.0003   10.7881 N   0  0  0  0  0  0  0  0  0  0  0  0
   12.1589   -4.1837   10.2013 C   0  0  1  0  0  0  0  0  0  0  0  0
   13.4258   -4.7070    9.7929 O   0  0  0  0  0  0  0  0  0  0  0  0
   11.2298   -5.2877   10.8058 C   0  0  2  0  0  0  0  0  0  0  0  0
   10.9636   -6.3581    9.8847 O   0  0  0  0  0  0  0  0  0  0  0  0
    9.8830   -4.6766   11.2651 C   0  0  2  0  0  0  0  0  0  0  0  0
   10.0982   -3.6029   12.1926 O   0  0  0  0  0  0  0  0  0  0  0  0
    8.9909   -5.7099   11.9030 C   0  0  0  0  0  0  0  0  0  0  0  0
    9.5162   -6.1140   13.1072 N   0  0  0  0  0  0  0  0  0  0  0  0
    6.3792   -0.8297   11.8529 C   0  0  1  0  0  0  0  0  0  0  0  0
    5.0202   -0.2193   11.8537 N   0  0  0  0  0  0  0  0  0  0  0  0
    6.5142   -1.7275   10.6305 C   0  0  2  0  0  0  0  0  0  0  0  0
    5.4958   -2.6816   10.6840 O   0  0  0  0  0  0  0  0  0  0  0  0
    7.9204   -2.4051   10.5977 C   0  0  1  0  0  0  0  0  0  0  0  0
    8.0456   -3.2460    9.4103 O   0  0  0  0  0  0  0  0  0  0  0  0
    9.0449   -1.2918   10.5527 C   0  0  1  0  0  0  0  0  0  0  0  0
    8.9320   -0.3993   11.7793 C   0  0  1  0  0  0  0  0  0  0  0  0
    9.9825    0.6062   11.7257 N   0  0  0  0  0  0  0  0  0  0  0  0
    7.5270    0.2591   11.8226 C   0  0  0  0  0  0  0  0  0  0  0  0
    4.1610   -3.2214   10.7996 C   0  0  0  0  0  0  0  0  0  0  0  0
    3.2628   -2.5479    9.7877 C   0  0  0  0  0  0  0  0  0  0  0  0
    3.7580   -2.6188    8.3975 N   0  0  0  0  0  0  0  0  0  0  0  0
    3.8430   -2.8875    6.9439 C   0  0  0  0  0  0  0  0  0  0  0  0
    2.4971   -2.2674    6.5475 C   0  0  0  0  0  0  0  0  0  0  0  0
    1.3232   -3.2463    6.7371 C   0  0  0  0  0  0  0  0  0  0  0  0
    0.0266   -2.6622    6.1848 C   0  0  0  0  0  0  0  0  0  0  0  0
   -0.4828   -1.6364    7.0840 N   0  0  0  0  0  0  0  0  0  0  0  0
    1.3397   -0.5563   14.1811 N   0  0  0  0  0  0  0  0  0  0  0  0
    4.8678    1.0254   13.1084 C   0  0  0  0  0  0  0  0  0  0  0  0
    5.5282    1.4426   13.8526 O   0  0  0  0  0  0  0  0  0  0  0  0
    3.4402    1.1711   12.6411 C   0  0  2  0  0  0  0  0  0  0  0  0
    3.3057    2.2269   11.7755 O   0  0  0  0  0  0  0  0  0  0  0  0
    2.6037    1.5017   13.8721 C   0  0  0  0  0  0  0  0  0  0  0  0
    1.1941    0.8868   13.9419 C   0  0  0  0  0  0  0  0  0  0  0  0
  1  2  1  6  0  0  0
  1  3  1  0  0  0  0
  3  4  1  6  0  0  0
  3  5  1  0  0  0  0
  5  6  1  1  0  0  0
  5  7  1  0  0  0  0
  7  8  1  6  0  0  0
  9  7  1  0  0  0  0
  9 10  1  0  0  0  0
  9 11  1  1  0  0  0
 10  1  1  0  0  0  0
 11 12  1  0  0  0  0
 13 14  1  6  0  0  0
 13 15  1  0  0  0  0
 13 22  1  0  0  0  0
 14 32  1  0  0  0  0
 15 16  1  1  0  0  0
 15 17  1  0  0  0  0
 16 23  1  0  0  0  0
 17 18  1  6  0  0  0
 17 19  1  0  0  0  0
 19  2  1  1  0  0  0
 19 20  1  0  0  0  0
 20 21  1  6  0  0  0
 20 22  1  0  0  0  0
 23 24  1  0  0  0  0
 24 25  1  0  0  0  0
 25 26  1  0  0  0  0
 26 27  1  0  0  0  0
 27 28  1  0  0  0  0
 28 29  1  0  0  0  0
 29 30  1  0  0  0  0
 31 37  1  0  0  0  0
 32 33  2  0  0  0  0
 34 32  1  1  0  0  0
 34 35  1  0  0  0  0
 34 36  1  0  0  0  0
 36 37  1  0  0  0  0
M  END
>  <CHROM.1>
177.38877269,68.70453513,-171.45812685,51.89248631,53.44990959,-71.96408402
54.37851322,123.01765481,50.41718524,-83.82389537,-173.38766665,-74.86837682
-97.88718660,-143.08555488,71.04714139,6.73290921,-2.05404462,10.80650336
-0.15874721,-0.29138538,0.82285161

>  <Name>
1o9m_lig

>  <RI>
0

>  <Rbt.Current_Directory>
/home/itssahil/PROJECTS/Mol_Feturizer/New_Systems/rnas/1o9m

>  <Rbt.Executable>
rbdock ($Id: //depot/dev/client3/rdock/2013.1/src/exe/rbdock.cxx#4 $)

>  <Rbt.Library>
libRbt.so (2013.1, Build901 2013/11/27)

>  <Rbt.Parameter_File>
/export/apps/rDock/src/rDock_2013.1_src/data/scripts/dock_solv.prm

>  <Rbt.Receptor>
prm/blind_docking_40.prm

>  <SCORE>
-7.69262

>  <SCORE.INTER>
-4.08722

>  <SCORE.INTER.CONST>
1

>  <SCORE.INTER.POLAR>
-1.65242

>  <SCORE.INTER.ROT>
15

>  <SCORE.INTER.SOLV>
16.7429

>  <SCORE.INTER.VDW>
-16.3977

>  <SCORE.INTER.norm>
-0.110465

>  <SCORE.INTRA>
-3.79827

>  <SCORE.INTRA.DIHEDRAL>
-10.0568

>  <SCORE.INTRA.DIHEDRAL.0>
21.5987

>  <SCORE.INTRA.POLAR>
0

>  <SCORE.INTRA.POLAR.0>
0

>  <SCORE.INTRA.REPUL>
0.028859

>  <SCORE.INTRA.REPUL.0>
0

>  <SCORE.INTRA.SOLV>
2.92331

>  <SCORE.INTRA.SOLV.lig_0>
-108.715

>  <SCORE.INTRA.VDW>
-0.375804

>  <SCORE.INTRA.VDW.0>
-3.9485

>  <SCORE.INTRA.norm>
-0.102656

>  <SCORE.RESTR>
0.192869

>  <SCORE.RESTR.CAVITY>
0.192869

>  <SCORE.RESTR.norm>
0.00521266

>  <SCORE.SYSTEM>
0

>  <SCORE.SYSTEM.CONST>
0

>  <SCORE.SYSTEM.DIHEDRAL>
0

>  <SCORE.SYSTEM.SOLV>
0

>  <SCORE.SYSTEM.norm>
0

>  <SCORE.heavy>
37

>  <SCORE.norm>
-0.207909

>  <RMSD>
24.607

$$$$
1o9m_lig
 OpenBabel11021811403D
libRbt.so/2013.1/901 2013/11/27
 37 38  0  0  0  0  0  0  0  0999 V2000
    3.8866   -3.4592    6.5398 C   0  0  2  0  0  0  0  0  0  0  0  0
    4.6788   -2.3524    6.0110 O   0  0  0  0  0  0  0  0  0  0  0  0
    2.5906   -3.5417    5.6522 C   0  0  2  0  0  0  0  0  0  0  0  0
    2.9036   -3.7593    4.2289 N   0  0  0  0  0  0  0  0  0  0  0  0
    1.7510   -2.2217    5.8433 C   0  0  1  0  0  0  0  0  0  0  0  0
    0.5645   -2.2732    5.0464 O   0  0  0  0  0  0  0  0  0  0  0  0
    1.4339   -2.0638    7.3671 C   0  0  2  0  0  0  0  0  0  0  0  0
    0.6809   -0.8754    7.6598 O   0  0  0  0  0  0  0  0  0  0  0  0
    2.7408   -2.0450    8.1978 C   0  0  2  0  0  0  0  0  0  0  0  0
    3.5268   -3.2180    7.9416 O   0  0  0  0  0  0  0  0  0  0  0  0
    2.4607   -1.9502    9.6753 C   0  0  0  0  0  0  0  0  0  0  0  0
    3.6172   -2.1440   10.3924 N   0  0  0  0  0  0  0  0  0  0  0  0
    8.6100   -3.1290    7.6732 C   0  0  1  0  0  0  0  0  0  0  0  0
   10.0608   -2.9689    7.9718 N   0  0  0  0  0  0  0  0  0  0  0  0
    7.8700   -1.8864    8.1495 C   0  0  2  0  0  0  0  0  0  0  0  0
    8.1248   -1.7314    9.5137 O   0  0  0  0  0  0  0  0  0  0  0  0
    6.3389   -2.0176    7.8732 C   0  0  1  0  0  0  0  0  0  0  0  0
    5.6435   -0.8116    8.3141 O   0  0  0  0  0  0  0  0  0  0  0  0
    6.0943   -2.2063    6.3207 C   0  0  1  0  0  0  0  0  0  0  0  0
    6.8137   -3.4560    5.8364 C   0  0  1  0  0  0  0  0  0  0  0  0
    6.5637   -3.6186    4.4121 N   0  0  0  0  0  0  0  0  0  0  0  0
    8.3332   -3.3341    6.1289 C   0  0  0  0  0  0  0  0  0  0  0  0
    8.1192   -2.0296   10.9271 C   0  0  0  0  0  0  0  0  0  0  0  0
    6.7430   -1.7544   11.4880 C   0  0  0  0  0  0  0  0  0  0  0  0
    6.3832   -0.3221   11.5325 N   0  0  0  0  0  0  0  0  0  0  0  0
    5.7224    0.9545   11.8875 C   0  0  0  0  0  0  0  0  0  0  0  0
    5.1321    0.5066   13.2306 C   0  0  0  0  0  0  0  0  0  0  0  0
    3.9828   -0.5038   13.0570 C   0  0  0  0  0  0  0  0  0  0  0  0
    3.3342   -0.8333   14.3980 C   0  0  0  0  0  0  0  0  0  0  0  0
    2.1725   -1.6874   14.1953 N   0  0  0  0  0  0  0  0  0  0  0  0
   13.0166   -0.5236    8.8192 N   0  0  0  0  0  0  0  0  0  0  0  0
   10.5908   -4.0907    9.2396 C   0  0  0  0  0  0  0  0  0  0  0  0
   10.1118   -4.8584    9.8272 O   0  0  0  0  0  0  0  0  0  0  0  0
   11.9486   -3.4487    9.0921 C   0  0  2  0  0  0  0  0  0  0  0  0
   12.9522   -4.3318    9.4005 O   0  0  0  0  0  0  0  0  0  0  0  0
   12.0201   -2.3247   10.1198 C   0  0  0  0  0  0  0  0  0  0  0  0
   13.2138   -1.3585   10.0130 C   0  0  0  0  0  0  0  0  0  0  0  0
  1  2  1  6  0  0  0
  1  3  1  0  0  0  0
  3  4  1  6  0  0  0
  3  5  1  0  0  0  0
  5  6  1  6  0  0  0
  5  7  1  0  0  0  0
  7  8  1  6  0  0  0
  9  7  1  0  0  0  0
  9 10  1  0  0  0  0
  9 11  1  1  0  0  0
 10  1  1  0  0  0  0
 11 12  1  0  0  0  0
 13 14  1  6  0  0  0
 13 15  1  0  0  0  0
 13 22  1  0  0  0  0
 14 32  1  0  0  0  0
 15 16  1  1  0  0  0
 15 17  1  0  0  0  0
 16 23  1  0  0  0  0
 17 18  1  6  0  0  0
 17 19  1  0  0  0  0
 19  2  1  1  0  0  0
 19 20  1  0  0  0  0
 20 21  1  6  0  0  0
 20 22  1  0  0  0  0
 23 24  1  0  0  0  0
 24 25  1  0  0  0  0
 25 26  1  0  0  0  0
 26 27  1  0  0  0  0
 27 28  1  0  0  0  0
 28 29  1  0  0  0  0
 29 30  1  0  0  0  0
 31 37  1  0  0  0  0
 32 33  2  0  0  0  0
 34 32  1  1  0  0  0
 34 35  1  0  0  0  0
 34 36  1  0  0  0  0
 36 37  1  0  0  0  0
M  END
>  <CHROM.1>
-162.39110977,170.67549751,111.27134661,-64.68048178,-74.71086276,-61.55242888
-69.30219791,-159.69870107,19.66040712,-70.31244114,-174.86167805,174.56289834
-150.81283398,-169.88264919,71.10945978,6.22193875,-2.20055381,8.76463723
-2.99564234,-0.11972339,1.23605411

>  <Name>
1o9m_lig

>  <RI>
0

>  <Rbt.Current_Directory>
/home/itssahil/PROJECTS/Mol_Feturizer/New_Systems/rnas/1o9m

>  <Rbt.Executable>
rbdock ($Id: //depot/dev/client3/rdock/2013.1/src/exe/rbdock.cxx#4 $)

>  <Rbt.Library>
libRbt.so (2013.1, Build901 2013/11/27)

>  <Rbt.Parameter_File>
/export/apps/rDock/src/rDock_2013.1_src/data/scripts/dock_solv.prm

>  <Rbt.Receptor>
prm/blind_docking_40.prm

>  <SCORE>
-4.54186

>  <SCORE.INTER>
-0.129685

>  <SCORE.INTER.CONST>
1

>  <SCORE.INTER.POLAR>
0

>  <SCORE.INTER.ROT>
15

>  <SCORE.INTER.SOLV>
11.6982

>  <SCORE.INTER.VDW>
-17.5858

>  <SCORE.INTER.norm>
-0.00350499

>  <SCORE.INTRA>
-4.42762

>  <SCORE.INTRA.DIHEDRAL>
-12.8516

>  <SCORE.INTRA.DIHEDRAL.0>
21.5987

>  <SCORE.INTRA.POLAR>
0

>  <SCORE.INTRA.POLAR.0>
0

>  <SCORE.INTRA.REPUL>
0

>  <SCORE.INTRA.REPUL.0>
0

>  <SCORE.INTRA.SOLV>
8.39169

>  <SCORE.INTRA.SOLV.lig_0>
-108.715

>  <SCORE.INTRA.VDW>
-2.19766

>  <SCORE.INTRA.VDW.0>
-3.9485

>  <SCORE.INTRA.norm>
-0.119666

>  <SCORE.RESTR>
0.0154524

>  <SCORE.RESTR.CAVITY>
0.0154524

>  <SCORE.RESTR.norm>
0.000417632

>  <SCORE.SYSTEM>
0

>  <SCORE.SYSTEM.CONST>
0

>  <SCORE.SYSTEM.DIHEDRAL>
0

>  <SCORE.SYSTEM.SOLV>
0

>  <SCORE.SYSTEM.norm>
0

>  <SCORE.heavy>
37

>  <SCORE.norm>
-0.122753

>  <RMSD>
24.617

$$$$
1o9m_lig
 OpenBabel11021811403D
libRbt.so/2013.1/901 2013/11/27
 37 38  0  0  0  0  0  0  0  0999 V2000
    4.8954   -3.1261    6.5061 C   0  0  2  0  0  0  0  0  0  0  0  0
    5.8324   -2.0243    6.3051 O   0  0  0  0  0  0  0  0  0  0  0  0
    3.8456   -3.0349    5.3381 C   0  0  2  0  0  0  0  0  0  0  0  0
    4.4798   -3.1266    4.0113 N   0  0  0  0  0  0  0  0  0  0  0  0
    3.0358   -1.6901    5.4777 C   0  0  1  0  0  0  0  0  0  0  0  0
    2.0719   -1.5845    4.4263 O   0  0  0  0  0  0  0  0  0  0  0  0
    2.3714   -1.6677    6.8939 C   0  0  2  0  0  0  0  0  0  0  0  0
    1.6164   -0.4694    7.1367 O   0  0  0  0  0  0  0  0  0  0  0  0
    3.4428   -1.8169    8.0021 C   0  0  2  0  0  0  0  0  0  0  0  0
    4.2217   -3.0058    7.8040 O   0  0  0  0  0  0  0  0  0  0  0  0
    2.8230   -1.8548    9.3750 C   0  0  0  0  0  0  0  0  0  0  0  0
    3.8014   -1.9388   10.3368 N   0  0  0  0  0  0  0  0  0  0  0  0
    9.1598   -3.1337    8.8581 C   0  0  1  0  0  0  0  0  0  0  0  0
   10.4682   -3.0558    9.5663 N   0  0  0  0  0  0  0  0  0  0  0  0
    8.2976   -1.9542    9.2870 C   0  0  2  0  0  0  0  0  0  0  0  0
    8.1616   -2.0045   10.6760 O   0  0  0  0  0  0  0  0  0  0  0  0
    6.9055   -2.0047    8.5820 C   0  0  1  0  0  0  0  0  0  0  0  0
    6.0964   -0.8575    8.9844 O   0  0  0  0  0  0  0  0  0  0  0  0
    7.1040   -1.9609    7.0121 C   0  0  1  0  0  0  0  0  0  0  0  0
    7.9488   -3.1457    6.5689 C   0  0  1  0  0  0  0  0  0  0  0  0
    8.1062   -3.0945    5.1231 N   0  0  0  0  0  0  0  0  0  0  0  0
    9.3255   -3.1064    7.2847 C   0  0  0  0  0  0  0  0  0  0  0  0
    7.8231   -2.5312   11.9777 C   0  0  0  0  0  0  0  0  0  0  0  0
    8.3923   -1.6243   13.0445 C   0  0  0  0  0  0  0  0  0  0  0  0
    7.7083   -0.3196   13.1572 N   0  0  0  0  0  0  0  0  0  0  0  0
    7.1721    1.0228   12.8363 C   0  0  0  0  0  0  0  0  0  0  0  0
    5.9388    0.5618   12.0491 C   0  0  0  0  0  0  0  0  0  0  0  0
    5.0829    1.7439   11.5571 C   0  0  0  0  0  0  0  0  0  0  0  0
    3.8555    1.2535   10.7953 C   0  0  0  0  0  0  0  0  0  0  0  0
    2.9946    2.3781   10.4568 N   0  0  0  0  0  0  0  0  0  0  0  0
   14.3662   -3.4953    7.3818 N   0  0  0  0  0  0  0  0  0  0  0  0
   11.1421   -1.4159    9.5078 C   0  0  0  0  0  0  0  0  0  0  0  0
   10.8202   -0.4738    9.0920 O   0  0  0  0  0  0  0  0  0  0  0  0
   12.3159   -1.9855   10.2663 C   0  0  2  0  0  0  0  0  0  0  0  0
   12.8163   -1.0765   11.1637 O   0  0  0  0  0  0  0  0  0  0  0  0
   13.4171   -2.2476    9.2448 C   0  0  0  0  0  0  0  0  0  0  0  0
   13.1766   -3.3876    8.2387 C   0  0  0  0  0  0  0  0  0  0  0  0
  1  2  1  6  0  0  0
  1  3  1  0  0  0  0
  3  4  1  6  0  0  0
  3  5  1  0  0  0  0
  5  6  1  6  0  0  0
  5  7  1  0  0  0  0
  7  8  1  1  0  0  0
  9  7  1  0  0  0  0
  9 10  1  0  0  0  0
  9 11  1  1  0  0  0
 10  1  1  0  0  0  0
 11 12  1  0  0  0  0
 13 14  1  1  0  0  0
 13 15  1  0  0  0  0
 13 22  1  0  0  0  0
 14 32  1  0  0  0  0
 15 16  1  1  0  0  0
 15 17  1  0  0  0  0
 16 23  1  0  0  0  0
 17 18  1  1  0  0  0
 17 19  1  0  0  0  0
 19  2  1  6  0  0  0
 19 20  1  0  0  0  0
 20 21  1  6  0  0  0
 20 22  1  0  0  0  0
 23 24  1  0  0  0  0
 24 25  1  0  0  0  0
 25 26  1  0  0  0  0
 26 27  1  0  0  0  0
 27 28  1  0  0  0  0
 28 29  1  0  0  0  0
 29 30  1  0  0  0  0
 31 37  1  0  0  0  0
 32 33  2  0  0  0  0
 34 32  1  6  0  0  0
 34 35  1  0  0  0  0
 34 36  1  0  0  0  0
 36 37  1  0  0  0  0
M  END
>  <CHROM.1>
-166.16888980,-177.82919335,-46.16479798,-57.97778773,170.50937609,-56.74894611
71.07317423,-61.18356739,79.39765985,178.86118508,-179.22149719,174.33763930
-144.28523798,-69.30622070,-178.28204629,7.03688780,-1.63569118,8.77189816
-2.92799937,-0.21103271,1.10982522

>  <Name>
1o9m_lig

>  <RI>
0

>  <Rbt.Current_Directory>
/home/itssahil/PROJECTS/Mol_Feturizer/New_Systems/rnas/1o9m

>  <Rbt.Executable>
rbdock ($Id: //depot/dev/client3/rdock/2013.1/src/exe/rbdock.cxx#4 $)

>  <Rbt.Library>
libRbt.so (2013.1, Build901 2013/11/27)

>  <Rbt.Parameter_File>
/export/apps/rDock/src/rDock_2013.1_src/data/scripts/dock_solv.prm

>  <Rbt.Receptor>
prm/blind_docking_40.prm

>  <SCORE>
-10.4416

>  <SCORE.INTER>
-2.29618

>  <SCORE.INTER.CONST>
1

>  <SCORE.INTER.POLAR>
-0.916515

>  <SCORE.INTER.ROT>
15

>  <SCORE.INTER.SOLV>
15.7254

>  <SCORE.INTER.VDW>
-17.3175

>  <SCORE.INTER.norm>
-0.0620588

>  <SCORE.INTRA>
-8.56487

>  <SCORE.INTRA.DIHEDRAL>
-16.7823

>  <SCORE.INTRA.DIHEDRAL.0>
21.5987

>  <SCORE.INTRA.POLAR>
0

>  <SCORE.INTRA.POLAR.0>
0

>  <SCORE.INTRA.REPUL>
0

>  <SCORE.INTRA.REPUL.0>
0

>  <SCORE.INTRA.SOLV>
5.08829

>  <SCORE.INTRA.SOLV.lig_0>
-108.715

>  <SCORE.INTRA.VDW>
-2.71786

>  <SCORE.INTRA.VDW.0>
-3.9485

>  <SCORE.INTRA.norm>
-0.231483

>  <SCORE.RESTR>
0.419487

>  <SCORE.RESTR.CAVITY>
0.419487

>  <SCORE.RESTR.norm>
0.0113375

>  <SCORE.SYSTEM>
0

>  <SCORE.SYSTEM.CONST>
0

>  <SCORE.SYSTEM.DIHEDRAL>
0

>  <SCORE.SYSTEM.SOLV>
0

>  <SCORE.SYSTEM.norm>
0

>  <SCORE.heavy>
37

>  <SCORE.norm>
-0.282204

>  <RMSD>
24.620

$$$$
1o9m_lig
 OpenBabel11021811403D
libRbt.so/2013.1/901 2013/11/27
 37 38  0  0  0  0  0  0  0  0999 V2000
    8.9552   -4.1477    9.6304 C   0  0  2  0  0  0  0  0  0  0  0  0
    9.0270   -3.0429   10.5824 O   0  0  0  0  0  0  0  0  0  0  0  0
    9.3667   -5.4434   10.4218 C   0  0  2  0  0  0  0  0  0  0  0  0
    8.4862   -5.6935   11.5764 N   0  0  0  0  0  0  0  0  0  0  0  0
   10.8677   -5.3098   10.8833 C   0  0  1  0  0  0  0  0  0  0  0  0
   11.2668   -6.4784   11.6048 O   0  0  0  0  0  0  0  0  0  0  0  0
   11.7474   -5.0701    9.6120 C   0  0  2  0  0  0  0  0  0  0  0  0
   13.1424   -4.9159    9.9204 O   0  0  0  0  0  0  0  0  0  0  0  0
   11.2640   -3.8166    8.8418 C   0  0  2  0  0  0  0  0  0  0  0  0
    9.8729   -3.9267    8.5070 O   0  0  0  0  0  0  0  0  0  0  0  0
   12.0600   -3.5955    7.5816 C   0  0  0  0  0  0  0  0  0  0  0  0
   13.3605   -3.2752    7.8902 N   0  0  0  0  0  0  0  0  0  0  0  0
    5.2288   -1.4291   11.9203 C   0  0  1  0  0  0  0  0  0  0  0  0
    4.1043   -0.4711   12.1133 N   0  0  0  0  0  0  0  0  0  0  0  0
    5.4068   -1.6846   10.4298 C   0  0  2  0  0  0  0  0  0  0  0  0
    4.1960   -2.1682    9.9295 O   0  0  0  0  0  0  0  0  0  0  0  0
    6.5660   -2.7002   10.1798 C   0  0  1  0  0  0  0  0  0  0  0  0
    6.7412   -2.9202    8.7469 O   0  0  0  0  0  0  0  0  0  0  0  0
    7.9148   -2.1224   10.7738 C   0  0  1  0  0  0  0  0  0  0  0  0
    7.7553   -1.8806   12.2671 C   0  0  1  0  0  0  0  0  0  0  0  0
    9.0094   -1.3646   12.7950 N   0  0  0  0  0  0  0  0  0  0  0  0
    6.5900   -0.8861   12.5168 C   0  0  0  0  0  0  0  0  0  0  0  0
    3.1936   -2.5439    8.9596 C   0  0  0  0  0  0  0  0  0  0  0  0
    2.0472   -3.2276    9.6687 C   0  0  0  0  0  0  0  0  0  0  0  0
    0.8721   -3.4843    8.8106 N   0  0  0  0  0  0  0  0  0  0  0  0
    0.0269   -3.8215    7.6426 C   0  0  0  0  0  0  0  0  0  0  0  0
   -1.2242   -4.2510    8.4192 C   0  0  0  0  0  0  0  0  0  0  0  0
   -1.0803   -5.6580    9.0289 C   0  0  0  0  0  0  0  0  0  0  0  0
   -1.4740   -6.7353    8.0230 C   0  0  0  0  0  0  0  0  0  0  0  0
   -0.5635   -6.7154    6.8869 N   0  0  0  0  0  0  0  0  0  0  0  0
    2.2178    2.9023   15.6037 N   0  0  0  0  0  0  0  0  0  0  0  0
    4.5925    1.1900   11.7276 C   0  0  0  0  0  0  0  0  0  0  0  0
    5.5012    1.6563   11.3799 O   0  0  0  0  0  0  0  0  0  0  0  0
    3.1906    1.5817   12.1261 C   0  0  2  0  0  0  0  0  0  0  0  0
    2.7632    2.6808   11.4250 O   0  0  0  0  0  0  0  0  0  0  0  0
    3.2462    1.9902   13.5940 C   0  0  0  0  0  0  0  0  0  0  0  0
    1.9195    2.4152   14.2492 C   0  0  0  0  0  0  0  0  0  0  0  0
  1  2  1  1  0  0  0
  1  3  1  0  0  0  0
  3  4  1  1  0  0  0
  3  5  1  0  0  0  0
  5  6  1  6  0  0  0
  5  7  1  0  0  0  0
  7  8  1  1  0  0  0
  9  7  1  0  0  0  0
  9 10  1  0  0  0  0
  9 11  1  6  0  0  0
 10  1  1  0  0  0  0
 11 12  1  0  0  0  0
 13 14  1  6  0  0  0
 13 15  1  0  0  0  0
 13 22  1  0  0  0  0
 14 32  1  0  0  0  0
 15 16  1  1  0  0  0
 15 17  1  0  0  0  0
 16 23  1  0  0  0  0
 17 18  1  6  0  0  0
 17 19  1  0  0  0  0
 19  2  1  1  0  0  0
 19 20  1  0  0  0  0
 20 21  1  6  0  0  0
 20 22  1  0  0  0  0
 23 24  1  0  0  0  0
 24 25  1  0  0  0  0
 25 26  1  0  0  0  0
 26 27  1  0  0  0  0
 27 28  1  0  0  0  0
 28 29  1  0  0  0  0
 29 30  1  0  0  0  0
 31 37  1  0  0  0  0
 32 33  2  0  0  0  0
 34 32  1  6  0  0  0
 34 35  1  0  0  0  0
 34 36  1  0  0  0  0
 36 37  1  0  0  0  0
M  END
>  <CHROM.1>
-128.30867430,-66.57981808,-76.46252277,165.39962515,173.57564012,16.33115224
171.60504603,37.00470105,156.70850236,-76.95493888,-85.85185052,63.81861853
-149.48358969,-179.00693753,-173.98847437,5.91415153,-2.55226640,10.42490979
0.23534080,0.08556498,-2.56205317

>  <Name>
1o9m_lig

>  <RI>
0

>  <Rbt.Current_Directory>
/home/itssahil/PROJECTS/Mol_Feturizer/New_Systems/rnas/1o9m

>  <Rbt.Executable>
rbdock ($Id: //depot/dev/client3/rdock/2013.1/src/exe/rbdock.cxx#4 $)

>  <Rbt.Library>
libRbt.so (2013.1, Build901 2013/11/27)

>  <Rbt.Parameter_File>
/export/apps/rDock/src/rDock_2013.1_src/data/scripts/dock_solv.prm

>  <Rbt.Receptor>
prm/blind_docking_80.prm

>  <SCORE>
-5.54337

>  <SCORE.INTER>
-8.79994

>  <SCORE.INTER.CONST>
1

>  <SCORE.INTER.POLAR>
-1.78439

>  <SCORE.INTER.ROT>
15

>  <SCORE.INTER.SOLV>
21.4114

>  <SCORE.INTER.VDW>
-20.6558

>  <SCORE.INTER.norm>
-0.237836

>  <SCORE.INTRA>
3.25174

>  <SCORE.INTRA.DIHEDRAL>
-0.710779

>  <SCORE.INTRA.DIHEDRAL.0>
21.5987

>  <SCORE.INTRA.POLAR>
0

>  <SCORE.INTRA.POLAR.0>
0

>  <SCORE.INTRA.REPUL>
0

>  <SCORE.INTRA.REPUL.0>
0

>  <SCORE.INTRA.SOLV>
2.73166

>  <SCORE.INTRA.SOLV.lig_0>
-108.715

>  <SCORE.INTRA.VDW>
2.24129

>  <SCORE.INTRA.VDW.0>
-3.9485

>  <SCORE.INTRA.norm>
0.0878848

>  <SCORE.RESTR>
0.00483833

>  <SCORE.RESTR.CAVITY>
0.00483833

>  <SCORE.RESTR.norm>
0.000130766

>  <SCORE.SYSTEM>
0

>  <SCORE.SYSTEM.CONST>
0

>  <SCORE.SYSTEM.DIHEDRAL>
0

>  <SCORE.SYSTEM.SOLV>
0

>  <SCORE.SYSTEM.norm>
0

>  <SCORE.heavy>
37

>  <SCORE.norm>
-0.149821

>  <RMSD>
24.623

$$$$
1o9m_lig
 OpenBabel11021811403D
libRbt.so/2013.1/901 2013/11/27
 37 38  0  0  0  0  0  0  0  0999 V2000
   11.6929   -2.0580   11.3753 C   0  0  2  0  0  0  0  0  0  0  0  0
   10.8827   -1.1365   10.5836 O   0  0  0  0  0  0  0  0  0  0  0  0
   13.0491   -2.2365   10.5986 C   0  0  2  0  0  0  0  0  0  0  0  0
   13.7537   -0.9567   10.4074 N   0  0  0  0  0  0  0  0  0  0  0  0
   12.7608   -2.9274    9.2117 C   0  0  1  0  0  0  0  0  0  0  0  0
   13.9808   -3.1027    8.4861 O   0  0  0  0  0  0  0  0  0  0  0  0
   12.0357   -4.2861    9.4870 C   0  0  2  0  0  0  0  0  0  0  0  0
   11.7078   -4.9972    8.2822 O   0  0  0  0  0  0  0  0  0  0  0  0
   10.7385   -4.0574   10.3015 C   0  0  2  0  0  0  0  0  0  0  0  0
   11.0170   -3.3522   11.5198 O   0  0  0  0  0  0  0  0  0  0  0  0
   10.0496   -5.3570   10.6286 C   0  0  0  0  0  0  0  0  0  0  0  0
   10.8599   -6.1403   11.4154 N   0  0  0  0  0  0  0  0  0  0  0  0
    7.3906   -0.5201   13.0829 C   0  0  1  0  0  0  0  0  0  0  0  0
    6.1205    0.0670   13.5942 N   0  0  0  0  0  0  0  0  0  0  0  0
    7.1675   -1.0100   11.6586 C   0  0  2  0  0  0  0  0  0  0  0  0
    6.1190   -1.9322   11.6810 O   0  0  0  0  0  0  0  0  0  0  0  0
    8.4707   -1.6519   11.0866 C   0  0  1  0  0  0  0  0  0  0  0  0
    8.2506   -2.0979    9.7135 O   0  0  0  0  0  0  0  0  0  0  0  0
    9.6363   -0.5807   11.0921 C   0  0  1  0  0  0  0  0  0  0  0  0
    9.8815   -0.0973   12.5134 C   0  0  1  0  0  0  0  0  0  0  0  0
   10.9650    0.8739   12.4978 N   0  0  0  0  0  0  0  0  0  0  0  0
    8.5804    0.5231   13.0892 C   0  0  0  0  0  0  0  0  0  0  0  0
    4.8220   -2.4894   11.9874 C   0  0  0  0  0  0  0  0  0  0  0  0
    4.4880   -3.5588   10.9729 C   0  0  0  0  0  0  0  0  0  0  0  0
    3.6632   -3.0840    9.8428 N   0  0  0  0  0  0  0  0  0  0  0  0
    2.5035   -2.7913    8.9699 C   0  0  0  0  0  0  0  0  0  0  0  0
    3.2779   -2.1220    7.8274 C   0  0  0  0  0  0  0  0  0  0  0  0
    3.8109   -3.1430    6.8047 C   0  0  0  0  0  0  0  0  0  0  0  0
    4.3263   -2.4452    5.5498 C   0  0  0  0  0  0  0  0  0  0  0  0
    4.5601   -3.4214    4.4951 N   0  0  0  0  0  0  0  0  0  0  0  0
    1.3571    2.2301   13.6522 N   0  0  0  0  0  0  0  0  0  0  0  0
    5.5584    1.3971   12.5638 C   0  0  0  0  0  0  0  0  0  0  0  0
    5.9154    1.8636   11.6588 O   0  0  0  0  0  0  0  0  0  0  0  0
    4.4212    1.5365   13.5461 C   0  0  2  0  0  0  0  0  0  0  0  0
    3.5272    0.5035   13.4215 O   0  0  0  0  0  0  0  0  0  0  0  0
    3.6730    2.8130   13.1777 C   0  0  0  0  0  0  0  0  0  0  0  0
    2.4332    3.1613   14.0211 C   0  0  0  0  0  0  0  0  0  0  0  0
  1  2  1  6  0  0  0
  1  3  1  0  0  0  0
  3  4  1  6  0  0  0
  3  5  1  0  0  0  0
  5  6  1  1  0  0  0
  5  7  1  0  0  0  0
  7  8  1  6  0  0  0
  9  7  1  0  0  0  0
  9 10  1  0  0  0  0
  9 11  1  1  0  0  0
 10  1  1  0  0  0  0
 11 12  1  0  0  0  0
 13 14  1  6  0  0  0
 13 15  1  0  0  0  0
 13 22  1  0  0  0  0
 14 32  1  0  0  0  0
 15 16  1  1  0  0  0
 15 17  1  0  0  0  0
 16 23  1  0  0  0  0
 17 18  1  6  0  0  0
 17 19  1  0  0  0  0
 19  2  1  1  0  0  0
 19 20  1  0  0  0  0
 20 21  1  6  0  0  0
 20 22  1  0  0  0  0
 23 24  1  0  0  0  0
 24 25  1  0  0  0  0
 25 26  1  0  0  0  0
 26 27  1  0  0  0  0
 27 28  1  0  0  0  0
 28 29  1  0  0  0  0
 29 30  1  0  0  0  0
 31 37  1  0  0  0  0
 32 33  2  0  0  0  0
 34 32  1  6  0  0  0
 34 35  1  0  0  0  0
 34 36  1  0  0  0  0
 36 37  1  0  0  0  0
M  END
>  <CHROM.1>
-170.72099477,62.31605920,-57.98786131,48.23255950,157.50085090,-74.44753206
-95.35533348,-98.05270318,-178.72572823,86.24599208,168.62318395,-168.08137889
-72.46977563,178.48148002,-72.85042709,7.66283224,-1.54619487,10.81143857
-0.41663976,-0.17181274,0.84593702

>  <Name>
1o9m_lig

>  <RI>
0

>  <Rbt.Current_Directory>
/home/itssahil/PROJECTS/Mol_Feturizer/New_Systems/rnas/1o9m

>  <Rbt.Executable>
rbdock ($Id: //depot/dev/client3/rdock/2013.1/src/exe/rbdock.cxx#4 $)

>  <Rbt.Library>
libRbt.so (2013.1, Build901 2013/11/27)

>  <Rbt.Parameter_File>
/export/apps/rDock/src/rDock_2013.1_src/data/scripts/dock_solv.prm

>  <Rbt.Receptor>
prm/blind_docking_40.prm

>  <SCORE>
-7.23636

>  <SCORE.INTER>
-4.71341

>  <SCORE.INTER.CONST>
1

>  <SCORE.INTER.POLAR>
-0.340077

>  <SCORE.INTER.ROT>
15

>  <SCORE.INTER.SOLV>
16.2893

>  <SCORE.INTER.VDW>
-21.0384

>  <SCORE.INTER.norm>
-0.127389

>  <SCORE.INTRA>
-2.52295

>  <SCORE.INTRA.DIHEDRAL>
-8.14501

>  <SCORE.INTRA.DIHEDRAL.0>
21.5987

>  <SCORE.INTRA.POLAR>
0

>  <SCORE.INTRA.POLAR.0>
0

>  <SCORE.INTRA.REPUL>
0

>  <SCORE.INTRA.REPUL.0>
0

>  <SCORE.INTRA.SOLV>
3.71884

>  <SCORE.INTRA.SOLV.lig_0>
-108.715

>  <SCORE.INTRA.VDW>
-0.30987

>  <SCORE.INTRA.VDW.0>
-3.9485

>  <SCORE.INTRA.norm>
-0.0681879

>  <SCORE.RESTR>
0

>  <SCORE.RESTR.CAVITY>
0

>  <SCORE.RESTR.norm>
0

>  <SCORE.SYSTEM>
0

>  <SCORE.SYSTEM.CONST>
0

>  <SCORE.SYSTEM.DIHEDRAL>
0

>  <SCORE.SYSTEM.SOLV>
0

>  <SCORE.SYSTEM.norm>
0

>  <SCORE.heavy>
37

>  <SCORE.norm>
-0.195577

>  <RMSD>
24.657

$$$$
1o9m_lig
 OpenBabel11021811403D
libRbt.so/2013.1/901 2013/11/27
 37 38  0  0  0  0  0  0  0  0999 V2000
   11.1933   -2.6688   11.0092 C   0  0  2  0  0  0  0  0  0  0  0  0
   10.3043   -2.3285    9.9019 O   0  0  0  0  0  0  0  0  0  0  0  0
   12.5280   -3.1927   10.3622 C   0  0  2  0  0  0  0  0  0  0  0  0
   13.1524   -2.1883    9.4835 N   0  0  0  0  0  0  0  0  0  0  0  0
   12.2283   -4.5202    9.5674 C   0  0  1  0  0  0  0  0  0  0  0  0
   13.4287   -5.0182    8.9703 O   0  0  0  0  0  0  0  0  0  0  0  0
   11.5909   -5.5477   10.5602 C   0  0  2  0  0  0  0  0  0  0  0  0
   11.2595   -6.7972    9.9329 O   0  0  0  0  0  0  0  0  0  0  0  0
   10.3137   -4.9597   11.2093 C   0  0  2  0  0  0  0  0  0  0  0  0
   10.5967   -3.7093   11.8543 O   0  0  0  0  0  0  0  0  0  0  0  0
    9.7111   -5.9086   12.2128 C   0  0  0  0  0  0  0  0  0  0  0  0
    8.7154   -5.2811   12.9228 N   0  0  0  0  0  0  0  0  0  0  0  0
    6.9017   -0.4196   11.7991 C   0  0  1  0  0  0  0  0  0  0  0  0
    5.7024    0.4455   11.9800 N   0  0  0  0  0  0  0  0  0  0  0  0
    6.6255   -1.4156   10.6810 C   0  0  2  0  0  0  0  0  0  0  0  0
    5.4844   -2.1430   11.0262 O   0  0  0  0  0  0  0  0  0  0  0  0
    7.8518   -2.3582   10.4678 C   0  0  1  0  0  0  0  0  0  0  0  0
    7.5833   -3.2939    9.3793 O   0  0  0  0  0  0  0  0  0  0  0  0
    9.1252   -1.4955   10.0937 C   0  0  1  0  0  0  0  0  0  0  0  0
    9.4227   -0.5088   11.2125 C   0  0  1  0  0  0  0  0  0  0  0  0
   10.6039    0.2626   10.8555 N   0  0  0  0  0  0  0  0  0  0  0  0
    8.1963    0.4155   11.4378 C   0  0  0  0  0  0  0  0  0  0  0  0
    4.5616   -2.8907   11.8483 C   0  0  0  0  0  0  0  0  0  0  0  0
    3.5162   -3.5323   10.9652 C   0  0  0  0  0  0  0  0  0  0  0  0
    2.7147   -2.5708   10.1803 N   0  0  0  0  0  0  0  0  0  0  0  0
    2.2756   -1.6417    9.1143 C   0  0  0  0  0  0  0  0  0  0  0  0
    1.8808   -2.7006    8.0771 C   0  0  0  0  0  0  0  0  0  0  0  0
    1.3699   -2.0740    6.7662 C   0  0  0  0  0  0  0  0  0  0  0  0
    1.0072   -3.1505    5.7479 C   0  0  0  0  0  0  0  0  0  0  0  0
   -0.1179   -3.9380    6.2319 N   0  0  0  0  0  0  0  0  0  0  0  0
    2.0918    2.5403   11.3479 N   0  0  0  0  0  0  0  0  0  0  0  0
    4.9136    0.1446   13.5401 C   0  0  0  0  0  0  0  0  0  0  0  0
    5.1077   -0.5044   14.3798 O   0  0  0  0  0  0  0  0  0  0  0  0
    3.8996    1.1746   13.1059 C   0  0  2  0  0  0  0  0  0  0  0  0
    3.2784    1.7471   14.1868 O   0  0  0  0  0  0  0  0  0  0  0  0
    2.8232    0.4320   12.3219 C   0  0  0  0  0  0  0  0  0  0  0  0
    2.2933    1.1153   11.0482 C   0  0  0  0  0  0  0  0  0  0  0  0
  1  2  1  6  0  0  0
  1  3  1  0  0  0  0
  3  4  1  6  0  0  0
  3  5  1  0  0  0  0
  5  6  1  1  0  0  0
  5  7  1  0  0  0  0
  7  8  1  6  0  0  0
  9  7  1  0  0  0  0
  9 10  1  0  0  0  0
  9 11  1  1  0  0  0
 10  1  1  0  0  0  0
 11 12  1  0  0  0  0
 13 14  1  6  0  0  0
 13 15  1  0  0  0  0
 13 22  1  0  0  0  0
 14 32  1  0  0  0  0
 15 16  1  1  0  0  0
 15 17  1  0  0  0  0
 16 23  1  0  0  0  0
 17 18  1  6  0  0  0
 17 19  1  0  0  0  0
 19  2  1  1  0  0  0
 19 20  1  0  0  0  0
 20 21  1  6  0  0  0
 20 22  1  0  0  0  0
 23 24  1  0  0  0  0
 24 25  1  0  0  0  0
 25 26  1  0  0  0  0
 26 27  1  0  0  0  0
 27 28  1  0  0  0  0
 28 29  1  0  0  0  0
 29 30  1  0  0  0  0
 31 37  1  0  0  0  0
 32 33  2  0  0  0  0
 34 32  1  1  0  0  0
 34 35  1  0  0  0  0
 34 36  1  0  0  0  0
 36 37  1  0  0  0  0
M  END
>  <CHROM.1>
-163.73342949,170.31772185,112.42234591,-43.41959007,-168.76295791,-89.15818977
-60.26286803,83.81412981,75.91805976,-179.22918272,179.07786603,65.00015282
-155.92953826,-138.68593471,-43.05725242,6.87154053,-2.14423730,10.69658663
-0.22616972,-0.25149400,0.74494802

>  <Name>
1o9m_lig

>  <RI>
0

>  <Rbt.Current_Directory>
/home/itssahil/PROJECTS/Mol_Feturizer/New_Systems/rnas/1o9m

>  <Rbt.Executable>
rbdock ($Id: //depot/dev/client3/rdock/2013.1/src/exe/rbdock.cxx#4 $)

>  <Rbt.Library>
libRbt.so (2013.1, Build901 2013/11/27)

>  <Rbt.Parameter_File>
/export/apps/rDock/src/rDock_2013.1_src/data/scripts/dock_solv.prm

>  <Rbt.Receptor>
prm/blind_docking_100.prm

>  <SCORE>
-13.2832

>  <SCORE.INTER>
-11.414

>  <SCORE.INTER.CONST>
1

>  <SCORE.INTER.POLAR>
-2.85611

>  <SCORE.INTER.ROT>
15

>  <SCORE.INTER.SOLV>
17.8953

>  <SCORE.INTER.VDW>
-17.6541

>  <SCORE.INTER.norm>
-0.308488

>  <SCORE.INTRA>
-1.8692

>  <SCORE.INTRA.DIHEDRAL>
-6.28981

>  <SCORE.INTRA.DIHEDRAL.0>
21.5987

>  <SCORE.INTRA.POLAR>
0

>  <SCORE.INTRA.POLAR.0>
0

>  <SCORE.INTRA.REPUL>
0

>  <SCORE.INTRA.REPUL.0>
0

>  <SCORE.INTRA.SOLV>
4.57738

>  <SCORE.INTRA.SOLV.lig_0>
-108.715

>  <SCORE.INTRA.VDW>
-1.01299

>  <SCORE.INTRA.VDW.0>
-3.9485

>  <SCORE.INTRA.norm>
-0.0505189

>  <SCORE.RESTR>
0

>  <SCORE.RESTR.CAVITY>
0

>  <SCORE.RESTR.norm>
0

>  <SCORE.SYSTEM>
0

>  <SCORE.SYSTEM.CONST>
0

>  <SCORE.SYSTEM.DIHEDRAL>
0

>  <SCORE.SYSTEM.SOLV>
0

>  <SCORE.SYSTEM.norm>
0

>  <SCORE.heavy>
37

>  <SCORE.norm>
-0.359006

>  <RMSD>
24.700

$$$$
1o9m_lig
 OpenBabel11021811403D
libRbt.so/2013.1/901 2013/11/27
 37 38  0  0  0  0  0  0  0  0999 V2000
    3.3817   -0.0039   10.2833 C   0  0  2  0  0  0  0  0  0  0  0  0
    4.6430    0.6189    9.8918 O   0  0  0  0  0  0  0  0  0  0  0  0
    2.9515    0.6758   11.6352 C   0  0  2  0  0  0  0  0  0  0  0  0
    2.7915    2.1341   11.4988 N   0  0  0  0  0  0  0  0  0  0  0  0
    4.0163    0.3326   12.7453 C   0  0  1  0  0  0  0  0  0  0  0  0
    3.6460    0.9388   13.9867 O   0  0  0  0  0  0  0  0  0  0  0  0
    4.1196   -1.2245   12.8549 C   0  0  2  0  0  0  0  0  0  0  0  0
    5.0814   -1.6521   13.8331 O   0  0  0  0  0  0  0  0  0  0  0  0
    4.4898   -1.8449   11.4851 C   0  0  2  0  0  0  0  0  0  0  0  0
    3.5520   -1.4487   10.4737 O   0  0  0  0  0  0  0  0  0  0  0  0
    4.5407   -3.3495   11.5503 C   0  0  0  0  0  0  0  0  0  0  0  0
    5.7539   -3.7636   12.0462 N   0  0  0  0  0  0  0  0  0  0  0  0
    8.3529   -0.7851    8.1351 C   0  0  1  0  0  0  0  0  0  0  0  0
    9.5879   -1.5928    7.9304 N   0  0  0  0  0  0  0  0  0  0  0  0
    7.1451   -1.7105    8.0787 C   0  0  2  0  0  0  0  0  0  0  0  0
    7.1623   -2.3641    6.8447 O   0  0  0  0  0  0  0  0  0  0  0  0
    5.8230   -0.9026    8.2704 C   0  0  1  0  0  0  0  0  0  0  0  0
    4.6741   -1.8033    8.2361 O   0  0  0  0  0  0  0  0  0  0  0  0
    5.8497   -0.1662    9.6714 C   0  0  1  0  0  0  0  0  0  0  0  0
    7.0423    0.7761    9.7327 C   0  0  1  0  0  0  0  0  0  0  0  0
    7.0393    1.4528   11.0210 N   0  0  0  0  0  0  0  0  0  0  0  0
    8.3555   -0.0242    9.5225 C   0  0  0  0  0  0  0  0  0  0  0  0
    7.1842   -2.5325    5.4102 C   0  0  0  0  0  0  0  0  0  0  0  0
    5.8189   -2.2054    4.8502 C   0  0  0  0  0  0  0  0  0  0  0  0
    4.7070   -2.9190    5.5116 N   0  0  0  0  0  0  0  0  0  0  0  0
    3.3506   -3.3980    5.8623 C   0  0  0  0  0  0  0  0  0  0  0  0
    2.6320   -2.0458    5.7714 C   0  0  0  0  0  0  0  0  0  0  0  0
    1.1759   -2.1223    6.2674 C   0  0  0  0  0  0  0  0  0  0  0  0
    0.3319   -3.0099    5.3580 C   0  0  0  0  0  0  0  0  0  0  0  0
   -1.0436   -3.0496    5.8341 N   0  0  0  0  0  0  0  0  0  0  0  0
   13.9288   -2.9476    7.6880 N   0  0  0  0  0  0  0  0  0  0  0  0
    9.8079   -2.7834    9.2268 C   0  0  0  0  0  0  0  0  0  0  0  0
    9.2539   -3.0592   10.1106 O   0  0  0  0  0  0  0  0  0  0  0  0
   11.0826   -3.1655    8.5150 C   0  0  2  0  0  0  0  0  0  0  0  0
   11.1671   -4.5237    8.3415 O   0  0  0  0  0  0  0  0  0  0  0  0
   12.2359   -2.7658    9.4287 C   0  0  0  0  0  0  0  0  0  0  0  0
   13.6276   -3.3222    9.0773 C   0  0  0  0  0  0  0  0  0  0  0  0
  1  2  1  1  0  0  0
  1  3  1  0  0  0  0
  3  4  1  6  0  0  0
  3  5  1  0  0  0  0
  5  6  1  1  0  0  0
  5  7  1  0  0  0  0
  7  8  1  1  0  0  0
  9  7  1  0  0  0  0
  9 10  1  0  0  0  0
  9 11  1  1  0  0  0
 10  1  1  0  0  0  0
 11 12  1  0  0  0  0
 13 14  1  1  0  0  0
 13 15  1  0  0  0  0
 13 22  1  0  0  0  0
 14 32  1  0  0  0  0
 15 16  1  6  0  0  0
 15 17  1  0  0  0  0
 16 23  1  0  0  0  0
 17 18  1  1  0  0  0
 17 19  1  0  0  0  0
 19  2  1  6  0  0  0
 19 20  1  0  0  0  0
 20 21  1  1  0  0  0
 20 22  1  0  0  0  0
 23 24  1  0  0  0  0
 24 25  1  0  0  0  0
 25 26  1  0  0  0  0
 26 27  1  0  0  0  0
 27 28  1  0  0  0  0
 28 29  1  0  0  0  0
 29 30  1  0  0  0  0
 31 37  1  0  0  0  0
 32 33  2  0  0  0  0
 34 32  1  1  0  0  0
 34 35  1  0  0  0  0
 34 36  1  0  0  0  0
 36 37  1  0  0  0  0
M  END
>  <CHROM.1>
122.72123047,-82.38869725,-62.93157054,-56.30601001,-74.42687533,77.50625977
-51.67021398,-179.19254695,-42.80078278,-172.39147215,-65.69411265,-179.09353303
-130.60237667,166.98278749,55.19406902,6.08077476,-1.62542602,9.11901407
-3.01796335,0.14345191,-1.96189411

>  <Name>
1o9m_lig

>  <RI>
0

>  <Rbt.Current_Directory>
/home/itssahil/PROJECTS/Mol_Feturizer/New_Systems/rnas/1o9m

>  <Rbt.Executable>
rbdock ($Id: //depot/dev/client3/rdock/2013.1/src/exe/rbdock.cxx#4 $)

>  <Rbt.Library>
libRbt.so (2013.1, Build901 2013/11/27)

>  <Rbt.Parameter_File>
/export/apps/rDock/src/rDock_2013.1_src/data/scripts/dock_solv.prm

>  <Rbt.Receptor>
prm/blind_docking_40.prm

>  <SCORE>
-12.7851

>  <SCORE.INTER>
-12.1374

>  <SCORE.INTER.CONST>
1

>  <SCORE.INTER.POLAR>
-3.37323

>  <SCORE.INTER.ROT>
15

>  <SCORE.INTER.SOLV>
17.2329

>  <SCORE.INTER.VDW>
-16.1918

>  <SCORE.INTER.norm>
-0.328038

>  <SCORE.INTRA>
-0.647718

>  <SCORE.INTRA.DIHEDRAL>
-6.45899

>  <SCORE.INTRA.DIHEDRAL.0>
21.5987

>  <SCORE.INTRA.POLAR>
0

>  <SCORE.INTRA.POLAR.0>
0

>  <SCORE.INTRA.REPUL>
0.0372659

>  <SCORE.INTRA.REPUL.0>
0

>  <SCORE.INTRA.SOLV>
4.69305

>  <SCORE.INTRA.SOLV.lig_0>
-108.715

>  <SCORE.INTRA.VDW>
0.0489205

>  <SCORE.INTRA.VDW.0>
-3.9485

>  <SCORE.INTRA.norm>
-0.0175059

>  <SCORE.RESTR>
0

>  <SCORE.RESTR.CAVITY>
0

>  <SCORE.RESTR.norm>
0

>  <SCORE.SYSTEM>
0

>  <SCORE.SYSTEM.CONST>
0

>  <SCORE.SYSTEM.DIHEDRAL>
0

>  <SCORE.SYSTEM.SOLV>
0

>  <SCORE.SYSTEM.norm>
0

>  <SCORE.heavy>
37

>  <SCORE.norm>
-0.345544

>  <RMSD>
24.707

$$$$
1o9m_lig
 OpenBabel11021811403D
libRbt.so/2013.1/901 2013/11/27
 37 38  0  0  0  0  0  0  0  0999 V2000
    3.3757    0.7487   11.6841 C   0  0  2  0  0  0  0  0  0  0  0  0
    4.7050    0.8606   12.2778 O   0  0  0  0  0  0  0  0  0  0  0  0
    2.4297    1.6730   12.5357 C   0  0  2  0  0  0  0  0  0  0  0  0
    2.8803    3.0758   12.5420 N   0  0  0  0  0  0  0  0  0  0  0  0
    2.3439    1.1079   14.0044 C   0  0  1  0  0  0  0  0  0  0  0  0
    1.4866    1.9315   14.7995 O   0  0  0  0  0  0  0  0  0  0  0  0
    1.8390   -0.3708   13.9275 C   0  0  2  0  0  0  0  0  0  0  0  0
    1.7392   -0.9938   15.2186 O   0  0  0  0  0  0  0  0  0  0  0  0
    2.7743   -1.2213   13.0329 C   0  0  2  0  0  0  0  0  0  0  0  0
    2.9019   -0.6393   11.7274 O   0  0  0  0  0  0  0  0  0  0  0  0
    2.2786   -2.6378   12.8966 C   0  0  0  0  0  0  0  0  0  0  0  0
    3.0213   -3.3137   11.9581 N   0  0  0  0  0  0  0  0  0  0  0  0
    7.1508   -1.4757    9.5611 C   0  0  1  0  0  0  0  0  0  0  0  0
    8.3547   -2.1077    8.9521 N   0  0  0  0  0  0  0  0  0  0  0  0
    7.0052   -1.9735   10.9927 C   0  0  2  0  0  0  0  0  0  0  0  0
    6.9212   -3.3669   10.9563 O   0  0  0  0  0  0  0  0  0  0  0  0
    5.7424   -1.3499   11.6667 C   0  0  1  0  0  0  0  0  0  0  0  0
    5.6258   -1.8176   13.0452 O   0  0  0  0  0  0  0  0  0  0  0  0
    5.8698    0.2279   11.6745 C   0  0  1  0  0  0  0  0  0  0  0  0
    5.9970    0.7390   10.2475 C   0  0  1  0  0  0  0  0  0  0  0  0
    6.0976    2.1905   10.2766 N   0  0  0  0  0  0  0  0  0  0  0  0
    7.2413    0.1040    9.5709 C   0  0  0  0  0  0  0  0  0  0  0  0
    6.3194   -4.6785   10.8918 C   0  0  0  0  0  0  0  0  0  0  0  0
    7.4095   -5.7224   10.8120 C   0  0  0  0  0  0  0  0  0  0  0  0
    8.7051   -5.2882   11.3740 N   0  0  0  0  0  0  0  0  0  0  0  0
   10.1578   -5.0746   11.5646 C   0  0  0  0  0  0  0  0  0  0  0  0
   10.0736   -3.6745   12.1855 C   0  0  0  0  0  0  0  0  0  0  0  0
   11.4626   -3.0945   12.5122 C   0  0  0  0  0  0  0  0  0  0  0  0
   11.3480   -1.6870   13.0892 C   0  0  0  0  0  0  0  0  0  0  0  0
   12.6683   -1.0834   13.2014 N   0  0  0  0  0  0  0  0  0  0  0  0
   12.8512   -0.7570    9.0037 N   0  0  0  0  0  0  0  0  0  0  0  0
    8.6833   -1.4555    7.3356 C   0  0  0  0  0  0  0  0  0  0  0  0
    8.2236   -0.7089    6.7067 O   0  0  0  0  0  0  0  0  0  0  0  0
    9.8383   -2.4261    7.2947 C   0  0  2  0  0  0  0  0  0  0  0  0
    9.4398   -3.6883    7.6554 O   0  0  0  0  0  0  0  0  0  0  0  0
   10.8414   -1.9639    8.3458 C   0  0  0  0  0  0  0  0  0  0  0  0
   11.9097   -0.9528    7.8917 C   0  0  0  0  0  0  0  0  0  0  0  0
  1  2  1  1  0  0  0
  1  3  1  0  0  0  0
  3  4  1  1  0  0  0
  3  5  1  0  0  0  0
  5  6  1  1  0  0  0
  5  7  1  0  0  0  0
  7  8  1  1  0  0  0
  9  7  1  0  0  0  0
  9 10  1  0  0  0  0
  9 11  1  6  0  0  0
 10  1  1  0  0  0  0
 11 12  1  0  0  0  0
 13 14  1  1  0  0  0
 13 15  1  0  0  0  0
 13 22  1  0  0  0  0
 14 32  1  0  0  0  0
 15 16  1  6  0  0  0
 15 17  1  0  0  0  0
 16 23  1  0  0  0  0
 17 18  1  1  0  0  0
 17 19  1  0  0  0  0
 19  2  1  6  0  0  0
 19 20  1  0  0  0  0
 20 21  1  1  0  0  0
 20 22  1  0  0  0  0
 23 24  1  0  0  0  0
 24 25  1  0  0  0  0
 25 26  1  0  0  0  0
 26 27  1  0  0  0  0
 27 28  1  0  0  0  0
 28 29  1  0  0  0  0
 29 30  1  0  0  0  0
 31 37  1  0  0  0  0
 32 33  2  0  0  0  0
 34 32  1  1  0  0  0
 34 35  1  0  0  0  0
 34 36  1  0  0  0  0
 36 37  1  0  0  0  0
M  END
>  <CHROM.1>
-174.49660979,171.81579694,-174.40145534,-91.34086583,175.21826240,-63.94915036
24.52369442,-139.04135111,145.34268633,-179.13767555,178.32011624,-171.46434898
49.29681399,-89.02877044,-173.91447740,6.67686627,-1.38563552,11.19234336
-3.07033718,-0.52040172,2.62601488

>  <Name>
1o9m_lig

>  <RI>
0

>  <Rbt.Current_Directory>
/home/itssahil/PROJECTS/Mol_Feturizer/New_Systems/rnas/1o9m

>  <Rbt.Executable>
rbdock ($Id: //depot/dev/client3/rdock/2013.1/src/exe/rbdock.cxx#4 $)

>  <Rbt.Library>
libRbt.so (2013.1, Build901 2013/11/27)

>  <Rbt.Parameter_File>
/export/apps/rDock/src/rDock_2013.1_src/data/scripts/dock_solv.prm

>  <Rbt.Receptor>
prm/blind_docking_60.prm

>  <SCORE>
-0.135002

>  <SCORE.INTER>
0.317406

>  <SCORE.INTER.CONST>
1

>  <SCORE.INTER.POLAR>
-0.673228

>  <SCORE.INTER.ROT>
15

>  <SCORE.INTER.SOLV>
20.448

>  <SCORE.INTER.VDW>
-17.9603

>  <SCORE.INTER.norm>
0.00857855

>  <SCORE.INTRA>
-0.456949

>  <SCORE.INTRA.DIHEDRAL>
-8.21639

>  <SCORE.INTRA.DIHEDRAL.0>
21.5987

>  <SCORE.INTRA.POLAR>
0

>  <SCORE.INTRA.POLAR.0>
0

>  <SCORE.INTRA.REPUL>
0

>  <SCORE.INTRA.REPUL.0>
0

>  <SCORE.INTRA.SOLV>
3.96336

>  <SCORE.INTRA.SOLV.lig_0>
-108.715

>  <SCORE.INTRA.VDW>
1.66956

>  <SCORE.INTRA.VDW.0>
-3.9485

>  <SCORE.INTRA.norm>
-0.01235

>  <SCORE.RESTR>
0.00454061

>  <SCORE.RESTR.CAVITY>
0.00454061

>  <SCORE.RESTR.norm>
0.000122719

>  <SCORE.SYSTEM>
0

>  <SCORE.SYSTEM.CONST>
0

>  <SCORE.SYSTEM.DIHEDRAL>
0

>  <SCORE.SYSTEM.SOLV>
0

>  <SCORE.SYSTEM.norm>
0

>  <SCORE.heavy>
37

>  <SCORE.norm>
-0.0036487

>  <RMSD>
24.749

$$$$
1o9m_lig
 OpenBabel11021811403D
libRbt.so/2013.1/901 2013/11/27
 37 38  0  0  0  0  0  0  0  0999 V2000
    3.0038    0.1463   11.7461 C   0  0  2  0  0  0  0  0  0  0  0  0
    4.3396    0.5861   12.1394 O   0  0  0  0  0  0  0  0  0  0  0  0
    2.0634    1.3990   11.8902 C   0  0  2  0  0  0  0  0  0  0  0  0
    2.5072    2.5274   11.0531 N   0  0  0  0  0  0  0  0  0  0  0  0
    1.9978    1.8215   13.4071 C   0  0  1  0  0  0  0  0  0  0  0  0
    1.1459    2.9595   13.5648 O   0  0  0  0  0  0  0  0  0  0  0  0
    1.4994    0.5902   14.2335 C   0  0  2  0  0  0  0  0  0  0  0  0
    1.4179    0.8604   15.6425 O   0  0  0  0  0  0  0  0  0  0  0  0
    2.4282   -0.6289   14.0110 C   0  0  2  0  0  0  0  0  0  0  0  0
    2.5375   -0.9406   12.6145 O   0  0  0  0  0  0  0  0  0  0  0  0
    1.9379   -1.8456   14.7525 C   0  0  0  0  0  0  0  0  0  0  0  0
    0.8608   -2.3979   14.1012 N   0  0  0  0  0  0  0  0  0  0  0  0
    8.1732   -1.4071   11.7509 C   0  0  1  0  0  0  0  0  0  0  0  0
    9.2775   -2.3779   11.9909 N   0  0  0  0  0  0  0  0  0  0  0  0
    6.9275   -2.1741   11.3283 C   0  0  2  0  0  0  0  0  0  0  0  0
    7.2469   -2.9180   10.1904 O   0  0  0  0  0  0  0  0  0  0  0  0
    5.7459   -1.1931   11.0472 C   0  0  1  0  0  0  0  0  0  0  0  0
    4.5517   -1.9414   10.6641 O   0  0  0  0  0  0  0  0  0  0  0  0
    5.4257   -0.3599   12.3545 C   0  0  1  0  0  0  0  0  0  0  0  0
    6.6580    0.4260   12.7762 C   0  0  1  0  0  0  0  0  0  0  0  0
    6.3378    1.1952   13.9692 N   0  0  0  0  0  0  0  0  0  0  0  0
    7.8384   -0.5477   13.0366 C   0  0  0  0  0  0  0  0  0  0  0  0
    8.0044   -3.7823    9.3153 C   0  0  0  0  0  0  0  0  0  0  0  0
    7.1445   -4.1719    8.1349 C   0  0  0  0  0  0  0  0  0  0  0  0
    6.3964   -3.0482    7.5344 N   0  0  0  0  0  0  0  0  0  0  0  0
    6.0744   -1.7862    6.8301 C   0  0  0  0  0  0  0  0  0  0  0  0
    4.7714   -1.4692    7.5749 C   0  0  0  0  0  0  0  0  0  0  0  0
    3.6300   -2.4302    7.1927 C   0  0  0  0  0  0  0  0  0  0  0  0
    2.3662   -2.1268    7.9916 C   0  0  0  0  0  0  0  0  0  0  0  0
    1.3079   -3.0577    7.6259 N   0  0  0  0  0  0  0  0  0  0  0  0
    9.3838   -5.6414   13.0564 N   0  0  0  0  0  0  0  0  0  0  0  0
   10.4166   -2.4152   10.6316 C   0  0  0  0  0  0  0  0  0  0  0  0
   10.4968   -1.8951    9.6897 O   0  0  0  0  0  0  0  0  0  0  0  0
   11.1461   -3.4826   11.4101 C   0  0  2  0  0  0  0  0  0  0  0  0
   12.4596   -3.5694   11.0239 O   0  0  0  0  0  0  0  0  0  0  0  0
   10.4935   -4.8136   11.0534 C   0  0  0  0  0  0  0  0  0  0  0  0
   10.5011   -5.9057   12.1383 C   0  0  0  0  0  0  0  0  0  0  0  0
  1  2  1  1  0  0  0
  1  3  1  0  0  0  0
  3  4  1  6  0  0  0
  3  5  1  0  0  0  0
  5  6  1  6  0  0  0
  5  7  1  0  0  0  0
  7  8  1  1  0  0  0
  9  7  1  0  0  0  0
  9 10  1  0  0  0  0
  9 11  1  1  0  0  0
 10  1  1  0  0  0  0
 11 12  1  0  0  0  0
 13 14  1  1  0  0  0
 13 15  1  0  0  0  0
 13 22  1  0  0  0  0
 14 32  1  0  0  0  0
 15 16  1  6  0  0  0
 15 17  1  0  0  0  0
 16 23  1  0  0  0  0
 17 18  1  1  0  0  0
 17 19  1  0  0  0  0
 19  2  1  6  0  0  0
 19 20  1  0  0  0  0
 20 21  1  1  0  0  0
 20 22  1  0  0  0  0
 23 24  1  0  0  0  0
 24 25  1  0  0  0  0
 25 26  1  0  0  0  0
 26 27  1  0  0  0  0
 27 28  1  0  0  0  0
 28 29  1  0  0  0  0
 29 30  1  0  0  0  0
 31 37  1  0  0  0  0
 32 33  2  0  0  0  0
 34 32  1  6  0  0  0
 34 35  1  0  0  0  0
 34 36  1  0  0  0  0
 36 37  1  0  0  0  0
M  END
>  <CHROM.1>
169.12620633,75.81206984,102.04383610,44.35637035,170.42401008,60.31379458
45.01824505,65.96049707,-150.98372929,-70.78226515,177.62360837,-179.27092539
-157.22418054,-149.65333413,82.04813079,5.62719565,-1.50791812,11.33623148
2.71720241,-0.36015456,1.19341973

>  <Name>
1o9m_lig

>  <RI>
0

>  <Rbt.Current_Directory>
/home/itssahil/PROJECTS/Mol_Feturizer/New_Systems/rnas/1o9m

>  <Rbt.Executable>
rbdock ($Id: //depot/dev/client3/rdock/2013.1/src/exe/rbdock.cxx#4 $)

>  <Rbt.Library>
libRbt.so (2013.1, Build901 2013/11/27)

>  <Rbt.Parameter_File>
/export/apps/rDock/src/rDock_2013.1_src/data/scripts/dock_solv.prm

>  <Rbt.Receptor>
prm/blind_docking_40.prm

>  <SCORE>
-9.74488

>  <SCORE.INTER>
-4.71901

>  <SCORE.INTER.CONST>
1

>  <SCORE.INTER.POLAR>
-2.49161

>  <SCORE.INTER.ROT>
15

>  <SCORE.INTER.SOLV>
25.5241

>  <SCORE.INTER.VDW>
-16.9487

>  <SCORE.INTER.norm>
-0.127541

>  <SCORE.INTRA>
-5.03912

>  <SCORE.INTRA.DIHEDRAL>
-10.0038

>  <SCORE.INTRA.DIHEDRAL.0>
21.5987

>  <SCORE.INTRA.POLAR>
0

>  <SCORE.INTRA.POLAR.0>
0

>  <SCORE.INTRA.REPUL>
0

>  <SCORE.INTRA.REPUL.0>
0

>  <SCORE.INTRA.SOLV>
3.29198

>  <SCORE.INTRA.SOLV.lig_0>
-108.715

>  <SCORE.INTRA.VDW>
-1.68322

>  <SCORE.INTRA.VDW.0>
-3.9485

>  <SCORE.INTRA.norm>
-0.136192

>  <SCORE.RESTR>
0.0132482

>  <SCORE.RESTR.CAVITY>
0.0132482

>  <SCORE.RESTR.norm>
0.00035806

>  <SCORE.SYSTEM>
0

>  <SCORE.SYSTEM.CONST>
0

>  <SCORE.SYSTEM.DIHEDRAL>
0

>  <SCORE.SYSTEM.SOLV>
0

>  <SCORE.SYSTEM.norm>
0

>  <SCORE.heavy>
37

>  <SCORE.norm>
-0.263375

>  <RMSD>
24.750

$$$$
1o9m_lig
 OpenBabel11021811403D
libRbt.so/2013.1/901 2013/11/27
 37 38  0  0  0  0  0  0  0  0999 V2000
    3.6037   -1.0212   14.3368 C   0  0  2  0  0  0  0  0  0  0  0  0
    3.5100   -1.6319   13.0137 O   0  0  0  0  0  0  0  0  0  0  0  0
    2.1624   -1.0941   14.9627 C   0  0  2  0  0  0  0  0  0  0  0  0
    1.6683   -2.4786   15.0625 N   0  0  0  0  0  0  0  0  0  0  0  0
    1.1815   -0.2123   14.1002 C   0  0  1  0  0  0  0  0  0  0  0  0
   -0.1375   -0.2609   14.6510 O   0  0  0  0  0  0  0  0  0  0  0  0
    1.7503    1.2443   14.0545 C   0  0  2  0  0  0  0  0  0  0  0  0
    0.9374    2.1361   13.2741 O   0  0  0  0  0  0  0  0  0  0  0  0
    3.1898    1.2507   13.4832 C   0  0  2  0  0  0  0  0  0  0  0  0
    4.0425    0.3752   14.2352 O   0  0  0  0  0  0  0  0  0  0  0  0
    3.7821    2.6363   13.4808 C   0  0  0  0  0  0  0  0  0  0  0  0
    3.0184    3.4790   12.7088 N   0  0  0  0  0  0  0  0  0  0  0  0
    6.5759   -1.9651    9.9626 C   0  0  1  0  0  0  0  0  0  0  0  0
    7.4976   -1.5839    8.8560 N   0  0  0  0  0  0  0  0  0  0  0  0
    6.8688   -1.0866   11.1712 C   0  0  2  0  0  0  0  0  0  0  0  0
    8.2134   -1.2550   11.5087 O   0  0  0  0  0  0  0  0  0  0  0  0
    5.9364   -1.4640   12.3652 C   0  0  1  0  0  0  0  0  0  0  0  0
    6.2117   -0.6007   13.5104 O   0  0  0  0  0  0  0  0  0  0  0  0
    4.4240   -1.2742   11.9378 C   0  0  1  0  0  0  0  0  0  0  0  0
    4.1140   -2.1617   10.7420 C   0  0  1  0  0  0  0  0  0  0  0  0
    2.7170   -1.9833   10.3755 N   0  0  0  0  0  0  0  0  0  0  0  0
    5.0543   -1.7999    9.5613 C   0  0  0  0  0  0  0  0  0  0  0  0
    9.4369   -1.9337   11.8680 C   0  0  0  0  0  0  0  0  0  0  0  0
    9.1462   -2.9381   12.9594 C   0  0  0  0  0  0  0  0  0  0  0  0
    8.3710   -4.1128   12.5097 N   0  0  0  0  0  0  0  0  0  0  0  0
    8.0182   -5.4468   11.9728 C   0  0  0  0  0  0  0  0  0  0  0  0
    9.0566   -5.4886   10.8445 C   0  0  0  0  0  0  0  0  0  0  0  0
   10.4780   -5.7689   11.3673 C   0  0  0  0  0  0  0  0  0  0  0  0
   11.4552   -5.9801   10.2150 C   0  0  0  0  0  0  0  0  0  0  0  0
   11.6244   -4.7410    9.4692 N   0  0  0  0  0  0  0  0  0  0  0  0
    9.5061   -1.0754    3.9800 N   0  0  0  0  0  0  0  0  0  0  0  0
    7.3699   -2.7063    7.4883 C   0  0  0  0  0  0  0  0  0  0  0  0
    6.7780   -3.5825    7.2738 O   0  0  0  0  0  0  0  0  0  0  0  0
    8.4489   -1.8731    6.8408 C   0  0  2  0  0  0  0  0  0  0  0  0
    7.9247   -0.7485    6.2556 O   0  0  0  0  0  0  0  0  0  0  0  0
    9.0449   -2.7161    5.7189 C   0  0  0  0  0  0  0  0  0  0  0  0
   10.1450   -2.0606    4.8645 C   0  0  0  0  0  0  0  0  0  0  0  0
  1  2  1  6  0  0  0
  1  3  1  0  0  0  0
  3  4  1  6  0  0  0
  3  5  1  0  0  0  0
  5  6  1  1  0  0  0
  5  7  1  0  0  0  0
  7  8  1  6  0  0  0
  9  7  1  0  0  0  0
  9 10  1  0  0  0  0
  9 11  1  1  0  0  0
 10  1  1  0  0  0  0
 11 12  1  0  0  0  0
 13 14  1  6  0  0  0
 13 15  1  0  0  0  0
 13 22  1  0  0  0  0
 14 32  1  0  0  0  0
 15 16  1  1  0  0  0
 15 17  1  0  0  0  0
 16 23  1  0  0  0  0
 17 18  1  1  0  0  0
 17 19  1  0  0  0  0
 19  2  1  1  0  0  0
 19 20  1  0  0  0  0
 20 21  1  6  0  0  0
 20 22  1  0  0  0  0
 23 24  1  0  0  0  0
 24 25  1  0  0  0  0
 25 26  1  0  0  0  0
 26 27  1  0  0  0  0
 27 28  1  0  0  0  0
 28 29  1  0  0  0  0
 29 30  1  0  0  0  0
 31 37  1  0  0  0  0
 32 33  2  0  0  0  0
 34 32  1  6  0  0  0
 34 35  1  0  0  0  0
 34 36  1  0  0  0  0
 36 37  1  0  0  0  0
M  END
>  <CHROM.1>
153.79210886,-60.08330260,172.27531858,-55.02736579,-46.01359402,55.17458555
70.94725089,88.58266030,-39.98176842,75.57787559,172.79840142,66.80668254
-81.53656213,177.84849006,-73.74709490,6.01939677,-1.65694220,11.11743349
-2.75096818,0.66872058,-1.14838975

>  <Name>
1o9m_lig

>  <RI>
0

>  <Rbt.Current_Directory>
/home/itssahil/PROJECTS/Mol_Feturizer/New_Systems/rnas/1o9m

>  <Rbt.Executable>
rbdock ($Id: //depot/dev/client3/rdock/2013.1/src/exe/rbdock.cxx#4 $)

>  <Rbt.Library>
libRbt.so (2013.1, Build901 2013/11/27)

>  <Rbt.Parameter_File>
/export/apps/rDock/src/rDock_2013.1_src/data/scripts/dock_solv.prm

>  <Rbt.Receptor>
prm/blind_docking_100.prm

>  <SCORE>
-12.8521

>  <SCORE.INTER>
-9.50223

>  <SCORE.INTER.CONST>
1

>  <SCORE.INTER.POLAR>
-1.37668

>  <SCORE.INTER.ROT>
15

>  <SCORE.INTER.SOLV>
20.9686

>  <SCORE.INTER.VDW>
-22.3354

>  <SCORE.INTER.norm>
-0.256817

>  <SCORE.INTRA>
-4.13475

>  <SCORE.INTRA.DIHEDRAL>
-13.1091

>  <SCORE.INTRA.DIHEDRAL.0>
21.5987

>  <SCORE.INTRA.POLAR>
0

>  <SCORE.INTRA.POLAR.0>
0

>  <SCORE.INTRA.REPUL>
0

>  <SCORE.INTRA.REPUL.0>
0

>  <SCORE.INTRA.SOLV>
3.82584

>  <SCORE.INTRA.SOLV.lig_0>
-108.715

>  <SCORE.INTRA.VDW>
0.506864

>  <SCORE.INTRA.VDW.0>
-3.9485

>  <SCORE.INTRA.norm>
-0.11175

>  <SCORE.RESTR>
0.784839

>  <SCORE.RESTR.CAVITY>
0.784839

>  <SCORE.RESTR.norm>
0.0212119

>  <SCORE.SYSTEM>
0

>  <SCORE.SYSTEM.CONST>
0

>  <SCORE.SYSTEM.DIHEDRAL>
0

>  <SCORE.SYSTEM.SOLV>
0

>  <SCORE.SYSTEM.norm>
0

>  <SCORE.heavy>
37

>  <SCORE.norm>
-0.347355

>  <RMSD>
24.778

$$$$
1o9m_lig
 OpenBabel11021811403D
libRbt.so/2013.1/901 2013/11/27
 37 38  0  0  0  0  0  0  0  0999 V2000
    5.5213    1.2839   11.8237 C   0  0  2  0  0  0  0  0  0  0  0  0
    5.4184    0.3612   10.6966 O   0  0  0  0  0  0  0  0  0  0  0  0
    5.7491    0.3981   13.1035 C   0  0  2  0  0  0  0  0  0  0  0  0
    6.9624   -0.4312   12.9976 N   0  0  0  0  0  0  0  0  0  0  0  0
    4.4770   -0.5017   13.3399 C   0  0  1  0  0  0  0  0  0  0  0  0
    4.6593   -1.3165   14.5010 O   0  0  0  0  0  0  0  0  0  0  0  0
    3.2332    0.4388   13.4663 C   0  0  2  0  0  0  0  0  0  0  0  0
    2.0070   -0.2826   13.6684 O   0  0  0  0  0  0  0  0  0  0  0  0
    3.0893    1.3264   12.2054 C   0  0  2  0  0  0  0  0  0  0  0  0
    4.2916    2.0719   11.9646 O   0  0  0  0  0  0  0  0  0  0  0  0
    1.9305    2.2820   12.3259 C   0  0  0  0  0  0  0  0  0  0  0  0
    1.9076    3.1400   11.2523 N   0  0  0  0  0  0  0  0  0  0  0  0
    8.5392   -1.4304    8.2735 C   0  0  1  0  0  0  0  0  0  0  0  0
    9.6849   -2.2996    7.8845 N   0  0  0  0  0  0  0  0  0  0  0  0
    7.3736   -2.3136    8.6975 C   0  0  2  0  0  0  0  0  0  0  0  0
    7.0677   -3.1620    7.6312 O   0  0  0  0  0  0  0  0  0  0  0  0
    6.1404   -1.4435    9.0974 C   0  0  1  0  0  0  0  0  0  0  0  0
    5.0372   -2.3007    9.5225 O   0  0  0  0  0  0  0  0  0  0  0  0
    6.5323   -0.4874   10.2966 C   0  0  1  0  0  0  0  0  0  0  0  0
    7.6842    0.4137    9.8784 C   0  0  1  0  0  0  0  0  0  0  0  0
    8.0181    1.2934   10.9886 N   0  0  0  0  0  0  0  0  0  0  0  0
    8.9038   -0.4516    9.4621 C   0  0  0  0  0  0  0  0  0  0  0  0
    7.2312   -3.8652    6.3801 C   0  0  0  0  0  0  0  0  0  0  0  0
    7.0130   -2.9019    5.2360 C   0  0  0  0  0  0  0  0  0  0  0  0
    5.5925   -2.6090    4.9544 N   0  0  0  0  0  0  0  0  0  0  0  0
    4.3614   -2.0627    4.3393 C   0  0  0  0  0  0  0  0  0  0  0  0
    3.3549   -2.7104    5.2987 C   0  0  0  0  0  0  0  0  0  0  0  0
    3.1567   -1.8850    6.5838 C   0  0  0  0  0  0  0  0  0  0  0  0
    2.3718   -0.6079    6.3005 C   0  0  0  0  0  0  0  0  0  0  0  0
    2.2031    0.1581    7.5274 N   0  0  0  0  0  0  0  0  0  0  0  0
   14.6070   -2.1891    7.9982 N   0  0  0  0  0  0  0  0  0  0  0  0
   10.0678   -3.4769    9.1549 C   0  0  0  0  0  0  0  0  0  0  0  0
    9.6594   -3.7107   10.1258 O   0  0  0  0  0  0  0  0  0  0  0  0
   11.1858   -3.9317    8.2489 C   0  0  2  0  0  0  0  0  0  0  0  0
   11.6179   -5.1895    8.5854 O   0  0  0  0  0  0  0  0  0  0  0  0
   12.3581   -2.9858    8.4844 C   0  0  0  0  0  0  0  0  0  0  0  0
   13.5939   -3.1711    7.5853 C   0  0  0  0  0  0  0  0  0  0  0  0
  1  2  1  6  0  0  0
  1  3  1  0  0  0  0
  3  4  1  6  0  0  0
  3  5  1  0  0  0  0
  5  6  1  1  0  0  0
  5  7  1  0  0  0  0
  7  8  1  6  0  0  0
  9  7  1  0  0  0  0
  9 10  1  0  0  0  0
  9 11  1  1  0  0  0
 10  1  1  0  0  0  0
 11 12  1  0  0  0  0
 13 14  1  1  0  0  0
 13 15  1  0  0  0  0
 13 22  1  0  0  0  0
 14 32  1  0  0  0  0
 15 16  1  6  0  0  0
 15 17  1  0  0  0  0
 16 23  1  0  0  0  0
 17 18  1  1  0  0  0
 17 19  1  0  0  0  0
 19  2  1  6  0  0  0
 19 20  1  0  0  0  0
 20 21  1  1  0  0  0
 20 22  1  0  0  0  0
 23 24  1  0  0  0  0
 24 25  1  0  0  0  0
 25 26  1  0  0  0  0
 26 27  1  0  0  0  0
 27 28  1  0  0  0  0
 28 29  1  0  0  0  0
 29 30  1  0  0  0  0
 31 37  1  0  0  0  0
 32 33  2  0  0  0  0
 34 32  1  1  0  0  0
 34 35  1  0  0  0  0
 34 36  1  0  0  0  0
 36 37  1  0  0  0  0
M  END
>  <CHROM.1>
-63.49316692,174.21228192,-52.39050032,15.29561588,-75.71494313,177.14207935
-78.28174764,-178.34759087,-178.28083503,84.28794888,71.85226581,-179.71072729
-160.71225600,-175.10476208,-178.64953270,6.53796205,-1.22374516,9.47142767
-2.54775622,0.28387662,-1.95917852

>  <Name>
1o9m_lig

>  <RI>
0

>  <Rbt.Current_Directory>
/home/itssahil/PROJECTS/Mol_Feturizer/New_Systems/rnas/1o9m

>  <Rbt.Executable>
rbdock ($Id: //depot/dev/client3/rdock/2013.1/src/exe/rbdock.cxx#4 $)

>  <Rbt.Library>
libRbt.so (2013.1, Build901 2013/11/27)

>  <Rbt.Parameter_File>
/export/apps/rDock/src/rDock_2013.1_src/data/scripts/dock_solv.prm

>  <Rbt.Receptor>
prm/blind_docking_60.prm

>  <SCORE>
-9.38306

>  <SCORE.INTER>
-8.57819

>  <SCORE.INTER.CONST>
1

>  <SCORE.INTER.POLAR>
-1.94219

>  <SCORE.INTER.ROT>
15

>  <SCORE.INTER.SOLV>
18.5651

>  <SCORE.INTER.VDW>
-19.0332

>  <SCORE.INTER.norm>
-0.231843

>  <SCORE.INTRA>
-0.813441

>  <SCORE.INTRA.DIHEDRAL>
-8.93365

>  <SCORE.INTRA.DIHEDRAL.0>
21.5987

>  <SCORE.INTRA.POLAR>
0

>  <SCORE.INTRA.POLAR.0>
0

>  <SCORE.INTRA.REPUL>
0

>  <SCORE.INTRA.REPUL.0>
0

>  <SCORE.INTRA.SOLV>
5.28252

>  <SCORE.INTRA.SOLV.lig_0>
-108.715

>  <SCORE.INTRA.VDW>
1.01213

>  <SCORE.INTRA.VDW.0>
-3.9485

>  <SCORE.INTRA.norm>
-0.0219849

>  <SCORE.RESTR>
0.00857898

>  <SCORE.RESTR.CAVITY>
0.00857898

>  <SCORE.RESTR.norm>
0.000231864

>  <SCORE.SYSTEM>
0

>  <SCORE.SYSTEM.CONST>
0

>  <SCORE.SYSTEM.DIHEDRAL>
0

>  <SCORE.SYSTEM.SOLV>
0

>  <SCORE.SYSTEM.norm>
0

>  <SCORE.heavy>
37

>  <SCORE.norm>
-0.253596

>  <RMSD>
24.788

$$$$
1o9m_lig
 OpenBabel11021811403D
libRbt.so/2013.1/901 2013/11/27
 37 38  0  0  0  0  0  0  0  0999 V2000
    2.5883    1.5405   12.6620 C   0  0  2  0  0  0  0  0  0  0  0  0
    3.9464    1.2139   13.0874 O   0  0  0  0  0  0  0  0  0  0  0  0
    2.0828    2.6775   13.6244 C   0  0  2  0  0  0  0  0  0  0  0  0
    2.9445    3.8716   13.5760 N   0  0  0  0  0  0  0  0  0  0  0  0
    1.9980    2.1096   15.0920 C   0  0  1  0  0  0  0  0  0  0  0  0
    1.5382    3.1257   15.9873 O   0  0  0  0  0  0  0  0  0  0  0  0
    1.0532    0.8627   15.0768 C   0  0  2  0  0  0  0  0  0  0  0  0
    0.9164    0.2510   16.3699 O   0  0  0  0  0  0  0  0  0  0  0  0
    1.5665   -0.1991   14.0731 C   0  0  2  0  0  0  0  0  0  0  0  0
    1.7152    0.3656   12.7623 O   0  0  0  0  0  0  0  0  0  0  0  0
    0.6428   -1.3873   13.9980 C   0  0  0  0  0  0  0  0  0  0  0  0
    1.1879   -2.3640   13.1990 N   0  0  0  0  0  0  0  0  0  0  0  0
    7.2299   -1.3787   11.9393 C   0  0  1  0  0  0  0  0  0  0  0  0
    8.1160   -2.2241   11.0911 N   0  0  0  0  0  0  0  0  0  0  0  0
    7.2085    0.0343   11.3723 C   0  0  2  0  0  0  0  0  0  0  0  0
    8.5239    0.5019   11.3352 O   0  0  0  0  0  0  0  0  0  0  0  0
    6.3043    0.9631   12.2425 C   0  0  1  0  0  0  0  0  0  0  0  0
    6.2745    2.3091   11.6767 O   0  0  0  0  0  0  0  0  0  0  0  0
    4.8285    0.3913   12.2711 C   0  0  1  0  0  0  0  0  0  0  0  0
    4.8344   -1.0139   12.8536 C   0  0  1  0  0  0  0  0  0  0  0  0
    3.4682   -1.5143   12.8846 N   0  0  0  0  0  0  0  0  0  0  0  0
    5.7489   -1.9327   11.9999 C   0  0  0  0  0  0  0  0  0  0  0  0
    9.8094    0.9461   11.8217 C   0  0  0  0  0  0  0  0  0  0  0  0
   10.6732    1.3483   10.6484 C   0  0  0  0  0  0  0  0  0  0  0  0
   11.0242    0.2329    9.7453 N   0  0  0  0  0  0  0  0  0  0  0  0
   11.6872   -0.9599    9.1709 C   0  0  0  0  0  0  0  0  0  0  0  0
   10.6353   -1.2765    8.1003 C   0  0  0  0  0  0  0  0  0  0  0  0
   11.1708   -2.2328    7.0182 C   0  0  0  0  0  0  0  0  0  0  0  0
   11.4410   -3.6189    7.5953 C   0  0  0  0  0  0  0  0  0  0  0  0
   12.2126   -4.4128    6.6495 N   0  0  0  0  0  0  0  0  0  0  0  0
   11.6061   -6.9484   10.7005 N   0  0  0  0  0  0  0  0  0  0  0  0
    7.8505   -3.9516   11.3943 C   0  0  0  0  0  0  0  0  0  0  0  0
    7.1958   -4.5213   12.0353 O   0  0  0  0  0  0  0  0  0  0  0  0
    8.9444   -4.1889   10.3821 C   0  0  2  0  0  0  0  0  0  0  0  0
    8.4240   -4.4938    9.1500 O   0  0  0  0  0  0  0  0  0  0  0  0
    9.7195   -5.4162   10.8486 C   0  0  0  0  0  0  0  0  0  0  0  0
   11.0652   -5.6951   10.1548 C   0  0  0  0  0  0  0  0  0  0  0  0
  1  2  1  1  0  0  0
  1  3  1  0  0  0  0
  3  4  1  1  0  0  0
  3  5  1  0  0  0  0
  5  6  1  1  0  0  0
  5  7  1  0  0  0  0
  7  8  1  1  0  0  0
  9  7  1  0  0  0  0
  9 10  1  0  0  0  0
  9 11  1  6  0  0  0
 10  1  1  0  0  0  0
 11 12  1  0  0  0  0
 13 14  1  6  0  0  0
 13 15  1  0  0  0  0
 13 22  1  0  0  0  0
 14 32  1  0  0  0  0
 15 16  1  1  0  0  0
 15 17  1  0  0  0  0
 16 23  1  0  0  0  0
 17 18  1  6  0  0  0
 17 19  1  0  0  0  0
 19  2  1  1  0  0  0
 19 20  1  0  0  0  0
 20 21  1  6  0  0  0
 20 22  1  0  0  0  0
 23 24  1  0  0  0  0
 24 25  1  0  0  0  0
 25 26  1  0  0  0  0
 26 27  1  0  0  0  0
 27 28  1  0  0  0  0
 28 29  1  0  0  0  0
 29 30  1  0  0  0  0
 31 37  1  0  0  0  0
 32 33  2  0  0  0  0
 34 32  1  1  0  0  0
 34 35  1  0  0  0  0
 34 36  1  0  0  0  0
 36 37  1  0  0  0  0
M  END
>  <CHROM.1>
-167.78306446,-174.27665005,-164.10364095,-66.16056398,-177.47127363,137.89975123
-65.20946954,-80.35493992,166.32554375,163.43157600,67.17575513,-167.51714764
-98.97750286,-167.47447106,-177.13144334,6.42534331,-0.98713919,11.75517249
-2.70149060,-0.50362113,-3.09351989

>  <Name>
1o9m_lig

>  <RI>
0

>  <Rbt.Current_Directory>
/home/itssahil/PROJECTS/Mol_Feturizer/New_Systems/rnas/1o9m

>  <Rbt.Executable>
rbdock ($Id: //depot/dev/client3/rdock/2013.1/src/exe/rbdock.cxx#4 $)

>  <Rbt.Library>
libRbt.so (2013.1, Build901 2013/11/27)

>  <Rbt.Parameter_File>
/export/apps/rDock/src/rDock_2013.1_src/data/scripts/dock_solv.prm

>  <Rbt.Receptor>
prm/blind_docking_100.prm

>  <SCORE>
-4.89307

>  <SCORE.INTER>
-4.29497

>  <SCORE.INTER.CONST>
1

>  <SCORE.INTER.POLAR>
-0.638798

>  <SCORE.INTER.ROT>
15

>  <SCORE.INTER.SOLV>
27.264

>  <SCORE.INTER.VDW>
-23.422

>  <SCORE.INTER.norm>
-0.11608

>  <SCORE.INTRA>
-0.714706

>  <SCORE.INTRA.DIHEDRAL>
-9.90057

>  <SCORE.INTRA.DIHEDRAL.0>
21.5987

>  <SCORE.INTRA.POLAR>
0

>  <SCORE.INTRA.POLAR.0>
0

>  <SCORE.INTRA.REPUL>
0

>  <SCORE.INTRA.REPUL.0>
0

>  <SCORE.INTRA.SOLV>
6.10978

>  <SCORE.INTRA.SOLV.lig_0>
-108.715

>  <SCORE.INTRA.VDW>
1.18069

>  <SCORE.INTRA.VDW.0>
-3.9485

>  <SCORE.INTRA.norm>
-0.0193164

>  <SCORE.RESTR>
0.116602

>  <SCORE.RESTR.CAVITY>
0.116602

>  <SCORE.RESTR.norm>
0.00315139

>  <SCORE.SYSTEM>
0

>  <SCORE.SYSTEM.CONST>
0

>  <SCORE.SYSTEM.DIHEDRAL>
0

>  <SCORE.SYSTEM.SOLV>
0

>  <SCORE.SYSTEM.norm>
0

>  <SCORE.heavy>
37

>  <SCORE.norm>
-0.132245

>  <RMSD>
24.793

$$$$
1o9m_lig
 OpenBabel11021811403D
libRbt.so/2013.1/901 2013/11/27
 37 38  0  0  0  0  0  0  0  0999 V2000
   11.1757   -2.5365   12.1478 C   0  0  2  0  0  0  0  0  0  0  0  0
   10.7632   -1.8061   10.9525 O   0  0  0  0  0  0  0  0  0  0  0  0
   12.6081   -3.1116   11.8445 C   0  0  2  0  0  0  0  0  0  0  0  0
   13.5777   -2.0498   11.5230 N   0  0  0  0  0  0  0  0  0  0  0  0
   12.5062   -4.1504   10.6636 C   0  0  1  0  0  0  0  0  0  0  0  0
   13.7977   -4.6899   10.3697 O   0  0  0  0  0  0  0  0  0  0  0  0
   11.4825   -5.2584   11.0781 C   0  0  2  0  0  0  0  0  0  0  0  0
   11.2980   -6.2559   10.0603 O   0  0  0  0  0  0  0  0  0  0  0  0
   10.1079   -4.6319   11.4192 C   0  0  2  0  0  0  0  0  0  0  0  0
   10.2411   -3.6297   12.4377 O   0  0  0  0  0  0  0  0  0  0  0  0
    9.1190   -5.6729   11.8760 C   0  0  0  0  0  0  0  0  0  0  0  0
    9.5311   -6.2331   13.0616 N   0  0  0  0  0  0  0  0  0  0  0  0
    6.9854   -0.0446   12.1552 C   0  0  1  0  0  0  0  0  0  0  0  0
    5.7652    0.8095   12.1229 N   0  0  0  0  0  0  0  0  0  0  0  0
    6.9920   -0.9395   10.9233 C   0  0  2  0  0  0  0  0  0  0  0  0
    5.8120   -1.6864   10.9289 O   0  0  0  0  0  0  0  0  0  0  0  0
    8.2470   -1.8683   10.9240 C   0  0  1  0  0  0  0  0  0  0  0  0
    8.2533   -2.7057    9.7277 O   0  0  0  0  0  0  0  0  0  0  0  0
    9.5606   -0.9850   10.9328 C   0  0  1  0  0  0  0  0  0  0  0  0
    9.5747   -0.0995   12.1696 C   0  0  1  0  0  0  0  0  0  0  0  0
   10.7959    0.6919   12.1657 N   0  0  0  0  0  0  0  0  0  0  0  0
    8.3169    0.8100   12.1790 C   0  0  0  0  0  0  0  0  0  0  0  0
    4.8744   -2.7202   11.3011 C   0  0  0  0  0  0  0  0  0  0  0  0
    3.5465   -2.4522   10.6307 C   0  0  0  0  0  0  0  0  0  0  0  0
    3.6253   -2.3289    9.1605 N   0  0  0  0  0  0  0  0  0  0  0  0
    3.8324   -2.6453    7.7289 C   0  0  0  0  0  0  0  0  0  0  0  0
    5.3447   -2.8929    7.7963 C   0  0  0  0  0  0  0  0  0  0  0  0
    5.9322   -3.3022    6.4326 C   0  0  0  0  0  0  0  0  0  0  0  0
    7.4323   -3.5599    6.5360 C   0  0  0  0  0  0  0  0  0  0  0  0
    8.1402   -2.3081    6.7646 N   0  0  0  0  0  0  0  0  0  0  0  0
    1.8599    3.8190   15.1312 N   0  0  0  0  0  0  0  0  0  0  0  0
    4.6971    0.4687   13.4975 C   0  0  0  0  0  0  0  0  0  0  0  0
    4.7342   -0.1982   14.3448 O   0  0  0  0  0  0  0  0  0  0  0  0
    3.7742    1.5028   12.9004 C   0  0  2  0  0  0  0  0  0  0  0  0
    4.4538    2.6515   12.5829 O   0  0  0  0  0  0  0  0  0  0  0  0
    2.7657    1.8727   13.9824 C   0  0  0  0  0  0  0  0  0  0  0  0
    2.0107    3.2025   13.8052 C   0  0  0  0  0  0  0  0  0  0  0  0
  1  2  1  6  0  0  0
  1  3  1  0  0  0  0
  3  4  1  6  0  0  0
  3  5  1  0  0  0  0
  5  6  1  1  0  0  0
  5  7  1  0  0  0  0
  7  8  1  6  0  0  0
  9  7  1  0  0  0  0
  9 10  1  0  0  0  0
  9 11  1  1  0  0  0
 10  1  1  0  0  0  0
 11 12  1  0  0  0  0
 13 14  1  6  0  0  0
 13 15  1  0  0  0  0
 13 22  1  0  0  0  0
 14 32  1  0  0  0  0
 15 16  1  1  0  0  0
 15 17  1  0  0  0  0
 16 23  1  0  0  0  0
 17 18  1  6  0  0  0
 17 19  1  0  0  0  0
 19  2  1  1  0  0  0
 19 20  1  0  0  0  0
 20 21  1  6  0  0  0
 20 22  1  0  0  0  0
 23 24  1  0  0  0  0
 24 25  1  0  0  0  0
 25 26  1  0  0  0  0
 26 27  1  0  0  0  0
 27 28  1  0  0  0  0
 28 29  1  0  0  0  0
 29 30  1  0  0  0  0
 31 37  1  0  0  0  0
 32 33  2  0  0  0  0
 34 32  1  1  0  0  0
 34 35  1  0  0  0  0
 34 36  1  0  0  0  0
 36 37  1  0  0  0  0
M  END
>  <CHROM.1>
-171.58375825,64.94797046,116.89357437,-77.03354414,172.86918457,-72.66681008
55.70178414,64.29153250,-65.07306300,178.41857779,-179.21560226,-69.58312145
-48.74692161,160.83313544,-142.17621519,7.66884653,-1.77450190,11.18642095
-0.55565187,-0.33329736,0.84611473

>  <Name>
1o9m_lig

>  <RI>
0

>  <Rbt.Current_Directory>
/home/itssahil/PROJECTS/Mol_Feturizer/New_Systems/rnas/1o9m

>  <Rbt.Executable>
rbdock ($Id: //depot/dev/client3/rdock/2013.1/src/exe/rbdock.cxx#4 $)

>  <Rbt.Library>
libRbt.so (2013.1, Build901 2013/11/27)

>  <Rbt.Parameter_File>
/export/apps/rDock/src/rDock_2013.1_src/data/scripts/dock_solv.prm

>  <Rbt.Receptor>
prm/blind_docking_60.prm

>  <SCORE>
-16.5703

>  <SCORE.INTER>
-14.3671

>  <SCORE.INTER.CONST>
1

>  <SCORE.INTER.POLAR>
-2.91004

>  <SCORE.INTER.ROT>
15

>  <SCORE.INTER.SOLV>
18.3792

>  <SCORE.INTER.VDW>
-19.6043

>  <SCORE.INTER.norm>
-0.388299

>  <SCORE.INTRA>
-2.34002

>  <SCORE.INTRA.DIHEDRAL>
-11.0323

>  <SCORE.INTRA.DIHEDRAL.0>
21.5987

>  <SCORE.INTRA.POLAR>
0

>  <SCORE.INTRA.POLAR.0>
0

>  <SCORE.INTRA.REPUL>
0

>  <SCORE.INTRA.REPUL.0>
0

>  <SCORE.INTRA.SOLV>
4.49288

>  <SCORE.INTRA.SOLV.lig_0>
-108.715

>  <SCORE.INTRA.VDW>
0.929702

>  <SCORE.INTRA.VDW.0>
-3.9485

>  <SCORE.INTRA.norm>
-0.0632437

>  <SCORE.RESTR>
0.136786

>  <SCORE.RESTR.CAVITY>
0.136786

>  <SCORE.RESTR.norm>
0.00369693

>  <SCORE.SYSTEM>
0

>  <SCORE.SYSTEM.CONST>
0

>  <SCORE.SYSTEM.DIHEDRAL>
0

>  <SCORE.SYSTEM.SOLV>
0

>  <SCORE.SYSTEM.norm>
0

>  <SCORE.heavy>
37

>  <SCORE.norm>
-0.447846

>  <RMSD>
24.819

$$$$
1o9m_lig
 OpenBabel11021811403D
libRbt.so/2013.1/901 2013/11/27
 37 38  0  0  0  0  0  0  0  0999 V2000
    3.7291   -0.3686   12.2407 C   0  0  2  0  0  0  0  0  0  0  0  0
    4.7257   -0.6645   13.2662 O   0  0  0  0  0  0  0  0  0  0  0  0
    3.4432    1.1755   12.3317 C   0  0  2  0  0  0  0  0  0  0  0  0
    4.6596    1.9802   12.1227 N   0  0  0  0  0  0  0  0  0  0  0  0
    2.7951    1.4973   13.7319 C   0  0  1  0  0  0  0  0  0  0  0  0
    2.5236    2.8974   13.8385 O   0  0  0  0  0  0  0  0  0  0  0  0
    1.5009    0.6307   13.8790 C   0  0  2  0  0  0  0  0  0  0  0  0
    0.8341    0.8335   15.1356 O   0  0  0  0  0  0  0  0  0  0  0  0
    1.8313   -0.8745   13.7253 C   0  0  2  0  0  0  0  0  0  0  0  0
    2.4963   -1.1277   12.4791 O   0  0  0  0  0  0  0  0  0  0  0  0
    0.5922   -1.7281   13.8071 C   0  0  0  0  0  0  0  0  0  0  0  0
    0.9290   -3.0299   14.0920 N   0  0  0  0  0  0  0  0  0  0  0  0
    8.4870   -0.5217   11.1093 C   0  0  1  0  0  0  0  0  0  0  0  0
    9.9279   -0.7278   10.7916 N   0  0  0  0  0  0  0  0  0  0  0  0
    7.8250   -1.8804   11.2939 C   0  0  2  0  0  0  0  0  0  0  0  0
    8.0180   -2.6149   10.1220 O   0  0  0  0  0  0  0  0  0  0  0  0
    6.3053   -1.7139   11.6111 C   0  0  1  0  0  0  0  0  0  0  0  0
    5.6866   -3.0220   11.8074 O   0  0  0  0  0  0  0  0  0  0  0  0
    6.1297   -0.8649   12.9355 C   0  0  1  0  0  0  0  0  0  0  0  0
    6.7711    0.5028   12.7565 C   0  0  1  0  0  0  0  0  0  0  0  0
    6.5854    1.2711   13.9783 N   0  0  0  0  0  0  0  0  0  0  0  0
    8.2777    0.3368   12.4218 C   0  0  0  0  0  0  0  0  0  0  0  0
    8.7199   -3.2484    9.0299 C   0  0  0  0  0  0  0  0  0  0  0  0
    7.7328   -4.0222    8.1865 C   0  0  0  0  0  0  0  0  0  0  0  0
    6.7301   -3.1795    7.5029 N   0  0  0  0  0  0  0  0  0  0  0  0
    6.0659   -2.3047    6.5099 C   0  0  0  0  0  0  0  0  0  0  0  0
    4.6185   -2.6889    6.8423 C   0  0  0  0  0  0  0  0  0  0  0  0
    3.6168   -2.1509    5.8034 C   0  0  0  0  0  0  0  0  0  0  0  0
    2.1886   -2.5529    6.1583 C   0  0  0  0  0  0  0  0  0  0  0  0
    1.7821   -1.9105    7.4002 N   0  0  0  0  0  0  0  0  0  0  0  0
   14.1806   -0.7203   14.1500 N   0  0  0  0  0  0  0  0  0  0  0  0
   10.6783   -1.8896   11.9025 C   0  0  0  0  0  0  0  0  0  0  0  0
   10.3318   -2.4803   12.7362 O   0  0  0  0  0  0  0  0  0  0  0  0
   11.9568   -1.6269   11.1448 C   0  0  2  0  0  0  0  0  0  0  0  0
   12.5881   -2.7989   10.8134 O   0  0  0  0  0  0  0  0  0  0  0  0
   12.8870   -0.8788   12.0933 C   0  0  0  0  0  0  0  0  0  0  0  0
   13.2153   -1.5649   13.4317 C   0  0  0  0  0  0  0  0  0  0  0  0
  1  2  1  1  0  0  0
  1  3  1  0  0  0  0
  3  4  1  1  0  0  0
  3  5  1  0  0  0  0
  5  6  1  6  0  0  0
  5  7  1  0  0  0  0
  7  8  1  1  0  0  0
  9  7  1  0  0  0  0
  9 10  1  0  0  0  0
  9 11  1  6  0  0  0
 10  1  1  0  0  0  0
 11 12  1  0  0  0  0
 13 14  1  1  0  0  0
 13 15  1  0  0  0  0
 13 22  1  0  0  0  0
 14 32  1  0  0  0  0
 15 16  1  6  0  0  0
 15 17  1  0  0  0  0
 16 23  1  0  0  0  0
 17 18  1  1  0  0  0
 17 19  1  0  0  0  0
 19  2  1  6  0  0  0
 19 20  1  0  0  0  0
 20 21  1  1  0  0  0
 20 22  1  0  0  0  0
 23 24  1  0  0  0  0
 24 25  1  0  0  0  0
 25 26  1  0  0  0  0
 26 27  1  0  0  0  0
 27 28  1  0  0  0  0
 28 29  1  0  0  0  0
 29 30  1  0  0  0  0
 31 37  1  0  0  0  0
 32 33  2  0  0  0  0
 34 32  1  1  0  0  0
 34 35  1  0  0  0  0
 34 36  1  0  0  0  0
 36 37  1  0  0  0  0
M  END
>  <CHROM.1>
-102.37767766,-161.00079324,-47.52529207,54.83586533,175.43844016,-40.73775450
64.94785149,84.89549162,153.97377833,-169.26431764,179.80440717,65.50606057
-132.51449969,57.02589106,176.64302981,6.24080921,-1.14904865,11.44731473
-3.00559286,0.09848108,-2.01638865

>  <Name>
1o9m_lig

>  <RI>
0

>  <Rbt.Current_Directory>
/home/itssahil/PROJECTS/Mol_Feturizer/New_Systems/rnas/1o9m

>  <Rbt.Executable>
rbdock ($Id: //depot/dev/client3/rdock/2013.1/src/exe/rbdock.cxx#4 $)

>  <Rbt.Library>
libRbt.so (2013.1, Build901 2013/11/27)

>  <Rbt.Parameter_File>
/export/apps/rDock/src/rDock_2013.1_src/data/scripts/dock_solv.prm

>  <Rbt.Receptor>
prm/blind_docking_80.prm

>  <SCORE>
1.74649

>  <SCORE.INTER>
2.78943

>  <SCORE.INTER.CONST>
1

>  <SCORE.INTER.POLAR>
-0.702709

>  <SCORE.INTER.ROT>
15

>  <SCORE.INTER.SOLV>
24.3509

>  <SCORE.INTER.VDW>
-17.515

>  <SCORE.INTER.norm>
0.0753899

>  <SCORE.INTRA>
-1.0686

>  <SCORE.INTRA.DIHEDRAL>
-8.5633

>  <SCORE.INTRA.DIHEDRAL.0>
21.5987

>  <SCORE.INTRA.POLAR>
0

>  <SCORE.INTRA.POLAR.0>
0

>  <SCORE.INTRA.REPUL>
0

>  <SCORE.INTRA.REPUL.0>
0

>  <SCORE.INTRA.SOLV>
5.38351

>  <SCORE.INTRA.SOLV.lig_0>
-108.715

>  <SCORE.INTRA.VDW>
0.521295

>  <SCORE.INTRA.VDW.0>
-3.9485

>  <SCORE.INTRA.norm>
-0.028881

>  <SCORE.RESTR>
0.0256642

>  <SCORE.RESTR.CAVITY>
0.0256642

>  <SCORE.RESTR.norm>
0.000693626

>  <SCORE.SYSTEM>
0

>  <SCORE.SYSTEM.CONST>
0

>  <SCORE.SYSTEM.DIHEDRAL>
0

>  <SCORE.SYSTEM.SOLV>
0

>  <SCORE.SYSTEM.norm>
0

>  <SCORE.heavy>
37

>  <SCORE.norm>
0.0472025

>  <RMSD>
24.868

$$$$
1o9m_lig
 OpenBabel11021811403D
libRbt.so/2013.1/901 2013/11/27
 37 38  0  0  0  0  0  0  0  0999 V2000
   11.3637   -3.6758   10.2235 C   0  0  2  0  0  0  0  0  0  0  0  0
   11.5210   -2.4199   10.9517 O   0  0  0  0  0  0  0  0  0  0  0  0
   12.7717   -4.0113    9.6074 C   0  0  2  0  0  0  0  0  0  0  0  0
   13.8157   -4.1356   10.6397 N   0  0  0  0  0  0  0  0  0  0  0  0
   13.1533   -2.8980    8.5591 C   0  0  1  0  0  0  0  0  0  0  0  0
   14.4310   -3.1819    7.9826 O   0  0  0  0  0  0  0  0  0  0  0  0
   12.0195   -2.8346    7.4830 C   0  0  2  0  0  0  0  0  0  0  0  0
   12.2581   -1.8337    6.4800 O   0  0  0  0  0  0  0  0  0  0  0  0
   10.6491   -2.5582    8.1494 C   0  0  2  0  0  0  0  0  0  0  0  0
   10.3640   -3.5378    9.1585 O   0  0  0  0  0  0  0  0  0  0  0  0
    9.5306   -2.5480    7.1398 C   0  0  0  0  0  0  0  0  0  0  0  0
    9.4924   -3.7419    6.4597 N   0  0  0  0  0  0  0  0  0  0  0  0
    7.4467   -1.4388   12.0731 C   0  0  1  0  0  0  0  0  0  0  0  0
    6.3041   -0.7548   12.7411 N   0  0  0  0  0  0  0  0  0  0  0  0
    8.2263   -0.4140   11.2605 C   0  0  2  0  0  0  0  0  0  0  0  0
    7.3446    0.1735   10.3509 O   0  0  0  0  0  0  0  0  0  0  0  0
    9.4260   -1.0912   10.5258 C   0  0  1  0  0  0  0  0  0  0  0  0
   10.1783   -0.0950    9.7680 O   0  0  0  0  0  0  0  0  0  0  0  0
   10.3918   -1.7567   11.5889 C   0  0  1  0  0  0  0  0  0  0  0  0
    9.6284   -2.7967   12.3948 C   0  0  1  0  0  0  0  0  0  0  0  0
   10.5372   -3.4058   13.3544 N   0  0  0  0  0  0  0  0  0  0  0  0
    8.4242   -2.1272   13.1096 C   0  0  0  0  0  0  0  0  0  0  0  0
    6.8702    1.0700    9.3223 C   0  0  0  0  0  0  0  0  0  0  0  0
    5.4704    0.6674    8.9186 C   0  0  0  0  0  0  0  0  0  0  0  0
    5.3335   -0.7566    8.5490 N   0  0  0  0  0  0  0  0  0  0  0  0
    4.7643   -2.1035    8.3159 C   0  0  0  0  0  0  0  0  0  0  0  0
    3.8124   -1.7228    7.1749 C   0  0  0  0  0  0  0  0  0  0  0  0
    2.9995   -2.9273    6.6643 C   0  0  0  0  0  0  0  0  0  0  0  0
    2.1512   -2.5445    5.4555 C   0  0  0  0  0  0  0  0  0  0  0  0
    3.0067   -2.2846    4.3062 N   0  0  0  0  0  0  0  0  0  0  0  0
    2.2745    0.3245   15.5139 N   0  0  0  0  0  0  0  0  0  0  0  0
    4.8239   -1.7286   12.6555 C   0  0  0  0  0  0  0  0  0  0  0  0
    4.5688   -2.6936   12.2458 O   0  0  0  0  0  0  0  0  0  0  0  0
    4.1566   -0.5855   13.3804 C   0  0  2  0  0  0  0  0  0  0  0  0
    4.6080   -0.4847   14.6719 O   0  0  0  0  0  0  0  0  0  0  0  0
    2.6708   -0.9186   13.4582 C   0  0  0  0  0  0  0  0  0  0  0  0
    1.7617    0.1114   14.1528 C   0  0  0  0  0  0  0  0  0  0  0  0
  1  2  1  6  0  0  0
  1  3  1  0  0  0  0
  3  4  1  1  0  0  0
  3  5  1  0  0  0  0
  5  6  1  6  0  0  0
  5  7  1  0  0  0  0
  7  8  1  6  0  0  0
  9  7  1  0  0  0  0
  9 10  1  0  0  0  0
  9 11  1  6  0  0  0
 10  1  1  0  0  0  0
 11 12  1  0  0  0  0
 13 14  1  1  0  0  0
 13 15  1  0  0  0  0
 13 22  1  0  0  0  0
 14 32  1  0  0  0  0
 15 16  1  6  0  0  0
 15 17  1  0  0  0  0
 16 23  1  0  0  0  0
 17 18  1  1  0  0  0
 17 19  1  0  0  0  0
 19  2  1  6  0  0  0
 19 20  1  0  0  0  0
 20 21  1  1  0  0  0
 20 22  1  0  0  0  0
 23 24  1  0  0  0  0
 24 25  1  0  0  0  0
 25 26  1  0  0  0  0
 26 27  1  0  0  0  0
 27 28  1  0  0  0  0
 28 29  1  0  0  0  0
 29 30  1  0  0  0  0
 31 37  1  0  0  0  0
 32 33  2  0  0  0  0
 34 32  1  6  0  0  0
 34 35  1  0  0  0  0
 34 36  1  0  0  0  0
 36 37  1  0  0  0  0
M  END
>  <CHROM.1>
176.17786209,57.25917182,137.83610677,174.93904914,174.35777887,-72.74785422
-52.51925865,153.52378424,66.94245011,-179.26255719,-175.19781021,69.16547624
-68.88173083,-179.57813691,-56.83414959,7.81372218,-1.81924034,10.11435794
-0.32486282,-0.18780914,1.41682415

>  <Name>
1o9m_lig

>  <RI>
0

>  <Rbt.Current_Directory>
/home/itssahil/PROJECTS/Mol_Feturizer/New_Systems/rnas/1o9m

>  <Rbt.Executable>
rbdock ($Id: //depot/dev/client3/rdock/2013.1/src/exe/rbdock.cxx#4 $)

>  <Rbt.Library>
libRbt.so (2013.1, Build901 2013/11/27)

>  <Rbt.Parameter_File>
/export/apps/rDock/src/rDock_2013.1_src/data/scripts/dock_solv.prm

>  <Rbt.Receptor>
prm/blind_docking_60.prm

>  <SCORE>
-15.9066

>  <SCORE.INTER>
-9.46069

>  <SCORE.INTER.CONST>
1

>  <SCORE.INTER.POLAR>
-2.08883

>  <SCORE.INTER.ROT>
15

>  <SCORE.INTER.SOLV>
16.6328

>  <SCORE.INTER.VDW>
-18.4886

>  <SCORE.INTER.norm>
-0.255694

>  <SCORE.INTRA>
-6.6375

>  <SCORE.INTRA.DIHEDRAL>
-17.4577

>  <SCORE.INTRA.DIHEDRAL.0>
21.5987

>  <SCORE.INTRA.POLAR>
0

>  <SCORE.INTRA.POLAR.0>
0

>  <SCORE.INTRA.REPUL>
0

>  <SCORE.INTRA.REPUL.0>
0

>  <SCORE.INTRA.SOLV>
4.22263

>  <SCORE.INTRA.SOLV.lig_0>
-108.715

>  <SCORE.INTRA.VDW>
-0.0199552

>  <SCORE.INTRA.VDW.0>
-3.9485

>  <SCORE.INTRA.norm>
-0.179392

>  <SCORE.RESTR>
0.19159

>  <SCORE.RESTR.CAVITY>
0.19159

>  <SCORE.RESTR.norm>
0.0051781

>  <SCORE.SYSTEM>
0

>  <SCORE.SYSTEM.CONST>
0

>  <SCORE.SYSTEM.DIHEDRAL>
0

>  <SCORE.SYSTEM.SOLV>
0

>  <SCORE.SYSTEM.norm>
0

>  <SCORE.heavy>
37

>  <SCORE.norm>
-0.429908

>  <RMSD>
24.882

$$$$
1o9m_lig
 OpenBabel11021811403D
libRbt.so/2013.1/901 2013/11/27
 37 38  0  0  0  0  0  0  0  0999 V2000
    4.2715    0.4446   12.1613 C   0  0  2  0  0  0  0  0  0  0  0  0
    5.3320    0.2110   13.1375 O   0  0  0  0  0  0  0  0  0  0  0  0
    3.4817    1.7111   12.6581 C   0  0  2  0  0  0  0  0  0  0  0  0
    4.3489    2.8962   12.7780 N   0  0  0  0  0  0  0  0  0  0  0  0
    2.7944    1.3807   14.0373 C   0  0  1  0  0  0  0  0  0  0  0  0
    2.0672    2.5180   14.5098 O   0  0  0  0  0  0  0  0  0  0  0  0
    1.8737    0.1322   13.8346 C   0  0  2  0  0  0  0  0  0  0  0  0
    1.2057   -0.2698   15.0418 O   0  0  0  0  0  0  0  0  0  0  0  0
    2.6907   -1.0665   13.2923 C   0  0  2  0  0  0  0  0  0  0  0  0
    3.3742   -0.7134   12.0809 O   0  0  0  0  0  0  0  0  0  0  0  0
    1.8160   -2.2662   13.0350 C   0  0  0  0  0  0  0  0  0  0  0  0
    1.2845   -2.7295   14.2149 N   0  0  0  0  0  0  0  0  0  0  0  0
    8.6030   -1.3421   10.7482 C   0  0  1  0  0  0  0  0  0  0  0  0
    9.8802   -2.0242   10.3974 N   0  0  0  0  0  0  0  0  0  0  0  0
    7.6802   -2.3452   11.4269 C   0  0  2  0  0  0  0  0  0  0  0  0
    7.4947   -3.4179   10.5523 O   0  0  0  0  0  0  0  0  0  0  0  0
    6.3182   -1.6775   11.7970 C   0  0  1  0  0  0  0  0  0  0  0  0
    5.4506   -2.6429   12.4662 O   0  0  0  0  0  0  0  0  0  0  0  0
    6.5731   -0.4596   12.7755 C   0  0  1  0  0  0  0  0  0  0  0  0
    7.4792    0.5591   12.1010 C   0  0  1  0  0  0  0  0  0  0  0  0
    7.6881    1.6756   13.0107 N   0  0  0  0  0  0  0  0  0  0  0  0
    8.8258   -0.1097   11.7153 C   0  0  0  0  0  0  0  0  0  0  0  0
    7.8313   -4.4739    9.6258 C   0  0  0  0  0  0  0  0  0  0  0  0
    8.2292   -3.8649    8.3009 C   0  0  0  0  0  0  0  0  0  0  0  0
    7.2380   -2.9190    7.7479 N   0  0  0  0  0  0  0  0  0  0  0  0
    6.4667   -2.0775    6.8049 C   0  0  0  0  0  0  0  0  0  0  0  0
    5.5378   -1.4232    7.8355 C   0  0  0  0  0  0  0  0  0  0  0  0
    4.3852   -2.3533    8.2584 C   0  0  0  0  0  0  0  0  0  0  0  0
    3.4747   -2.6715    7.0764 C   0  0  0  0  0  0  0  0  0  0  0  0
    2.7769   -1.4686    6.6445 N   0  0  0  0  0  0  0  0  0  0  0  0
   11.8031   -5.1209    9.1556 N   0  0  0  0  0  0  0  0  0  0  0  0
   11.0165   -0.9114    9.6117 C   0  0  0  0  0  0  0  0  0  0  0  0
   10.9982    0.1335    9.3439 O   0  0  0  0  0  0  0  0  0  0  0  0
   11.9411   -2.0995    9.5050 C   0  0  2  0  0  0  0  0  0  0  0  0
   13.2395   -1.7028    9.3077 O   0  0  0  0  0  0  0  0  0  0  0  0
   11.5235   -2.8741    8.2599 C   0  0  0  0  0  0  0  0  0  0  0  0
   12.1862   -4.2457    8.0383 C   0  0  0  0  0  0  0  0  0  0  0  0
  1  2  1  1  0  0  0
  1  3  1  0  0  0  0
  3  4  1  1  0  0  0
  3  5  1  0  0  0  0
  5  6  1  6  0  0  0
  5  7  1  0  0  0  0
  7  8  1  1  0  0  0
  9  7  1  0  0  0  0
  9 10  1  0  0  0  0
  9 11  1  6  0  0  0
 10  1  1  0  0  0  0
 11 12  1  0  0  0  0
 13 14  1  1  0  0  0
 13 15  1  0  0  0  0
 13 22  1  0  0  0  0
 14 32  1  0  0  0  0
 15 16  1  6  0  0  0
 15 17  1  0  0  0  0
 16 23  1  0  0  0  0
 17 18  1  1  0  0  0
 17 19  1  0  0  0  0
 19  2  1  6  0  0  0
 19 20  1  0  0  0  0
 20 21  1  1  0  0  0
 20 22  1  0  0  0  0
 23 24  1  0  0  0  0
 24 25  1  0  0  0  0
 25 26  1  0  0  0  0
 26 27  1  0  0  0  0
 27 28  1  0  0  0  0
 28 29  1  0  0  0  0
 29 30  1  0  0  0  0
 31 37  1  0  0  0  0
 32 33  2  0  0  0  0
 34 32  1  6  0  0  0
 34 35  1  0  0  0  0
 34 36  1  0  0  0  0
 36 37  1  0  0  0  0
M  END
>  <CHROM.1>
-153.26383642,-64.75289203,-179.52981744,47.59655812,-72.58807337,-40.30279972
-52.96231712,-158.41195301,-177.53762278,-78.83461642,-63.51680055,-66.79018191
-160.55334776,-171.52048981,62.89644845,6.45142810,-1.28961757,10.91180742
-2.56339511,-0.05771532,-2.22466776

>  <Name>
1o9m_lig

>  <RI>
0

>  <Rbt.Current_Directory>
/home/itssahil/PROJECTS/Mol_Feturizer/New_Systems/rnas/1o9m

>  <Rbt.Executable>
rbdock ($Id: //depot/dev/client3/rdock/2013.1/src/exe/rbdock.cxx#4 $)

>  <Rbt.Library>
libRbt.so (2013.1, Build901 2013/11/27)

>  <Rbt.Parameter_File>
/export/apps/rDock/src/rDock_2013.1_src/data/scripts/dock_solv.prm

>  <Rbt.Receptor>
prm/blind_docking_60.prm

>  <SCORE>
-0.839668

>  <SCORE.INTER>
2.34262

>  <SCORE.INTER.CONST>
1

>  <SCORE.INTER.POLAR>
-0.326113

>  <SCORE.INTER.ROT>
15

>  <SCORE.INTER.SOLV>
26.3525

>  <SCORE.INTER.VDW>
-19.7354

>  <SCORE.INTER.norm>
0.0633141

>  <SCORE.INTRA>
-3.25786

>  <SCORE.INTRA.DIHEDRAL>
-11.6426

>  <SCORE.INTRA.DIHEDRAL.0>
21.5987

>  <SCORE.INTRA.POLAR>
0

>  <SCORE.INTRA.POLAR.0>
0

>  <SCORE.INTRA.REPUL>
0

>  <SCORE.INTRA.REPUL.0>
0

>  <SCORE.INTRA.SOLV>
7.0913

>  <SCORE.INTRA.SOLV.lig_0>
-108.715

>  <SCORE.INTRA.VDW>
-0.9822

>  <SCORE.INTRA.VDW.0>
-3.9485

>  <SCORE.INTRA.norm>
-0.0880503

>  <SCORE.RESTR>
0.0755724

>  <SCORE.RESTR.CAVITY>
0.0755724

>  <SCORE.RESTR.norm>
0.0020425

>  <SCORE.SYSTEM>
0

>  <SCORE.SYSTEM.CONST>
0

>  <SCORE.SYSTEM.DIHEDRAL>
0

>  <SCORE.SYSTEM.SOLV>
0

>  <SCORE.SYSTEM.norm>
0

>  <SCORE.heavy>
37

>  <SCORE.norm>
-0.0226937

>  <RMSD>
24.912

$$$$
1o9m_lig
 OpenBabel11021811403D
libRbt.so/2013.1/901 2013/11/27
 37 38  0  0  0  0  0  0  0  0999 V2000
   10.7695   -2.8036    7.6434 C   0  0  2  0  0  0  0  0  0  0  0  0
   10.0536   -3.5850    8.6479 O   0  0  0  0  0  0  0  0  0  0  0  0
   12.1691   -3.4968    7.4560 C   0  0  2  0  0  0  0  0  0  0  0  0
   12.0419   -4.9013    7.0293 N   0  0  0  0  0  0  0  0  0  0  0  0
   12.9788   -3.3944    8.8042 C   0  0  1  0  0  0  0  0  0  0  0  0
   14.2581   -4.0170    8.6587 O   0  0  0  0  0  0  0  0  0  0  0  0
   13.0969   -1.8820    9.1865 C   0  0  2  0  0  0  0  0  0  0  0  0
   13.8074   -1.6719   10.4177 O   0  0  0  0  0  0  0  0  0  0  0  0
   11.6938   -1.2369    9.3025 C   0  0  2  0  0  0  0  0  0  0  0  0
   10.9458   -1.4176    8.0911 O   0  0  0  0  0  0  0  0  0  0  0  0
   11.7811    0.2346    9.6150 C   0  0  0  0  0  0  0  0  0  0  0  0
   12.6691    0.8498    8.7651 N   0  0  0  0  0  0  0  0  0  0  0  0
    6.5686   -2.9009   11.1393 C   0  0  1  0  0  0  0  0  0  0  0  0
    5.6549   -2.2536   12.1221 N   0  0  0  0  0  0  0  0  0  0  0  0
    6.8237   -1.9318    9.9929 C   0  0  2  0  0  0  0  0  0  0  0  0
    5.5892   -1.5907    9.4363 O   0  0  0  0  0  0  0  0  0  0  0  0
    7.7643   -2.5763    8.9262 C   0  0  1  0  0  0  0  0  0  0  0  0
    8.0188   -1.6301    7.8434 O   0  0  0  0  0  0  0  0  0  0  0  0
    9.1443   -2.9614    9.5993 C   0  0  1  0  0  0  0  0  0  0  0  0
    8.9041   -3.9444   10.7350 C   0  0  1  0  0  0  0  0  0  0  0  0
   10.1850   -4.2962   11.3292 N   0  0  0  0  0  0  0  0  0  0  0  0
    7.9533   -3.3112   11.7858 C   0  0  0  0  0  0  0  0  0  0  0  0
    4.6216   -0.8592    8.6519 C   0  0  0  0  0  0  0  0  0  0  0  0
    3.3689   -1.6920    8.5047 C   0  0  0  0  0  0  0  0  0  0  0  0
    2.6981   -1.5495    7.1960 N   0  0  0  0  0  0  0  0  0  0  0  0
    1.6613   -1.5255    6.1392 C   0  0  0  0  0  0  0  0  0  0  0  0
    0.9216   -2.8029    6.5565 C   0  0  0  0  0  0  0  0  0  0  0  0
   -0.2717   -3.1160    5.6345 C   0  0  0  0  0  0  0  0  0  0  0  0
   -1.1132   -4.2586    6.1946 C   0  0  0  0  0  0  0  0  0  0  0  0
   -0.3720   -5.5096    6.1185 N   0  0  0  0  0  0  0  0  0  0  0  0
    1.7994    0.0178   13.9546 N   0  0  0  0  0  0  0  0  0  0  0  0
    5.7491   -0.4846   12.0294 C   0  0  0  0  0  0  0  0  0  0  0  0
    6.3008    0.2189   11.4253 O   0  0  0  0  0  0  0  0  0  0  0  0
    4.7489   -0.4781   13.1595 C   0  0  2  0  0  0  0  0  0  0  0  0
    5.1859   -1.2383   14.2145 O   0  0  0  0  0  0  0  0  0  0  0  0
    3.4823   -1.1434   12.6324 C   0  0  0  0  0  0  0  0  0  0  0  0
    2.3211   -1.3172   13.6281 C   0  0  0  0  0  0  0  0  0  0  0  0
  1  2  1  1  0  0  0
  1  3  1  0  0  0  0
  3  4  1  1  0  0  0
  3  5  1  0  0  0  0
  5  6  1  6  0  0  0
  5  7  1  0  0  0  0
  7  8  1  1  0  0  0
  9  7  1  0  0  0  0
  9 10  1  0  0  0  0
  9 11  1  6  0  0  0
 10  1  1  0  0  0  0
 11 12  1  0  0  0  0
 13 14  1  1  0  0  0
 13 15  1  0  0  0  0
 13 22  1  0  0  0  0
 14 32  1  0  0  0  0
 15 16  1  6  0  0  0
 15 17  1  0  0  0  0
 16 23  1  0  0  0  0
 17 18  1  6  0  0  0
 17 19  1  0  0  0  0
 19  2  1  6  0  0  0
 19 20  1  0  0  0  0
 20 21  1  1  0  0  0
 20 22  1  0  0  0  0
 23 24  1  0  0  0  0
 24 25  1  0  0  0  0
 25 26  1  0  0  0  0
 26 27  1  0  0  0  0
 27 28  1  0  0  0  0
 28 29  1  0  0  0  0
 29 30  1  0  0  0  0
 31 37  1  0  0  0  0
 32 33  2  0  0  0  0
 34 32  1  6  0  0  0
 34 35  1  0  0  0  0
 34 36  1  0  0  0  0
 36 37  1  0  0  0  0
M  END
>  <CHROM.1>
145.65204171,48.87429615,-24.53783806,164.86616304,165.12434659,76.04450592
-144.25269668,-153.76221052,-42.05762692,-179.66573543,-171.18168128,-69.13867428
53.69746390,177.30294846,67.99540539,7.15399863,-2.16450228,9.52646132,-0.01652629
0.01718161,-1.94976894

>  <Name>
1o9m_lig

>  <RI>
0

>  <Rbt.Current_Directory>
/home/itssahil/PROJECTS/Mol_Feturizer/New_Systems/rnas/1o9m

>  <Rbt.Executable>
rbdock ($Id: //depot/dev/client3/rdock/2013.1/src/exe/rbdock.cxx#4 $)

>  <Rbt.Library>
libRbt.so (2013.1, Build901 2013/11/27)

>  <Rbt.Parameter_File>
/export/apps/rDock/src/rDock_2013.1_src/data/scripts/dock_solv.prm

>  <Rbt.Receptor>
prm/blind_docking_20.prm

>  <SCORE>
4.32572

>  <SCORE.INTER>
-0.40202

>  <SCORE.INTER.CONST>
1

>  <SCORE.INTER.POLAR>
-1.25099

>  <SCORE.INTER.ROT>
15

>  <SCORE.INTER.SOLV>
17.5037

>  <SCORE.INTER.VDW>
-15.5326

>  <SCORE.INTER.norm>
-0.0108654

>  <SCORE.INTRA>
4.51638

>  <SCORE.INTRA.DIHEDRAL>
-6.65981

>  <SCORE.INTRA.DIHEDRAL.0>
21.5987

>  <SCORE.INTRA.POLAR>
0

>  <SCORE.INTRA.POLAR.0>
0

>  <SCORE.INTRA.REPUL>
0

>  <SCORE.INTRA.REPUL.0>
0

>  <SCORE.INTRA.SOLV>
3.72292

>  <SCORE.INTRA.SOLV.lig_0>
-108.715

>  <SCORE.INTRA.VDW>
5.98483

>  <SCORE.INTRA.VDW.0>
-3.9485

>  <SCORE.INTRA.norm>
0.122064

>  <SCORE.RESTR>
0.211356

>  <SCORE.RESTR.CAVITY>
0.211356

>  <SCORE.RESTR.norm>
0.00571231

>  <SCORE.SYSTEM>
0

>  <SCORE.SYSTEM.CONST>
0

>  <SCORE.SYSTEM.DIHEDRAL>
0

>  <SCORE.SYSTEM.SOLV>
0

>  <SCORE.SYSTEM.norm>
0

>  <SCORE.heavy>
37

>  <SCORE.norm>
0.116911

>  <RMSD>
24.953

$$$$
1o9m_lig
 OpenBabel11021811403D
libRbt.so/2013.1/901 2013/11/27
 37 38  0  0  0  0  0  0  0  0999 V2000
    3.5517   -1.4795    6.3267 C   0  0  2  0  0  0  0  0  0  0  0  0
    4.3281   -2.5790    6.8928 O   0  0  0  0  0  0  0  0  0  0  0  0
    3.1874   -0.5294    7.5263 C   0  0  2  0  0  0  0  0  0  0  0  0
    4.3853   -0.0194    8.2161 N   0  0  0  0  0  0  0  0  0  0  0  0
    2.2523   -1.3042    8.5309 C   0  0  1  0  0  0  0  0  0  0  0  0
    1.9050   -0.4594    9.6314 O   0  0  0  0  0  0  0  0  0  0  0  0
    0.9939   -1.7962    7.7425 C   0  0  2  0  0  0  0  0  0  0  0  0
    0.0750   -2.5350    8.5639 O   0  0  0  0  0  0  0  0  0  0  0  0
    1.4128   -2.6797    6.5416 C   0  0  2  0  0  0  0  0  0  0  0  0
    2.3299   -1.9807    5.6874 O   0  0  0  0  0  0  0  0  0  0  0  0
    0.2211   -3.1210    5.7319 C   0  0  0  0  0  0  0  0  0  0  0  0
   -0.5353   -4.0177    6.4482 N   0  0  0  0  0  0  0  0  0  0  0  0
    8.4875   -3.5363    7.6700 C   0  0  1  0  0  0  0  0  0  0  0  0
    9.9229   -3.3567    8.0261 N   0  0  0  0  0  0  0  0  0  0  0  0
    7.6295   -3.0895    8.8458 C   0  0  2  0  0  0  0  0  0  0  0  0
    8.0052   -3.8408    9.9614 O   0  0  0  0  0  0  0  0  0  0  0  0
    6.1133   -3.2776    8.5241 C   0  0  1  0  0  0  0  0  0  0  0  0
    5.3007   -2.8257    9.6501 O   0  0  0  0  0  0  0  0  0  0  0  0
    5.7321   -2.4233    7.2471 C   0  0  1  0  0  0  0  0  0  0  0  0
    6.5700   -2.8737    6.0601 C   0  0  1  0  0  0  0  0  0  0  0  0
    6.1936   -2.0870    4.8952 N   0  0  0  0  0  0  0  0  0  0  0  0
    8.0779   -2.7051    6.3873 C   0  0  0  0  0  0  0  0  0  0  0  0
    8.0928   -4.2451   11.3454 C   0  0  0  0  0  0  0  0  0  0  0  0
    9.0851   -3.3574   12.0609 C   0  0  0  0  0  0  0  0  0  0  0  0
    8.7085   -1.9290   12.0888 N   0  0  0  0  0  0  0  0  0  0  0  0
    8.4023   -0.5615   12.5669 C   0  0  0  0  0  0  0  0  0  0  0  0
    6.8878   -0.7419   12.7303 C   0  0  0  0  0  0  0  0  0  0  0  0
    6.2091    0.5098   13.3175 C   0  0  0  0  0  0  0  0  0  0  0  0
    4.6976    0.3240   13.4068 C   0  0  0  0  0  0  0  0  0  0  0  0
    4.1306    0.1883   12.0725 N   0  0  0  0  0  0  0  0  0  0  0  0
   12.5346   -5.4821   10.6254 N   0  0  0  0  0  0  0  0  0  0  0  0
   10.9749   -3.5777    6.6150 C   0  0  0  0  0  0  0  0  0  0  0  0
   10.8140   -3.7984    5.5712 O   0  0  0  0  0  0  0  0  0  0  0  0
   12.1220   -3.3341    7.5650 C   0  0  2  0  0  0  0  0  0  0  0  0
   13.2908   -3.1042    6.8844 O   0  0  0  0  0  0  0  0  0  0  0  0
   12.3202   -4.6212    8.3580 C   0  0  0  0  0  0  0  0  0  0  0  0
   13.1032   -4.5116    9.6788 C   0  0  0  0  0  0  0  0  0  0  0  0
  1  2  1  1  0  0  0
  1  3  1  0  0  0  0
  3  4  1  1  0  0  0
  3  5  1  0  0  0  0
  5  6  1  1  0  0  0
  5  7  1  0  0  0  0
  7  8  1  1  0  0  0
  9  7  1  0  0  0  0
  9 10  1  0  0  0  0
  9 11  1  6  0  0  0
 10  1  1  0  0  0  0
 11 12  1  0  0  0  0
 13 14  1  1  0  0  0
 13 15  1  0  0  0  0
 13 22  1  0  0  0  0
 14 32  1  0  0  0  0
 15 16  1  1  0  0  0
 15 17  1  0  0  0  0
 16 23  1  0  0  0  0
 17 18  1  1  0  0  0
 17 19  1  0  0  0  0
 19  2  1  6  0  0  0
 19 20  1  0  0  0  0
 20 21  1  6  0  0  0
 20 22  1  0  0  0  0
 23 24  1  0  0  0  0
 24 25  1  0  0  0  0
 25 26  1  0  0  0  0
 26 27  1  0  0  0  0
 27 28  1  0  0  0  0
 28 29  1  0  0  0  0
 29 30  1  0  0  0  0
 31 37  1  0  0  0  0
 32 33  2  0  0  0  0
 34 32  1  6  0  0  0
 34 35  1  0  0  0  0
 34 36  1  0  0  0  0
 36 37  1  0  0  0  0
M  END
>  <CHROM.1>
-77.58206438,-69.24695703,-169.80806226,168.24934290,-78.53237437,145.66038503
62.13668130,127.33310639,-93.06376389,176.52189432,177.33650430,-64.50417487
-166.58225427,-161.00037996,145.87449129,6.40585815,-2.45555595,8.65653539
-3.08629373,-0.21704507,1.24022056

>  <Name>
1o9m_lig

>  <RI>
0

>  <Rbt.Current_Directory>
/home/itssahil/PROJECTS/Mol_Feturizer/New_Systems/rnas/1o9m

>  <Rbt.Executable>
rbdock ($Id: //depot/dev/client3/rdock/2013.1/src/exe/rbdock.cxx#4 $)

>  <Rbt.Library>
libRbt.so (2013.1, Build901 2013/11/27)

>  <Rbt.Parameter_File>
/export/apps/rDock/src/rDock_2013.1_src/data/scripts/dock_solv.prm

>  <Rbt.Receptor>
prm/blind_docking_60.prm

>  <SCORE>
-2.61095

>  <SCORE.INTER>
-2.96351

>  <SCORE.INTER.CONST>
1

>  <SCORE.INTER.POLAR>
0

>  <SCORE.INTER.ROT>
15

>  <SCORE.INTER.SOLV>
11.6401

>  <SCORE.INTER.VDW>
-19.4557

>  <SCORE.INTER.norm>
-0.080095

>  <SCORE.INTRA>
0.125302

>  <SCORE.INTRA.DIHEDRAL>
-5.4788

>  <SCORE.INTRA.DIHEDRAL.0>
21.5987

>  <SCORE.INTRA.POLAR>
0

>  <SCORE.INTRA.POLAR.0>
0

>  <SCORE.INTRA.REPUL>
0.0548364

>  <SCORE.INTRA.REPUL.0>
0

>  <SCORE.INTRA.SOLV>
5.7033

>  <SCORE.INTRA.SOLV.lig_0>
-108.715

>  <SCORE.INTRA.VDW>
-0.261134

>  <SCORE.INTRA.VDW.0>
-3.9485

>  <SCORE.INTRA.norm>
0.00338655

>  <SCORE.RESTR>
0.227266

>  <SCORE.RESTR.CAVITY>
0.227266

>  <SCORE.RESTR.norm>
0.00614233

>  <SCORE.SYSTEM>
0

>  <SCORE.SYSTEM.CONST>
0

>  <SCORE.SYSTEM.DIHEDRAL>
0

>  <SCORE.SYSTEM.SOLV>
0

>  <SCORE.SYSTEM.norm>
0

>  <SCORE.heavy>
37

>  <SCORE.norm>
-0.0705661

>  <RMSD>
24.969

$$$$
1o9m_lig
 OpenBabel11021811403D
libRbt.so/2013.1/901 2013/11/27
 37 38  0  0  0  0  0  0  0  0999 V2000
   11.6248   -2.5130   11.8989 C   0  0  2  0  0  0  0  0  0  0  0  0
   10.7937   -1.8005   10.9325 O   0  0  0  0  0  0  0  0  0  0  0  0
   12.9130   -2.9736   11.1224 C   0  0  2  0  0  0  0  0  0  0  0  0
   13.6488   -1.8369   10.5414 N   0  0  0  0  0  0  0  0  0  0  0  0
   12.4987   -4.0015   10.0019 C   0  0  1  0  0  0  0  0  0  0  0  0
   13.6550   -4.4372    9.2817 O   0  0  0  0  0  0  0  0  0  0  0  0
   11.7457   -5.1895   10.6867 C   0  0  2  0  0  0  0  0  0  0  0  0
   11.3044   -6.1847    9.7487 O   0  0  0  0  0  0  0  0  0  0  0  0
   10.5208   -4.6739   11.4819 C   0  0  2  0  0  0  0  0  0  0  0  0
   10.9136   -3.6779   12.4375 O   0  0  0  0  0  0  0  0  0  0  0  0
    9.8099   -5.7931   12.1978 C   0  0  0  0  0  0  0  0  0  0  0  0
    8.9118   -5.2831   13.1048 N   0  0  0  0  0  0  0  0  0  0  0  0
    7.1455   -1.0147   13.1448 C   0  0  1  0  0  0  0  0  0  0  0  0
    5.8319   -0.4154   13.5119 N   0  0  0  0  0  0  0  0  0  0  0  0
    7.0198   -1.6758   11.7789 C   0  0  2  0  0  0  0  0  0  0  0  0
    5.9975   -2.6243   11.8535 O   0  0  0  0  0  0  0  0  0  0  0  0
    8.3715   -2.3355   11.3600 C   0  0  1  0  0  0  0  0  0  0  0  0
    8.2445   -2.9469   10.0399 O   0  0  0  0  0  0  0  0  0  0  0  0
    9.5048   -1.2319   11.3019 C   0  0  1  0  0  0  0  0  0  0  0  0
    9.6529   -0.5768   12.6667 C   0  0  1  0  0  0  0  0  0  0  0  0
   10.7085    0.4224   12.5950 N   0  0  0  0  0  0  0  0  0  0  0  0
    8.3038    0.0621   13.0921 C   0  0  0  0  0  0  0  0  0  0  0  0
    4.6558   -3.1573   11.8993 C   0  0  0  0  0  0  0  0  0  0  0  0
    3.8125   -2.4725   10.8484 C   0  0  0  0  0  0  0  0  0  0  0  0
    4.4012   -2.4920    9.4934 N   0  0  0  0  0  0  0  0  0  0  0  0
    5.3229   -2.2791    8.3543 C   0  0  0  0  0  0  0  0  0  0  0  0
    4.4533   -2.9286    7.2703 C   0  0  0  0  0  0  0  0  0  0  0  0
    5.2197   -3.1341    5.9503 C   0  0  0  0  0  0  0  0  0  0  0  0
    4.3703   -3.8915    4.9343 C   0  0  0  0  0  0  0  0  0  0  0  0
    3.2219   -3.0863    4.5431 N   0  0  0  0  0  0  0  0  0  0  0  0
    1.3260    2.1434   13.6594 N   0  0  0  0  0  0  0  0  0  0  0  0
    5.3753    0.8837   12.3937 C   0  0  0  0  0  0  0  0  0  0  0  0
    5.8199    1.3248   11.5151 O   0  0  0  0  0  0  0  0  0  0  0  0
    4.1472    1.0493   13.2551 C   0  0  2  0  0  0  0  0  0  0  0  0
    3.1317    0.2276   12.8362 O   0  0  0  0  0  0  0  0  0  0  0  0
    3.6622    2.4819   13.0627 C   0  0  0  0  0  0  0  0  0  0  0  0
    2.5117    2.9552   13.9694 C   0  0  0  0  0  0  0  0  0  0  0  0
  1  2  1  6  0  0  0
  1  3  1  0  0  0  0
  3  4  1  6  0  0  0
  3  5  1  0  0  0  0
  5  6  1  1  0  0  0
  5  7  1  0  0  0  0
  7  8  1  6  0  0  0
  9  7  1  0  0  0  0
  9 10  1  0  0  0  0
  9 11  1  1  0  0  0
 10  1  1  0  0  0  0
 11 12  1  0  0  0  0
 13 14  1  6  0  0  0
 13 15  1  0  0  0  0
 13 22  1  0  0  0  0
 14 32  1  0  0  0  0
 15 16  1  1  0  0  0
 15 17  1  0  0  0  0
 16 23  1  0  0  0  0
 17 18  1  6  0  0  0
 17 19  1  0  0  0  0
 19  2  1  1  0  0  0
 19 20  1  0  0  0  0
 20 21  1  6  0  0  0
 20 22  1  0  0  0  0
 23 24  1  0  0  0  0
 24 25  1  0  0  0  0
 25 26  1  0  0  0  0
 26 27  1  0  0  0  0
 27 28  1  0  0  0  0
 28 29  1  0  0  0  0
 29 30  1  0  0  0  0
 31 37  1  0  0  0  0
 32 33  2  0  0  0  0
 34 32  1  6  0  0  0
 34 35  1  0  0  0  0
 34 36  1  0  0  0  0
 36 37  1  0  0  0  0
M  END
>  <CHROM.1>
179.70385065,167.52699541,-63.92828104,76.88019202,44.61101529,-78.89239307
52.11647962,-60.76411157,-177.20838757,-169.09728520,174.97760330,65.77233849
-88.14200787,-172.86590151,-63.73858686,7.58401577,-1.99598372,11.02965696
-0.35521968,-0.33505653,0.93570536

>  <Name>
1o9m_lig

>  <RI>
0

>  <Rbt.Current_Directory>
/home/itssahil/PROJECTS/Mol_Feturizer/New_Systems/rnas/1o9m

>  <Rbt.Executable>
rbdock ($Id: //depot/dev/client3/rdock/2013.1/src/exe/rbdock.cxx#4 $)

>  <Rbt.Library>
libRbt.so (2013.1, Build901 2013/11/27)

>  <Rbt.Parameter_File>
/export/apps/rDock/src/rDock_2013.1_src/data/scripts/dock_solv.prm

>  <Rbt.Receptor>
prm/blind_docking_40.prm

>  <SCORE>
-18.2847

>  <SCORE.INTER>
-12.1151

>  <SCORE.INTER.CONST>
1

>  <SCORE.INTER.POLAR>
-2.55052

>  <SCORE.INTER.ROT>
15

>  <SCORE.INTER.SOLV>
15.8806

>  <SCORE.INTER.VDW>
-18.4685

>  <SCORE.INTER.norm>
-0.327434

>  <SCORE.INTRA>
-6.17192

>  <SCORE.INTRA.DIHEDRAL>
-14.4947

>  <SCORE.INTRA.DIHEDRAL.0>
21.5987

>  <SCORE.INTRA.POLAR>
0

>  <SCORE.INTRA.POLAR.0>
0

>  <SCORE.INTRA.REPUL>
0

>  <SCORE.INTRA.REPUL.0>
0

>  <SCORE.INTRA.SOLV>
5.35879

>  <SCORE.INTRA.SOLV.lig_0>
-108.715

>  <SCORE.INTRA.VDW>
-1.60395

>  <SCORE.INTRA.VDW.0>
-3.9485

>  <SCORE.INTRA.norm>
-0.166809

>  <SCORE.RESTR>
0.00226973

>  <SCORE.RESTR.CAVITY>
0.00226973

>  <SCORE.RESTR.norm>
6.1344e-05

>  <SCORE.SYSTEM>
0

>  <SCORE.SYSTEM.CONST>
0

>  <SCORE.SYSTEM.DIHEDRAL>
0

>  <SCORE.SYSTEM.SOLV>
0

>  <SCORE.SYSTEM.norm>
0

>  <SCORE.heavy>
37

>  <SCORE.norm>
-0.494182

>  <RMSD>
24.995

$$$$
1o9m_lig
 OpenBabel11021811403D
libRbt.so/2013.1/901 2013/11/27
 37 38  0  0  0  0  0  0  0  0999 V2000
    3.8691    0.6985   10.7391 C   0  0  2  0  0  0  0  0  0  0  0  0
    4.7945    0.9654   11.8366 O   0  0  0  0  0  0  0  0  0  0  0  0
    2.4361    1.0804   11.2636 C   0  0  2  0  0  0  0  0  0  0  0  0
    2.3541    2.4909   11.6820 N   0  0  0  0  0  0  0  0  0  0  0  0
    2.0514    0.1220   12.4541 C   0  0  1  0  0  0  0  0  0  0  0  0
    0.7495    0.4487   12.9481 O   0  0  0  0  0  0  0  0  0  0  0  0
    2.1356   -1.3523   11.9378 C   0  0  2  0  0  0  0  0  0  0  0  0
    1.8188   -2.3179   12.9538 O   0  0  0  0  0  0  0  0  0  0  0  0
    3.5489   -1.6564   11.3822 C   0  0  2  0  0  0  0  0  0  0  0  0
    3.9089   -0.7178   10.3581 O   0  0  0  0  0  0  0  0  0  0  0  0
    3.6403   -3.0541   10.8265 C   0  0  0  0  0  0  0  0  0  0  0  0
    3.6129   -3.9746   11.8469 N   0  0  0  0  0  0  0  0  0  0  0  0
    8.3699   -1.2011   10.6774 C   0  0  1  0  0  0  0  0  0  0  0  0
    9.7946   -1.6353   10.6422 N   0  0  0  0  0  0  0  0  0  0  0  0
    7.8184   -1.4372   12.0769 C   0  0  2  0  0  0  0  0  0  0  0  0
    7.9757   -2.7918   12.3775 O   0  0  0  0  0  0  0  0  0  0  0  0
    6.3180   -1.0126   12.1564 C   0  0  1  0  0  0  0  0  0  0  0  0
    5.8070   -1.2233   13.5080 O   0  0  0  0  0  0  0  0  0  0  0  0
    6.1812    0.5225   11.7950 C   0  0  1  0  0  0  0  0  0  0  0  0
    6.7120    0.7679   10.3908 C   0  0  1  0  0  0  0  0  0  0  0  0
    6.5632    2.1802   10.0735 N   0  0  0  0  0  0  0  0  0  0  0  0
    8.1980    0.3275   10.3063 C   0  0  0  0  0  0  0  0  0  0  0  0
    8.6355   -4.0653   12.5496 C   0  0  0  0  0  0  0  0  0  0  0  0
    8.1298   -5.0327   11.5042 C   0  0  0  0  0  0  0  0  0  0  0  0
    8.0991   -4.4810   10.1340 N   0  0  0  0  0  0  0  0  0  0  0  0
    8.5212   -3.9014    8.8384 C   0  0  0  0  0  0  0  0  0  0  0  0
    7.1509   -3.9334    8.1499 C   0  0  0  0  0  0  0  0  0  0  0  0
    6.3749   -2.6151    8.3292 C   0  0  0  0  0  0  0  0  0  0  0  0
    5.1260   -2.5896    7.4534 C   0  0  0  0  0  0  0  0  0  0  0  0
    4.4327   -1.3185    7.6077 N   0  0  0  0  0  0  0  0  0  0  0  0
   13.5312   -4.2191   10.3983 N   0  0  0  0  0  0  0  0  0  0  0  0
   10.4670   -1.5249    9.0044 C   0  0  0  0  0  0  0  0  0  0  0  0
   10.0885   -1.2095    8.0445 O   0  0  0  0  0  0  0  0  0  0  0  0
   11.7376   -2.0765    9.6034 C   0  0  2  0  0  0  0  0  0  0  0  0
   12.7015   -1.1056    9.7053 O   0  0  0  0  0  0  0  0  0  0  0  0
   12.2678   -3.1226    8.6291 C   0  0  0  0  0  0  0  0  0  0  0  0
   12.6862   -4.4794    9.2239 C   0  0  0  0  0  0  0  0  0  0  0  0
  1  2  1  1  0  0  0
  1  3  1  0  0  0  0
  3  4  1  1  0  0  0
  3  5  1  0  0  0  0
  5  6  1  6  0  0  0
  5  7  1  0  0  0  0
  7  8  1  1  0  0  0
  9  7  1  0  0  0  0
  9 10  1  0  0  0  0
  9 11  1  6  0  0  0
 10  1  1  0  0  0  0
 11 12  1  0  0  0  0
 13 14  1  1  0  0  0
 13 15  1  0  0  0  0
 13 22  1  0  0  0  0
 14 32  1  0  0  0  0
 15 16  1  6  0  0  0
 15 17  1  0  0  0  0
 16 23  1  0  0  0  0
 17 18  1  1  0  0  0
 17 19  1  0  0  0  0
 19  2  1  6  0  0  0
 19 20  1  0  0  0  0
 20 21  1  1  0  0  0
 20 22  1  0  0  0  0
 23 24  1  0  0  0  0
 24 25  1  0  0  0  0
 25 26  1  0  0  0  0
 26 27  1  0  0  0  0
 27 28  1  0  0  0  0
 28 29  1  0  0  0  0
 29 30  1  0  0  0  0
 31 37  1  0  0  0  0
 32 33  2  0  0  0  0
 34 32  1  6  0  0  0
 34 35  1  0  0  0  0
 34 36  1  0  0  0  0
 36 37  1  0  0  0  0
M  END
>  <CHROM.1>
169.57093179,-71.19243697,174.96369444,53.27943062,-111.93131894,-79.33841780
47.33569983,62.26941490,175.30555706,92.50608362,170.80294810,-178.20135465
-106.69703863,-132.18300345,-47.62146391,6.70685406,-1.58495448,10.64972877
-2.84747447,-0.26593565,3.09688450

>  <Name>
1o9m_lig

>  <RI>
0

>  <Rbt.Current_Directory>
/home/itssahil/PROJECTS/Mol_Feturizer/New_Systems/rnas/1o9m

>  <Rbt.Executable>
rbdock ($Id: //depot/dev/client3/rdock/2013.1/src/exe/rbdock.cxx#4 $)

>  <Rbt.Library>
libRbt.so (2013.1, Build901 2013/11/27)

>  <Rbt.Parameter_File>
/export/apps/rDock/src/rDock_2013.1_src/data/scripts/dock_solv.prm

>  <Rbt.Receptor>
prm/blind_docking_40.prm

>  <SCORE>
-6.00959

>  <SCORE.INTER>
-6.72742

>  <SCORE.INTER.CONST>
1

>  <SCORE.INTER.POLAR>
-2.26481

>  <SCORE.INTER.ROT>
15

>  <SCORE.INTER.SOLV>
19.7138

>  <SCORE.INTER.VDW>
-17.1069

>  <SCORE.INTER.norm>
-0.181822

>  <SCORE.INTRA>
-0.146589

>  <SCORE.INTRA.DIHEDRAL>
-0.418251

>  <SCORE.INTRA.DIHEDRAL.0>
21.5987

>  <SCORE.INTRA.POLAR>
0

>  <SCORE.INTRA.POLAR.0>
0

>  <SCORE.INTRA.REPUL>
0

>  <SCORE.INTRA.REPUL.0>
0

>  <SCORE.INTRA.SOLV>
8.52725

>  <SCORE.INTRA.SOLV.lig_0>
-108.715

>  <SCORE.INTRA.VDW>
-4.20109

>  <SCORE.INTRA.VDW.0>
-3.9485

>  <SCORE.INTRA.norm>
-0.00396186

>  <SCORE.RESTR>
0.864425

>  <SCORE.RESTR.CAVITY>
0.864425

>  <SCORE.RESTR.norm>
0.0233628

>  <SCORE.SYSTEM>
0

>  <SCORE.SYSTEM.CONST>
0

>  <SCORE.SYSTEM.DIHEDRAL>
0

>  <SCORE.SYSTEM.SOLV>
0

>  <SCORE.SYSTEM.norm>
0

>  <SCORE.heavy>
37

>  <SCORE.norm>
-0.162421

>  <RMSD>
24.998

$$$$
1o9m_lig
 OpenBabel11021811403D
libRbt.so/2013.1/901 2013/11/27
 37 38  0  0  0  0  0  0  0  0999 V2000
    6.1477    0.0745   12.6865 C   0  0  2  0  0  0  0  0  0  0  0  0
    6.2929    0.1073   11.2338 O   0  0  0  0  0  0  0  0  0  0  0  0
    5.3235   -1.2228   13.0213 C   0  0  2  0  0  0  0  0  0  0  0  0
    5.9885   -2.4452   12.5372 N   0  0  0  0  0  0  0  0  0  0  0  0
    3.8804   -1.0899   12.4017 C   0  0  1  0  0  0  0  0  0  0  0  0
    3.1095   -2.2585   12.6945 O   0  0  0  0  0  0  0  0  0  0  0  0
    3.2242    0.2103   12.9729 C   0  0  2  0  0  0  0  0  0  0  0  0
    1.9026    0.4404   12.4576 O   0  0  0  0  0  0  0  0  0  0  0  0
    4.1037    1.4469   12.6640 C   0  0  2  0  0  0  0  0  0  0  0  0
    5.4362    1.2651   13.1650 O   0  0  0  0  0  0  0  0  0  0  0  0
    3.5215    2.7059   13.2526 C   0  0  0  0  0  0  0  0  0  0  0  0
    2.5170    3.1874   12.4473 N   0  0  0  0  0  0  0  0  0  0  0  0
    9.0415   -1.2367    8.1582 C   0  0  1  0  0  0  0  0  0  0  0  0
   10.0967   -2.0366    7.4754 N   0  0  0  0  0  0  0  0  0  0  0  0
    7.8919   -2.1606    8.5368 C   0  0  2  0  0  0  0  0  0  0  0  0
    7.4317   -2.7738    7.3696 O   0  0  0  0  0  0  0  0  0  0  0  0
    6.7511   -1.3601    9.2406 C   0  0  1  0  0  0  0  0  0  0  0  0
    5.6647   -2.2600    9.6181 O   0  0  0  0  0  0  0  0  0  0  0  0
    7.3163   -0.6695   10.5481 C   0  0  1  0  0  0  0  0  0  0  0  0
    8.4538    0.2710   10.1802 C   0  0  1  0  0  0  0  0  0  0  0  0
    8.9481    0.9057   11.3929 N   0  0  0  0  0  0  0  0  0  0  0  0
    9.5795   -0.5212    9.4629 C   0  0  0  0  0  0  0  0  0  0  0  0
    7.4768   -3.5061    6.1253 C   0  0  0  0  0  0  0  0  0  0  0  0
    6.0780   -3.9410    5.7532 C   0  0  0  0  0  0  0  0  0  0  0  0
    5.0833   -2.8485    5.7586 N   0  0  0  0  0  0  0  0  0  0  0  0
    3.7990   -2.1123    5.7872 C   0  0  0  0  0  0  0  0  0  0  0  0
    3.5644   -2.1794    7.3016 C   0  0  0  0  0  0  0  0  0  0  0  0
    2.2649   -1.4692    7.7248 C   0  0  0  0  0  0  0  0  0  0  0  0
    2.4010    0.0451    7.5997 C   0  0  0  0  0  0  0  0  0  0  0  0
    2.3653    0.4364    6.1976 N   0  0  0  0  0  0  0  0  0  0  0  0
   14.7205   -2.6244    9.2901 N   0  0  0  0  0  0  0  0  0  0  0  0
   10.6160   -3.4105    8.4700 C   0  0  0  0  0  0  0  0  0  0  0  0
   10.3384   -3.7995    9.4374 O   0  0  0  0  0  0  0  0  0  0  0  0
   11.5849   -3.7158    7.3539 C   0  0  2  0  0  0  0  0  0  0  0  0
   11.8295   -5.0626    7.2625 O   0  0  0  0  0  0  0  0  0  0  0  0
   12.9072   -3.0523    7.7226 C   0  0  0  0  0  0  0  0  0  0  0  0
   13.5709   -3.5046    9.0359 C   0  0  0  0  0  0  0  0  0  0  0  0
  1  2  1  6  0  0  0
  1  3  1  0  0  0  0
  3  4  1  6  0  0  0
  3  5  1  0  0  0  0
  5  6  1  1  0  0  0
  5  7  1  0  0  0  0
  7  8  1  6  0  0  0
  9  7  1  0  0  0  0
  9 10  1  0  0  0  0
  9 11  1  1  0  0  0
 10  1  1  0  0  0  0
 11 12  1  0  0  0  0
 13 14  1  1  0  0  0
 13 15  1  0  0  0  0
 13 22  1  0  0  0  0
 14 32  1  0  0  0  0
 15 16  1  6  0  0  0
 15 17  1  0  0  0  0
 16 23  1  0  0  0  0
 17 18  1  1  0  0  0
 17 19  1  0  0  0  0
 19  2  1  6  0  0  0
 19 20  1  0  0  0  0
 20 21  1  1  0  0  0
 20 22  1  0  0  0  0
 23 24  1  0  0  0  0
 24 25  1  0  0  0  0
 25 26  1  0  0  0  0
 26 27  1  0  0  0  0
 27 28  1  0  0  0  0
 28 29  1  0  0  0  0
 29 30  1  0  0  0  0
 31 37  1  0  0  0  0
 32 33  2  0  0  0  0
 34 32  1  1  0  0  0
 34 35  1  0  0  0  0
 34 36  1  0  0  0  0
 36 37  1  0  0  0  0
M  END
>  <CHROM.1>
-81.53451775,-80.32357771,-54.87722233,50.95985162,165.29039431,137.39356826
51.72171587,-161.28387145,80.64039077,179.37989699,-71.42969793,73.85941818
-149.43890347,60.07791270,-172.46990860,6.76806278,-1.37179773,9.58209400
-2.60936799,0.20899629,-2.03570122

>  <Name>
1o9m_lig

>  <RI>
0

>  <Rbt.Current_Directory>
/home/itssahil/PROJECTS/Mol_Feturizer/New_Systems/rnas/1o9m

>  <Rbt.Executable>
rbdock ($Id: //depot/dev/client3/rdock/2013.1/src/exe/rbdock.cxx#4 $)

>  <Rbt.Library>
libRbt.so (2013.1, Build901 2013/11/27)

>  <Rbt.Parameter_File>
/export/apps/rDock/src/rDock_2013.1_src/data/scripts/dock_solv.prm

>  <Rbt.Receptor>
prm/blind_docking_20.prm

>  <SCORE>
-4.21488

>  <SCORE.INTER>
-2.88054

>  <SCORE.INTER.CONST>
1

>  <SCORE.INTER.POLAR>
-0.946848

>  <SCORE.INTER.ROT>
15

>  <SCORE.INTER.SOLV>
20.3625

>  <SCORE.INTER.VDW>
-19.1517

>  <SCORE.INTER.norm>
-0.0778525

>  <SCORE.INTRA>
-1.33434

>  <SCORE.INTRA.DIHEDRAL>
-6.8407

>  <SCORE.INTRA.DIHEDRAL.0>
21.5987

>  <SCORE.INTRA.POLAR>
0

>  <SCORE.INTRA.POLAR.0>
0

>  <SCORE.INTRA.REPUL>
0.0121266

>  <SCORE.INTRA.REPUL.0>
0

>  <SCORE.INTRA.SOLV>
5.85029

>  <SCORE.INTRA.SOLV.lig_0>
-108.715

>  <SCORE.INTRA.VDW>
-0.899762

>  <SCORE.INTRA.VDW.0>
-3.9485

>  <SCORE.INTRA.norm>
-0.0360632

>  <SCORE.RESTR>
0

>  <SCORE.RESTR.CAVITY>
0

>  <SCORE.RESTR.norm>
0

>  <SCORE.SYSTEM>
0

>  <SCORE.SYSTEM.CONST>
0

>  <SCORE.SYSTEM.DIHEDRAL>
0

>  <SCORE.SYSTEM.SOLV>
0

>  <SCORE.SYSTEM.norm>
0

>  <SCORE.heavy>
37

>  <SCORE.norm>
-0.113916

>  <RMSD>
25.013

$$$$
1o9m_lig
 OpenBabel11021811403D
libRbt.so/2013.1/901 2013/11/27
 37 38  0  0  0  0  0  0  0  0999 V2000
    2.5402    0.9656   12.2292 C   0  0  2  0  0  0  0  0  0  0  0  0
    3.9959    0.8953   12.3206 O   0  0  0  0  0  0  0  0  0  0  0  0
    2.1075    2.2561   13.0177 C   0  0  2  0  0  0  0  0  0  0  0  0
    2.7229    3.4768   12.4679 N   0  0  0  0  0  0  0  0  0  0  0  0
    2.4807    2.0794   14.5386 C   0  0  1  0  0  0  0  0  0  0  0  0
    2.0950    3.2411   15.2784 O   0  0  0  0  0  0  0  0  0  0  0  0
    1.7790    0.7835   15.0638 C   0  0  2  0  0  0  0  0  0  0  0  0
    2.0667    0.5146   16.4457 O   0  0  0  0  0  0  0  0  0  0  0  0
    2.1966   -0.4447   14.2179 C   0  0  2  0  0  0  0  0  0  0  0  0
    1.9235   -0.2243   12.8264 O   0  0  0  0  0  0  0  0  0  0  0  0
    1.4907   -1.6975   14.6681 C   0  0  0  0  0  0  0  0  0  0  0  0
    0.4177   -1.9593   13.8499 N   0  0  0  0  0  0  0  0  0  0  0  0
    6.9342   -2.1313   11.3075 C   0  0  1  0  0  0  0  0  0  0  0  0
    7.6531   -3.4361   11.2937 N   0  0  0  0  0  0  0  0  0  0  0  0
    5.4976   -2.3566   10.8562 C   0  0  2  0  0  0  0  0  0  0  0  0
    5.5324   -2.9385    9.5872 O   0  0  0  0  0  0  0  0  0  0  0  0
    4.7087   -1.0094   10.8373 C   0  0  1  0  0  0  0  0  0  0  0  0
    3.3274   -1.2415   10.4242 O   0  0  0  0  0  0  0  0  0  0  0  0
    4.7055   -0.3760   12.2881 C   0  0  1  0  0  0  0  0  0  0  0  0
    6.1359   -0.1286   12.7426 C   0  0  1  0  0  0  0  0  0  0  0  0
    6.1096    0.4667   14.0702 N   0  0  0  0  0  0  0  0  0  0  0  0
    6.9257   -1.4648   12.7426 C   0  0  0  0  0  0  0  0  0  0  0  0
    5.8891   -3.1230    8.1997 C   0  0  0  0  0  0  0  0  0  0  0  0
    7.2763   -3.7174    8.1177 C   0  0  0  0  0  0  0  0  0  0  0  0
    7.7442   -3.9733    6.7398 N   0  0  0  0  0  0  0  0  0  0  0  0
    7.8682   -3.9400    5.2647 C   0  0  0  0  0  0  0  0  0  0  0  0
    7.6706   -2.4298    5.0821 C   0  0  0  0  0  0  0  0  0  0  0  0
    9.0020   -1.6564    5.1204 C   0  0  0  0  0  0  0  0  0  0  0  0
    9.5871   -1.6402    6.5292 C   0  0  0  0  0  0  0  0  0  0  0  0
    8.6772   -0.9613    7.4410 N   0  0  0  0  0  0  0  0  0  0  0  0
   12.4997   -5.8422   10.0541 N   0  0  0  0  0  0  0  0  0  0  0  0
    9.0567   -3.4160   12.3782 C   0  0  0  0  0  0  0  0  0  0  0  0
    9.4956   -2.6890   13.0437 O   0  0  0  0  0  0  0  0  0  0  0  0
    9.3073   -4.8277   11.9071 C   0  0  2  0  0  0  0  0  0  0  0  0
    9.1431   -5.7291   12.9282 O   0  0  0  0  0  0  0  0  0  0  0  0
   10.7712   -4.9002   11.4871 C   0  0  0  0  0  0  0  0  0  0  0  0
   11.2042   -6.1391   10.6825 C   0  0  0  0  0  0  0  0  0  0  0  0
  1  2  1  1  0  0  0
  1  3  1  0  0  0  0
  3  4  1  6  0  0  0
  3  5  1  0  0  0  0
  5  6  1  1  0  0  0
  5  7  1  0  0  0  0
  7  8  1  1  0  0  0
  9  7  1  0  0  0  0
  9 10  1  0  0  0  0
  9 11  1  1  0  0  0
 10  1  1  0  0  0  0
 11 12  1  0  0  0  0
 13 14  1  1  0  0  0
 13 15  1  0  0  0  0
 13 22  1  0  0  0  0
 14 32  1  0  0  0  0
 15 16  1  6  0  0  0
 15 17  1  0  0  0  0
 16 23  1  0  0  0  0
 17 18  1  1  0  0  0
 17 19  1  0  0  0  0
 19  2  1  6  0  0  0
 19 20  1  0  0  0  0
 20 21  1  1  0  0  0
 20 22  1  0  0  0  0
 23 24  1  0  0  0  0
 24 25  1  0  0  0  0
 25 26  1  0  0  0  0
 26 27  1  0  0  0  0
 27 28  1  0  0  0  0
 28 29  1  0  0  0  0
 29 30  1  0  0  0  0
 31 37  1  0  0  0  0
 32 33  2  0  0  0  0
 34 32  1  1  0  0  0
 34 35  1  0  0  0  0
 34 36  1  0  0  0  0
 36 37  1  0  0  0  0
M  END
>  <CHROM.1>
150.91841827,99.08926342,-157.08612749,-51.12523906,78.05979770,72.97028073
179.06019624,17.23873831,42.64958425,90.59124819,-70.66987340,-61.79594730
-114.00710711,-166.95804212,163.79053839,5.88955467,-1.61324892,11.31327732
2.64564817,-0.66004235,1.69524573

>  <Name>
1o9m_lig

>  <RI>
0

>  <Rbt.Current_Directory>
/home/itssahil/PROJECTS/Mol_Feturizer/New_Systems/rnas/1o9m

>  <Rbt.Executable>
rbdock ($Id: //depot/dev/client3/rdock/2013.1/src/exe/rbdock.cxx#4 $)

>  <Rbt.Library>
libRbt.so (2013.1, Build901 2013/11/27)

>  <Rbt.Parameter_File>
/export/apps/rDock/src/rDock_2013.1_src/data/scripts/dock_solv.prm

>  <Rbt.Receptor>
prm/blind_docking_20.prm

>  <SCORE>
-3.89852

>  <SCORE.INTER>
-5.86039

>  <SCORE.INTER.CONST>
1

>  <SCORE.INTER.POLAR>
-1.86671

>  <SCORE.INTER.ROT>
15

>  <SCORE.INTER.SOLV>
28.0503

>  <SCORE.INTER.VDW>
-20.6347

>  <SCORE.INTER.norm>
-0.158389

>  <SCORE.INTRA>
1.95315

>  <SCORE.INTRA.DIHEDRAL>
-2.89321

>  <SCORE.INTRA.DIHEDRAL.0>
21.5987

>  <SCORE.INTRA.POLAR>
0

>  <SCORE.INTRA.POLAR.0>
0

>  <SCORE.INTRA.REPUL>
0

>  <SCORE.INTRA.REPUL.0>
0

>  <SCORE.INTRA.SOLV>
4.68424

>  <SCORE.INTRA.SOLV.lig_0>
-108.715

>  <SCORE.INTRA.VDW>
1.05764

>  <SCORE.INTRA.VDW.0>
-3.9485

>  <SCORE.INTRA.norm>
0.0527878

>  <SCORE.RESTR>
0.00871142

>  <SCORE.RESTR.CAVITY>
0.00871142

>  <SCORE.RESTR.norm>
0.000235444

>  <SCORE.SYSTEM>
0

>  <SCORE.SYSTEM.CONST>
0

>  <SCORE.SYSTEM.DIHEDRAL>
0

>  <SCORE.SYSTEM.SOLV>
0

>  <SCORE.SYSTEM.norm>
0

>  <SCORE.heavy>
37

>  <SCORE.norm>
-0.105366

>  <RMSD>
25.017

$$$$
1o9m_lig
 OpenBabel11021811403D
libRbt.so/2013.1/901 2013/11/27
 37 38  0  0  0  0  0  0  0  0999 V2000
    4.5232    1.2797   12.1035 C   0  0  2  0  0  0  0  0  0  0  0  0
    4.5672   -0.1560   12.3662 O   0  0  0  0  0  0  0  0  0  0  0  0
    3.1026    1.5768   11.4966 C   0  0  2  0  0  0  0  0  0  0  0  0
    2.0143    1.1809   12.4075 N   0  0  0  0  0  0  0  0  0  0  0  0
    2.9691    0.8355   10.1123 C   0  0  1  0  0  0  0  0  0  0  0  0
    1.6843    1.0920    9.5385 O   0  0  0  0  0  0  0  0  0  0  0  0
    4.1364    1.3169    9.1886 C   0  0  2  0  0  0  0  0  0  0  0  0
    4.1213    0.6872    7.8971 O   0  0  0  0  0  0  0  0  0  0  0  0
    5.5074    1.0517    9.8583 C   0  0  2  0  0  0  0  0  0  0  0  0
    5.5718    1.6669   11.1532 O   0  0  0  0  0  0  0  0  0  0  0  0
    6.6476    1.5577    9.0130 C   0  0  0  0  0  0  0  0  0  0  0  0
    6.8586    0.7172    7.9461 N   0  0  0  0  0  0  0  0  0  0  0  0
    8.7020   -1.3111   11.7422 C   0  0  1  0  0  0  0  0  0  0  0  0
    9.9865   -2.0515   11.8883 N   0  0  0  0  0  0  0  0  0  0  0  0
    7.6180   -2.2881   11.3075 C   0  0  2  0  0  0  0  0  0  0  0  0
    8.0325   -2.8869   10.1160 O   0  0  0  0  0  0  0  0  0  0  0  0
    6.2541   -1.5509   11.1233 C   0  0  1  0  0  0  0  0  0  0  0  0
    5.2184   -2.5014   10.7279 O   0  0  0  0  0  0  0  0  0  0  0  0
    5.8279   -0.8745   12.4896 C   0  0  1  0  0  0  0  0  0  0  0  0
    6.8950    0.1184   12.9249 C   0  0  1  0  0  0  0  0  0  0  0  0
    6.4769    0.7387   14.1731 N   0  0  0  0  0  0  0  0  0  0  0  0
    8.2554   -0.6107   13.0890 C   0  0  0  0  0  0  0  0  0  0  0  0
    7.9792   -3.7236    8.9397 C   0  0  0  0  0  0  0  0  0  0  0  0
    6.9485   -3.1708    7.9824 C   0  0  0  0  0  0  0  0  0  0  0  0
    6.9272   -3.8385    6.6646 N   0  0  0  0  0  0  0  0  0  0  0  0
    6.9207   -4.0700    5.2021 C   0  0  0  0  0  0  0  0  0  0  0  0
    5.5248   -3.5017    4.9166 C   0  0  0  0  0  0  0  0  0  0  0  0
    4.4015   -4.4493    5.3777 C   0  0  0  0  0  0  0  0  0  0  0  0
    3.0470   -3.9975    4.8405 C   0  0  0  0  0  0  0  0  0  0  0  0
    2.7314   -2.6653    5.3365 N   0  0  0  0  0  0  0  0  0  0  0  0
   11.4578   -5.6809   10.2684 N   0  0  0  0  0  0  0  0  0  0  0  0
   10.9770   -1.9297   10.4217 C   0  0  0  0  0  0  0  0  0  0  0  0
   10.8678   -1.4401    9.4665 O   0  0  0  0  0  0  0  0  0  0  0  0
   11.9647   -2.8138   11.1432 C   0  0  2  0  0  0  0  0  0  0  0  0
   12.9011   -2.0687   11.8140 O   0  0  0  0  0  0  0  0  0  0  0  0
   12.7132   -3.6036   10.0752 C   0  0  0  0  0  0  0  0  0  0  0  0
   11.9100   -4.6671    9.3047 C   0  0  0  0  0  0  0  0  0  0  0  0
  1  2  1  6  0  0  0
  1  3  1  0  0  0  0
  3  4  1  1  0  0  0
  3  5  1  0  0  0  0
  5  6  1  6  0  0  0
  5  7  1  0  0  0  0
  7  8  1  6  0  0  0
  9  7  1  0  0  0  0
  9 10  1  0  0  0  0
  9 11  1  6  0  0  0
 10  1  1  0  0  0  0
 11 12  1  0  0  0  0
 13 14  1  1  0  0  0
 13 15  1  0  0  0  0
 13 22  1  0  0  0  0
 14 32  1  0  0  0  0
 15 16  1  6  0  0  0
 15 17  1  0  0  0  0
 16 23  1  0  0  0  0
 17 18  1  1  0  0  0
 17 19  1  0  0  0  0
 19  2  1  6  0  0  0
 19 20  1  0  0  0  0
 20 21  1  1  0  0  0
 20 22  1  0  0  0  0
 23 24  1  0  0  0  0
 24 25  1  0  0  0  0
 25 26  1  0  0  0  0
 26 27  1  0  0  0  0
 27 28  1  0  0  0  0
 28 29  1  0  0  0  0
 29 30  1  0  0  0  0
 31 37  1  0  0  0  0
 32 33  2  0  0  0  0
 34 32  1  6  0  0  0
 34 35  1  0  0  0  0
 34 36  1  0  0  0  0
 36 37  1  0  0  0  0
M  END
>  <CHROM.1>
158.52431784,-75.17768864,95.68523674,-176.93155289,68.42907115,-95.65690572
172.36987873,-130.44803328,-68.41720796,-74.46378720,-168.76291071,-60.88264579
-92.43642342,-68.90271888,-62.43312798,6.80985367,-1.40759187,9.83382170
-2.98839808,0.40617541,-2.17362948

>  <Name>
1o9m_lig

>  <RI>
0

>  <Rbt.Current_Directory>
/home/itssahil/PROJECTS/Mol_Feturizer/New_Systems/rnas/1o9m

>  <Rbt.Executable>
rbdock ($Id: //depot/dev/client3/rdock/2013.1/src/exe/rbdock.cxx#4 $)

>  <Rbt.Library>
libRbt.so (2013.1, Build901 2013/11/27)

>  <Rbt.Parameter_File>
/export/apps/rDock/src/rDock_2013.1_src/data/scripts/dock_solv.prm

>  <Rbt.Receptor>
prm/blind_docking_40.prm

>  <SCORE>
-1.6393

>  <SCORE.INTER>
-0.501363

>  <SCORE.INTER.CONST>
1

>  <SCORE.INTER.POLAR>
-0.594905

>  <SCORE.INTER.ROT>
15

>  <SCORE.INTER.SOLV>
17.7936

>  <SCORE.INTER.VDW>
-17.8824

>  <SCORE.INTER.norm>
-0.0135503

>  <SCORE.INTRA>
-1.29997

>  <SCORE.INTRA.DIHEDRAL>
-8.44223

>  <SCORE.INTRA.DIHEDRAL.0>
21.5987

>  <SCORE.INTRA.POLAR>
0

>  <SCORE.INTRA.POLAR.0>
0

>  <SCORE.INTRA.REPUL>
0.00777665

>  <SCORE.INTRA.REPUL.0>
0

>  <SCORE.INTRA.SOLV>
5.01431

>  <SCORE.INTRA.SOLV.lig_0>
-108.715

>  <SCORE.INTRA.VDW>
0.375111

>  <SCORE.INTRA.VDW.0>
-3.9485

>  <SCORE.INTRA.norm>
-0.0351342

>  <SCORE.RESTR>
0.162032

>  <SCORE.RESTR.CAVITY>
0.162032

>  <SCORE.RESTR.norm>
0.00437925

>  <SCORE.SYSTEM>
0

>  <SCORE.SYSTEM.CONST>
0

>  <SCORE.SYSTEM.DIHEDRAL>
0

>  <SCORE.SYSTEM.SOLV>
0

>  <SCORE.SYSTEM.norm>
0

>  <SCORE.heavy>
37

>  <SCORE.norm>
-0.0443053

>  <RMSD>
25.021

$$$$
1o9m_lig
 OpenBabel11021811403D
libRbt.so/2013.1/901 2013/11/27
 37 38  0  0  0  0  0  0  0  0999 V2000
    2.8499   -0.5262   11.1414 C   0  0  2  0  0  0  0  0  0  0  0  0
    4.2588   -0.4766   11.5219 O   0  0  0  0  0  0  0  0  0  0  0  0
    2.2644    0.9073   11.4182 C   0  0  2  0  0  0  0  0  0  0  0  0
    2.9718    1.9536   10.6594 N   0  0  0  0  0  0  0  0  0  0  0  0
    2.3293    1.1998   12.9655 C   0  0  1  0  0  0  0  0  0  0  0  0
    1.8000    2.4990   13.2436 O   0  0  0  0  0  0  0  0  0  0  0  0
    1.5424    0.0692   13.7072 C   0  0  2  0  0  0  0  0  0  0  0  0
    1.5515    0.2283   15.1353 O   0  0  0  0  0  0  0  0  0  0  0  0
    2.1243   -1.3222   13.3553 C   0  0  2  0  0  0  0  0  0  0  0  0
    2.1317   -1.5295   11.9354 O   0  0  0  0  0  0  0  0  0  0  0  0
    1.3481   -2.4335   14.0134 C   0  0  0  0  0  0  0  0  0  0  0  0
    1.5023   -2.3784   15.3781 N   0  0  0  0  0  0  0  0  0  0  0  0
    7.7409   -2.7161   10.2258 C   0  0  1  0  0  0  0  0  0  0  0  0
    8.6551   -3.8672    9.9835 N   0  0  0  0  0  0  0  0  0  0  0  0
    6.4220   -2.9767    9.5109 C   0  0  2  0  0  0  0  0  0  0  0  0
    6.6988   -3.1681    8.1556 O   0  0  0  0  0  0  0  0  0  0  0  0
    5.4363   -1.7845    9.7222 C   0  0  1  0  0  0  0  0  0  0  0  0
    4.1683   -2.0557    9.0505 O   0  0  0  0  0  0  0  0  0  0  0  0
    5.1609   -1.5916   11.2691 C   0  0  1  0  0  0  0  0  0  0  0  0
    6.4697   -1.3117   11.9919 C   0  0  1  0  0  0  0  0  0  0  0  0
    6.1921   -1.1231   13.4079 N   0  0  0  0  0  0  0  0  0  0  0  0
    7.4568   -2.4880   11.7656 C   0  0  0  0  0  0  0  0  0  0  0  0
    7.2374   -3.7835    6.9649 C   0  0  0  0  0  0  0  0  0  0  0  0
    6.8053   -2.9877    5.7548 C   0  0  0  0  0  0  0  0  0  0  0  0
    5.3494   -3.0103    5.5043 N   0  0  0  0  0  0  0  0  0  0  0  0
    4.0178   -2.7548    4.9094 C   0  0  0  0  0  0  0  0  0  0  0  0
    3.3841   -2.0690    6.1264 C   0  0  0  0  0  0  0  0  0  0  0  0
    1.9786   -1.5175    5.8216 C   0  0  0  0  0  0  0  0  0  0  0  0
    0.9799   -2.6499    5.6037 C   0  0  0  0  0  0  0  0  0  0  0  0
    0.6723   -3.2965    6.8716 N   0  0  0  0  0  0  0  0  0  0  0  0
   13.2330   -4.1545    7.0643 N   0  0  0  0  0  0  0  0  0  0  0  0
   10.3484   -3.4240   10.2719 C   0  0  0  0  0  0  0  0  0  0  0  0
   10.8585   -2.5276   10.5885 O   0  0  0  0  0  0  0  0  0  0  0  0
   10.6781   -4.8373    9.8578 C   0  0  2  0  0  0  0  0  0  0  0  0
   10.9302   -5.6292   10.9494 O   0  0  0  0  0  0  0  0  0  0  0  0
   11.9716   -4.7718    9.0534 C   0  0  0  0  0  0  0  0  0  0  0  0
   11.8745   -4.2108    7.6231 C   0  0  0  0  0  0  0  0  0  0  0  0
  1  2  1  1  0  0  0
  1  3  1  0  0  0  0
  3  4  1  6  0  0  0
  3  5  1  0  0  0  0
  5  6  1  6  0  0  0
  5  7  1  0  0  0  0
  7  8  1  1  0  0  0
  9  7  1  0  0  0  0
  9 10  1  0  0  0  0
  9 11  1  1  0  0  0
 10  1  1  0  0  0  0
 11 12  1  0  0  0  0
 13 14  1  1  0  0  0
 13 15  1  0  0  0  0
 13 22  1  0  0  0  0
 14 32  1  0  0  0  0
 15 16  1  6  0  0  0
 15 17  1  0  0  0  0
 16 23  1  0  0  0  0
 17 18  1  6  0  0  0
 17 19  1  0  0  0  0
 19  2  1  6  0  0  0
 19 20  1  0  0  0  0
 20 21  1  1  0  0  0
 20 22  1  0  0  0  0
 23 24  1  0  0  0  0
 24 25  1  0  0  0  0
 25 26  1  0  0  0  0
 26 27  1  0  0  0  0
 27 28  1  0  0  0  0
 28 29  1  0  0  0  0
 29 30  1  0  0  0  0
 31 37  1  0  0  0  0
 32 33  2  0  0  0  0
 34 32  1  1  0  0  0
 34 35  1  0  0  0  0
 34 36  1  0  0  0  0
 36 37  1  0  0  0  0
M  END
>  <CHROM.1>
-173.38422748,-66.50805704,160.01203839,64.23160004,178.63532461,68.76368534
-65.60263238,178.19585071,-117.83145529,174.27103328,68.84327948,72.58584633
-101.53342937,-74.27833459,176.36770170,5.43303256,-2.06320747,10.07756855
2.65020845,-0.31586833,1.33227079

>  <Name>
1o9m_lig

>  <RI>
0

>  <Rbt.Current_Directory>
/home/itssahil/PROJECTS/Mol_Feturizer/New_Systems/rnas/1o9m

>  <Rbt.Executable>
rbdock ($Id: //depot/dev/client3/rdock/2013.1/src/exe/rbdock.cxx#4 $)

>  <Rbt.Library>
libRbt.so (2013.1, Build901 2013/11/27)

>  <Rbt.Parameter_File>
/export/apps/rDock/src/rDock_2013.1_src/data/scripts/dock_solv.prm

>  <Rbt.Receptor>
prm/blind_docking_60.prm

>  <SCORE>
-13.5284

>  <SCORE.INTER>
-6.24477

>  <SCORE.INTER.CONST>
1

>  <SCORE.INTER.POLAR>
-1.727

>  <SCORE.INTER.ROT>
15

>  <SCORE.INTER.SOLV>
22.646

>  <SCORE.INTER.VDW>
-19.5552

>  <SCORE.INTER.norm>
-0.168777

>  <SCORE.INTRA>
-7.28367

>  <SCORE.INTRA.DIHEDRAL>
-15.4427

>  <SCORE.INTRA.DIHEDRAL.0>
21.5987

>  <SCORE.INTRA.POLAR>
0

>  <SCORE.INTRA.POLAR.0>
0

>  <SCORE.INTRA.REPUL>
0.018585

>  <SCORE.INTRA.REPUL.0>
0

>  <SCORE.INTRA.SOLV>
1.2171

>  <SCORE.INTRA.SOLV.lig_0>
-108.715

>  <SCORE.INTRA.VDW>
-0.263785

>  <SCORE.INTRA.VDW.0>
-3.9485

>  <SCORE.INTRA.norm>
-0.196856

>  <SCORE.RESTR>
0

>  <SCORE.RESTR.CAVITY>
0

>  <SCORE.RESTR.norm>
0

>  <SCORE.SYSTEM>
0

>  <SCORE.SYSTEM.CONST>
0

>  <SCORE.SYSTEM.DIHEDRAL>
0

>  <SCORE.SYSTEM.SOLV>
0

>  <SCORE.SYSTEM.norm>
0

>  <SCORE.heavy>
37

>  <SCORE.norm>
-0.365633

>  <RMSD>
25.029

$$$$
1o9m_lig
 OpenBabel11021811403D
libRbt.so/2013.1/901 2013/11/27
 37 38  0  0  0  0  0  0  0  0999 V2000
    5.4263    0.5173   12.3341 C   0  0  2  0  0  0  0  0  0  0  0  0
    5.0521   -0.8927   12.3986 O   0  0  0  0  0  0  0  0  0  0  0  0
    4.1177    1.3381   12.6316 C   0  0  2  0  0  0  0  0  0  0  0  0
    3.5434    1.0119   13.9487 N   0  0  0  0  0  0  0  0  0  0  0  0
    3.0705    1.0708   11.4845 C   0  0  1  0  0  0  0  0  0  0  0  0
    1.8705    1.8086   11.7317 O   0  0  0  0  0  0  0  0  0  0  0  0
    3.7333    1.4583   10.1214 C   0  0  2  0  0  0  0  0  0  0  0  0
    2.8664    1.2369    8.9970 O   0  0  0  0  0  0  0  0  0  0  0  0
    5.0446    0.6630    9.9061 C   0  0  2  0  0  0  0  0  0  0  0  0
    5.9469    0.8570   11.0050 O   0  0  0  0  0  0  0  0  0  0  0  0
    5.7326    1.0590    8.6254 C   0  0  0  0  0  0  0  0  0  0  0  0
    6.9766    0.4788    8.5544 N   0  0  0  0  0  0  0  0  0  0  0  0
    8.2717   -2.9327   10.3266 C   0  0  1  0  0  0  0  0  0  0  0  0
    9.1968   -4.0212    9.9037 N   0  0  0  0  0  0  0  0  0  0  0  0
    6.8430   -3.3484   10.0036 C   0  0  2  0  0  0  0  0  0  0  0  0
    6.7721   -3.6132    8.6342 O   0  0  0  0  0  0  0  0  0  0  0  0
    5.8371   -2.2270   10.4138 C   0  0  1  0  0  0  0  0  0  0  0  0
    4.4696   -2.6461   10.1192 O   0  0  0  0  0  0  0  0  0  0  0  0
    5.9593   -1.9470   11.9670 C   0  0  1  0  0  0  0  0  0  0  0  0
    7.3786   -1.5123   12.2995 C   0  0  1  0  0  0  0  0  0  0  0  0
    7.4649   -1.2460   13.7275 N   0  0  0  0  0  0  0  0  0  0  0  0
    8.3804   -2.6189   11.8737 C   0  0  0  0  0  0  0  0  0  0  0  0
    6.6088   -3.3630    7.2209 C   0  0  0  0  0  0  0  0  0  0  0  0
    5.1803   -2.9496    6.9509 C   0  0  0  0  0  0  0  0  0  0  0  0
    4.8849   -2.6895    5.5268 N   0  0  0  0  0  0  0  0  0  0  0  0
    4.4355   -2.0331    4.2779 C   0  0  0  0  0  0  0  0  0  0  0  0
    2.9848   -1.7703    4.7017 C   0  0  0  0  0  0  0  0  0  0  0  0
    2.1762   -3.0717    4.8594 C   0  0  0  0  0  0  0  0  0  0  0  0
    0.7968   -2.7930    5.4483 C   0  0  0  0  0  0  0  0  0  0  0  0
    0.9213   -2.3726    6.8368 N   0  0  0  0  0  0  0  0  0  0  0  0
   12.5442   -3.4898    6.4060 N   0  0  0  0  0  0  0  0  0  0  0  0
   10.8702   -3.6724   10.3777 C   0  0  0  0  0  0  0  0  0  0  0  0
   11.3618   -2.8691   10.9041 O   0  0  0  0  0  0  0  0  0  0  0  0
   11.2219   -4.9731    9.6978 C   0  0  2  0  0  0  0  0  0  0  0  0
   11.9513   -5.7864   10.5275 O   0  0  0  0  0  0  0  0  0  0  0  0
   12.1232   -4.6256    8.5182 C   0  0  0  0  0  0  0  0  0  0  0  0
   11.4816   -3.8419    7.3588 C   0  0  0  0  0  0  0  0  0  0  0  0
  1  2  1  6  0  0  0
  1  3  1  0  0  0  0
  3  4  1  1  0  0  0
  3  5  1  0  0  0  0
  5  6  1  1  0  0  0
  5  7  1  0  0  0  0
  7  8  1  6  0  0  0
  9  7  1  0  0  0  0
  9 10  1  0  0  0  0
  9 11  1  6  0  0  0
 10  1  1  0  0  0  0
 11 12  1  0  0  0  0
 13 14  1  1  0  0  0
 13 15  1  0  0  0  0
 13 22  1  0  0  0  0
 14 32  1  0  0  0  0
 15 16  1  6  0  0  0
 15 17  1  0  0  0  0
 16 23  1  0  0  0  0
 17 18  1  1  0  0  0
 17 19  1  0  0  0  0
 19  2  1  6  0  0  0
 19 20  1  0  0  0  0
 20 21  1  1  0  0  0
 20 22  1  0  0  0  0
 23 24  1  0  0  0  0
 24 25  1  0  0  0  0
 25 26  1  0  0  0  0
 26 27  1  0  0  0  0
 27 28  1  0  0  0  0
 28 29  1  0  0  0  0
 29 30  1  0  0  0  0
 31 37  1  0  0  0  0
 32 33  2  0  0  0  0
 34 32  1  1  0  0  0
 34 35  1  0  0  0  0
 34 36  1  0  0  0  0
 36 37  1  0  0  0  0
M  END
>  <CHROM.1>
170.04179766,171.58302791,-174.97622186,-86.62438543,-66.65300361,-86.52041584
-178.93335688,-127.15617449,-55.90294439,-67.50500984,172.84817712,-68.94163801
-127.97207071,-67.42224018,174.05057206,6.29717765,-1.77728805,9.47221959
-2.97281822,0.42573072,-2.02193828

>  <Name>
1o9m_lig

>  <RI>
0

>  <Rbt.Current_Directory>
/home/itssahil/PROJECTS/Mol_Feturizer/New_Systems/rnas/1o9m

>  <Rbt.Executable>
rbdock ($Id: //depot/dev/client3/rdock/2013.1/src/exe/rbdock.cxx#4 $)

>  <Rbt.Library>
libRbt.so (2013.1, Build901 2013/11/27)

>  <Rbt.Parameter_File>
/export/apps/rDock/src/rDock_2013.1_src/data/scripts/dock_solv.prm

>  <Rbt.Receptor>
prm/blind_docking_60.prm

>  <SCORE>
-8.06892

>  <SCORE.INTER>
-4.91827

>  <SCORE.INTER.CONST>
1

>  <SCORE.INTER.POLAR>
-0.784374

>  <SCORE.INTER.ROT>
15

>  <SCORE.INTER.SOLV>
16.8313

>  <SCORE.INTER.VDW>
-19.8747

>  <SCORE.INTER.norm>
-0.132926

>  <SCORE.INTRA>
-3.15065

>  <SCORE.INTRA.DIHEDRAL>
-10.0569

>  <SCORE.INTRA.DIHEDRAL.0>
21.5987

>  <SCORE.INTRA.POLAR>
0

>  <SCORE.INTRA.POLAR.0>
0

>  <SCORE.INTRA.REPUL>
0

>  <SCORE.INTRA.REPUL.0>
0

>  <SCORE.INTRA.SOLV>
3.98817

>  <SCORE.INTRA.SOLV.lig_0>
-108.715

>  <SCORE.INTRA.VDW>
-0.116263

>  <SCORE.INTRA.VDW.0>
-3.9485

>  <SCORE.INTRA.norm>
-0.0851527

>  <SCORE.RESTR>
0

>  <SCORE.RESTR.CAVITY>
0

>  <SCORE.RESTR.norm>
0

>  <SCORE.SYSTEM>
0

>  <SCORE.SYSTEM.CONST>
0

>  <SCORE.SYSTEM.DIHEDRAL>
0

>  <SCORE.SYSTEM.SOLV>
0

>  <SCORE.SYSTEM.norm>
0

>  <SCORE.heavy>
37

>  <SCORE.norm>
-0.218079

>  <RMSD>
25.042

$$$$
1o9m_lig
 OpenBabel11021811403D
libRbt.so/2013.1/901 2013/11/27
 37 38  0  0  0  0  0  0  0  0999 V2000
    3.1530   -0.4248   11.7203 C   0  0  2  0  0  0  0  0  0  0  0  0
    4.5235   -0.6582   12.1667 O   0  0  0  0  0  0  0  0  0  0  0  0
    2.8013    1.0551   12.1214 C   0  0  2  0  0  0  0  0  0  0  0  0
    3.7208    2.0309   11.5105 N   0  0  0  0  0  0  0  0  0  0  0  0
    2.8178    1.1804   13.6923 C   0  0  1  0  0  0  0  0  0  0  0  0
    2.4987    2.5187   14.0828 O   0  0  0  0  0  0  0  0  0  0  0  0
    1.8070    0.1374   14.2737 C   0  0  2  0  0  0  0  0  0  0  0  0
    1.7535    0.1533   15.7095 O   0  0  0  0  0  0  0  0  0  0  0  0
    2.1669   -1.2932   13.8024 C   0  0  2  0  0  0  0  0  0  0  0  0
    2.2279   -1.3599   12.3702 O   0  0  0  0  0  0  0  0  0  0  0  0
    1.1749   -2.3109   14.3032 C   0  0  0  0  0  0  0  0  0  0  0  0
    1.4305   -2.6175   15.6185 N   0  0  0  0  0  0  0  0  0  0  0  0
    8.1207   -1.2078    9.8048 C   0  0  1  0  0  0  0  0  0  0  0  0
    9.2807   -0.8905    8.9254 N   0  0  0  0  0  0  0  0  0  0  0  0
    8.2256   -0.3764   11.0761 C   0  0  2  0  0  0  0  0  0  0  0  0
    9.4521   -0.6654   11.6781 O   0  0  0  0  0  0  0  0  0  0  0  0
    7.0372   -0.6904   12.0389 C   0  0  1  0  0  0  0  0  0  0  0  0
    7.1370    0.1283   13.2440 O   0  0  0  0  0  0  0  0  0  0  0  0
    5.6677   -0.3643   11.3150 C   0  0  1  0  0  0  0  0  0  0  0  0
    5.5427   -1.2032   10.0524 C   0  0  1  0  0  0  0  0  0  0  0  0
    4.2721   -0.8993    9.4115 N   0  0  0  0  0  0  0  0  0  0  0  0
    6.7347   -0.9057    9.1037 C   0  0  0  0  0  0  0  0  0  0  0  0
   10.5396   -1.4553   12.2073 C   0  0  0  0  0  0  0  0  0  0  0  0
    9.9749   -2.6011   13.0150 C   0  0  0  0  0  0  0  0  0  0  0  0
    9.8787   -3.8749   12.2726 N   0  0  0  0  0  0  0  0  0  0  0  0
    9.8163   -5.3199   11.9556 C   0  0  0  0  0  0  0  0  0  0  0  0
    8.2990   -5.4909   12.1025 C   0  0  0  0  0  0  0  0  0  0  0  0
    7.5852   -5.5774   10.7404 C   0  0  0  0  0  0  0  0  0  0  0  0
    7.6437   -4.2426   10.0040 C   0  0  0  0  0  0  0  0  0  0  0  0
    6.9876   -4.3566    8.7091 N   0  0  0  0  0  0  0  0  0  0  0  0
   14.3084   -0.9812    8.8583 N   0  0  0  0  0  0  0  0  0  0  0  0
    9.7772   -2.3007    7.9708 C   0  0  0  0  0  0  0  0  0  0  0  0
    9.4290   -3.3174    7.8751 O   0  0  0  0  0  0  0  0  0  0  0  0
   10.8657   -1.4120    7.4204 C   0  0  2  0  0  0  0  0  0  0  0  0
   11.4915   -1.9977    6.3492 O   0  0  0  0  0  0  0  0  0  0  0  0
   11.9145   -1.2667    8.5175 C   0  0  0  0  0  0  0  0  0  0  0  0
   13.1365   -0.3857    8.2002 C   0  0  0  0  0  0  0  0  0  0  0  0
  1  2  1  1  0  0  0
  1  3  1  0  0  0  0
  3  4  1  6  0  0  0
  3  5  1  0  0  0  0
  5  6  1  6  0  0  0
  5  7  1  0  0  0  0
  7  8  1  1  0  0  0
  9  7  1  0  0  0  0
  9 10  1  0  0  0  0
  9 11  1  6  0  0  0
 10  1  1  0  0  0  0
 11 12  1  0  0  0  0
 13 14  1  6  0  0  0
 13 15  1  0  0  0  0
 13 22  1  0  0  0  0
 14 32  1  0  0  0  0
 15 16  1  1  0  0  0
 15 17  1  0  0  0  0
 16 23  1  0  0  0  0
 17 18  1  1  0  0  0
 17 19  1  0  0  0  0
 19  2  1  1  0  0  0
 19 20  1  0  0  0  0
 20 21  1  6  0  0  0
 20 22  1  0  0  0  0
 23 24  1  0  0  0  0
 24 25  1  0  0  0  0
 25 26  1  0  0  0  0
 26 27  1  0  0  0  0
 27 28  1  0  0  0  0
 28 29  1  0  0  0  0
 29 30  1  0  0  0  0
 31 37  1  0  0  0  0
 32 33  2  0  0  0  0
 34 32  1  1  0  0  0
 34 35  1  0  0  0  0
 34 36  1  0  0  0  0
 36 37  1  0  0  0  0
M  END
>  <CHROM.1>
-89.03536710,-78.75520682,147.88038542,-48.64399662,-43.53018723,179.34585084
96.91238863,153.89467980,87.86416017,103.51609240,-68.34695378,178.82135189
-168.99814557,-179.50925183,-144.68454865,6.84109406,-1.43345354,11.21444885
-3.10013461,-0.53506548,2.82572355

>  <Name>
1o9m_lig

>  <RI>
0

>  <Rbt.Current_Directory>
/home/itssahil/PROJECTS/Mol_Feturizer/New_Systems/rnas/1o9m

>  <Rbt.Executable>
rbdock ($Id: //depot/dev/client3/rdock/2013.1/src/exe/rbdock.cxx#4 $)

>  <Rbt.Library>
libRbt.so (2013.1, Build901 2013/11/27)

>  <Rbt.Parameter_File>
/export/apps/rDock/src/rDock_2013.1_src/data/scripts/dock_solv.prm

>  <Rbt.Receptor>
prm/blind_docking_80.prm

>  <SCORE>
2.60349

>  <SCORE.INTER>
-2.09253

>  <SCORE.INTER.CONST>
1

>  <SCORE.INTER.POLAR>
-0.452778

>  <SCORE.INTER.ROT>
15

>  <SCORE.INTER.SOLV>
20.026

>  <SCORE.INTER.VDW>
-20.1611

>  <SCORE.INTER.norm>
-0.0565549

>  <SCORE.INTRA>
4.38838

>  <SCORE.INTRA.DIHEDRAL>
-0.29935

>  <SCORE.INTRA.DIHEDRAL.0>
21.5987

>  <SCORE.INTRA.POLAR>
0

>  <SCORE.INTRA.POLAR.0>
0

>  <SCORE.INTRA.REPUL>
0

>  <SCORE.INTRA.REPUL.0>
0

>  <SCORE.INTRA.SOLV>
8.56228

>  <SCORE.INTRA.SOLV.lig_0>
-108.715

>  <SCORE.INTRA.VDW>
0.256911

>  <SCORE.INTRA.VDW.0>
-3.9485

>  <SCORE.INTRA.norm>
0.118605

>  <SCORE.RESTR>
0.307647

>  <SCORE.RESTR.CAVITY>
0.307647

>  <SCORE.RESTR.norm>
0.00831479

>  <SCORE.SYSTEM>
0

>  <SCORE.SYSTEM.CONST>
0

>  <SCORE.SYSTEM.DIHEDRAL>
0

>  <SCORE.SYSTEM.SOLV>
0

>  <SCORE.SYSTEM.norm>
0

>  <SCORE.heavy>
37

>  <SCORE.norm>
0.0703647

>  <RMSD>
25.087

$$$$
1o9m_lig
 OpenBabel11021811403D
libRbt.so/2013.1/901 2013/11/27
 37 38  0  0  0  0  0  0  0  0999 V2000
    4.5070    0.2901   11.2460 C   0  0  2  0  0  0  0  0  0  0  0  0
    4.8238   -0.4552   12.4611 O   0  0  0  0  0  0  0  0  0  0  0  0
    3.0321    0.8101   11.4158 C   0  0  2  0  0  0  0  0  0  0  0  0
    2.8767    1.6648   12.6059 N   0  0  0  0  0  0  0  0  0  0  0  0
    2.0557   -0.4251   11.4845 C   0  0  1  0  0  0  0  0  0  0  0  0
    0.7058    0.0224   11.6373 O   0  0  0  0  0  0  0  0  0  0  0  0
    2.2541   -1.2743   10.1857 C   0  0  2  0  0  0  0  0  0  0  0  0
    1.4189   -2.4431   10.1507 O   0  0  0  0  0  0  0  0  0  0  0  0
    3.7325   -1.7115   10.0397 C   0  0  2  0  0  0  0  0  0  0  0  0
    4.6073   -0.5742   10.0647 O   0  0  0  0  0  0  0  0  0  0  0  0
    3.9620   -2.4842    8.7665 C   0  0  0  0  0  0  0  0  0  0  0  0
    3.6639   -1.7030    7.6755 N   0  0  0  0  0  0  0  0  0  0  0  0
    9.1429   -0.8052   12.2529 C   0  0  1  0  0  0  0  0  0  0  0  0
   10.5394   -1.1571   12.6344 N   0  0  0  0  0  0  0  0  0  0  0  0
    8.3212   -2.0838   12.1614 C   0  0  2  0  0  0  0  0  0  0  0  0
    8.9373   -2.9246   11.2321 O   0  0  0  0  0  0  0  0  0  0  0  0
    6.8507   -1.7647   11.7450 C   0  0  1  0  0  0  0  0  0  0  0  0
    6.0678   -2.9958   11.6819 O   0  0  0  0  0  0  0  0  0  0  0  0
    6.1942   -0.7993   12.8140 C   0  0  1  0  0  0  0  0  0  0  0  0
    6.9961    0.4904   12.9008 C   0  0  1  0  0  0  0  0  0  0  0  0
    6.3678    1.3683   13.8766 N   0  0  0  0  0  0  0  0  0  0  0  0
    8.4629    0.1715   13.2956 C   0  0  0  0  0  0  0  0  0  0  0  0
    9.1533   -4.0893   10.4054 C   0  0  0  0  0  0  0  0  0  0  0  0
    7.9655   -4.2763    9.4896 C   0  0  0  0  0  0  0  0  0  0  0  0
    7.6763   -3.1110    8.6285 N   0  0  0  0  0  0  0  0  0  0  0  0
    7.0513   -1.8877    8.0759 C   0  0  0  0  0  0  0  0  0  0  0  0
    8.3172   -1.2772    7.4614 C   0  0  0  0  0  0  0  0  0  0  0  0
    8.8506   -2.1047    6.2770 C   0  0  0  0  0  0  0  0  0  0  0  0
   10.1644   -1.5318    5.7544 C   0  0  0  0  0  0  0  0  0  0  0  0
   10.6311   -2.3093    4.6152 N   0  0  0  0  0  0  0  0  0  0  0  0
   13.4069   -2.5960    9.6556 N   0  0  0  0  0  0  0  0  0  0  0  0
   11.6223    0.2412   12.4969 C   0  0  0  0  0  0  0  0  0  0  0  0
   11.5000    1.2753   12.2148 O   0  0  0  0  0  0  0  0  0  0  0  0
   12.7200   -0.7006   12.9280 C   0  0  2  0  0  0  0  0  0  0  0  0
   13.6843   -0.0433   13.6490 O   0  0  0  0  0  0  0  0  0  0  0  0
   13.3908   -1.2089   11.6566 C   0  0  0  0  0  0  0  0  0  0  0  0
   12.5308   -2.0663   10.7106 C   0  0  0  0  0  0  0  0  0  0  0  0
  1  2  1  1  0  0  0
  1  3  1  0  0  0  0
  3  4  1  1  0  0  0
  3  5  1  0  0  0  0
  5  6  1  6  0  0  0
  5  7  1  0  0  0  0
  7  8  1  1  0  0  0
  9  7  1  0  0  0  0
  9 10  1  0  0  0  0
  9 11  1  6  0  0  0
 10  1  1  0  0  0  0
 11 12  1  0  0  0  0
 13 14  1  1  0  0  0
 13 15  1  0  0  0  0
 13 22  1  0  0  0  0
 14 32  1  0  0  0  0
 15 16  1  6  0  0  0
 15 17  1  0  0  0  0
 16 23  1  0  0  0  0
 17 18  1  1  0  0  0
 17 19  1  0  0  0  0
 19  2  1  6  0  0  0
 19 20  1  0  0  0  0
 20 21  1  1  0  0  0
 20 22  1  0  0  0  0
 23 24  1  0  0  0  0
 24 25  1  0  0  0  0
 25 26  1  0  0  0  0
 26 27  1  0  0  0  0
 27 28  1  0  0  0  0
 28 29  1  0  0  0  0
 29 30  1  0  0  0  0
 31 37  1  0  0  0  0
 32 33  2  0  0  0  0
 34 32  1  6  0  0  0
 34 35  1  0  0  0  0
 34 36  1  0  0  0  0
 36 37  1  0  0  0  0
M  END
>  <CHROM.1>
-164.39974271,61.13948520,170.43969652,-178.51041783,59.03012399,-63.22077783
57.23780846,-103.62759202,149.44066421,67.40100446,-175.77209398,-178.56772288
-148.34935637,-64.65453181,-172.52218549,7.39584616,-1.21202500,10.71144560
-3.12189680,0.05861576,-2.00141261

>  <Name>
1o9m_lig

>  <RI>
0

>  <Rbt.Current_Directory>
/home/itssahil/PROJECTS/Mol_Feturizer/New_Systems/rnas/1o9m

>  <Rbt.Executable>
rbdock ($Id: //depot/dev/client3/rdock/2013.1/src/exe/rbdock.cxx#4 $)

>  <Rbt.Library>
libRbt.so (2013.1, Build901 2013/11/27)

>  <Rbt.Parameter_File>
/export/apps/rDock/src/rDock_2013.1_src/data/scripts/dock_solv.prm

>  <Rbt.Receptor>
prm/blind_docking_100.prm

>  <SCORE>
-5.53203

>  <SCORE.INTER>
0.567407

>  <SCORE.INTER.CONST>
1

>  <SCORE.INTER.POLAR>
-0.54253

>  <SCORE.INTER.ROT>
15

>  <SCORE.INTER.SOLV>
13.2783

>  <SCORE.INTER.VDW>
-15.8394

>  <SCORE.INTER.norm>
0.0153353

>  <SCORE.INTRA>
-7.70406

>  <SCORE.INTRA.DIHEDRAL>
-16.2048

>  <SCORE.INTRA.DIHEDRAL.0>
21.5987

>  <SCORE.INTRA.POLAR>
0

>  <SCORE.INTRA.POLAR.0>
0

>  <SCORE.INTRA.REPUL>
0

>  <SCORE.INTRA.REPUL.0>
0

>  <SCORE.INTRA.SOLV>
4.63072

>  <SCORE.INTRA.SOLV.lig_0>
-108.715

>  <SCORE.INTRA.VDW>
-1.91701

>  <SCORE.INTRA.VDW.0>
-3.9485

>  <SCORE.INTRA.norm>
-0.208218

>  <SCORE.RESTR>
1.60463

>  <SCORE.RESTR.CAVITY>
1.60463

>  <SCORE.RESTR.norm>
0.0433683

>  <SCORE.SYSTEM>
0

>  <SCORE.SYSTEM.CONST>
0

>  <SCORE.SYSTEM.DIHEDRAL>
0

>  <SCORE.SYSTEM.SOLV>
0

>  <SCORE.SYSTEM.norm>
0

>  <SCORE.heavy>
37

>  <SCORE.norm>
-0.149514

>  <RMSD>
25.089

$$$$
1o9m_lig
 OpenBabel11021811403D
libRbt.so/2013.1/901 2013/11/27
 37 38  0  0  0  0  0  0  0  0999 V2000
    4.5646    0.7390   11.2492 C   0  0  2  0  0  0  0  0  0  0  0  0
    4.7705   -0.2261   12.3254 O   0  0  0  0  0  0  0  0  0  0  0  0
    3.1050    1.2980   11.4272 C   0  0  2  0  0  0  0  0  0  0  0  0
    2.9091    1.9345   12.7415 N   0  0  0  0  0  0  0  0  0  0  0  0
    2.0750    0.1239   11.2168 C   0  0  1  0  0  0  0  0  0  0  0  0
    0.7382    0.6080   11.3720 O   0  0  0  0  0  0  0  0  0  0  0  0
    2.3210   -0.4902    9.7991 C   0  0  2  0  0  0  0  0  0  0  0  0
    1.4413   -1.5882    9.5067 O   0  0  0  0  0  0  0  0  0  0  0  0
    3.7861   -0.9723    9.6596 C   0  0  2  0  0  0  0  0  0  0  0  0
    4.7045    0.0944    9.9386 O   0  0  0  0  0  0  0  0  0  0  0  0
    4.0646   -1.5174    8.2827 C   0  0  0  0  0  0  0  0  0  0  0  0
    5.3405   -2.0249    8.2209 N   0  0  0  0  0  0  0  0  0  0  0  0
    9.0391   -0.9766   12.1352 C   0  0  1  0  0  0  0  0  0  0  0  0
   10.3907   -1.4790   12.5096 N   0  0  0  0  0  0  0  0  0  0  0  0
    8.1009   -2.1645   11.9714 C   0  0  2  0  0  0  0  0  0  0  0  0
    8.6465   -3.0125   11.0052 O   0  0  0  0  0  0  0  0  0  0  0  0
    6.6730   -1.6858   11.5597 C   0  0  1  0  0  0  0  0  0  0  0  0
    5.7774   -2.8316   11.4270 O   0  0  0  0  0  0  0  0  0  0  0  0
    6.0973   -0.7170   12.6714 C   0  0  1  0  0  0  0  0  0  0  0  0
    7.0168    0.4841   12.8310 C   0  0  1  0  0  0  0  0  0  0  0  0
    6.4621    1.3678   13.8454 N   0  0  0  0  0  0  0  0  0  0  0  0
    8.4415    0.0070   13.2210 C   0  0  0  0  0  0  0  0  0  0  0  0
    8.7991   -4.1824   10.1717 C   0  0  0  0  0  0  0  0  0  0  0  0
    7.5592   -4.3549    9.3248 C   0  0  0  0  0  0  0  0  0  0  0  0
    7.6921   -3.8411    7.9460 N   0  0  0  0  0  0  0  0  0  0  0  0
    7.3861   -3.4625    6.5476 C   0  0  0  0  0  0  0  0  0  0  0  0
    8.0091   -2.0611    6.5796 C   0  0  0  0  0  0  0  0  0  0  0  0
    9.5427   -2.1053    6.7156 C   0  0  0  0  0  0  0  0  0  0  0  0
   10.1827   -2.7696    5.5006 C   0  0  0  0  0  0  0  0  0  0  0  0
   10.3513   -1.7974    4.4298 N   0  0  0  0  0  0  0  0  0  0  0  0
   12.8059   -0.6929    9.7908 N   0  0  0  0  0  0  0  0  0  0  0  0
   11.6102   -0.1941   12.4168 C   0  0  0  0  0  0  0  0  0  0  0  0
   11.5947    0.8550   12.1655 O   0  0  0  0  0  0  0  0  0  0  0  0
   12.6046   -1.2545   12.8224 C   0  0  2  0  0  0  0  0  0  0  0  0
   12.9950   -1.0965   14.1280 O   0  0  0  0  0  0  0  0  0  0  0  0
   13.8469   -1.0472   11.9632 C   0  0  0  0  0  0  0  0  0  0  0  0
   13.7749   -1.5364   10.5054 C   0  0  0  0  0  0  0  0  0  0  0  0
  1  2  1  1  0  0  0
  1  3  1  0  0  0  0
  3  4  1  1  0  0  0
  3  5  1  0  0  0  0
  5  6  1  6  0  0  0
  5  7  1  0  0  0  0
  7  8  1  1  0  0  0
  9  7  1  0  0  0  0
  9 10  1  0  0  0  0
  9 11  1  6  0  0  0
 10  1  1  0  0  0  0
 11 12  1  0  0  0  0
 13 14  1  1  0  0  0
 13 15  1  0  0  0  0
 13 22  1  0  0  0  0
 14 32  1  0  0  0  0
 15 16  1  6  0  0  0
 15 17  1  0  0  0  0
 16 23  1  0  0  0  0
 17 18  1  1  0  0  0
 17 19  1  0  0  0  0
 19  2  1  6  0  0  0
 19 20  1  0  0  0  0
 20 21  1  1  0  0  0
 20 22  1  0  0  0  0
 23 24  1  0  0  0  0
 24 25  1  0  0  0  0
 25 26  1  0  0  0  0
 26 27  1  0  0  0  0
 27 28  1  0  0  0  0
 28 29  1  0  0  0  0
 29 30  1  0  0  0  0
 31 37  1  0  0  0  0
 32 33  2  0  0  0  0
 34 32  1  6  0  0  0
 34 35  1  0  0  0  0
 34 36  1  0  0  0  0
 36 37  1  0  0  0  0
M  END
>  <CHROM.1>
-165.46701943,-175.63092565,169.12711681,173.72155246,60.09866272,-71.01192241
98.79391847,-177.70683650,133.89914359,67.84293190,63.81446196,83.94423442
-105.89848934,-76.92301210,67.48349118,7.42044634,-1.16032364,10.53792260
-3.08388917,0.12711703,-2.00607961

>  <Name>
1o9m_lig

>  <RI>
0

>  <Rbt.Current_Directory>
/home/itssahil/PROJECTS/Mol_Feturizer/New_Systems/rnas/1o9m

>  <Rbt.Executable>
rbdock ($Id: //depot/dev/client3/rdock/2013.1/src/exe/rbdock.cxx#4 $)

>  <Rbt.Library>
libRbt.so (2013.1, Build901 2013/11/27)

>  <Rbt.Parameter_File>
/export/apps/rDock/src/rDock_2013.1_src/data/scripts/dock_solv.prm

>  <Rbt.Receptor>
prm/blind_docking_100.prm

>  <SCORE>
2.98027

>  <SCORE.INTER>
1.8065

>  <SCORE.INTER.CONST>
1

>  <SCORE.INTER.POLAR>
-0.488375

>  <SCORE.INTER.ROT>
15

>  <SCORE.INTER.SOLV>
14.2313

>  <SCORE.INTER.VDW>
-15.5115

>  <SCORE.INTER.norm>
0.0488244

>  <SCORE.INTRA>
-0.280023

>  <SCORE.INTRA.DIHEDRAL>
-9.1632

>  <SCORE.INTRA.DIHEDRAL.0>
21.5987

>  <SCORE.INTRA.POLAR>
0

>  <SCORE.INTRA.POLAR.0>
0

>  <SCORE.INTRA.REPUL>
0

>  <SCORE.INTRA.REPUL.0>
0

>  <SCORE.INTRA.SOLV>
10.5344

>  <SCORE.INTRA.SOLV.lig_0>
-108.715

>  <SCORE.INTRA.VDW>
-0.965598

>  <SCORE.INTRA.VDW.0>
-3.9485

>  <SCORE.INTRA.norm>
-0.00756818

>  <SCORE.RESTR>
1.45379

>  <SCORE.RESTR.CAVITY>
1.45379

>  <SCORE.RESTR.norm>
0.0392915

>  <SCORE.SYSTEM>
0

>  <SCORE.SYSTEM.CONST>
0

>  <SCORE.SYSTEM.DIHEDRAL>
0

>  <SCORE.SYSTEM.SOLV>
0

>  <SCORE.SYSTEM.norm>
0

>  <SCORE.heavy>
37

>  <SCORE.norm>
0.0805478

>  <RMSD>
25.089

$$$$
1o9m_lig
 OpenBabel11021811403D
libRbt.so/2013.1/901 2013/11/27
 37 38  0  0  0  0  0  0  0  0999 V2000
    7.1836   -3.6956    7.6473 C   0  0  2  0  0  0  0  0  0  0  0  0
    7.9064   -2.4344    7.5079 O   0  0  0  0  0  0  0  0  0  0  0  0
    6.0447   -3.6769    6.5623 C   0  0  2  0  0  0  0  0  0  0  0  0
    6.5789   -3.5315    5.1969 N   0  0  0  0  0  0  0  0  0  0  0  0
    5.0368   -2.5117    6.8943 C   0  0  1  0  0  0  0  0  0  0  0  0
    3.9890   -2.4751    5.9214 O   0  0  0  0  0  0  0  0  0  0  0  0
    4.4914   -2.7388    8.3429 C   0  0  2  0  0  0  0  0  0  0  0  0
    3.5698   -1.7175    8.7581 O   0  0  0  0  0  0  0  0  0  0  0  0
    5.6565   -2.8049    9.3609 C   0  0  2  0  0  0  0  0  0  0  0  0
    6.6036   -3.8171    8.9895 O   0  0  0  0  0  0  0  0  0  0  0  0
    5.1615   -3.0793   10.7574 C   0  0  0  0  0  0  0  0  0  0  0  0
    6.2224   -3.2080   11.6217 N   0  0  0  0  0  0  0  0  0  0  0  0
    9.9694   -2.0192   11.3016 C   0  0  1  0  0  0  0  0  0  0  0  0
   10.9539   -1.5492   12.3163 N   0  0  0  0  0  0  0  0  0  0  0  0
    9.1870   -0.8201   10.7833 C   0  0  2  0  0  0  0  0  0  0  0  0
    8.5785   -0.1995   11.8763 O   0  0  0  0  0  0  0  0  0  0  0  0
    8.1275   -1.2685    9.7278 C   0  0  1  0  0  0  0  0  0  0  0  0
    7.3991   -0.1081    9.2226 O   0  0  0  0  0  0  0  0  0  0  0  0
    8.8551   -1.9793    8.5148 C   0  0  1  0  0  0  0  0  0  0  0  0
    9.6254   -3.1907    9.0176 C   0  0  1  0  0  0  0  0  0  0  0  0
   10.2733   -3.8370    7.8862 N   0  0  0  0  0  0  0  0  0  0  0  0
   10.6653   -2.7477   10.0814 C   0  0  0  0  0  0  0  0  0  0  0  0
    8.4590    0.5626   13.0976 C   0  0  0  0  0  0  0  0  0  0  0  0
    6.9962    0.7218   13.4433 C   0  0  0  0  0  0  0  0  0  0  0  0
    6.1903    1.3614   12.3829 N   0  0  0  0  0  0  0  0  0  0  0  0
    5.0662    1.9923   11.6544 C   0  0  0  0  0  0  0  0  0  0  0  0
    4.3777    0.7013   11.1936 C   0  0  0  0  0  0  0  0  0  0  0  0
    3.1359    0.9779   10.3254 C   0  0  0  0  0  0  0  0  0  0  0  0
    3.5343    1.3628    8.9040 C   0  0  0  0  0  0  0  0  0  0  0  0
    2.3502    1.4643    8.0628 N   0  0  0  0  0  0  0  0  0  0  0  0
   14.9092   -2.0923   10.9877 N   0  0  0  0  0  0  0  0  0  0  0  0
   12.3729   -0.8096   11.5508 C   0  0  0  0  0  0  0  0  0  0  0  0
   12.6762   -0.6156   10.5337 O   0  0  0  0  0  0  0  0  0  0  0  0
   12.9009   -0.6253   12.9525 C   0  0  2  0  0  0  0  0  0  0  0  0
   12.5215    0.5866   13.4713 O   0  0  0  0  0  0  0  0  0  0  0  0
   14.4222   -0.6046   12.8527 C   0  0  0  0  0  0  0  0  0  0  0  0
   15.1104   -1.9162   12.4333 C   0  0  0  0  0  0  0  0  0  0  0  0
  1  2  1  1  0  0  0
  1  3  1  0  0  0  0
  3  4  1  6  0  0  0
  3  5  1  0  0  0  0
  5  6  1  6  0  0  0
  5  7  1  0  0  0  0
  7  8  1  1  0  0  0
  9  7  1  0  0  0  0
  9 10  1  0  0  0  0
  9 11  1  1  0  0  0
 10  1  1  0  0  0  0
 11 12  1  0  0  0  0
 13 14  1  1  0  0  0
 13 15  1  0  0  0  0
 13 22  1  0  0  0  0
 14 32  1  0  0  0  0
 15 16  1  1  0  0  0
 15 17  1  0  0  0  0
 16 23  1  0  0  0  0
 17 18  1  6  0  0  0
 17 19  1  0  0  0  0
 19  2  1  6  0  0  0
 19 20  1  0  0  0  0
 20 21  1  6  0  0  0
 20 22  1  0  0  0  0
 23 24  1  0  0  0  0
 24 25  1  0  0  0  0
 25 26  1  0  0  0  0
 26 27  1  0  0  0  0
 27 28  1  0  0  0  0
 28 29  1  0  0  0  0
 29 30  1  0  0  0  0
 31 37  1  0  0  0  0
 32 33  2  0  0  0  0
 34 32  1  6  0  0  0
 34 35  1  0  0  0  0
 34 36  1  0  0  0  0
 36 37  1  0  0  0  0
M  END
>  <CHROM.1>
167.44019460,176.55581137,-78.04627013,70.23969999,175.99453892,-82.14387234
-57.10615974,-172.05701384,-84.81214350,-177.99016753,77.52473101,173.28468215
-90.57011406,-67.12640265,75.42770607,8.01160404,-1.34224316,10.05459147
-2.82214866,-0.25844665,0.85339292

>  <Name>
1o9m_lig

>  <RI>
0

>  <Rbt.Current_Directory>
/home/itssahil/PROJECTS/Mol_Feturizer/New_Systems/rnas/1o9m

>  <Rbt.Executable>
rbdock ($Id: //depot/dev/client3/rdock/2013.1/src/exe/rbdock.cxx#4 $)

>  <Rbt.Library>
libRbt.so (2013.1, Build901 2013/11/27)

>  <Rbt.Parameter_File>
/export/apps/rDock/src/rDock_2013.1_src/data/scripts/dock_solv.prm

>  <Rbt.Receptor>
prm/blind_docking_40.prm

>  <SCORE>
-8.48636

>  <SCORE.INTER>
-4.75948

>  <SCORE.INTER.CONST>
1

>  <SCORE.INTER.POLAR>
-0.87178

>  <SCORE.INTER.ROT>
15

>  <SCORE.INTER.SOLV>
15.1884

>  <SCORE.INTER.VDW>
-18.9299

>  <SCORE.INTER.norm>
-0.128635

>  <SCORE.INTRA>
-3.72688

>  <SCORE.INTRA.DIHEDRAL>
-13.3929

>  <SCORE.INTRA.DIHEDRAL.0>
21.5987

>  <SCORE.INTRA.POLAR>
0

>  <SCORE.INTRA.POLAR.0>
0

>  <SCORE.INTRA.REPUL>
0.0805661

>  <SCORE.INTRA.REPUL.0>
0

>  <SCORE.INTRA.SOLV>
8.46311

>  <SCORE.INTRA.SOLV.lig_0>
-108.715

>  <SCORE.INTRA.VDW>
-1.66482

>  <SCORE.INTRA.VDW.0>
-3.9485

>  <SCORE.INTRA.norm>
-0.100727

>  <SCORE.RESTR>
0

>  <SCORE.RESTR.CAVITY>
0

>  <SCORE.RESTR.norm>
0

>  <SCORE.SYSTEM>
0

>  <SCORE.SYSTEM.CONST>
0

>  <SCORE.SYSTEM.DIHEDRAL>
0

>  <SCORE.SYSTEM.SOLV>
0

>  <SCORE.SYSTEM.norm>
0

>  <SCORE.heavy>
37

>  <SCORE.norm>
-0.229361

>  <RMSD>
25.093

$$$$
1o9m_lig
 OpenBabel11021811403D
libRbt.so/2013.1/901 2013/11/27
 37 38  0  0  0  0  0  0  0  0999 V2000
    4.2546    0.1303   12.3611 C   0  0  2  0  0  0  0  0  0  0  0  0
    5.3674   -0.3243   13.1901 O   0  0  0  0  0  0  0  0  0  0  0  0
    3.0644    0.4350   13.3436 C   0  0  2  0  0  0  0  0  0  0  0  0
    3.4175    1.4556   14.3459 N   0  0  0  0  0  0  0  0  0  0  0  0
    2.6195   -0.9047   14.0442 C   0  0  1  0  0  0  0  0  0  0  0  0
    1.5354   -0.6539   14.9428 O   0  0  0  0  0  0  0  0  0  0  0  0
    2.2375   -1.9329   12.9287 C   0  0  2  0  0  0  0  0  0  0  0  0
    1.8300   -3.2049   13.4587 O   0  0  0  0  0  0  0  0  0  0  0  0
    3.4247   -2.1525   11.9588 C   0  0  2  0  0  0  0  0  0  0  0  0
    3.8652   -0.9068   11.3990 O   0  0  0  0  0  0  0  0  0  0  0  0
    3.0641   -3.0969   10.8414 C   0  0  0  0  0  0  0  0  0  0  0  0
    3.2293   -4.3997   11.2474 N   0  0  0  0  0  0  0  0  0  0  0  0
    8.5120   -0.9738   10.2729 C   0  0  1  0  0  0  0  0  0  0  0  0
    9.8418   -1.3290    9.7029 N   0  0  0  0  0  0  0  0  0  0  0  0
    7.9409   -2.1923   10.9852 C   0  0  2  0  0  0  0  0  0  0  0  0
    7.8684   -3.2357   10.0599 O   0  0  0  0  0  0  0  0  0  0  0  0
    6.5353   -1.8714   11.5843 C   0  0  1  0  0  0  0  0  0  0  0  0
    6.0079   -3.0402   12.2830 O   0  0  0  0  0  0  0  0  0  0  0  0
    6.6582   -0.6761   12.6148 C   0  0  1  0  0  0  0  0  0  0  0  0
    7.2104    0.5537   11.9100 C   0  0  1  0  0  0  0  0  0  0  0  0
    7.3011    1.6432   12.8704 N   0  0  0  0  0  0  0  0  0  0  0  0
    8.5991    0.2289   11.2975 C   0  0  0  0  0  0  0  0  0  0  0  0
    8.2957   -4.1559    9.0316 C   0  0  0  0  0  0  0  0  0  0  0  0
    7.8089   -3.6619    7.6887 C   0  0  0  0  0  0  0  0  0  0  0  0
    6.3716   -3.3213    7.6541 N   0  0  0  0  0  0  0  0  0  0  0  0
    5.0684   -2.7495    7.2456 C   0  0  0  0  0  0  0  0  0  0  0  0
    4.7374   -3.7706    6.1498 C   0  0  0  0  0  0  0  0  0  0  0  0
    3.3710   -3.5012    5.4921 C   0  0  0  0  0  0  0  0  0  0  0  0
    3.3868   -2.1915    4.7099 C   0  0  0  0  0  0  0  0  0  0  0  0
    2.0993   -1.9792    4.0638 N   0  0  0  0  0  0  0  0  0  0  0  0
   12.8289   -4.3408    8.4025 N   0  0  0  0  0  0  0  0  0  0  0  0
    9.8155   -1.3064    7.9293 C   0  0  0  0  0  0  0  0  0  0  0  0
    9.0703   -1.0867    7.1807 O   0  0  0  0  0  0  0  0  0  0  0  0
   11.2592   -1.7388    8.0081 C   0  0  2  0  0  0  0  0  0  0  0  0
   12.1008   -0.7404    7.5876 O   0  0  0  0  0  0  0  0  0  0  0  0
   11.4276   -2.8972    7.0311 C   0  0  0  0  0  0  0  0  0  0  0  0
   12.7551   -3.6741    7.0944 C   0  0  0  0  0  0  0  0  0  0  0  0
  1  2  1  1  0  0  0
  1  3  1  0  0  0  0
  3  4  1  1  0  0  0
  3  5  1  0  0  0  0
  5  6  1  1  0  0  0
  5  7  1  0  0  0  0
  7  8  1  1  0  0  0
  9  7  1  0  0  0  0
  9 10  1  0  0  0  0
  9 11  1  6  0  0  0
 10  1  1  0  0  0  0
 11 12  1  0  0  0  0
 13 14  1  1  0  0  0
 13 15  1  0  0  0  0
 13 22  1  0  0  0  0
 14 32  1  0  0  0  0
 15 16  1  6  0  0  0
 15 17  1  0  0  0  0
 16 23  1  0  0  0  0
 17 18  1  1  0  0  0
 17 19  1  0  0  0  0
 19  2  1  6  0  0  0
 19 20  1  0  0  0  0
 20 21  1  1  0  0  0
 20 22  1  0  0  0  0
 23 24  1  0  0  0  0
 24 25  1  0  0  0  0
 25 26  1  0  0  0  0
 26 27  1  0  0  0  0
 27 28  1  0  0  0  0
 28 29  1  0  0  0  0
 29 30  1  0  0  0  0
 31 37  1  0  0  0  0
 32 33  2  0  0  0  0
 34 32  1  6  0  0  0
 34 35  1  0  0  0  0
 34 36  1  0  0  0  0
 36 37  1  0  0  0  0
M  END
>  <CHROM.1>
-178.84744521,-84.30704076,113.70736102,50.11608445,-99.19101238,-60.50386161
-50.10021981,161.23010525,80.45602350,178.60178776,66.49008418,178.23573906
-110.92377935,-169.99028918,64.90606250,6.33195931,-1.83966568,10.08592469
-2.47665916,-0.08908585,-1.94962766

>  <Name>
1o9m_lig

>  <RI>
0

>  <Rbt.Current_Directory>
/home/itssahil/PROJECTS/Mol_Feturizer/New_Systems/rnas/1o9m

>  <Rbt.Executable>
rbdock ($Id: //depot/dev/client3/rdock/2013.1/src/exe/rbdock.cxx#4 $)

>  <Rbt.Library>
libRbt.so (2013.1, Build901 2013/11/27)

>  <Rbt.Parameter_File>
/export/apps/rDock/src/rDock_2013.1_src/data/scripts/dock_solv.prm

>  <Rbt.Receptor>
prm/blind_docking_80.prm

>  <SCORE>
-4.36178

>  <SCORE.INTER>
-1.04369

>  <SCORE.INTER.CONST>
1

>  <SCORE.INTER.POLAR>
-0.88007

>  <SCORE.INTER.ROT>
15

>  <SCORE.INTER.SOLV>
28.7315

>  <SCORE.INTER.VDW>
-20.9394

>  <SCORE.INTER.norm>
-0.028208

>  <SCORE.INTRA>
-3.31909

>  <SCORE.INTRA.DIHEDRAL>
-9.01081

>  <SCORE.INTRA.DIHEDRAL.0>
21.5987

>  <SCORE.INTRA.POLAR>
0

>  <SCORE.INTRA.POLAR.0>
0

>  <SCORE.INTRA.REPUL>
0

>  <SCORE.INTRA.REPUL.0>
0

>  <SCORE.INTRA.SOLV>
4.3001

>  <SCORE.INTRA.SOLV.lig_0>
-108.715

>  <SCORE.INTRA.VDW>
-0.963736

>  <SCORE.INTRA.VDW.0>
-3.9485

>  <SCORE.INTRA.norm>
-0.0897051

>  <SCORE.RESTR>
0.00100639

>  <SCORE.RESTR.CAVITY>
0.00100639

>  <SCORE.RESTR.norm>
2.71997e-05

>  <SCORE.SYSTEM>
0

>  <SCORE.SYSTEM.CONST>
0

>  <SCORE.SYSTEM.DIHEDRAL>
0

>  <SCORE.SYSTEM.SOLV>
0

>  <SCORE.SYSTEM.norm>
0

>  <SCORE.heavy>
37

>  <SCORE.norm>
-0.117886

>  <RMSD>
25.099

$$$$
1o9m_lig
 OpenBabel11021811403D
libRbt.so/2013.1/901 2013/11/27
 37 38  0  0  0  0  0  0  0  0999 V2000
    3.4204   -1.8083   13.1858 C   0  0  2  0  0  0  0  0  0  0  0  0
    3.1823   -1.8216   11.7452 O   0  0  0  0  0  0  0  0  0  0  0  0
    2.1490   -1.1526   13.8400 C   0  0  2  0  0  0  0  0  0  0  0  0
    0.9153   -1.8934   13.5234 N   0  0  0  0  0  0  0  0  0  0  0  0
    2.0386    0.3451   13.3621 C   0  0  1  0  0  0  0  0  0  0  0  0
    0.8893    0.9647   13.9458 O   0  0  0  0  0  0  0  0  0  0  0  0
    3.3660    1.0775   13.7484 C   0  0  2  0  0  0  0  0  0  0  0  0
    3.3811    2.4556   13.3416 O   0  0  0  0  0  0  0  0  0  0  0  0
    4.5877    0.3586   13.1249 C   0  0  2  0  0  0  0  0  0  0  0  0
    4.6180   -1.0241   13.5077 O   0  0  0  0  0  0  0  0  0  0  0  0
    5.8843    1.0120   13.5282 C   0  0  0  0  0  0  0  0  0  0  0  0
    6.7930    0.9413   12.4993 N   0  0  0  0  0  0  0  0  0  0  0  0
    5.7898   -2.9828    8.4782 C   0  0  1  0  0  0  0  0  0  0  0  0
    6.9121   -2.9405    7.4993 N   0  0  0  0  0  0  0  0  0  0  0  0
    6.3666   -2.9973    9.8873 C   0  0  2  0  0  0  0  0  0  0  0  0
    7.2145   -4.1019    9.9927 O   0  0  0  0  0  0  0  0  0  0  0  0
    5.2240   -3.0603   10.9494 C   0  0  1  0  0  0  0  0  0  0  0  0
    5.7886   -3.0517   12.2961 O   0  0  0  0  0  0  0  0  0  0  0  0
    4.2786   -1.8010   10.7867 C   0  0  1  0  0  0  0  0  0  0  0  0
    3.6810   -1.7858    9.3880 C   0  0  1  0  0  0  0  0  0  0  0  0
    2.8050   -0.6304    9.2650 N   0  0  0  0  0  0  0  0  0  0  0  0
    4.8174   -1.7431    8.3316 C   0  0  0  0  0  0  0  0  0  0  0  0
    7.6516   -5.4764    9.9140 C   0  0  0  0  0  0  0  0  0  0  0  0
    8.9079   -5.6467   10.7368 C   0  0  0  0  0  0  0  0  0  0  0  0
    9.9189   -4.5906   10.5230 N   0  0  0  0  0  0  0  0  0  0  0  0
   11.0530   -3.6622   10.7332 C   0  0  0  0  0  0  0  0  0  0  0  0
   12.1827   -4.6859   10.5629 C   0  0  0  0  0  0  0  0  0  0  0  0
   12.4217   -5.0537    9.0865 C   0  0  0  0  0  0  0  0  0  0  0  0
   13.0334   -3.8842    8.3214 C   0  0  0  0  0  0  0  0  0  0  0  0
   13.2421   -4.2525    6.9281 N   0  0  0  0  0  0  0  0  0  0  0  0
    8.3257   -2.3631    3.7507 N   0  0  0  0  0  0  0  0  0  0  0  0
    8.1225   -1.7248    7.9507 C   0  0  0  0  0  0  0  0  0  0  0  0
    8.2350   -1.0272    8.7659 O   0  0  0  0  0  0  0  0  0  0  0  0
    8.8453   -2.1304    6.6895 C   0  0  2  0  0  0  0  0  0  0  0  0
   10.1870   -2.3016    6.9186 O   0  0  0  0  0  0  0  0  0  0  0  0
    8.7105   -0.9697    5.7101 C   0  0  0  0  0  0  0  0  0  0  0  0
    9.1265   -1.2369    4.2522 C   0  0  0  0  0  0  0  0  0  0  0  0
  1  2  1  6  0  0  0
  1  3  1  0  0  0  0
  3  4  1  6  0  0  0
  3  5  1  0  0  0  0
  5  6  1  1  0  0  0
  5  7  1  0  0  0  0
  7  8  1  6  0  0  0
  9  7  1  0  0  0  0
  9 10  1  0  0  0  0
  9 11  1  1  0  0  0
 10  1  1  0  0  0  0
 11 12  1  0  0  0  0
 13 14  1  6  0  0  0
 13 15  1  0  0  0  0
 13 22  1  0  0  0  0
 14 32  1  0  0  0  0
 15 16  1  6  0  0  0
 15 17  1  0  0  0  0
 16 23  1  0  0  0  0
 17 18  1  1  0  0  0
 17 19  1  0  0  0  0
 19  2  1  1  0  0  0
 19 20  1  0  0  0  0
 20 21  1  1  0  0  0
 20 22  1  0  0  0  0
 23 24  1  0  0  0  0
 24 25  1  0  0  0  0
 25 26  1  0  0  0  0
 26 27  1  0  0  0  0
 27 28  1  0  0  0  0
 28 29  1  0  0  0  0
 29 30  1  0  0  0  0
 31 37  1  0  0  0  0
 32 33  2  0  0  0  0
 34 32  1  1  0  0  0
 34 35  1  0  0  0  0
 34 36  1  0  0  0  0
 36 37  1  0  0  0  0
M  END
>  <CHROM.1>
153.14003259,-145.54546786,-46.54597655,-51.69985038,-163.85720433,60.68722842
-45.86766877,154.92777436,74.63057773,76.35308481,69.84211489,-179.64715143
-134.33027482,-168.48289274,57.51431212,6.59939505,-2.00703741,10.21210254
-2.66266148,0.51668338,-1.36345143

>  <Name>
1o9m_lig

>  <RI>
0

>  <Rbt.Current_Directory>
/home/itssahil/PROJECTS/Mol_Feturizer/New_Systems/rnas/1o9m

>  <Rbt.Executable>
rbdock ($Id: //depot/dev/client3/rdock/2013.1/src/exe/rbdock.cxx#4 $)

>  <Rbt.Library>
libRbt.so (2013.1, Build901 2013/11/27)

>  <Rbt.Parameter_File>
/export/apps/rDock/src/rDock_2013.1_src/data/scripts/dock_solv.prm

>  <Rbt.Receptor>
prm/blind_docking_100.prm

>  <SCORE>
-9.74808

>  <SCORE.INTER>
-6.75012

>  <SCORE.INTER.CONST>
1

>  <SCORE.INTER.POLAR>
-0.87178

>  <SCORE.INTER.ROT>
15

>  <SCORE.INTER.SOLV>
14.245

>  <SCORE.INTER.VDW>
-19.9425

>  <SCORE.INTER.norm>
-0.182436

>  <SCORE.INTRA>
-3.20504

>  <SCORE.INTRA.DIHEDRAL>
-8.13875

>  <SCORE.INTRA.DIHEDRAL.0>
21.5987

>  <SCORE.INTRA.POLAR>
0

>  <SCORE.INTRA.POLAR.0>
0

>  <SCORE.INTRA.REPUL>
0

>  <SCORE.INTRA.REPUL.0>
0

>  <SCORE.INTRA.SOLV>
2.96749

>  <SCORE.INTRA.SOLV.lig_0>
-108.715

>  <SCORE.INTRA.VDW>
-0.619409

>  <SCORE.INTRA.VDW.0>
-3.9485

>  <SCORE.INTRA.norm>
-0.0866228

>  <SCORE.RESTR>
0.207082

>  <SCORE.RESTR.CAVITY>
0.207082

>  <SCORE.RESTR.norm>
0.0055968

>  <SCORE.SYSTEM>
0

>  <SCORE.SYSTEM.CONST>
0

>  <SCORE.SYSTEM.DIHEDRAL>
0

>  <SCORE.SYSTEM.SOLV>
0

>  <SCORE.SYSTEM.norm>
0

>  <SCORE.heavy>
37

>  <SCORE.norm>
-0.263462

>  <RMSD>
25.104

$$$$
1o9m_lig
 OpenBabel11021811403D
libRbt.so/2013.1/901 2013/11/27
 37 38  0  0  0  0  0  0  0  0999 V2000
    5.6462    0.1940   13.3700 C   0  0  2  0  0  0  0  0  0  0  0  0
    6.4566    0.6307   12.2365 O   0  0  0  0  0  0  0  0  0  0  0  0
    4.8974   -1.1088   12.9048 C   0  0  2  0  0  0  0  0  0  0  0  0
    5.8318   -2.1711   12.4934 N   0  0  0  0  0  0  0  0  0  0  0  0
    3.9134   -0.7448   11.7287 C   0  0  1  0  0  0  0  0  0  0  0  0
    3.2182   -1.9146   11.2887 O   0  0  0  0  0  0  0  0  0  0  0  0
    2.9377    0.3670   12.2379 C   0  0  2  0  0  0  0  0  0  0  0  0
    2.0010    0.7895   11.2334 O   0  0  0  0  0  0  0  0  0  0  0  0
    3.7288    1.6020   12.7351 C   0  0  2  0  0  0  0  0  0  0  0  0
    4.6769    1.2293   13.7459 O   0  0  0  0  0  0  0  0  0  0  0  0
    2.8137    2.6662   13.2835 C   0  0  0  0  0  0  0  0  0  0  0  0
    2.2321    3.3695   12.2557 N   0  0  0  0  0  0  0  0  0  0  0  0
   10.0884   -0.4403   10.1191 C   0  0  1  0  0  0  0  0  0  0  0  0
   11.2528   -1.2449    9.6540 N   0  0  0  0  0  0  0  0  0  0  0  0
    8.8054   -1.1690    9.7430 C   0  0  2  0  0  0  0  0  0  0  0  0
    8.8097   -1.3596    8.3595 O   0  0  0  0  0  0  0  0  0  0  0  0
    7.5548   -0.3513   10.1955 C   0  0  1  0  0  0  0  0  0  0  0  0
    6.3318   -1.0702    9.8489 O   0  0  0  0  0  0  0  0  0  0  0  0
    7.5953   -0.1447   11.7644 C   0  0  1  0  0  0  0  0  0  0  0  0
    8.8644    0.5996   12.1509 C   0  0  1  0  0  0  0  0  0  0  0  0
    8.8744    0.7918   13.5933 N   0  0  0  0  0  0  0  0  0  0  0  0
   10.1076   -0.2038   11.6835 C   0  0  0  0  0  0  0  0  0  0  0  0
    8.3100   -1.6806    7.0428 C   0  0  0  0  0  0  0  0  0  0  0  0
    7.6215   -3.0255    7.0865 C   0  0  0  0  0  0  0  0  0  0  0  0
    6.7926   -3.3195    5.8993 N   0  0  0  0  0  0  0  0  0  0  0  0
    5.9694   -4.0342    4.8974 C   0  0  0  0  0  0  0  0  0  0  0  0
    4.7860   -4.3692    5.8141 C   0  0  0  0  0  0  0  0  0  0  0  0
    4.0633   -3.1074    6.3218 C   0  0  0  0  0  0  0  0  0  0  0  0
    3.3073   -2.4155    5.1917 C   0  0  0  0  0  0  0  0  0  0  0  0
    2.5087   -1.3194    5.7219 N   0  0  0  0  0  0  0  0  0  0  0  0
   12.1172   -4.0442    6.0439 N   0  0  0  0  0  0  0  0  0  0  0  0
   12.5002   -0.2188    8.9209 C   0  0  0  0  0  0  0  0  0  0  0  0
   12.6112    0.8403    8.7474 O   0  0  0  0  0  0  0  0  0  0  0  0
   13.2564   -1.5005    8.6695 C   0  0  2  0  0  0  0  0  0  0  0  0
   14.5894   -1.2573    8.4547 O   0  0  0  0  0  0  0  0  0  0  0  0
   12.7036   -2.0938    7.3784 C   0  0  0  0  0  0  0  0  0  0  0  0
   13.0287   -3.5718    7.0961 C   0  0  0  0  0  0  0  0  0  0  0  0
  1  2  1  6  0  0  0
  1  3  1  0  0  0  0
  3  4  1  6  0  0  0
  3  5  1  0  0  0  0
  5  6  1  1  0  0  0
  5  7  1  0  0  0  0
  7  8  1  6  0  0  0
  9  7  1  0  0  0  0
  9 10  1  0  0  0  0
  9 11  1  1  0  0  0
 10  1  1  0  0  0  0
 11 12  1  0  0  0  0
 13 14  1  1  0  0  0
 13 15  1  0  0  0  0
 13 22  1  0  0  0  0
 14 32  1  0  0  0  0
 15 16  1  6  0  0  0
 15 17  1  0  0  0  0
 16 23  1  0  0  0  0
 17 18  1  1  0  0  0
 17 19  1  0  0  0  0
 19  2  1  6  0  0  0
 19 20  1  0  0  0  0
 20 21  1  1  0  0  0
 20 22  1  0  0  0  0
 23 24  1  0  0  0  0
 24 25  1  0  0  0  0
 25 26  1  0  0  0  0
 26 27  1  0  0  0  0
 27 28  1  0  0  0  0
 28 29  1  0  0  0  0
 29 30  1  0  0  0  0
 31 37  1  0  0  0  0
 32 33  2  0  0  0  0
 34 32  1  6  0  0  0
 34 35  1  0  0  0  0
 34 36  1  0  0  0  0
 36 37  1  0  0  0  0
M  END
>  <CHROM.1>
-67.42008582,-78.33897369,137.47231777,-167.78362627,-50.92763362,131.27801892
166.02677672,167.57385956,65.22786184,63.65204892,69.92702923,173.41271180
-160.40797083,-164.02117838,164.21897163,7.30582021,-0.93761732,9.71764437
-2.61268807,0.00234838,-2.11417243

>  <Name>
1o9m_lig

>  <RI>
0

>  <Rbt.Current_Directory>
/home/itssahil/PROJECTS/Mol_Feturizer/New_Systems/rnas/1o9m

>  <Rbt.Executable>
rbdock ($Id: //depot/dev/client3/rdock/2013.1/src/exe/rbdock.cxx#4 $)

>  <Rbt.Library>
libRbt.so (2013.1, Build901 2013/11/27)

>  <Rbt.Parameter_File>
/export/apps/rDock/src/rDock_2013.1_src/data/scripts/dock_solv.prm

>  <Rbt.Receptor>
prm/blind_docking_60.prm

>  <SCORE>
-6.07958

>  <SCORE.INTER>
-4.54468

>  <SCORE.INTER.CONST>
1

>  <SCORE.INTER.POLAR>
-1.23083

>  <SCORE.INTER.ROT>
15

>  <SCORE.INTER.SOLV>
24.0082

>  <SCORE.INTER.VDW>
-20.5297

>  <SCORE.INTER.norm>
-0.122829

>  <SCORE.INTRA>
-1.57617

>  <SCORE.INTRA.DIHEDRAL>
-6.97824

>  <SCORE.INTRA.DIHEDRAL.0>
21.5987

>  <SCORE.INTRA.POLAR>
0

>  <SCORE.INTRA.POLAR.0>
0

>  <SCORE.INTRA.REPUL>
0

>  <SCORE.INTRA.REPUL.0>
0

>  <SCORE.INTRA.SOLV>
2.94746

>  <SCORE.INTRA.SOLV.lig_0>
-108.715

>  <SCORE.INTRA.VDW>
0.43922

>  <SCORE.INTRA.VDW.0>
-3.9485

>  <SCORE.INTRA.norm>
-0.0425992

>  <SCORE.RESTR>
0.0412669

>  <SCORE.RESTR.CAVITY>
0.0412669

>  <SCORE.RESTR.norm>
0.00111532

>  <SCORE.SYSTEM>
0

>  <SCORE.SYSTEM.CONST>
0

>  <SCORE.SYSTEM.DIHEDRAL>
0

>  <SCORE.SYSTEM.SOLV>
0

>  <SCORE.SYSTEM.norm>
0

>  <SCORE.heavy>
37

>  <SCORE.norm>
-0.164313

>  <RMSD>
25.116

$$$$
1o9m_lig
 OpenBabel11021811403D
libRbt.so/2013.1/901 2013/11/27
 37 38  0  0  0  0  0  0  0  0999 V2000
    4.6240   -1.2724   12.7250 C   0  0  2  0  0  0  0  0  0  0  0  0
    4.4686   -2.0070   11.4727 O   0  0  0  0  0  0  0  0  0  0  0  0
    3.6414   -0.0465   12.6456 C   0  0  2  0  0  0  0  0  0  0  0  0
    2.2415   -0.4664   12.4589 N   0  0  0  0  0  0  0  0  0  0  0  0
    4.0993    0.9052   11.4758 C   0  0  1  0  0  0  0  0  0  0  0  0
    3.2211    2.0303   11.3842 O   0  0  0  0  0  0  0  0  0  0  0  0
    5.5801    1.3309   11.7469 C   0  0  2  0  0  0  0  0  0  0  0  0
    6.1085    2.1925   10.7255 O   0  0  0  0  0  0  0  0  0  0  0  0
    6.4921    0.0855   11.8717 C   0  0  2  0  0  0  0  0  0  0  0  0
    6.0056   -0.8054   12.8861 O   0  0  0  0  0  0  0  0  0  0  0  0
    7.9151    0.4664   12.1890 C   0  0  0  0  0  0  0  0  0  0  0  0
    8.4840    1.1151   11.1190 N   0  0  0  0  0  0  0  0  0  0  0  0
    7.1586   -3.6727    8.5045 C   0  0  1  0  0  0  0  0  0  0  0  0
    8.2684   -3.7642    7.5148 N   0  0  0  0  0  0  0  0  0  0  0  0
    7.7400   -3.3028    9.8623 C   0  0  2  0  0  0  0  0  0  0  0  0
    8.6861   -4.2719   10.2027 O   0  0  0  0  0  0  0  0  0  0  0  0
    6.6122   -3.2135   10.9383 C   0  0  1  0  0  0  0  0  0  0  0  0
    7.1790   -2.8370   12.2304 O   0  0  0  0  0  0  0  0  0  0  0  0
    5.5546   -2.1169   10.5085 C   0  0  1  0  0  0  0  0  0  0  0  0
    4.9525   -2.4856    9.1612 C   0  0  1  0  0  0  0  0  0  0  0  0
    3.9736   -1.4739    8.7925 N   0  0  0  0  0  0  0  0  0  0  0  0
    6.0760   -2.5937    8.0956 C   0  0  0  0  0  0  0  0  0  0  0  0
    9.2168   -5.5176   10.7057 C   0  0  0  0  0  0  0  0  0  0  0  0
   10.7251   -5.4894   10.6123 C   0  0  0  0  0  0  0  0  0  0  0  0
   11.3253   -4.1732   10.9130 N   0  0  0  0  0  0  0  0  0  0  0  0
   11.6421   -2.8870   11.5745 C   0  0  0  0  0  0  0  0  0  0  0  0
   10.6941   -2.0024   10.7548 C   0  0  0  0  0  0  0  0  0  0  0  0
   11.4002   -0.7570   10.1868 C   0  0  0  0  0  0  0  0  0  0  0  0
   12.4729   -1.1477    9.1749 C   0  0  0  0  0  0  0  0  0  0  0  0
   12.9671    0.0370    8.4874 N   0  0  0  0  0  0  0  0  0  0  0  0
    8.4618   -0.3821    5.5304 N   0  0  0  0  0  0  0  0  0  0  0  0
    9.2337   -2.2763    7.4817 C   0  0  0  0  0  0  0  0  0  0  0  0
    9.2075   -1.3386    8.0146 O   0  0  0  0  0  0  0  0  0  0  0  0
   10.0351   -2.9465    6.3925 C   0  0  2  0  0  0  0  0  0  0  0  0
   11.3103   -2.4441    6.3328 O   0  0  0  0  0  0  0  0  0  0  0  0
    9.3619   -2.5971    5.0698 C   0  0  0  0  0  0  0  0  0  0  0  0
    9.3807   -1.1165    4.6487 C   0  0  0  0  0  0  0  0  0  0  0  0
  1  2  1  6  0  0  0
  1  3  1  0  0  0  0
  3  4  1  6  0  0  0
  3  5  1  0  0  0  0
  5  6  1  1  0  0  0
  5  7  1  0  0  0  0
  7  8  1  6  0  0  0
  9  7  1  0  0  0  0
  9 10  1  0  0  0  0
  9 11  1  1  0  0  0
 10  1  1  0  0  0  0
 11 12  1  0  0  0  0
 13 14  1  6  0  0  0
 13 15  1  0  0  0  0
 13 22  1  0  0  0  0
 14 32  1  0  0  0  0
 15 16  1  1  0  0  0
 15 17  1  0  0  0  0
 16 23  1  0  0  0  0
 17 18  1  1  0  0  0
 17 19  1  0  0  0  0
 19  2  1  1  0  0  0
 19 20  1  0  0  0  0
 20 21  1  6  0  0  0
 20 22  1  0  0  0  0
 23 24  1  0  0  0  0
 24 25  1  0  0  0  0
 25 26  1  0  0  0  0
 26 27  1  0  0  0  0
 27 28  1  0  0  0  0
 28 29  1  0  0  0  0
 29 30  1  0  0  0  0
 31 37  1  0  0  0  0
 32 33  2  0  0  0  0
 34 32  1  1  0  0  0
 34 35  1  0  0  0  0
 34 36  1  0  0  0  0
 36 37  1  0  0  0  0
M  END
>  <CHROM.1>
114.83205100,-68.00329117,-54.35659565,-82.43619108,-177.68932747,79.00887458
37.57190931,47.99519107,-95.70705478,-129.74466820,65.00981021,170.39283922
-154.49870449,65.47490998,-71.47718018,7.75220091,-1.64152574,9.86009964
-2.72555136,0.47885474,-1.35282006

>  <Name>
1o9m_lig

>  <RI>
0

>  <Rbt.Current_Directory>
/home/itssahil/PROJECTS/Mol_Feturizer/New_Systems/rnas/1o9m

>  <Rbt.Executable>
rbdock ($Id: //depot/dev/client3/rdock/2013.1/src/exe/rbdock.cxx#4 $)

>  <Rbt.Library>
libRbt.so (2013.1, Build901 2013/11/27)

>  <Rbt.Parameter_File>
/export/apps/rDock/src/rDock_2013.1_src/data/scripts/dock_solv.prm

>  <Rbt.Receptor>
prm/blind_docking_100.prm

>  <SCORE>
-1.85165

>  <SCORE.INTER>
-6.39246

>  <SCORE.INTER.CONST>
1

>  <SCORE.INTER.POLAR>
-1.30349

>  <SCORE.INTER.ROT>
15

>  <SCORE.INTER.SOLV>
15.7857

>  <SCORE.INTER.VDW>
-18.7786

>  <SCORE.INTER.norm>
-0.172769

>  <SCORE.INTRA>
4.48648

>  <SCORE.INTRA.DIHEDRAL>
0.0143321

>  <SCORE.INTRA.DIHEDRAL.0>
21.5987

>  <SCORE.INTRA.POLAR>
0

>  <SCORE.INTRA.POLAR.0>
0

>  <SCORE.INTRA.REPUL>
0

>  <SCORE.INTRA.REPUL.0>
0

>  <SCORE.INTRA.SOLV>
10.3513

>  <SCORE.INTRA.SOLV.lig_0>
-108.715

>  <SCORE.INTRA.VDW>
-0.696346

>  <SCORE.INTRA.VDW.0>
-3.9485

>  <SCORE.INTRA.norm>
0.121256

>  <SCORE.RESTR>
0.0543273

>  <SCORE.RESTR.CAVITY>
0.0543273

>  <SCORE.RESTR.norm>
0.00146831

>  <SCORE.SYSTEM>
0

>  <SCORE.SYSTEM.CONST>
0

>  <SCORE.SYSTEM.DIHEDRAL>
0

>  <SCORE.SYSTEM.SOLV>
0

>  <SCORE.SYSTEM.norm>
0

>  <SCORE.heavy>
37

>  <SCORE.norm>
-0.0500446

>  <RMSD>
25.163

$$$$
1o9m_lig
 OpenBabel11021811403D
libRbt.so/2013.1/901 2013/11/27
 37 38  0  0  0  0  0  0  0  0999 V2000
    5.2896    1.5528   11.5419 C   0  0  2  0  0  0  0  0  0  0  0  0
    5.6246    0.1602   11.2577 O   0  0  0  0  0  0  0  0  0  0  0  0
    4.9302    1.6198   13.0719 C   0  0  2  0  0  0  0  0  0  0  0  0
    6.0429    1.1676   13.9254 N   0  0  0  0  0  0  0  0  0  0  0  0
    3.6383    0.7564   13.3353 C   0  0  1  0  0  0  0  0  0  0  0  0
    3.2895    0.8028   14.7216 O   0  0  0  0  0  0  0  0  0  0  0  0
    2.4939    1.3018   12.4186 C   0  0  2  0  0  0  0  0  0  0  0  0
    1.2654    0.5712   12.5660 O   0  0  0  0  0  0  0  0  0  0  0  0
    2.9220    1.2655   10.9308 C   0  0  2  0  0  0  0  0  0  0  0  0
    4.1458    1.9882   10.7327 O   0  0  0  0  0  0  0  0  0  0  0  0
    1.8580    1.8384   10.0307 C   0  0  0  0  0  0  0  0  0  0  0  0
    2.2050    1.6633    8.7122 N   0  0  0  0  0  0  0  0  0  0  0  0
    9.1274   -1.7411    9.5442 C   0  0  1  0  0  0  0  0  0  0  0  0
   10.5435   -2.1694    9.3687 N   0  0  0  0  0  0  0  0  0  0  0  0
    8.6180   -2.2629   10.8810 C   0  0  2  0  0  0  0  0  0  0  0  0
    8.7645   -3.6517   10.8838 O   0  0  0  0  0  0  0  0  0  0  0  0
    7.1276   -1.8528   11.1003 C   0  0  1  0  0  0  0  0  0  0  0  0
    6.6575   -2.3399   12.3942 O   0  0  0  0  0  0  0  0  0  0  0  0
    7.0024   -0.2750   11.0754 C   0  0  1  0  0  0  0  0  0  0  0  0
    7.4910    0.2570    9.7367 C   0  0  1  0  0  0  0  0  0  0  0  0
    7.3534    1.7057    9.7295 N   0  0  0  0  0  0  0  0  0  0  0  0
    8.9667   -0.1674    9.5096 C   0  0  0  0  0  0  0  0  0  0  0  0
    8.3909   -5.0454   10.8158 C   0  0  0  0  0  0  0  0  0  0  0  0
    7.2610   -5.2096    9.8256 C   0  0  0  0  0  0  0  0  0  0  0  0
    7.5161   -4.5906    8.5085 N   0  0  0  0  0  0  0  0  0  0  0  0
    7.8012   -3.5936    7.4515 C   0  0  0  0  0  0  0  0  0  0  0  0
    6.4179   -3.6045    6.7889 C   0  0  0  0  0  0  0  0  0  0  0  0
    6.2988   -2.5579    5.6652 C   0  0  0  0  0  0  0  0  0  0  0  0
    4.8874   -2.5314    5.0868 C   0  0  0  0  0  0  0  0  0  0  0  0
    3.9235   -2.2236    6.1339 N   0  0  0  0  0  0  0  0  0  0  0  0
   13.0674   -4.0952   10.8261 N   0  0  0  0  0  0  0  0  0  0  0  0
   11.0151   -2.1688    7.6586 C   0  0  0  0  0  0  0  0  0  0  0  0
   10.5211   -1.9224    6.7316 O   0  0  0  0  0  0  0  0  0  0  0  0
   12.3551   -2.6712    8.1377 C   0  0  2  0  0  0  0  0  0  0  0  0
   13.2744   -2.6837    7.1194 O   0  0  0  0  0  0  0  0  0  0  0  0
   12.1557   -4.1201    8.5685 C   0  0  0  0  0  0  0  0  0  0  0  0
   13.2199   -4.7210    9.5046 C   0  0  0  0  0  0  0  0  0  0  0  0
  1  2  1  6  0  0  0
  1  3  1  0  0  0  0
  3  4  1  1  0  0  0
  3  5  1  0  0  0  0
  5  6  1  1  0  0  0
  5  7  1  0  0  0  0
  7  8  1  6  0  0  0
  9  7  1  0  0  0  0
  9 10  1  0  0  0  0
  9 11  1  6  0  0  0
 10  1  1  0  0  0  0
 11 12  1  0  0  0  0
 13 14  1  1  0  0  0
 13 15  1  0  0  0  0
 13 22  1  0  0  0  0
 14 32  1  0  0  0  0
 15 16  1  6  0  0  0
 15 17  1  0  0  0  0
 16 23  1  0  0  0  0
 17 18  1  1  0  0  0
 17 19  1  0  0  0  0
 19  2  1  6  0  0  0
 19 20  1  0  0  0  0
 20 21  1  1  0  0  0
 20 22  1  0  0  0  0
 23 24  1  0  0  0  0
 24 25  1  0  0  0  0
 25 26  1  0  0  0  0
 26 27  1  0  0  0  0
 27 28  1  0  0  0  0
 28 29  1  0  0  0  0
 29 30  1  0  0  0  0
 31 37  1  0  0  0  0
 32 33  2  0  0  0  0
 34 32  1  6  0  0  0
 34 35  1  0  0  0  0
 34 36  1  0  0  0  0
 36 37  1  0  0  0  0
M  END
>  <CHROM.1>
-104.34003853,-173.63717057,158.09070149,-105.02248521,35.41096924,167.35216629
51.04368536,-60.24353707,-109.71358390,175.31710736,-176.36518409,58.83406110
-171.30703679,-160.71149766,70.96559333,7.10674441,-1.34671607,9.91087946
-2.62305965,0.38819936,-1.92930124

>  <Name>
1o9m_lig

>  <RI>
0

>  <Rbt.Current_Directory>
/home/itssahil/PROJECTS/Mol_Feturizer/New_Systems/rnas/1o9m

>  <Rbt.Executable>
rbdock ($Id: //depot/dev/client3/rdock/2013.1/src/exe/rbdock.cxx#4 $)

>  <Rbt.Library>
libRbt.so (2013.1, Build901 2013/11/27)

>  <Rbt.Parameter_File>
/export/apps/rDock/src/rDock_2013.1_src/data/scripts/dock_solv.prm

>  <Rbt.Receptor>
prm/blind_docking_60.prm

>  <SCORE>
-9.76157

>  <SCORE.INTER>
-11.3939

>  <SCORE.INTER.CONST>
1

>  <SCORE.INTER.POLAR>
-2.44393

>  <SCORE.INTER.ROT>
15

>  <SCORE.INTER.SOLV>
20.714

>  <SCORE.INTER.VDW>
-19.9542

>  <SCORE.INTER.norm>
-0.307944

>  <SCORE.INTRA>
1.14102

>  <SCORE.INTRA.DIHEDRAL>
-1.34692

>  <SCORE.INTRA.DIHEDRAL.0>
21.5987

>  <SCORE.INTRA.POLAR>
0

>  <SCORE.INTRA.POLAR.0>
0

>  <SCORE.INTRA.REPUL>
0

>  <SCORE.INTRA.REPUL.0>
0

>  <SCORE.INTRA.SOLV>
4.84617

>  <SCORE.INTRA.SOLV.lig_0>
-108.715

>  <SCORE.INTRA.VDW>
-0.6086

>  <SCORE.INTRA.VDW.0>
-3.9485

>  <SCORE.INTRA.norm>
0.0308385

>  <SCORE.RESTR>
0.491353

>  <SCORE.RESTR.CAVITY>
0.491353

>  <SCORE.RESTR.norm>
0.0132798

>  <SCORE.SYSTEM>
0

>  <SCORE.SYSTEM.CONST>
0

>  <SCORE.SYSTEM.DIHEDRAL>
0

>  <SCORE.SYSTEM.SOLV>
0

>  <SCORE.SYSTEM.norm>
0

>  <SCORE.heavy>
37

>  <SCORE.norm>
-0.263826

>  <RMSD>
25.181

$$$$
1o9m_lig
 OpenBabel11021811403D
libRbt.so/2013.1/901 2013/11/27
 37 38  0  0  0  0  0  0  0  0999 V2000
    5.7728    1.4414   12.3432 C   0  0  2  0  0  0  0  0  0  0  0  0
    6.1649    0.1705   12.9459 O   0  0  0  0  0  0  0  0  0  0  0  0
    4.2152    1.5592   12.5292 C   0  0  2  0  0  0  0  0  0  0  0  0
    3.8187    1.5116   13.9474 N   0  0  0  0  0  0  0  0  0  0  0  0
    3.5111    0.4088   11.7140 C   0  0  1  0  0  0  0  0  0  0  0  0
    2.0916    0.4956   11.8658 O   0  0  0  0  0  0  0  0  0  0  0  0
    3.9548    0.5310   10.2188 C   0  0  2  0  0  0  0  0  0  0  0  0
    3.3811   -0.4866    9.3820 O   0  0  0  0  0  0  0  0  0  0  0  0
    5.4975    0.4652   10.0998 C   0  0  2  0  0  0  0  0  0  0  0  0
    6.1169    1.4690   10.9172 O   0  0  0  0  0  0  0  0  0  0  0  0
    5.9543    0.6370    8.6742 C   0  0  0  0  0  0  0  0  0  0  0  0
    7.3243    0.5544    8.6002 N   0  0  0  0  0  0  0  0  0  0  0  0
    9.9003   -1.0685   11.1203 C   0  0  1  0  0  0  0  0  0  0  0  0
   11.2806   -1.6129   10.9861 N   0  0  0  0  0  0  0  0  0  0  0  0
    8.9990   -2.1507   11.6990 C   0  0  2  0  0  0  0  0  0  0  0  0
    9.0602   -3.2589   10.8516 O   0  0  0  0  0  0  0  0  0  0  0  0
    7.5340   -1.6295   11.8406 C   0  0  1  0  0  0  0  0  0  0  0  0
    6.6845   -2.6684   12.4165 O   0  0  0  0  0  0  0  0  0  0  0  0
    7.5101   -0.3668   12.7949 C   0  0  1  0  0  0  0  0  0  0  0  0
    8.3928    0.7292   12.2173 C   0  0  1  0  0  0  0  0  0  0  0  0
    8.3447    1.8843   13.1009 N   0  0  0  0  0  0  0  0  0  0  0  0
    9.8450    0.2048   12.0581 C   0  0  0  0  0  0  0  0  0  0  0  0
    8.8795   -4.0541    9.6592 C   0  0  0  0  0  0  0  0  0  0  0  0
    7.4046   -4.3121    9.4524 C   0  0  0  0  0  0  0  0  0  0  0  0
    6.8747   -3.7996    8.1720 N   0  0  0  0  0  0  0  0  0  0  0  0
    6.4299   -2.8845    7.0963 C   0  0  0  0  0  0  0  0  0  0  0  0
    5.6926   -3.9239    6.2425 C   0  0  0  0  0  0  0  0  0  0  0  0
    4.9612   -3.2864    5.0463 C   0  0  0  0  0  0  0  0  0  0  0  0
    3.7571   -2.4722    5.5096 C   0  0  0  0  0  0  0  0  0  0  0  0
    3.0268   -1.9602    4.3586 N   0  0  0  0  0  0  0  0  0  0  0  0
   12.9139   -3.9986    6.9954 N   0  0  0  0  0  0  0  0  0  0  0  0
   12.2009   -0.7501    9.7390 C   0  0  0  0  0  0  0  0  0  0  0  0
   11.9957    0.0738    9.0732 O   0  0  0  0  0  0  0  0  0  0  0  0
   13.3244   -1.7061   10.0570 C   0  0  2  0  0  0  0  0  0  0  0  0
   14.4787   -1.0318   10.3654 O   0  0  0  0  0  0  0  0  0  0  0  0
   13.6040   -2.4985    8.7848 C   0  0  0  0  0  0  0  0  0  0  0  0
   12.4708   -3.4005    8.2631 C   0  0  0  0  0  0  0  0  0  0  0  0
  1  2  1  6  0  0  0
  1  3  1  0  0  0  0
  3  4  1  1  0  0  0
  3  5  1  0  0  0  0
  5  6  1  6  0  0  0
  5  7  1  0  0  0  0
  7  8  1  6  0  0  0
  9  7  1  0  0  0  0
  9 10  1  0  0  0  0
  9 11  1  6  0  0  0
 10  1  1  0  0  0  0
 11 12  1  0  0  0  0
 13 14  1  1  0  0  0
 13 15  1  0  0  0  0
 13 22  1  0  0  0  0
 14 32  1  0  0  0  0
 15 16  1  6  0  0  0
 15 17  1  0  0  0  0
 16 23  1  0  0  0  0
 17 18  1  1  0  0  0
 17 19  1  0  0  0  0
 19  2  1  6  0  0  0
 19 20  1  0  0  0  0
 20 21  1  1  0  0  0
 20 22  1  0  0  0  0
 23 24  1  0  0  0  0
 24 25  1  0  0  0  0
 25 26  1  0  0  0  0
 26 27  1  0  0  0  0
 27 28  1  0  0  0  0
 28 29  1  0  0  0  0
 29 30  1  0  0  0  0
 31 37  1  0  0  0  0
 32 33  2  0  0  0  0
 34 32  1  6  0  0  0
 34 35  1  0  0  0  0
 34 36  1  0  0  0  0
 36 37  1  0  0  0  0
M  END
>  <CHROM.1>
171.10392061,-179.13032855,155.55848898,-66.90651615,-67.44482009,-108.79562372
120.29524590,-68.53061700,-166.55014873,174.76713794,-70.49558390,-175.90218256
-125.73175201,-63.61039501,176.41318502,7.64705621,-1.12086102,10.02918050
-2.92310159,0.15936827,-2.14258276

>  <Name>
1o9m_lig

>  <RI>
0

>  <Rbt.Current_Directory>
/home/itssahil/PROJECTS/Mol_Feturizer/New_Systems/rnas/1o9m

>  <Rbt.Executable>
rbdock ($Id: //depot/dev/client3/rdock/2013.1/src/exe/rbdock.cxx#4 $)

>  <Rbt.Library>
libRbt.so (2013.1, Build901 2013/11/27)

>  <Rbt.Parameter_File>
/export/apps/rDock/src/rDock_2013.1_src/data/scripts/dock_solv.prm

>  <Rbt.Receptor>
prm/blind_docking_40.prm

>  <SCORE>
-5.02985

>  <SCORE.INTER>
-4.82311

>  <SCORE.INTER.CONST>
1

>  <SCORE.INTER.POLAR>
-1.09486

>  <SCORE.INTER.ROT>
15

>  <SCORE.INTER.SOLV>
21.637

>  <SCORE.INTER.VDW>
-20.3782

>  <SCORE.INTER.norm>
-0.130354

>  <SCORE.INTRA>
-0.221658

>  <SCORE.INTRA.DIHEDRAL>
-4.78564

>  <SCORE.INTRA.DIHEDRAL.0>
21.5987

>  <SCORE.INTRA.POLAR>
0

>  <SCORE.INTRA.POLAR.0>
0

>  <SCORE.INTRA.REPUL>
0

>  <SCORE.INTRA.REPUL.0>
0

>  <SCORE.INTRA.SOLV>
2.92908

>  <SCORE.INTRA.SOLV.lig_0>
-108.715

>  <SCORE.INTRA.VDW>
0.706623

>  <SCORE.INTRA.VDW.0>
-3.9485

>  <SCORE.INTRA.norm>
-0.00599076

>  <SCORE.RESTR>
0.0149141

>  <SCORE.RESTR.CAVITY>
0.0149141

>  <SCORE.RESTR.norm>
0.000403085

>  <SCORE.SYSTEM>
0

>  <SCORE.SYSTEM.CONST>
0

>  <SCORE.SYSTEM.DIHEDRAL>
0

>  <SCORE.SYSTEM.SOLV>
0

>  <SCORE.SYSTEM.norm>
0

>  <SCORE.heavy>
37

>  <SCORE.norm>
-0.135942

>  <RMSD>
25.299

$$$$
1o9m_lig
 OpenBabel11021811403D
libRbt.so/2013.1/901 2013/11/27
 37 38  0  0  0  0  0  0  0  0999 V2000
    4.7294   -1.6283   11.5589 C   0  0  2  0  0  0  0  0  0  0  0  0
    5.8956   -1.9730   12.3673 O   0  0  0  0  0  0  0  0  0  0  0  0
    4.6810   -0.0572   11.4967 C   0  0  2  0  0  0  0  0  0  0  0  0
    5.9067    0.5148   10.9124 N   0  0  0  0  0  0  0  0  0  0  0  0
    4.4380    0.5081   12.9476 C   0  0  1  0  0  0  0  0  0  0  0  0
    4.3881    1.9371   12.9172 O   0  0  0  0  0  0  0  0  0  0  0  0
    3.1145   -0.1186   13.4981 C   0  0  2  0  0  0  0  0  0  0  0  0
    2.8031    0.3180   14.8312 O   0  0  0  0  0  0  0  0  0  0  0  0
    3.1957   -1.6651   13.4845 C   0  0  2  0  0  0  0  0  0  0  0  0
    3.5012   -2.1499   12.1688 O   0  0  0  0  0  0  0  0  0  0  0  0
    1.9111   -2.2947   13.9577 C   0  0  0  0  0  0  0  0  0  0  0  0
    1.7156   -2.0316   15.2926 N   0  0  0  0  0  0  0  0  0  0  0  0
    9.3233   -0.3352   10.2723 C   0  0  1  0  0  0  0  0  0  0  0  0
   10.7185   -0.1862    9.7716 N   0  0  0  0  0  0  0  0  0  0  0  0
    8.7687   -1.6697    9.7929 C   0  0  2  0  0  0  0  0  0  0  0  0
    8.8451   -1.6904    8.3986 O   0  0  0  0  0  0  0  0  0  0  0  0
    7.2976   -1.8615   10.2797 C   0  0  1  0  0  0  0  0  0  0  0  0
    6.7846   -3.1534    9.8324 O   0  0  0  0  0  0  0  0  0  0  0  0
    7.2523   -1.8169   11.8614 C   0  0  1  0  0  0  0  0  0  0  0  0
    7.7868   -0.4799   12.3521 C   0  0  1  0  0  0  0  0  0  0  0  0
    7.7223   -0.4543   13.8057 N   0  0  0  0  0  0  0  0  0  0  0  0
    9.2424   -0.2804   11.8516 C   0  0  0  0  0  0  0  0  0  0  0  0
    9.4402   -1.7318    7.0830 C   0  0  0  0  0  0  0  0  0  0  0  0
    8.4362   -1.2371    6.0673 C   0  0  0  0  0  0  0  0  0  0  0  0
    7.1568   -1.9761    6.0719 N   0  0  0  0  0  0  0  0  0  0  0  0
    6.1328   -3.0220    5.8487 C   0  0  0  0  0  0  0  0  0  0  0  0
    5.0754   -2.4755    6.8162 C   0  0  0  0  0  0  0  0  0  0  0  0
    3.7254   -3.2045    6.6806 C   0  0  0  0  0  0  0  0  0  0  0  0
    2.7427   -2.7441    7.7528 C   0  0  0  0  0  0  0  0  0  0  0  0
    2.3753   -1.3528    7.5304 N   0  0  0  0  0  0  0  0  0  0  0  0
   15.4679   -1.3832    8.0230 N   0  0  0  0  0  0  0  0  0  0  0  0
   11.7438   -1.5362   10.2940 C   0  0  0  0  0  0  0  0  0  0  0  0
   11.5872   -2.4326   10.8737 O   0  0  0  0  0  0  0  0  0  0  0  0
   12.8645   -0.8235    9.5773 C   0  0  2  0  0  0  0  0  0  0  0  0
   12.8166   -1.0544    8.2258 O   0  0  0  0  0  0  0  0  0  0  0  0
   14.1688   -1.4312   10.0817 C   0  0  0  0  0  0  0  0  0  0  0  0
   15.4687   -0.9350    9.4230 C   0  0  0  0  0  0  0  0  0  0  0  0
  1  2  1  1  0  0  0
  1  3  1  0  0  0  0
  3  4  1  1  0  0  0
  3  5  1  0  0  0  0
  5  6  1  6  0  0  0
  5  7  1  0  0  0  0
  7  8  1  1  0  0  0
  9  7  1  0  0  0  0
  9 10  1  0  0  0  0
  9 11  1  6  0  0  0
 10  1  1  0  0  0  0
 11 12  1  0  0  0  0
 13 14  1  1  0  0  0
 13 15  1  0  0  0  0
 13 22  1  0  0  0  0
 14 32  1  0  0  0  0
 15 16  1  6  0  0  0
 15 17  1  0  0  0  0
 16 23  1  0  0  0  0
 17 18  1  1  0  0  0
 17 19  1  0  0  0  0
 19  2  1  6  0  0  0
 19 20  1  0  0  0  0
 20 21  1  1  0  0  0
 20 22  1  0  0  0  0
 23 24  1  0  0  0  0
 24 25  1  0  0  0  0
 25 26  1  0  0  0  0
 26 27  1  0  0  0  0
 27 28  1  0  0  0  0
 28 29  1  0  0  0  0
 29 30  1  0  0  0  0
 31 37  1  0  0  0  0
 32 33  2  0  0  0  0
 34 32  1  1  0  0  0
 34 35  1  0  0  0  0
 34 36  1  0  0  0  0
 36 37  1  0  0  0  0
M  END
>  <CHROM.1>
-72.83443821,-67.38581795,-56.81687116,68.75012070,-160.98186093,-24.46792459
-56.14961504,-77.60299771,167.31280964,170.43897244,173.91061540,67.07646002
-80.28800474,175.87128279,-66.83930318,7.26576803,-1.30166159,10.37865049
-2.78301681,-0.08165762,-1.83896800

>  <Name>
1o9m_lig

>  <RI>
0

>  <Rbt.Current_Directory>
/home/itssahil/PROJECTS/Mol_Feturizer/New_Systems/rnas/1o9m

>  <Rbt.Executable>
rbdock ($Id: //depot/dev/client3/rdock/2013.1/src/exe/rbdock.cxx#4 $)

>  <Rbt.Library>
libRbt.so (2013.1, Build901 2013/11/27)

>  <Rbt.Parameter_File>
/export/apps/rDock/src/rDock_2013.1_src/data/scripts/dock_solv.prm

>  <Rbt.Receptor>
prm/blind_docking_20.prm

>  <SCORE>
-5.62887

>  <SCORE.INTER>
-5.96081

>  <SCORE.INTER.CONST>
1

>  <SCORE.INTER.POLAR>
-1.5074

>  <SCORE.INTER.ROT>
15

>  <SCORE.INTER.SOLV>
17.476

>  <SCORE.INTER.VDW>
-18.3745

>  <SCORE.INTER.norm>
-0.161103

>  <SCORE.INTRA>
0.327637

>  <SCORE.INTRA.DIHEDRAL>
-11.5493

>  <SCORE.INTRA.DIHEDRAL.0>
21.5987

>  <SCORE.INTRA.POLAR>
0

>  <SCORE.INTRA.POLAR.0>
0

>  <SCORE.INTRA.REPUL>
0

>  <SCORE.INTRA.REPUL.0>
0

>  <SCORE.INTRA.SOLV>
10.0858

>  <SCORE.INTRA.SOLV.lig_0>
-108.715

>  <SCORE.INTRA.VDW>
1.05938

>  <SCORE.INTRA.VDW.0>
-3.9485

>  <SCORE.INTRA.norm>
0.00885505

>  <SCORE.RESTR>
0.00430199

>  <SCORE.RESTR.CAVITY>
0.00430199

>  <SCORE.RESTR.norm>
0.00011627

>  <SCORE.SYSTEM>
0

>  <SCORE.SYSTEM.CONST>
0

>  <SCORE.SYSTEM.DIHEDRAL>
0

>  <SCORE.SYSTEM.SOLV>
0

>  <SCORE.SYSTEM.norm>
0

>  <SCORE.heavy>
37

>  <SCORE.norm>
-0.152132

>  <RMSD>
25.305

$$$$
1o9m_lig
 OpenBabel11021811403D
libRbt.so/2013.1/901 2013/11/27
 37 38  0  0  0  0  0  0  0  0999 V2000
    5.1279    0.2317   12.0552 C   0  0  2  0  0  0  0  0  0  0  0  0
    6.2673    0.2044   12.9681 O   0  0  0  0  0  0  0  0  0  0  0  0
    4.6042    1.7149   12.0429 C   0  0  2  0  0  0  0  0  0  0  0  0
    5.6411    2.6678   11.6095 N   0  0  0  0  0  0  0  0  0  0  0  0
    4.0718    2.0848   13.4794 C   0  0  1  0  0  0  0  0  0  0  0  0
    3.5876    3.4305   13.4936 O   0  0  0  0  0  0  0  0  0  0  0  0
    2.9620    1.0525   13.8671 C   0  0  2  0  0  0  0  0  0  0  0  0
    2.4149    1.2869   15.1749 O   0  0  0  0  0  0  0  0  0  0  0  0
    3.5159   -0.3925   13.8084 C   0  0  2  0  0  0  0  0  0  0  0  0
    4.0708   -0.6757   12.5156 O   0  0  0  0  0  0  0  0  0  0  0  0
    2.4507   -1.4108   14.1233 C   0  0  0  0  0  0  0  0  0  0  0  0
    1.3981   -1.2844   13.2485 N   0  0  0  0  0  0  0  0  0  0  0  0
    9.4823   -1.7125   10.7749 C   0  0  1  0  0  0  0  0  0  0  0  0
   10.7091   -2.5127   10.5026 N   0  0  0  0  0  0  0  0  0  0  0  0
    8.4523   -2.6065   11.4519 C   0  0  2  0  0  0  0  0  0  0  0  0
    8.2094   -3.6946   10.6110 O   0  0  0  0  0  0  0  0  0  0  0  0
    7.1391   -1.8128   11.7406 C   0  0  1  0  0  0  0  0  0  0  0  0
    6.1678   -2.6743   12.4091 O   0  0  0  0  0  0  0  0  0  0  0  0
    7.4595   -0.5818   12.6827 C   0  0  1  0  0  0  0  0  0  0  0  0
    8.4741    0.3294   12.0086 C   0  0  1  0  0  0  0  0  0  0  0  0
    8.7427    1.4605   12.8838 N   0  0  0  0  0  0  0  0  0  0  0  0
    9.7724   -0.4648   11.7038 C   0  0  0  0  0  0  0  0  0  0  0  0
    7.9406   -4.4203    9.3913 C   0  0  0  0  0  0  0  0  0  0  0  0
    7.3434   -3.4768    8.3726 C   0  0  0  0  0  0  0  0  0  0  0  0
    6.0169   -2.9442    8.7462 N   0  0  0  0  0  0  0  0  0  0  0  0
    4.9074   -2.3402    9.5188 C   0  0  0  0  0  0  0  0  0  0  0  0
    4.1276   -1.7638    8.3302 C   0  0  0  0  0  0  0  0  0  0  0  0
    3.2879   -2.8335    7.6070 C   0  0  0  0  0  0  0  0  0  0  0  0
    2.5138   -2.2276    6.4404 C   0  0  0  0  0  0  0  0  0  0  0  0
    3.4382   -1.6892    5.4525 N   0  0  0  0  0  0  0  0  0  0  0  0
   11.5895   -6.9964   10.4911 N   0  0  0  0  0  0  0  0  0  0  0  0
   11.0751   -2.5706    8.7678 C   0  0  0  0  0  0  0  0  0  0  0  0
   10.6250   -2.1557    7.8794 O   0  0  0  0  0  0  0  0  0  0  0  0
   12.2410   -3.4488    9.1513 C   0  0  2  0  0  0  0  0  0  0  0  0
   13.1711   -3.5079    8.1446 O   0  0  0  0  0  0  0  0  0  0  0  0
   11.6921   -4.8604    9.3268 C   0  0  0  0  0  0  0  0  0  0  0  0
   12.2637   -5.6900   10.4908 C   0  0  0  0  0  0  0  0  0  0  0  0
  1  2  1  1  0  0  0
  1  3  1  0  0  0  0
  3  4  1  1  0  0  0
  3  5  1  0  0  0  0
  5  6  1  6  0  0  0
  5  7  1  0  0  0  0
  7  8  1  1  0  0  0
  9  7  1  0  0  0  0
  9 10  1  0  0  0  0
  9 11  1  6  0  0  0
 10  1  1  0  0  0  0
 11 12  1  0  0  0  0
 13 14  1  1  0  0  0
 13 15  1  0  0  0  0
 13 22  1  0  0  0  0
 14 32  1  0  0  0  0
 15 16  1  6  0  0  0
 15 17  1  0  0  0  0
 16 23  1  0  0  0  0
 17 18  1  1  0  0  0
 17 19  1  0  0  0  0
 19  2  1  6  0  0  0
 19 20  1  0  0  0  0
 20 21  1  1  0  0  0
 20 22  1  0  0  0  0
 23 24  1  0  0  0  0
 24 25  1  0  0  0  0
 25 26  1  0  0  0  0
 26 27  1  0  0  0  0
 27 28  1  0  0  0  0
 28 29  1  0  0  0  0
 29 30  1  0  0  0  0
 31 37  1  0  0  0  0
 32 33  2  0  0  0  0
 34 32  1  6  0  0  0
 34 35  1  0  0  0  0
 34 36  1  0  0  0  0
 36 37  1  0  0  0  0
M  END
>  <CHROM.1>
-140.72357073,57.86897312,119.74755441,-45.50856765,-21.17644728,-25.85724510
-65.13529354,47.13410268,153.45066332,79.37038515,179.41022590,62.25682608
-162.01647960,-140.79852022,179.13675620,6.82278356,-1.52296942,10.90470786
-2.52230314,0.22269010,-2.18544566

>  <Name>
1o9m_lig

>  <RI>
0

>  <Rbt.Current_Directory>
/home/itssahil/PROJECTS/Mol_Feturizer/New_Systems/rnas/1o9m

>  <Rbt.Executable>
rbdock ($Id: //depot/dev/client3/rdock/2013.1/src/exe/rbdock.cxx#4 $)

>  <Rbt.Library>
libRbt.so (2013.1, Build901 2013/11/27)

>  <Rbt.Parameter_File>
/export/apps/rDock/src/rDock_2013.1_src/data/scripts/dock_solv.prm

>  <Rbt.Receptor>
prm/blind_docking_100.prm

>  <SCORE>
-0.39386

>  <SCORE.INTER>
-2.32935

>  <SCORE.INTER.CONST>
1

>  <SCORE.INTER.POLAR>
-0.482274

>  <SCORE.INTER.ROT>
15

>  <SCORE.INTER.SOLV>
27.793

>  <SCORE.INTER.VDW>
-22.8096

>  <SCORE.INTER.norm>
-0.0629553

>  <SCORE.INTRA>
1.93549

>  <SCORE.INTRA.DIHEDRAL>
2.57757

>  <SCORE.INTRA.DIHEDRAL.0>
21.5987

>  <SCORE.INTRA.POLAR>
0

>  <SCORE.INTRA.POLAR.0>
0

>  <SCORE.INTRA.REPUL>
0

>  <SCORE.INTRA.REPUL.0>
0

>  <SCORE.INTRA.SOLV>
4.82116

>  <SCORE.INTRA.SOLV.lig_0>
-108.715

>  <SCORE.INTRA.VDW>
-1.76388

>  <SCORE.INTRA.VDW.0>
-3.9485

>  <SCORE.INTRA.norm>
0.0523105

>  <SCORE.RESTR>
0

>  <SCORE.RESTR.CAVITY>
0

>  <SCORE.RESTR.norm>
0

>  <SCORE.SYSTEM>
0

>  <SCORE.SYSTEM.CONST>
0

>  <SCORE.SYSTEM.DIHEDRAL>
0

>  <SCORE.SYSTEM.SOLV>
0

>  <SCORE.SYSTEM.norm>
0

>  <SCORE.heavy>
37

>  <SCORE.norm>
-0.0106449

>  <RMSD>
25.340

$$$$
1o9m_lig
 OpenBabel11021811403D
libRbt.so/2013.1/901 2013/11/27
 37 38  0  0  0  0  0  0  0  0999 V2000
    4.0616    0.3549   11.4908 C   0  0  2  0  0  0  0  0  0  0  0  0
    5.0779    0.5767   12.5156 O   0  0  0  0  0  0  0  0  0  0  0  0
    2.6840    0.7515   12.1383 C   0  0  2  0  0  0  0  0  0  0  0  0
    2.6661    2.1525   12.5942 N   0  0  0  0  0  0  0  0  0  0  0  0
    2.3760   -0.2283   13.3336 C   0  0  1  0  0  0  0  0  0  0  0  0
    1.1254    0.1112   13.9387 O   0  0  0  0  0  0  0  0  0  0  0  0
    2.3869   -1.6908   12.7783 C   0  0  2  0  0  0  0  0  0  0  0  0
    2.1323   -2.6748   13.7941 O   0  0  0  0  0  0  0  0  0  0  0  0
    3.7440   -2.0085   12.1033 C   0  0  2  0  0  0  0  0  0  0  0  0
    4.0404   -1.0521   11.0753 O   0  0  0  0  0  0  0  0  0  0  0  0
    3.7606   -3.3936   11.5100 C   0  0  0  0  0  0  0  0  0  0  0  0
    2.9022   -3.4627   10.4388 N   0  0  0  0  0  0  0  0  0  0  0  0
    8.8127   -0.4827   10.5793 C   0  0  1  0  0  0  0  0  0  0  0  0
   10.2704   -0.5207   10.2742 N   0  0  0  0  0  0  0  0  0  0  0  0
    8.5979   -0.9498   12.0125 C   0  0  2  0  0  0  0  0  0  0  0  0
    9.1395   -2.2315   12.1321 O   0  0  0  0  0  0  0  0  0  0  0  0
    7.0785   -0.9441   12.3717 C   0  0  1  0  0  0  0  0  0  0  0  0
    6.8873   -1.3728   13.7545 O   0  0  0  0  0  0  0  0  0  0  0  0
    6.5005    0.5206   12.2093 C   0  0  1  0  0  0  0  0  0  0  0  0
    6.6924    0.9914   10.7756 C   0  0  1  0  0  0  0  0  0  0  0  0
    6.1416    2.3320   10.6448 N   0  0  0  0  0  0  0  0  0  0  0  0
    8.2012    0.9670   10.4121 C   0  0  0  0  0  0  0  0  0  0  0  0
    9.6243   -3.4347   12.7676 C   0  0  0  0  0  0  0  0  0  0  0  0
    9.6741   -4.5498   11.7486 C   0  0  0  0  0  0  0  0  0  0  0  0
    8.3594   -4.9047   11.1754 N   0  0  0  0  0  0  0  0  0  0  0  0
    7.1404   -4.8980   10.3350 C   0  0  0  0  0  0  0  0  0  0  0  0
    7.7744   -4.3079    9.0690 C   0  0  0  0  0  0  0  0  0  0  0  0
    6.7191   -3.8290    8.0544 C   0  0  0  0  0  0  0  0  0  0  0  0
    7.3610   -3.4929    6.7119 C   0  0  0  0  0  0  0  0  0  0  0  0
    8.2723   -2.3671    6.8610 N   0  0  0  0  0  0  0  0  0  0  0  0
   14.2109   -2.1779   11.5035 N   0  0  0  0  0  0  0  0  0  0  0  0
   10.7219   -2.0231    9.4461 C   0  0  0  0  0  0  0  0  0  0  0  0
   10.1878   -2.8975    9.1083 O   0  0  0  0  0  0  0  0  0  0  0  0
   12.1336   -1.4902    9.4754 C   0  0  2  0  0  0  0  0  0  0  0  0
   12.4021   -0.7323    8.3638 O   0  0  0  0  0  0  0  0  0  0  0  0
   13.0630   -2.6975    9.4200 C   0  0  0  0  0  0  0  0  0  0  0  0
   13.5495   -3.2642   10.7661 C   0  0  0  0  0  0  0  0  0  0  0  0
  1  2  1  1  0  0  0
  1  3  1  0  0  0  0
  3  4  1  1  0  0  0
  3  5  1  0  0  0  0
  5  6  1  6  0  0  0
  5  7  1  0  0  0  0
  7  8  1  1  0  0  0
  9  7  1  0  0  0  0
  9 10  1  0  0  0  0
  9 11  1  6  0  0  0
 10  1  1  0  0  0  0
 11 12  1  0  0  0  0
 13 14  1  1  0  0  0
 13 15  1  0  0  0  0
 13 22  1  0  0  0  0
 14 32  1  0  0  0  0
 15 16  1  6  0  0  0
 15 17  1  0  0  0  0
 16 23  1  0  0  0  0
 17 18  1  1  0  0  0
 17 19  1  0  0  0  0
 19  2  1  6  0  0  0
 19 20  1  0  0  0  0
 20 21  1  1  0  0  0
 20 22  1  0  0  0  0
 23 24  1  0  0  0  0
 24 25  1  0  0  0  0
 25 26  1  0  0  0  0
 26 27  1  0  0  0  0
 27 28  1  0  0  0  0
 28 29  1  0  0  0  0
 29 30  1  0  0  0  0
 31 37  1  0  0  0  0
 32 33  2  0  0  0  0
 34 32  1  6  0  0  0
 34 35  1  0  0  0  0
 34 36  1  0  0  0  0
 36 37  1  0  0  0  0
M  END
>  <CHROM.1>
-169.97442186,68.08680445,96.34138973,167.20934931,162.29452133,-89.30394394
-62.04296629,82.32270042,29.98603522,-166.02963808,-169.37306586,-64.33032551
-89.11198707,-93.45733983,-56.45295197,7.19057577,-1.61616918,11.03381973
-2.82839862,-0.21263761,-2.77055751

>  <Name>
1o9m_lig

>  <RI>
0

>  <Rbt.Current_Directory>
/home/itssahil/PROJECTS/Mol_Feturizer/New_Systems/rnas/1o9m

>  <Rbt.Executable>
rbdock ($Id: //depot/dev/client3/rdock/2013.1/src/exe/rbdock.cxx#4 $)

>  <Rbt.Library>
libRbt.so (2013.1, Build901 2013/11/27)

>  <Rbt.Parameter_File>
/export/apps/rDock/src/rDock_2013.1_src/data/scripts/dock_solv.prm

>  <Rbt.Receptor>
prm/blind_docking_40.prm

>  <SCORE>
-2.88179

>  <SCORE.INTER>
-0.535644

>  <SCORE.INTER.CONST>
1

>  <SCORE.INTER.POLAR>
-0.396067

>  <SCORE.INTER.ROT>
15

>  <SCORE.INTER.SOLV>
15.8439

>  <SCORE.INTER.VDW>
-17.9182

>  <SCORE.INTER.norm>
-0.0144769

>  <SCORE.INTRA>
-2.34953

>  <SCORE.INTRA.DIHEDRAL>
-7.67251

>  <SCORE.INTRA.DIHEDRAL.0>
21.5987

>  <SCORE.INTRA.POLAR>
0

>  <SCORE.INTRA.POLAR.0>
0

>  <SCORE.INTRA.REPUL>
0

>  <SCORE.INTRA.REPUL.0>
0

>  <SCORE.INTRA.SOLV>
7.36743

>  <SCORE.INTRA.SOLV.lig_0>
-108.715

>  <SCORE.INTRA.VDW>
-2.19699

>  <SCORE.INTRA.VDW.0>
-3.9485

>  <SCORE.INTRA.norm>
-0.0635009

>  <SCORE.RESTR>
0.00338669

>  <SCORE.RESTR.CAVITY>
0.00338669

>  <SCORE.RESTR.norm>
9.15321e-05

>  <SCORE.SYSTEM>
0

>  <SCORE.SYSTEM.CONST>
0

>  <SCORE.SYSTEM.DIHEDRAL>
0

>  <SCORE.SYSTEM.SOLV>
0

>  <SCORE.SYSTEM.norm>
0

>  <SCORE.heavy>
37

>  <SCORE.norm>
-0.0778862

>  <RMSD>
25.357

$$$$
1o9m_lig
 OpenBabel11021811403D
libRbt.so/2013.1/901 2013/11/27
 37 38  0  0  0  0  0  0  0  0999 V2000
    3.9651   -1.4426   12.7609 C   0  0  2  0  0  0  0  0  0  0  0  0
    3.8155   -1.4554   11.3084 O   0  0  0  0  0  0  0  0  0  0  0  0
    2.7394   -0.6350   13.3266 C   0  0  2  0  0  0  0  0  0  0  0  0
    1.4508   -1.2368   12.9415 N   0  0  0  0  0  0  0  0  0  0  0  0
    2.8306    0.8565   12.8257 C   0  0  1  0  0  0  0  0  0  0  0  0
    1.7262    1.6132   13.3291 O   0  0  0  0  0  0  0  0  0  0  0  0
    4.2068    1.4406   13.2863 C   0  0  2  0  0  0  0  0  0  0  0  0
    4.4044    2.8004   12.8657 O   0  0  0  0  0  0  0  0  0  0  0  0
    5.3742    0.5763   12.7489 C   0  0  2  0  0  0  0  0  0  0  0  0
    5.2226   -0.7936   13.1485 O   0  0  0  0  0  0  0  0  0  0  0  0
    6.7099    1.0857   13.2253 C   0  0  0  0  0  0  0  0  0  0  0  0
    7.7281    0.4488   12.5568 N   0  0  0  0  0  0  0  0  0  0  0  0
    6.2379   -3.3530    8.2504 C   0  0  1  0  0  0  0  0  0  0  0  0
    7.3906   -3.6282    7.3476 N   0  0  0  0  0  0  0  0  0  0  0  0
    6.7094   -3.4541    9.6947 C   0  0  2  0  0  0  0  0  0  0  0  0
    7.2476   -4.7290    9.8824 O   0  0  0  0  0  0  0  0  0  0  0  0
    5.5270   -3.1907   10.6797 C   0  0  1  0  0  0  0  0  0  0  0  0
    5.9961   -3.2689   12.0604 O   0  0  0  0  0  0  0  0  0  0  0  0
    4.9365   -1.7443   10.4248 C   0  0  1  0  0  0  0  0  0  0  0  0
    4.4444   -1.6370    8.9894 C   0  0  1  0  0  0  0  0  0  0  0  0
    3.8928   -0.3066    8.7812 N   0  0  0  0  0  0  0  0  0  0  0  0
    5.6154   -1.9183    8.0102 C   0  0  0  0  0  0  0  0  0  0  0  0
    7.8223   -5.8598   10.5735 C   0  0  0  0  0  0  0  0  0  0  0  0
    9.0148   -5.3969   11.3787 C   0  0  0  0  0  0  0  0  0  0  0  0
   10.3185   -5.6642   10.7370 N   0  0  0  0  0  0  0  0  0  0  0  0
   11.5070   -6.3645   10.1989 C   0  0  0  0  0  0  0  0  0  0  0  0
   12.0306   -5.2217    9.3199 C   0  0  0  0  0  0  0  0  0  0  0  0
   12.6788   -4.0962   10.1478 C   0  0  0  0  0  0  0  0  0  0  0  0
   12.9147   -2.8534    9.2951 C   0  0  0  0  0  0  0  0  0  0  0  0
   13.9210   -3.1275    8.2791 N   0  0  0  0  0  0  0  0  0  0  0  0
    8.2596   -0.3617    5.9350 N   0  0  0  0  0  0  0  0  0  0  0  0
    8.7461   -2.5307    7.6716 C   0  0  0  0  0  0  0  0  0  0  0  0
    8.9274   -1.7287    8.3702 O   0  0  0  0  0  0  0  0  0  0  0  0
    9.4497   -3.2359    6.5379 C   0  0  2  0  0  0  0  0  0  0  0  0
   10.8061   -3.0387    6.5954 O   0  0  0  0  0  0  0  0  0  0  0  0
    8.9650   -2.5879    5.2457 C   0  0  0  0  0  0  0  0  0  0  0  0
    9.2213   -1.0784    5.0849 C   0  0  0  0  0  0  0  0  0  0  0  0
  1  2  1  6  0  0  0
  1  3  1  0  0  0  0
  3  4  1  6  0  0  0
  3  5  1  0  0  0  0
  5  6  1  1  0  0  0
  5  7  1  0  0  0  0
  7  8  1  6  0  0  0
  9  7  1  0  0  0  0
  9 10  1  0  0  0  0
  9 11  1  1  0  0  0
 10  1  1  0  0  0  0
 11 12  1  0  0  0  0
 13 14  1  6  0  0  0
 13 15  1  0  0  0  0
 13 22  1  0  0  0  0
 14 32  1  0  0  0  0
 15 16  1  1  0  0  0
 15 17  1  0  0  0  0
 16 23  1  0  0  0  0
 17 18  1  1  0  0  0
 17 19  1  0  0  0  0
 19  2  1  1  0  0  0
 19 20  1  0  0  0  0
 20 21  1  6  0  0  0
 20 22  1  0  0  0  0
 23 24  1  0  0  0  0
 24 25  1  0  0  0  0
 25 26  1  0  0  0  0
 26 27  1  0  0  0  0
 27 28  1  0  0  0  0
 28 29  1  0  0  0  0
 29 30  1  0  0  0  0
 31 37  1  0  0  0  0
 32 33  2  0  0  0  0
 34 32  1  1  0  0  0
 34 35  1  0  0  0  0
 34 36  1  0  0  0  0
 36 37  1  0  0  0  0
M  END
>  <CHROM.1>
160.99050202,-169.73035125,-56.42042802,-174.05714448,-51.92378955,60.77637904
-100.04340587,-70.21185109,163.29914743,74.01769170,-167.72182967,-66.78623507
-160.69049366,59.50295455,-75.34814848,7.10412567,-2.07333970,10.12192829
-2.82451622,0.62221005,-1.26286023

>  <Name>
1o9m_lig

>  <RI>
0

>  <Rbt.Current_Directory>
/home/itssahil/PROJECTS/Mol_Feturizer/New_Systems/rnas/1o9m

>  <Rbt.Executable>
rbdock ($Id: //depot/dev/client3/rdock/2013.1/src/exe/rbdock.cxx#4 $)

>  <Rbt.Library>
libRbt.so (2013.1, Build901 2013/11/27)

>  <Rbt.Parameter_File>
/export/apps/rDock/src/rDock_2013.1_src/data/scripts/dock_solv.prm

>  <Rbt.Receptor>
prm/blind_docking_40.prm

>  <SCORE>
-13.1675

>  <SCORE.INTER>
-10.0553

>  <SCORE.INTER.CONST>
1

>  <SCORE.INTER.POLAR>
-0.87178

>  <SCORE.INTER.ROT>
15

>  <SCORE.INTER.SOLV>
15.626

>  <SCORE.INTER.VDW>
-22.6063

>  <SCORE.INTER.norm>
-0.271765

>  <SCORE.INTRA>
-3.11216

>  <SCORE.INTRA.DIHEDRAL>
-10.9145

>  <SCORE.INTRA.DIHEDRAL.0>
21.5987

>  <SCORE.INTRA.POLAR>
0

>  <SCORE.INTRA.POLAR.0>
0

>  <SCORE.INTRA.REPUL>
0

>  <SCORE.INTRA.REPUL.0>
0

>  <SCORE.INTRA.SOLV>
6.33889

>  <SCORE.INTRA.SOLV.lig_0>
-108.715

>  <SCORE.INTRA.VDW>
-0.824347

>  <SCORE.INTRA.VDW.0>
-3.9485

>  <SCORE.INTRA.norm>
-0.0841123

>  <SCORE.RESTR>
0

>  <SCORE.RESTR.CAVITY>
0

>  <SCORE.RESTR.norm>
0

>  <SCORE.SYSTEM>
0

>  <SCORE.SYSTEM.CONST>
0

>  <SCORE.SYSTEM.DIHEDRAL>
0

>  <SCORE.SYSTEM.SOLV>
0

>  <SCORE.SYSTEM.norm>
0

>  <SCORE.heavy>
37

>  <SCORE.norm>
-0.355878

>  <RMSD>
25.365

$$$$
1o9m_lig
 OpenBabel11021811403D
libRbt.so/2013.1/901 2013/11/27
 37 38  0  0  0  0  0  0  0  0999 V2000
    4.8267    0.1499   12.9047 C   0  0  2  0  0  0  0  0  0  0  0  0
    5.9253   -0.6758   13.3981 O   0  0  0  0  0  0  0  0  0  0  0  0
    3.5099   -0.4455   13.5260 C   0  0  2  0  0  0  0  0  0  0  0  0
    3.5399   -0.4453   14.9991 N   0  0  0  0  0  0  0  0  0  0  0  0
    3.2938   -1.9052   12.9725 C   0  0  1  0  0  0  0  0  0  0  0  0
    2.0997   -2.4684   13.5223 O   0  0  0  0  0  0  0  0  0  0  0  0
    3.2481   -1.8308   11.4105 C   0  0  2  0  0  0  0  0  0  0  0  0
    3.0705   -3.1175   10.7959 O   0  0  0  0  0  0  0  0  0  0  0  0
    4.5428   -1.1865   10.8564 C   0  0  2  0  0  0  0  0  0  0  0  0
    4.7609    0.1065   11.4396 O   0  0  0  0  0  0  0  0  0  0  0  0
    4.5003   -1.0516    9.3562 C   0  0  0  0  0  0  0  0  0  0  0  0
    5.7381   -0.6973    8.8749 N   0  0  0  0  0  0  0  0  0  0  0  0
    8.9444   -0.3227   10.3029 C   0  0  1  0  0  0  0  0  0  0  0  0
   10.2748   -0.3606    9.6334 N   0  0  0  0  0  0  0  0  0  0  0  0
    8.6119   -1.7175   10.8153 C   0  0  2  0  0  0  0  0  0  0  0  0
    8.6423   -2.5930    9.7277 O   0  0  0  0  0  0  0  0  0  0  0  0
    7.2138   -1.7300   11.5101 C   0  0  1  0  0  0  0  0  0  0  0  0
    6.9159   -3.0670   12.0161 O   0  0  0  0  0  0  0  0  0  0  0  0
    7.2164   -0.7157   12.7255 C   0  0  1  0  0  0  0  0  0  0  0  0
    7.5290    0.6856   12.2231 C   0  0  1  0  0  0  0  0  0  0  0  0
    7.5116    1.6033   13.3524 N   0  0  0  0  0  0  0  0  0  0  0  0
    8.9102    0.6939   11.5149 C   0  0  0  0  0  0  0  0  0  0  0  0
    8.5060   -3.8255    8.9869 C   0  0  0  0  0  0  0  0  0  0  0  0
    8.8779   -3.5813    7.5424 C   0  0  0  0  0  0  0  0  0  0  0  0
    7.9069   -2.7512    6.8000 N   0  0  0  0  0  0  0  0  0  0  0  0
    6.7037   -2.3179    6.0537 C   0  0  0  0  0  0  0  0  0  0  0  0
    5.6852   -3.1976    6.7897 C   0  0  0  0  0  0  0  0  0  0  0  0
    4.2328   -2.7600    6.5228 C   0  0  0  0  0  0  0  0  0  0  0  0
    3.7025   -3.3750    5.2313 C   0  0  0  0  0  0  0  0  0  0  0  0
    4.4852   -2.9067    4.0962 N   0  0  0  0  0  0  0  0  0  0  0  0
   14.4081   -3.2316    8.5817 N   0  0  0  0  0  0  0  0  0  0  0  0
   11.5303   -0.9884   10.7181 C   0  0  0  0  0  0  0  0  0  0  0  0
   11.5478   -1.3538   11.7331 O   0  0  0  0  0  0  0  0  0  0  0  0
   12.4879   -0.7461    9.5771 C   0  0  2  0  0  0  0  0  0  0  0  0
   12.0952   -1.4180    8.4473 O   0  0  0  0  0  0  0  0  0  0  0  0
   13.8310   -1.3346    9.9947 C   0  0  0  0  0  0  0  0  0  0  0  0
   13.9683   -2.8667    9.9362 C   0  0  0  0  0  0  0  0  0  0  0  0
  1  2  1  1  0  0  0
  1  3  1  0  0  0  0
  3  4  1  1  0  0  0
  3  5  1  0  0  0  0
  5  6  1  1  0  0  0
  5  7  1  0  0  0  0
  7  8  1  6  0  0  0
  9  7  1  0  0  0  0
  9 10  1  0  0  0  0
  9 11  1  6  0  0  0
 10  1  1  0  0  0  0
 11 12  1  0  0  0  0
 13 14  1  1  0  0  0
 13 15  1  0  0  0  0
 13 22  1  0  0  0  0
 14 32  1  0  0  0  0
 15 16  1  6  0  0  0
 15 17  1  0  0  0  0
 16 23  1  0  0  0  0
 17 18  1  1  0  0  0
 17 19  1  0  0  0  0
 19  2  1  6  0  0  0
 19 20  1  0  0  0  0
 20 21  1  1  0  0  0
 20 22  1  0  0  0  0
 23 24  1  0  0  0  0
 24 25  1  0  0  0  0
 25 26  1  0  0  0  0
 26 27  1  0  0  0  0
 27 28  1  0  0  0  0
 28 29  1  0  0  0  0
 29 30  1  0  0  0  0
 31 37  1  0  0  0  0
 32 33  2  0  0  0  0
 34 32  1  1  0  0  0
 34 35  1  0  0  0  0
 34 36  1  0  0  0  0
 36 37  1  0  0  0  0
M  END
>  <CHROM.1>
159.81663471,-169.59868224,-55.90671037,-175.19968028,179.39491901,-83.19841379
-70.02292597,-77.50893346,34.59076195,165.37422462,84.61558819,-62.54323520
-56.92351971,76.06632637,87.78907308,7.30674660,-1.58525040,10.24196234,-2.87471396
-0.04962366,-1.93202663

>  <Name>
1o9m_lig

>  <RI>
0

>  <Rbt.Current_Directory>
/home/itssahil/PROJECTS/Mol_Feturizer/New_Systems/rnas/1o9m

>  <Rbt.Executable>
rbdock ($Id: //depot/dev/client3/rdock/2013.1/src/exe/rbdock.cxx#4 $)

>  <Rbt.Library>
libRbt.so (2013.1, Build901 2013/11/27)

>  <Rbt.Parameter_File>
/export/apps/rDock/src/rDock_2013.1_src/data/scripts/dock_solv.prm

>  <Rbt.Receptor>
prm/blind_docking_60.prm

>  <SCORE>
-3.66479

>  <SCORE.INTER>
-5.50422

>  <SCORE.INTER.CONST>
1

>  <SCORE.INTER.POLAR>
-1.8562

>  <SCORE.INTER.ROT>
15

>  <SCORE.INTER.SOLV>
19.371

>  <SCORE.INTER.VDW>
-17.5392

>  <SCORE.INTER.norm>
-0.148763

>  <SCORE.INTRA>
1.83618

>  <SCORE.INTRA.DIHEDRAL>
-8.6632

>  <SCORE.INTRA.DIHEDRAL.0>
21.5987

>  <SCORE.INTRA.POLAR>
0

>  <SCORE.INTRA.POLAR.0>
0

>  <SCORE.INTRA.REPUL>
0

>  <SCORE.INTRA.REPUL.0>
0

>  <SCORE.INTRA.SOLV>
11.1359

>  <SCORE.INTRA.SOLV.lig_0>
-108.715

>  <SCORE.INTRA.VDW>
0.59982

>  <SCORE.INTRA.VDW.0>
-3.9485

>  <SCORE.INTRA.norm>
0.0496265

>  <SCORE.RESTR>
0.00325297

>  <SCORE.RESTR.CAVITY>
0.00325297

>  <SCORE.RESTR.norm>
8.79182e-05

>  <SCORE.SYSTEM>
0

>  <SCORE.SYSTEM.CONST>
0

>  <SCORE.SYSTEM.DIHEDRAL>
0

>  <SCORE.SYSTEM.SOLV>
0

>  <SCORE.SYSTEM.norm>
0

>  <SCORE.heavy>
37

>  <SCORE.norm>
-0.0990483

>  <RMSD>
25.390

$$$$
1o9m_lig
 OpenBabel11021811403D
libRbt.so/2013.1/901 2013/11/27
 37 38  0  0  0  0  0  0  0  0999 V2000
    5.6077    0.8797   13.2458 C   0  0  2  0  0  0  0  0  0  0  0  0
    5.7149    1.2768   11.8447 O   0  0  0  0  0  0  0  0  0  0  0  0
    5.0436   -0.5887   13.2493 C   0  0  2  0  0  0  0  0  0  0  0  0
    5.9125   -1.5206   12.5094 N   0  0  0  0  0  0  0  0  0  0  0  0
    3.5885   -0.5825   12.6439 C   0  0  1  0  0  0  0  0  0  0  0  0
    3.0522   -1.9083   12.6379 O   0  0  0  0  0  0  0  0  0  0  0  0
    2.7157    0.4050   13.4868 C   0  0  2  0  0  0  0  0  0  0  0  0
    1.3642    0.5021   13.0084 O   0  0  0  0  0  0  0  0  0  0  0  0
    3.3459    1.8196   13.4956 C   0  0  2  0  0  0  0  0  0  0  0  0
    4.6989    1.7740   13.9717 O   0  0  0  0  0  0  0  0  0  0  0  0
    2.5537    2.7772   14.3476 C   0  0  0  0  0  0  0  0  0  0  0  0
    1.3595    3.0803   13.7383 N   0  0  0  0  0  0  0  0  0  0  0  0
    8.9509   -0.9888   10.0514 C   0  0  1  0  0  0  0  0  0  0  0  0
   10.1443   -1.3061    9.2180 N   0  0  0  0  0  0  0  0  0  0  0  0
    9.3161    0.1168   11.0325 C   0  0  2  0  0  0  0  0  0  0  0  0
   10.4012   -0.3250   11.7926 O   0  0  0  0  0  0  0  0  0  0  0  0
    8.0974    0.4705   11.9421 C   0  0  1  0  0  0  0  0  0  0  0  0
    8.4533    1.5462   12.8634 O   0  0  0  0  0  0  0  0  0  0  0  0
    6.8865    0.9513   11.0431 C   0  0  1  0  0  0  0  0  0  0  0  0
    6.4998   -0.1527   10.0708 C   0  0  1  0  0  0  0  0  0  0  0  0
    5.3769    0.3039    9.2656 N   0  0  0  0  0  0  0  0  0  0  0  0
    7.7171   -0.5181    9.1797 C   0  0  0  0  0  0  0  0  0  0  0  0
   11.7209   -0.8329   12.0877 C   0  0  0  0  0  0  0  0  0  0  0  0
   11.8100   -2.2744   11.6420 C   0  0  0  0  0  0  0  0  0  0  0  0
   10.9403   -3.1970   12.4006 N   0  0  0  0  0  0  0  0  0  0  0  0
   10.3398   -3.9798   13.5047 C   0  0  0  0  0  0  0  0  0  0  0  0
    8.9412   -4.1423   12.8960 C   0  0  0  0  0  0  0  0  0  0  0  0
    8.8079   -5.4373   12.0728 C   0  0  0  0  0  0  0  0  0  0  0  0
    9.6210   -5.3551   10.7846 C   0  0  0  0  0  0  0  0  0  0  0  0
   10.9736   -5.8428   11.0148 N   0  0  0  0  0  0  0  0  0  0  0  0
   14.0983   -3.4826    8.0901 N   0  0  0  0  0  0  0  0  0  0  0  0
    9.8500   -2.7051    8.1677 C   0  0  0  0  0  0  0  0  0  0  0  0
    9.0128   -3.3619    7.9896 O   0  0  0  0  0  0  0  0  0  0  0  0
   11.2747   -2.5229    7.7044 C   0  0  2  0  0  0  0  0  0  0  0  0
   11.3311   -1.7876    6.5476 O   0  0  0  0  0  0  0  0  0  0  0  0
   11.8118   -3.9103    7.3707 C   0  0  0  0  0  0  0  0  0  0  0  0
   13.2963   -4.0055    6.9745 C   0  0  0  0  0  0  0  0  0  0  0  0
  1  2  1  6  0  0  0
  1  3  1  0  0  0  0
  3  4  1  6  0  0  0
  3  5  1  0  0  0  0
  5  6  1  1  0  0  0
  5  7  1  0  0  0  0
  7  8  1  6  0  0  0
  9  7  1  0  0  0  0
  9 10  1  0  0  0  0
  9 11  1  1  0  0  0
 10  1  1  0  0  0  0
 11 12  1  0  0  0  0
 13 14  1  6  0  0  0
 13 15  1  0  0  0  0
 13 22  1  0  0  0  0
 14 32  1  0  0  0  0
 15 16  1  1  0  0  0
 15 17  1  0  0  0  0
 16 23  1  0  0  0  0
 17 18  1  1  0  0  0
 17 19  1  0  0  0  0
 19  2  1  1  0  0  0
 19 20  1  0  0  0  0
 20 21  1  6  0  0  0
 20 22  1  0  0  0  0
 23 24  1  0  0  0  0
 24 25  1  0  0  0  0
 25 26  1  0  0  0  0
 26 27  1  0  0  0  0
 27 28  1  0  0  0  0
 28 29  1  0  0  0  0
 29 30  1  0  0  0  0
 31 37  1  0  0  0  0
 32 33  2  0  0  0  0
 34 32  1  6  0  0  0
 34 35  1  0  0  0  0
 34 36  1  0  0  0  0
 36 37  1  0  0  0  0
M  END
>  <CHROM.1>
-85.25253563,-71.07155599,173.89458029,56.27273615,-69.48407958,-13.91581970
-66.17823238,-62.53529474,154.80879529,91.97926516,-70.12512206,89.54934645
-95.87101225,-175.36789803,58.97189774,7.84284230,-1.20293720,11.19277728
3.10798500,0.64127348,-0.78129763

>  <Name>
1o9m_lig

>  <RI>
0

>  <Rbt.Current_Directory>
/home/itssahil/PROJECTS/Mol_Feturizer/New_Systems/rnas/1o9m

>  <Rbt.Executable>
rbdock ($Id: //depot/dev/client3/rdock/2013.1/src/exe/rbdock.cxx#4 $)

>  <Rbt.Library>
libRbt.so (2013.1, Build901 2013/11/27)

>  <Rbt.Parameter_File>
/export/apps/rDock/src/rDock_2013.1_src/data/scripts/dock_solv.prm

>  <Rbt.Receptor>
prm/blind_docking_40.prm

>  <SCORE>
-1.61644

>  <SCORE.INTER>
-5.02432

>  <SCORE.INTER.CONST>
1

>  <SCORE.INTER.POLAR>
-0.132984

>  <SCORE.INTER.ROT>
15

>  <SCORE.INTER.SOLV>
12.3719

>  <SCORE.INTER.VDW>
-20.6302

>  <SCORE.INTER.norm>
-0.135792

>  <SCORE.INTRA>
3.36599

>  <SCORE.INTRA.DIHEDRAL>
-3.09879

>  <SCORE.INTRA.DIHEDRAL.0>
21.5987

>  <SCORE.INTRA.POLAR>
0

>  <SCORE.INTRA.POLAR.0>
0

>  <SCORE.INTRA.REPUL>
0

>  <SCORE.INTRA.REPUL.0>
0

>  <SCORE.INTRA.SOLV>
11.9046

>  <SCORE.INTRA.SOLV.lig_0>
-108.715

>  <SCORE.INTRA.VDW>
-1.03691

>  <SCORE.INTRA.VDW.0>
-3.9485

>  <SCORE.INTRA.norm>
0.0909728

>  <SCORE.RESTR>
0.0418824

>  <SCORE.RESTR.CAVITY>
0.0418824

>  <SCORE.RESTR.norm>
0.00113196

>  <SCORE.SYSTEM>
0

>  <SCORE.SYSTEM.CONST>
0

>  <SCORE.SYSTEM.DIHEDRAL>
0

>  <SCORE.SYSTEM.SOLV>
0

>  <SCORE.SYSTEM.norm>
0

>  <SCORE.heavy>
37

>  <SCORE.norm>
-0.0436876

>  <RMSD>
25.484

$$$$
1o9m_lig
 OpenBabel11021811403D
libRbt.so/2013.1/901 2013/11/27
 37 38  0  0  0  0  0  0  0  0999 V2000
    5.3731   -2.4523    7.4934 C   0  0  2  0  0  0  0  0  0  0  0  0
    6.1315   -1.3018    7.0104 O   0  0  0  0  0  0  0  0  0  0  0  0
    4.1969   -2.6695    6.4717 C   0  0  2  0  0  0  0  0  0  0  0  0
    4.6859   -2.9063    5.1021 N   0  0  0  0  0  0  0  0  0  0  0  0
    3.2406   -1.4176    6.5141 C   0  0  1  0  0  0  0  0  0  0  0  0
    2.1601   -1.5920    5.5934 O   0  0  0  0  0  0  0  0  0  0  0  0
    2.7408   -1.2374    7.9855 C   0  0  2  0  0  0  0  0  0  0  0  0
    1.8689   -0.1061    8.1437 O   0  0  0  0  0  0  0  0  0  0  0  0
    3.9392   -1.0845    8.9544 C   0  0  2  0  0  0  0  0  0  0  0  0
    4.8384   -2.1966    8.8355 O   0  0  0  0  0  0  0  0  0  0  0  0
    3.4862   -0.9656   10.3866 C   0  0  0  0  0  0  0  0  0  0  0  0
    2.9064   -2.1408   10.8015 N   0  0  0  0  0  0  0  0  0  0  0  0
    9.7828   -1.5339    9.3417 C   0  0  1  0  0  0  0  0  0  0  0  0
   11.1364   -1.1920    9.8617 N   0  0  0  0  0  0  0  0  0  0  0  0
    8.8450   -0.3634    9.6048 C   0  0  2  0  0  0  0  0  0  0  0  0
    8.8463   -0.1126   10.9785 O   0  0  0  0  0  0  0  0  0  0  0  0
    7.4059   -0.6848    9.0916 C   0  0  1  0  0  0  0  0  0  0  0  0
    6.5217    0.4527    9.3297 O   0  0  0  0  0  0  0  0  0  0  0  0
    7.4502   -0.9773    7.5365 C   0  0  1  0  0  0  0  0  0  0  0  0
    8.3698   -2.1575    7.2628 C   0  0  1  0  0  0  0  0  0  0  0  0
    8.3843   -2.4184    5.8312 N   0  0  0  0  0  0  0  0  0  0  0  0
    9.7959   -1.8459    7.7906 C   0  0  0  0  0  0  0  0  0  0  0  0
    8.8734   -0.3842   12.3970 C   0  0  0  0  0  0  0  0  0  0  0  0
    7.8186   -1.4154   12.7262 C   0  0  0  0  0  0  0  0  0  0  0  0
    8.2690   -2.8135   12.5670 N   0  0  0  0  0  0  0  0  0  0  0  0
    8.7462   -4.1829   12.8659 C   0  0  0  0  0  0  0  0  0  0  0  0
    9.8315   -4.2563   11.7844 C   0  0  0  0  0  0  0  0  0  0  0  0
   10.4955   -5.6442   11.7147 C   0  0  0  0  0  0  0  0  0  0  0  0
   11.6846   -5.6366   10.7589 C   0  0  0  0  0  0  0  0  0  0  0  0
   11.2312   -5.3834    9.3986 N   0  0  0  0  0  0  0  0  0  0  0  0
   13.6840   -0.4285   12.9529 N   0  0  0  0  0  0  0  0  0  0  0  0
   12.3622   -2.3371    9.2847 C   0  0  0  0  0  0  0  0  0  0  0  0
   12.3530   -3.2051    8.6440 O   0  0  0  0  0  0  0  0  0  0  0  0
   13.3430   -1.5380   10.1076 C   0  0  2  0  0  0  0  0  0  0  0  0
   14.5642   -1.4594    9.4875 O   0  0  0  0  0  0  0  0  0  0  0  0
   13.5579   -2.3056   11.4073 C   0  0  0  0  0  0  0  0  0  0  0  0
   14.4114   -1.6186   12.4887 C   0  0  0  0  0  0  0  0  0  0  0  0
  1  2  1  6  0  0  0
  1  3  1  0  0  0  0
  3  4  1  6  0  0  0
  3  5  1  0  0  0  0
  5  6  1  6  0  0  0
  5  7  1  0  0  0  0
  7  8  1  6  0  0  0
  9  7  1  0  0  0  0
  9 10  1  0  0  0  0
  9 11  1  1  0  0  0
 10  1  1  0  0  0  0
 11 12  1  0  0  0  0
 13 14  1  6  0  0  0
 13 15  1  0  0  0  0
 13 22  1  0  0  0  0
 14 32  1  0  0  0  0
 15 16  1  1  0  0  0
 15 17  1  0  0  0  0
 16 23  1  0  0  0  0
 17 18  1  6  0  0  0
 17 19  1  0  0  0  0
 19  2  1  1  0  0  0
 19 20  1  0  0  0  0
 20 21  1  6  0  0  0
 20 22  1  0  0  0  0
 23 24  1  0  0  0  0
 24 25  1  0  0  0  0
 25 26  1  0  0  0  0
 26 27  1  0  0  0  0
 27 28  1  0  0  0  0
 28 29  1  0  0  0  0
 29 30  1  0  0  0  0
 31 37  1  0  0  0  0
 32 33  2  0  0  0  0
 34 32  1  6  0  0  0
 34 35  1  0  0  0  0
 34 36  1  0  0  0  0
 36 37  1  0  0  0  0
M  END
>  <CHROM.1>
-166.70710843,66.32368118,-167.46745615,-37.50478689,-50.86076524,-60.48654312
86.21515031,102.45225976,-134.45893778,-175.17843805,-172.78753874,-64.85553400
-143.82835356,-173.76125250,65.79394804,8.18049541,-1.97232106,9.41747685
-2.79144261,-0.15633298,1.46354189

>  <Name>
1o9m_lig

>  <RI>
0

>  <Rbt.Current_Directory>
/home/itssahil/PROJECTS/Mol_Feturizer/New_Systems/rnas/1o9m

>  <Rbt.Executable>
rbdock ($Id: //depot/dev/client3/rdock/2013.1/src/exe/rbdock.cxx#4 $)

>  <Rbt.Library>
libRbt.so (2013.1, Build901 2013/11/27)

>  <Rbt.Parameter_File>
/export/apps/rDock/src/rDock_2013.1_src/data/scripts/dock_solv.prm

>  <Rbt.Receptor>
prm/blind_docking_60.prm

>  <SCORE>
-2.58851

>  <SCORE.INTER>
1.21022

>  <SCORE.INTER.CONST>
1

>  <SCORE.INTER.POLAR>
0

>  <SCORE.INTER.ROT>
15

>  <SCORE.INTER.SOLV>
10.7992

>  <SCORE.INTER.VDW>
-16.3929

>  <SCORE.INTER.norm>
0.0327087

>  <SCORE.INTRA>
-3.82718

>  <SCORE.INTRA.DIHEDRAL>
-10.9208

>  <SCORE.INTRA.DIHEDRAL.0>
21.5987

>  <SCORE.INTRA.POLAR>
0

>  <SCORE.INTRA.POLAR.0>
0

>  <SCORE.INTRA.REPUL>
0

>  <SCORE.INTRA.REPUL.0>
0

>  <SCORE.INTRA.SOLV>
7.77111

>  <SCORE.INTRA.SOLV.lig_0>
-108.715

>  <SCORE.INTRA.VDW>
-2.25232

>  <SCORE.INTRA.VDW.0>
-3.9485

>  <SCORE.INTRA.norm>
-0.103437

>  <SCORE.RESTR>
0.028439

>  <SCORE.RESTR.CAVITY>
0.028439

>  <SCORE.RESTR.norm>
0.000768623

>  <SCORE.SYSTEM>
0

>  <SCORE.SYSTEM.CONST>
0

>  <SCORE.SYSTEM.DIHEDRAL>
0

>  <SCORE.SYSTEM.SOLV>
0

>  <SCORE.SYSTEM.norm>
0

>  <SCORE.heavy>
37

>  <SCORE.norm>
-0.0699598

>  <RMSD>
25.649

$$$$
1o9m_lig
 OpenBabel11021811403D
libRbt.so/2013.1/901 2013/11/27
 37 38  0  0  0  0  0  0  0  0999 V2000
    4.3910   -1.3140   10.3201 C   0  0  2  0  0  0  0  0  0  0  0  0
    5.6540   -0.6792    9.9540 O   0  0  0  0  0  0  0  0  0  0  0  0
    3.2991   -0.7183    9.3572 C   0  0  2  0  0  0  0  0  0  0  0  0
    3.6134   -0.9647    7.9389 N   0  0  0  0  0  0  0  0  0  0  0  0
    3.1539    0.8260    9.6364 C   0  0  1  0  0  0  0  0  0  0  0  0
    2.1638    1.3915    8.7730 O   0  0  0  0  0  0  0  0  0  0  0  0
    2.7983    1.0152   11.1481 C   0  0  2  0  0  0  0  0  0  0  0  0
    2.6583    2.3963   11.5193 O   0  0  0  0  0  0  0  0  0  0  0  0
    3.8759    0.3621   12.0484 C   0  0  2  0  0  0  0  0  0  0  0  0
    4.0485   -1.0234   11.7169 O   0  0  0  0  0  0  0  0  0  0  0  0
    3.5282    0.4815   13.5097 C   0  0  0  0  0  0  0  0  0  0  0  0
    3.6144    1.7924   13.9139 N   0  0  0  0  0  0  0  0  0  0  0  0
    9.6806   -1.1246   11.5062 C   0  0  1  0  0  0  0  0  0  0  0  0
   10.8308   -1.0721   12.4516 N   0  0  0  0  0  0  0  0  0  0  0  0
    8.5857   -1.9924   12.1116 C   0  0  2  0  0  0  0  0  0  0  0  0
    9.1294   -3.2529   12.3680 O   0  0  0  0  0  0  0  0  0  0  0  0
    7.3639   -2.0916   11.1446 C   0  0  1  0  0  0  0  0  0  0  0  0
    6.3125   -2.9079   11.7452 O   0  0  0  0  0  0  0  0  0  0  0  0
    6.7873   -0.6436   10.8680 C   0  0  1  0  0  0  0  0  0  0  0  0
    7.8673    0.2280   10.2452 C   0  0  1  0  0  0  0  0  0  0  0  0
    7.3127    1.5480    9.9857 N   0  0  0  0  0  0  0  0  0  0  0  0
    9.0900    0.3106   11.1979 C   0  0  0  0  0  0  0  0  0  0  0  0
    9.1866   -4.6369   12.7778 C   0  0  0  0  0  0  0  0  0  0  0  0
   10.5764   -5.1738   12.5235 C   0  0  0  0  0  0  0  0  0  0  0  0
   11.0000   -5.1102   11.1095 N   0  0  0  0  0  0  0  0  0  0  0  0
   11.8136   -5.2098    9.8763 C   0  0  0  0  0  0  0  0  0  0  0  0
   11.0484   -4.1697    9.0482 C   0  0  0  0  0  0  0  0  0  0  0  0
   11.6381   -2.7546    9.1965 C   0  0  0  0  0  0  0  0  0  0  0  0
   13.0338   -2.6746    8.5859 C   0  0  0  0  0  0  0  0  0  0  0  0
   13.5809   -1.3367    8.7620 N   0  0  0  0  0  0  0  0  0  0  0  0
   15.9320   -1.6103   12.4866 N   0  0  0  0  0  0  0  0  0  0  0  0
   11.6074    0.5227   12.4420 C   0  0  0  0  0  0  0  0  0  0  0  0
   11.4327    1.4526   11.9235 O   0  0  0  0  0  0  0  0  0  0  0  0
   12.5745   -0.0598   13.4435 C   0  0  2  0  0  0  0  0  0  0  0  0
   13.2214    0.9278   14.1422 O   0  0  0  0  0  0  0  0  0  0  0  0
   13.6396   -0.8057   12.6473 C   0  0  0  0  0  0  0  0  0  0  0  0
   14.8392   -1.3593   13.4374 C   0  0  0  0  0  0  0  0  0  0  0  0
  1  2  1  6  0  0  0
  1  3  1  0  0  0  0
  3  4  1  6  0  0  0
  3  5  1  0  0  0  0
  5  6  1  6  0  0  0
  5  7  1  0  0  0  0
  7  8  1  1  0  0  0
  9  7  1  0  0  0  0
  9 10  1  0  0  0  0
  9 11  1  1  0  0  0
 10  1  1  0  0  0  0
 11 12  1  0  0  0  0
 13 14  1  1  0  0  0
 13 15  1  0  0  0  0
 13 22  1  0  0  0  0
 14 32  1  0  0  0  0
 15 16  1  6  0  0  0
 15 17  1  0  0  0  0
 16 23  1  0  0  0  0
 17 18  1  1  0  0  0
 17 19  1  0  0  0  0
 19  2  1  6  0  0  0
 19 20  1  0  0  0  0
 20 21  1  1  0  0  0
 20 22  1  0  0  0  0
 23 24  1  0  0  0  0
 24 25  1  0  0  0  0
 25 26  1  0  0  0  0
 26 27  1  0  0  0  0
 27 28  1  0  0  0  0
 28 29  1  0  0  0  0
 29 30  1  0  0  0  0
 31 37  1  0  0  0  0
 32 33  2  0  0  0  0
 34 32  1  6  0  0  0
 34 35  1  0  0  0  0
 34 36  1  0  0  0  0
 36 37  1  0  0  0  0
M  END
>  <CHROM.1>
160.00101904,-68.76808740,-143.84979226,-177.04868053,176.68105660,65.96980673
-59.59000086,176.51975196,-156.49613230,91.18446403,66.68819284,-178.85140876
-160.47238391,173.23887267,-160.75311675,8.38455113,-1.05803542,11.24686035
2.96759496,-0.21107142,0.52265150

>  <Name>
1o9m_lig

>  <RI>
0

>  <Rbt.Current_Directory>
/home/itssahil/PROJECTS/Mol_Feturizer/New_Systems/rnas/1o9m

>  <Rbt.Executable>
rbdock ($Id: //depot/dev/client3/rdock/2013.1/src/exe/rbdock.cxx#4 $)

>  <Rbt.Library>
libRbt.so (2013.1, Build901 2013/11/27)

>  <Rbt.Parameter_File>
/export/apps/rDock/src/rDock_2013.1_src/data/scripts/dock_solv.prm

>  <Rbt.Receptor>
prm/blind_docking_80.prm

>  <SCORE>
-10.7662

>  <SCORE.INTER>
-7.05276

>  <SCORE.INTER.CONST>
1

>  <SCORE.INTER.POLAR>
-1.81224

>  <SCORE.INTER.ROT>
15

>  <SCORE.INTER.SOLV>
15.7936

>  <SCORE.INTER.VDW>
-17.5255

>  <SCORE.INTER.norm>
-0.190615

>  <SCORE.INTRA>
-3.7237

>  <SCORE.INTRA.DIHEDRAL>
-12.1088

>  <SCORE.INTRA.DIHEDRAL.0>
21.5987

>  <SCORE.INTRA.POLAR>
0

>  <SCORE.INTRA.POLAR.0>
0

>  <SCORE.INTRA.REPUL>
0.0584694

>  <SCORE.INTRA.REPUL.0>
0

>  <SCORE.INTRA.SOLV>
1.41455

>  <SCORE.INTRA.SOLV.lig_0>
-108.715

>  <SCORE.INTRA.VDW>
1.33108

>  <SCORE.INTRA.VDW.0>
-3.9485

>  <SCORE.INTRA.norm>
-0.100641

>  <SCORE.RESTR>
0.0102798

>  <SCORE.RESTR.CAVITY>
0.0102798

>  <SCORE.RESTR.norm>
0.000277833

>  <SCORE.SYSTEM>
0

>  <SCORE.SYSTEM.CONST>
0

>  <SCORE.SYSTEM.DIHEDRAL>
0

>  <SCORE.SYSTEM.SOLV>
0

>  <SCORE.SYSTEM.norm>
0

>  <SCORE.heavy>
37

>  <SCORE.norm>
-0.290978

>  <RMSD>
25.658

$$$$
1o9m_lig
 OpenBabel11021811403D
libRbt.so/2013.1/901 2013/11/27
 37 38  0  0  0  0  0  0  0  0999 V2000
   12.3293   -1.8492   10.9814 C   0  0  2  0  0  0  0  0  0  0  0  0
   11.2877   -1.1569   10.2277 O   0  0  0  0  0  0  0  0  0  0  0  0
   13.6053   -1.8674   10.0616 C   0  0  2  0  0  0  0  0  0  0  0  0
   14.0448   -0.5104    9.6925 N   0  0  0  0  0  0  0  0  0  0  0  0
   13.2999   -2.7244    8.7747 C   0  0  1  0  0  0  0  0  0  0  0  0
   14.4474   -2.7578    7.9218 O   0  0  0  0  0  0  0  0  0  0  0  0
   12.8633   -4.1543    9.2354 C   0  0  2  0  0  0  0  0  0  0  0  0
   12.5421   -5.0208    8.1350 O   0  0  0  0  0  0  0  0  0  0  0  0
   11.6400   -4.0734   10.1817 C   0  0  2  0  0  0  0  0  0  0  0  0
   11.9154   -3.2198   11.3020 O   0  0  0  0  0  0  0  0  0  0  0  0
   11.2338   -5.4344   10.6849 C   0  0  0  0  0  0  0  0  0  0  0  0
   10.2083   -5.3195   11.5929 N   0  0  0  0  0  0  0  0  0  0  0  0
    7.8407   -1.5133   12.8377 C   0  0  1  0  0  0  0  0  0  0  0  0
    6.4456   -1.3752   13.3418 N   0  0  0  0  0  0  0  0  0  0  0  0
    7.8137   -2.2715   11.5175 C   0  0  2  0  0  0  0  0  0  0  0  0
    7.1985   -3.5047   11.7431 O   0  0  0  0  0  0  0  0  0  0  0  0
    9.2600   -2.4567   10.9593 C   0  0  1  0  0  0  0  0  0  0  0  0
    9.2193   -3.1655    9.6831 O   0  0  0  0  0  0  0  0  0  0  0  0
    9.9265   -1.0390   10.7320 C   0  0  1  0  0  0  0  0  0  0  0  0
    9.9763   -0.2789   12.0487 C   0  0  1  0  0  0  0  0  0  0  0  0
   10.6052    1.0134   11.8204 N   0  0  0  0  0  0  0  0  0  0  0  0
    8.5403   -0.1119   12.6136 C   0  0  0  0  0  0  0  0  0  0  0  0
    6.8751   -4.9011   11.5640 C   0  0  0  0  0  0  0  0  0  0  0  0
    7.1559   -5.2969   10.1326 C   0  0  0  0  0  0  0  0  0  0  0  0
    6.6883   -4.3166    9.1310 N   0  0  0  0  0  0  0  0  0  0  0  0
    6.6429   -3.1677    8.1980 C   0  0  0  0  0  0  0  0  0  0  0  0
    7.5066   -3.7786    7.0873 C   0  0  0  0  0  0  0  0  0  0  0  0
    7.5493   -2.8953    5.8263 C   0  0  0  0  0  0  0  0  0  0  0  0
    6.3082   -3.1076    4.9649 C   0  0  0  0  0  0  0  0  0  0  0  0
    5.1186   -2.6804    5.6877 N   0  0  0  0  0  0  0  0  0  0  0  0
    1.8990   -1.1788   11.6030 N   0  0  0  0  0  0  0  0  0  0  0  0
    5.5156   -0.2179   12.3710 C   0  0  0  0  0  0  0  0  0  0  0  0
    5.7235    0.3914   11.5052 O   0  0  0  0  0  0  0  0  0  0  0  0
    4.3784   -0.4944   13.3239 C   0  0  2  0  0  0  0  0  0  0  0  0
    4.8261   -0.5928   14.6169 O   0  0  0  0  0  0  0  0  0  0  0  0
    3.8101   -1.8588   12.9498 C   0  0  0  0  0  0  0  0  0  0  0  0
    3.1330   -1.9771   11.5724 C   0  0  0  0  0  0  0  0  0  0  0  0
  1  2  1  6  0  0  0
  1  3  1  0  0  0  0
  3  4  1  6  0  0  0
  3  5  1  0  0  0  0
  5  6  1  6  0  0  0
  5  7  1  0  0  0  0
  7  8  1  6  0  0  0
  9  7  1  0  0  0  0
  9 10  1  0  0  0  0
  9 11  1  1  0  0  0
 10  1  1  0  0  0  0
 11 12  1  0  0  0  0
 13 14  1  6  0  0  0
 13 15  1  0  0  0  0
 13 22  1  0  0  0  0
 14 32  1  0  0  0  0
 15 16  1  1  0  0  0
 15 17  1  0  0  0  0
 16 23  1  0  0  0  0
 17 18  1  6  0  0  0
 17 19  1  0  0  0  0
 19  2  1  1  0  0  0
 19 20  1  0  0  0  0
 20 21  1  6  0  0  0
 20 22  1  0  0  0  0
 23 24  1  0  0  0  0
 24 25  1  0  0  0  0
 25 26  1  0  0  0  0
 26 27  1  0  0  0  0
 27 28  1  0  0  0  0
 28 29  1  0  0  0  0
 29 30  1  0  0  0  0
 31 37  1  0  0  0  0
 32 33  2  0  0  0  0
 34 32  1  6  0  0  0
 34 35  1  0  0  0  0
 34 36  1  0  0  0  0
 36 37  1  0  0  0  0
M  END
>  <CHROM.1>
175.30669932,175.78523400,-71.65389449,-152.81158103,-24.72530489,-60.10934891
-43.86389120,89.62585928,75.68504899,173.17661002,-81.29851842,63.97842075
40.37332773,-65.74573041,-67.99468105,8.63988966,-2.41669405,10.43663930
-0.35323107,-0.01056942,1.06577932

>  <Name>
1o9m_lig

>  <RI>
0

>  <Rbt.Current_Directory>
/home/itssahil/PROJECTS/Mol_Feturizer/New_Systems/rnas/1o9m

>  <Rbt.Executable>
rbdock ($Id: //depot/dev/client3/rdock/2013.1/src/exe/rbdock.cxx#4 $)

>  <Rbt.Library>
libRbt.so (2013.1, Build901 2013/11/27)

>  <Rbt.Parameter_File>
/export/apps/rDock/src/rDock_2013.1_src/data/scripts/dock_solv.prm

>  <Rbt.Receptor>
prm/blind_docking_20.prm

>  <SCORE>
-7.36487

>  <SCORE.INTER>
-12.9689

>  <SCORE.INTER.CONST>
1

>  <SCORE.INTER.POLAR>
-2.46226

>  <SCORE.INTER.ROT>
15

>  <SCORE.INTER.SOLV>
14.8348

>  <SCORE.INTER.VDW>
-18.9834

>  <SCORE.INTER.norm>
-0.350512

>  <SCORE.INTRA>
4.94507

>  <SCORE.INTRA.DIHEDRAL>
-8.58973

>  <SCORE.INTRA.DIHEDRAL.0>
21.5987

>  <SCORE.INTRA.POLAR>
0

>  <SCORE.INTRA.POLAR.0>
0

>  <SCORE.INTRA.REPUL>
0

>  <SCORE.INTRA.REPUL.0>
0

>  <SCORE.INTRA.SOLV>
9.97452

>  <SCORE.INTRA.SOLV.lig_0>
-108.715

>  <SCORE.INTRA.VDW>
4.25268

>  <SCORE.INTRA.VDW.0>
-3.9485

>  <SCORE.INTRA.norm>
0.133651

>  <SCORE.RESTR>
0.659005

>  <SCORE.RESTR.CAVITY>
0.659005

>  <SCORE.RESTR.norm>
0.017811

>  <SCORE.SYSTEM>
0

>  <SCORE.SYSTEM.CONST>
0

>  <SCORE.SYSTEM.DIHEDRAL>
0

>  <SCORE.SYSTEM.SOLV>
0

>  <SCORE.SYSTEM.norm>
0

>  <SCORE.heavy>
37

>  <SCORE.norm>
-0.19905

>  <RMSD>
25.803

$$$$
1o9m_lig
 OpenBabel11021811403D
libRbt.so/2013.1/901 2013/11/27
 37 38  0  0  0  0  0  0  0  0999 V2000
    3.4806   -1.6685   10.9562 C   0  0  2  0  0  0  0  0  0  0  0  0
    4.5642   -1.6184    9.9787 O   0  0  0  0  0  0  0  0  0  0  0  0
    2.1750   -1.2324   10.1948 C   0  0  2  0  0  0  0  0  0  0  0  0
    1.8812   -2.1082    9.0469 N   0  0  0  0  0  0  0  0  0  0  0  0
    2.3268    0.2656    9.7292 C   0  0  1  0  0  0  0  0  0  0  0  0
    1.1497    0.6870    9.0347 O   0  0  0  0  0  0  0  0  0  0  0  0
    2.6129    1.1410   10.9939 C   0  0  2  0  0  0  0  0  0  0  0  0
    2.7868    2.5326   10.6810 O   0  0  0  0  0  0  0  0  0  0  0  0
    3.8745    0.6336   11.7351 C   0  0  2  0  0  0  0  0  0  0  0  0
    3.7453   -0.7550   12.0734 O   0  0  0  0  0  0  0  0  0  0  0  0
    4.1401    1.4256   12.9893 C   0  0  0  0  0  0  0  0  0  0  0  0
    3.3848    0.9380   14.0290 N   0  0  0  0  0  0  0  0  0  0  0  0
    8.7252   -2.8428   10.0637 C   0  0  1  0  0  0  0  0  0  0  0  0
    9.9264   -3.7127   10.2047 N   0  0  0  0  0  0  0  0  0  0  0  0
    7.8438   -3.3977    8.9530 C   0  0  2  0  0  0  0  0  0  0  0  0
    8.6082   -3.4530    7.7856 O   0  0  0  0  0  0  0  0  0  0  0  0
    6.5782   -2.5048    8.7564 C   0  0  1  0  0  0  0  0  0  0  0  0
    5.7307   -3.0589    7.7042 O   0  0  0  0  0  0  0  0  0  0  0  0
    5.7489   -2.4561   10.1039 C   0  0  1  0  0  0  0  0  0  0  0  0
    6.6135   -1.8854   11.2177 C   0  0  1  0  0  0  0  0  0  0  0  0
    5.8283   -1.8356   12.4419 N   0  0  0  0  0  0  0  0  0  0  0  0
    7.8815   -2.7619   11.3999 C   0  0  0  0  0  0  0  0  0  0  0  0
    9.3682   -2.9844    6.6501 C   0  0  0  0  0  0  0  0  0  0  0  0
   10.5760   -2.2199    7.1414 C   0  0  0  0  0  0  0  0  0  0  0  0
   11.7273   -3.0735    7.5001 N   0  0  0  0  0  0  0  0  0  0  0  0
   13.0975   -3.6281    7.5868 C   0  0  0  0  0  0  0  0  0  0  0  0
   13.0546   -4.0354    9.0650 C   0  0  0  0  0  0  0  0  0  0  0  0
   13.5415   -2.9098    9.9967 C   0  0  0  0  0  0  0  0  0  0  0  0
   12.6299   -1.6898    9.9068 C   0  0  0  0  0  0  0  0  0  0  0  0
   12.9938   -0.8773    8.7546 N   0  0  0  0  0  0  0  0  0  0  0  0
   10.0972   -6.4733   13.9957 N   0  0  0  0  0  0  0  0  0  0  0  0
    9.4851   -5.4307   10.2288 C   0  0  0  0  0  0  0  0  0  0  0  0
    8.5603   -5.9814   10.1549 O   0  0  0  0  0  0  0  0  0  0  0  0
   10.9593   -5.6976   10.4114 C   0  0  2  0  0  0  0  0  0  0  0  0
   11.4122   -6.6250    9.5076 O   0  0  0  0  0  0  0  0  0  0  0  0
   11.1289   -6.3130   11.7960 C   0  0  0  0  0  0  0  0  0  0  0  0
   10.5686   -5.5138   12.9865 C   0  0  0  0  0  0  0  0  0  0  0  0
  1  2  1  6  0  0  0
  1  3  1  0  0  0  0
  3  4  1  6  0  0  0
  3  5  1  0  0  0  0
  5  6  1  1  0  0  0
  5  7  1  0  0  0  0
  7  8  1  6  0  0  0
  9  7  1  0  0  0  0
  9 10  1  0  0  0  0
  9 11  1  1  0  0  0
 10  1  1  0  0  0  0
 11 12  1  0  0  0  0
 13 14  1  1  0  0  0
 13 15  1  0  0  0  0
 13 22  1  0  0  0  0
 14 32  1  0  0  0  0
 15 16  1  6  0  0  0
 15 17  1  0  0  0  0
 16 23  1  0  0  0  0
 17 18  1  6  0  0  0
 17 19  1  0  0  0  0
 19  2  1  6  0  0  0
 19 20  1  0  0  0  0
 20 21  1  1  0  0  0
 20 22  1  0  0  0  0
 23 24  1  0  0  0  0
 24 25  1  0  0  0  0
 25 26  1  0  0  0  0
 26 27  1  0  0  0  0
 27 28  1  0  0  0  0
 28 29  1  0  0  0  0
 29 30  1  0  0  0  0
 31 37  1  0  0  0  0
 32 33  2  0  0  0  0
 34 32  1  6  0  0  0
 34 35  1  0  0  0  0
 34 36  1  0  0  0  0
 36 37  1  0  0  0  0
M  END
>  <CHROM.1>
-153.13423687,83.58384927,-46.58669990,-66.73630999,61.85985290,164.90643124
83.13448184,129.82498013,142.62452089,-90.30187225,63.19388963,-82.42322261
-129.30714427,-55.38382313,147.00547951,7.51817329,-2.46023766,10.13600466
3.02921196,0.47401104,-1.04960901

>  <Name>
1o9m_lig

>  <RI>
0

>  <Rbt.Current_Directory>
/home/itssahil/PROJECTS/Mol_Feturizer/New_Systems/rnas/1o9m

>  <Rbt.Executable>
rbdock ($Id: //depot/dev/client3/rdock/2013.1/src/exe/rbdock.cxx#4 $)

>  <Rbt.Library>
libRbt.so (2013.1, Build901 2013/11/27)

>  <Rbt.Parameter_File>
/export/apps/rDock/src/rDock_2013.1_src/data/scripts/dock_solv.prm

>  <Rbt.Receptor>
prm/blind_docking_100.prm

>  <SCORE>
-4.23253

>  <SCORE.INTER>
-10.3641

>  <SCORE.INTER.CONST>
1

>  <SCORE.INTER.POLAR>
-3.1077

>  <SCORE.INTER.ROT>
15

>  <SCORE.INTER.SOLV>
17.8619

>  <SCORE.INTER.VDW>
-16.1044

>  <SCORE.INTER.norm>
-0.280111

>  <SCORE.INTRA>
5.42527

>  <SCORE.INTRA.DIHEDRAL>
-1.38401

>  <SCORE.INTRA.DIHEDRAL.0>
21.5987

>  <SCORE.INTRA.POLAR>
0

>  <SCORE.INTRA.POLAR.0>
0

>  <SCORE.INTRA.REPUL>
0.0424749

>  <SCORE.INTRA.REPUL.0>
0

>  <SCORE.INTRA.SOLV>
11.0312

>  <SCORE.INTRA.SOLV.lig_0>
-108.715

>  <SCORE.INTRA.VDW>
0.389311

>  <SCORE.INTRA.VDW.0>
-3.9485

>  <SCORE.INTRA.norm>
0.146629

>  <SCORE.RESTR>
0.70632

>  <SCORE.RESTR.CAVITY>
0.70632

>  <SCORE.RESTR.norm>
0.0190897

>  <SCORE.SYSTEM>
0

>  <SCORE.SYSTEM.CONST>
0

>  <SCORE.SYSTEM.DIHEDRAL>
0

>  <SCORE.SYSTEM.SOLV>
0

>  <SCORE.SYSTEM.norm>
0

>  <SCORE.heavy>
37

>  <SCORE.norm>
-0.114393

>  <RMSD>
26.042

$$$$
