lig.pdb
 OpenBabel11021811453D
libRbt.so/2013.1/901 2013/11/27
 13 14  0  0  0  0  0  0  0  0999 V2000
  -11.0408    4.0455   -7.0500 N   0  0  0  0  0  0  0  0  0  0  0  0
  -11.1031    3.5519   -8.3223 C   0  0  0  0  0  0  0  0  0  0  0  0
   -9.9940    3.3110   -8.9980 N   0  0  0  0  0  0  0  0  0  0  0  0
   -8.7542    3.5414   -8.4676 C   0  0  0  0  0  0  0  0  0  0  0  0
   -8.6315    4.0582   -7.1550 C   0  0  0  0  0  0  0  0  0  0  0  0
   -9.8354    4.3146   -6.4320 C   0  0  0  0  0  0  0  0  0  0  0  0
   -9.8005    4.7610   -5.2986 O   0  0  0  0  0  0  0  0  0  0  0  0
   -7.1940    4.1983   -6.8945 C   0  0  0  0  0  0  0  0  0  0  0  0
   -6.5319    4.7247   -5.6486 C   0  0  0  0  0  0  0  0  0  0  0  0
   -6.4743    6.1914   -5.7043 N   0  0  0  0  0  0  0  0  0  0  0  0
   -6.5737    3.7656   -7.9992 C   0  0  0  0  0  0  0  0  0  0  0  0
   -7.4896    3.3797   -8.9412 N   0  0  0  0  0  0  0  0  0  0  0  0
  -12.3232    3.3069   -8.8980 N   0  0  0  0  0  0  0  0  0  0  0  0
  1  6  1  0  0  0  0
  2  1  1  0  0  0  0
  3  4  1  0  0  0  0
  3  2  2  0  0  0  0
  4  5  2  0  0  0  0
  5  8  1  0  0  0  0
  5  6  1  0  0  0  0
  6  7  2  0  0  0  0
  8  9  1  0  0  0  0
  9 10  1  0  0  0  0
 11  8  2  0  0  0  0
 12  4  1  0  0  0  0
 12 11  1  0  0  0  0
 13  2  1  0  0  0  0
M  END
>  <CHROM.1>
-84.03698073,-137.24389458,-8.93819442,4.12080368,-7.34875051,2.63897863
-0.07400227,-2.05774950

>  <Name>
lig.pdb

>  <RI>
9.06885e+06

>  <Rbt.Current_Directory>
/home/itssahil/PROJECTS/Mol_Feturizer/New_Systems/rnas/2miy

>  <Rbt.Executable>
rbdock ($Id: //depot/dev/client3/rdock/2013.1/src/exe/rbdock.cxx#4 $)

>  <Rbt.Library>
libRbt.so (2013.1, Build901 2013/11/27)

>  <Rbt.Parameter_File>
/export/apps/rDock/src/rDock_2013.1_src/data/scripts/dock_solv.prm

>  <Rbt.Receptor>
prm/pocket_docking_6.prm

>  <SCORE>
-45.1931

>  <SCORE.INTER>
-46.9406

>  <SCORE.INTER.CONST>
1

>  <SCORE.INTER.POLAR>
-5.07346

>  <SCORE.INTER.ROT>
2

>  <SCORE.INTER.SOLV>
19.0275

>  <SCORE.INTER.VDW>
-25.658

>  <SCORE.INTER.norm>
-3.61081

>  <SCORE.INTRA>
1.73034

>  <SCORE.INTRA.DIHEDRAL>
0.421952

>  <SCORE.INTRA.DIHEDRAL.0>
1.76676

>  <SCORE.INTRA.POLAR>
0.472211

>  <SCORE.INTRA.POLAR.0>
-0.472211

>  <SCORE.INTRA.REPUL>
0

>  <SCORE.INTRA.REPUL.0>
0

>  <SCORE.INTRA.SOLV>
-0.392968

>  <SCORE.INTRA.SOLV.lig_0>
-22.5855

>  <SCORE.INTRA.VDW>
0.110331

>  <SCORE.INTRA.VDW.0>
-0.733656

>  <SCORE.INTRA.norm>
0.133103

>  <SCORE.RESTR>
0.0171996

>  <SCORE.RESTR.CAVITY>
0.0171996

>  <SCORE.RESTR.norm>
0.00132305

>  <SCORE.SYSTEM>
0

>  <SCORE.SYSTEM.CONST>
0

>  <SCORE.SYSTEM.DIHEDRAL>
0

>  <SCORE.SYSTEM.SOLV>
0

>  <SCORE.SYSTEM.norm>
0

>  <SCORE.heavy>
13

>  <SCORE.norm>
-3.47639

>  <RMSD>
0.469

$$$$
lig.pdb
 OpenBabel11021811453D
libRbt.so/2013.1/901 2013/11/27
 13 14  0  0  0  0  0  0  0  0999 V2000
  -11.0164    4.1026   -7.0455 N   0  0  0  0  0  0  0  0  0  0  0  0
  -11.0874    3.5912   -8.3104 C   0  0  0  0  0  0  0  0  0  0  0  0
   -9.9828    3.3358   -8.9881 N   0  0  0  0  0  0  0  0  0  0  0  0
   -8.7393    3.5682   -8.4673 C   0  0  0  0  0  0  0  0  0  0  0  0
   -8.6077    4.1031   -7.1628 C   0  0  0  0  0  0  0  0  0  0  0  0
   -9.8067    4.3751   -6.4375 C   0  0  0  0  0  0  0  0  0  0  0  0
   -9.7642    4.8375   -5.3109 O   0  0  0  0  0  0  0  0  0  0  0  0
   -7.1682    4.2405   -6.9117 C   0  0  0  0  0  0  0  0  0  0  0  0
   -6.4976    4.7816   -5.6767 C   0  0  0  0  0  0  0  0  0  0  0  0
   -6.4580    6.2486   -5.7412 N   0  0  0  0  0  0  0  0  0  0  0  0
   -6.5555    3.7894   -8.0131 C   0  0  0  0  0  0  0  0  0  0  0  0
   -7.4779    3.3941   -8.9449 N   0  0  0  0  0  0  0  0  0  0  0  0
  -12.3115    3.3435   -8.8763 N   0  0  0  0  0  0  0  0  0  0  0  0
  1  6  1  0  0  0  0
  2  1  1  0  0  0  0
  3  4  1  0  0  0  0
  3  2  2  0  0  0  0
  4  5  2  0  0  0  0
  5  8  1  0  0  0  0
  5  6  1  0  0  0  0
  6  7  2  0  0  0  0
  8  9  1  0  0  0  0
  9 10  1  0  0  0  0
 11  8  2  0  0  0  0
 12  4  1  0  0  0  0
 12 11  1  0  0  0  0
 13  2  1  0  0  0  0
M  END
>  <CHROM.1>
-82.90688535,38.32769402,-8.91727722,4.16441365,-7.35493181,2.64347596,-0.07161807
-2.07208271

>  <Name>
lig.pdb

>  <RI>
2.68696e+07

>  <Rbt.Current_Directory>
/home/itssahil/PROJECTS/Mol_Feturizer/New_Systems/rnas/2miy

>  <Rbt.Executable>
rbdock ($Id: //depot/dev/client3/rdock/2013.1/src/exe/rbdock.cxx#4 $)

>  <Rbt.Library>
libRbt.so (2013.1, Build901 2013/11/27)

>  <Rbt.Parameter_File>
/export/apps/rDock/src/rDock_2013.1_src/data/scripts/dock_solv.prm

>  <Rbt.Receptor>
prm/pocket_docking_4.prm

>  <SCORE>
-45.3174

>  <SCORE.INTER>
-47.0501

>  <SCORE.INTER.CONST>
1

>  <SCORE.INTER.POLAR>
-5.15503

>  <SCORE.INTER.ROT>
2

>  <SCORE.INTER.SOLV>
19.1473

>  <SCORE.INTER.VDW>
-25.4991

>  <SCORE.INTER.norm>
-3.61924

>  <SCORE.INTRA>
1.73269

>  <SCORE.INTRA.DIHEDRAL>
0.410956

>  <SCORE.INTRA.DIHEDRAL.0>
1.76676

>  <SCORE.INTRA.POLAR>
0.472211

>  <SCORE.INTRA.POLAR.0>
-0.472211

>  <SCORE.INTRA.REPUL>
0

>  <SCORE.INTRA.REPUL.0>
0

>  <SCORE.INTRA.SOLV>
-0.384383

>  <SCORE.INTRA.SOLV.lig_0>
-22.5855

>  <SCORE.INTRA.VDW>
0.113882

>  <SCORE.INTRA.VDW.0>
-0.733656

>  <SCORE.INTRA.norm>
0.133284

>  <SCORE.RESTR>
0

>  <SCORE.RESTR.CAVITY>
0

>  <SCORE.RESTR.norm>
0

>  <SCORE.SYSTEM>
0

>  <SCORE.SYSTEM.CONST>
0

>  <SCORE.SYSTEM.DIHEDRAL>
0

>  <SCORE.SYSTEM.SOLV>
0

>  <SCORE.SYSTEM.norm>
0

>  <SCORE.heavy>
13

>  <SCORE.norm>
-3.48596

>  <RMSD>
0.478

$$$$
lig.pdb
 OpenBabel11021811453D
libRbt.so/2013.1/901 2013/11/27
 13 14  0  0  0  0  0  0  0  0999 V2000
  -11.0181    4.0948   -7.0536 N   0  0  0  0  0  0  0  0  0  0  0  0
  -11.0857    3.5891   -8.3209 C   0  0  0  0  0  0  0  0  0  0  0  0
   -9.9793    3.3331   -8.9955 N   0  0  0  0  0  0  0  0  0  0  0  0
   -8.7371    3.5594   -8.4688 C   0  0  0  0  0  0  0  0  0  0  0  0
   -8.6089    4.0882   -7.1615 C   0  0  0  0  0  0  0  0  0  0  0  0
   -9.8099    4.3608   -6.4397 C   0  0  0  0  0  0  0  0  0  0  0  0
   -9.7703    4.8183   -5.3109 O   0  0  0  0  0  0  0  0  0  0  0  0
   -7.1700    4.2200   -6.9042 C   0  0  0  0  0  0  0  0  0  0  0  0
   -6.5025    4.7537   -5.6643 C   0  0  0  0  0  0  0  0  0  0  0  0
   -6.4738    6.2214   -5.7141 N   0  0  0  0  0  0  0  0  0  0  0  0
   -6.5544    3.7717   -8.0052 C   0  0  0  0  0  0  0  0  0  0  0  0
   -7.4744    3.3833   -8.9423 N   0  0  0  0  0  0  0  0  0  0  0  0
  -12.3083    3.3476   -8.8927 N   0  0  0  0  0  0  0  0  0  0  0  0
  1  6  1  0  0  0  0
  2  1  1  0  0  0  0
  3  4  1  0  0  0  0
  3  2  2  0  0  0  0
  4  5  2  0  0  0  0
  5  8  1  0  0  0  0
  5  6  1  0  0  0  0
  6  7  2  0  0  0  0
  8  9  1  0  0  0  0
  9 10  1  0  0  0  0
 11  8  2  0  0  0  0
 12  4  1  0  0  0  0
 12 11  1  0  0  0  0
 13  2  1  0  0  0  0
M  END
>  <CHROM.1>
-82.17356808,40.90841591,-8.91900771,4.15139494,-7.35379537,2.64034185,-0.06637272
-2.06835785

>  <Name>
lig.pdb

>  <RI>
1.51961e+07

>  <Rbt.Current_Directory>
/home/itssahil/PROJECTS/Mol_Feturizer/New_Systems/rnas/2miy

>  <Rbt.Executable>
rbdock ($Id: //depot/dev/client3/rdock/2013.1/src/exe/rbdock.cxx#4 $)

>  <Rbt.Library>
libRbt.so (2013.1, Build901 2013/11/27)

>  <Rbt.Parameter_File>
/export/apps/rDock/src/rDock_2013.1_src/data/scripts/dock_solv.prm

>  <Rbt.Receptor>
prm/pocket_docking_3.prm

>  <SCORE>
-45.2516

>  <SCORE.INTER>
-46.9913

>  <SCORE.INTER.CONST>
1

>  <SCORE.INTER.POLAR>
-5.16044

>  <SCORE.INTER.ROT>
2

>  <SCORE.INTER.SOLV>
19.0647

>  <SCORE.INTER.VDW>
-25.4143

>  <SCORE.INTER.norm>
-3.61472

>  <SCORE.INTRA>
1.70809

>  <SCORE.INTRA.DIHEDRAL>
0.369686

>  <SCORE.INTRA.DIHEDRAL.0>
1.76676

>  <SCORE.INTRA.POLAR>
0.472211

>  <SCORE.INTRA.POLAR.0>
-0.472211

>  <SCORE.INTRA.REPUL>
0

>  <SCORE.INTRA.REPUL.0>
0

>  <SCORE.INTRA.SOLV>
-0.375523

>  <SCORE.INTRA.SOLV.lig_0>
-22.5855

>  <SCORE.INTRA.VDW>
0.105489

>  <SCORE.INTRA.VDW.0>
-0.733656

>  <SCORE.INTRA.norm>
0.131391

>  <SCORE.RESTR>
0.0316066

>  <SCORE.RESTR.CAVITY>
0.0316066

>  <SCORE.RESTR.norm>
0.00243127

>  <SCORE.SYSTEM>
0

>  <SCORE.SYSTEM.CONST>
0

>  <SCORE.SYSTEM.DIHEDRAL>
0

>  <SCORE.SYSTEM.SOLV>
0

>  <SCORE.SYSTEM.norm>
0

>  <SCORE.heavy>
13

>  <SCORE.norm>
-3.4809

>  <RMSD>
0.479

$$$$
lig.pdb
 OpenBabel11021811453D
libRbt.so/2013.1/901 2013/11/27
 13 14  0  0  0  0  0  0  0  0999 V2000
  -11.0168    4.0952   -7.0538 N   0  0  0  0  0  0  0  0  0  0  0  0
  -11.0848    3.5900   -8.3213 C   0  0  0  0  0  0  0  0  0  0  0  0
   -9.9785    3.3353   -8.9966 N   0  0  0  0  0  0  0  0  0  0  0  0
   -8.7362    3.5625   -8.4706 C   0  0  0  0  0  0  0  0  0  0  0  0
   -8.6077    4.0909   -7.1631 C   0  0  0  0  0  0  0  0  0  0  0  0
   -9.8085    4.3621   -6.4405 C   0  0  0  0  0  0  0  0  0  0  0  0
   -9.7687    4.8191   -5.3115 O   0  0  0  0  0  0  0  0  0  0  0  0
   -7.1688    4.2239   -6.9066 C   0  0  0  0  0  0  0  0  0  0  0  0
   -6.5011    4.7577   -5.6668 C   0  0  0  0  0  0  0  0  0  0  0  0
   -6.4691    6.2253   -5.7184 N   0  0  0  0  0  0  0  0  0  0  0  0
   -6.5534    3.7766   -8.0081 C   0  0  0  0  0  0  0  0  0  0  0  0
   -7.4736    3.3878   -8.9448 N   0  0  0  0  0  0  0  0  0  0  0  0
  -12.3075    3.3476   -8.8924 N   0  0  0  0  0  0  0  0  0  0  0  0
  1  6  1  0  0  0  0
  2  1  1  0  0  0  0
  3  4  1  0  0  0  0
  3  2  2  0  0  0  0
  4  5  2  0  0  0  0
  5  8  1  0  0  0  0
  5  6  1  0  0  0  0
  6  7  2  0  0  0  0
  8  9  1  0  0  0  0
  9 10  1  0  0  0  0
 11  8  2  0  0  0  0
 12  4  1  0  0  0  0
 12 11  1  0  0  0  0
 13  2  1  0  0  0  0
M  END
>  <CHROM.1>
-82.38844967,41.43350417,-8.91758766,4.15386922,-7.35541386,2.64082831,-0.06765179
-2.06783275

>  <Name>
lig.pdb

>  <RI>
4.2128e+07

>  <Rbt.Current_Directory>
/home/itssahil/PROJECTS/Mol_Feturizer/New_Systems/rnas/2miy

>  <Rbt.Executable>
rbdock ($Id: //depot/dev/client3/rdock/2013.1/src/exe/rbdock.cxx#4 $)

>  <Rbt.Library>
libRbt.so (2013.1, Build901 2013/11/27)

>  <Rbt.Parameter_File>
/export/apps/rDock/src/rDock_2013.1_src/data/scripts/dock_solv.prm

>  <Rbt.Receptor>
prm/pocket_docking_5.prm

>  <SCORE>
-45.2697

>  <SCORE.INTER>
-46.9824

>  <SCORE.INTER.CONST>
1

>  <SCORE.INTER.POLAR>
-5.15895

>  <SCORE.INTER.ROT>
2

>  <SCORE.INTER.SOLV>
19.085

>  <SCORE.INTER.VDW>
-25.4201

>  <SCORE.INTER.norm>
-3.61403

>  <SCORE.INTRA>
1.71271

>  <SCORE.INTRA.DIHEDRAL>
0.380633

>  <SCORE.INTRA.DIHEDRAL.0>
1.76676

>  <SCORE.INTRA.POLAR>
0.472211

>  <SCORE.INTRA.POLAR.0>
-0.472211

>  <SCORE.INTRA.REPUL>
0

>  <SCORE.INTRA.REPUL.0>
0

>  <SCORE.INTRA.SOLV>
-0.377363

>  <SCORE.INTRA.SOLV.lig_0>
-22.5855

>  <SCORE.INTRA.VDW>
0.10556

>  <SCORE.INTRA.VDW.0>
-0.733656

>  <SCORE.INTRA.norm>
0.131747

>  <SCORE.RESTR>
0

>  <SCORE.RESTR.CAVITY>
0

>  <SCORE.RESTR.norm>
0

>  <SCORE.SYSTEM>
0

>  <SCORE.SYSTEM.CONST>
0

>  <SCORE.SYSTEM.DIHEDRAL>
0

>  <SCORE.SYSTEM.SOLV>
0

>  <SCORE.SYSTEM.norm>
0

>  <SCORE.heavy>
13

>  <SCORE.norm>
-3.48228

>  <RMSD>
0.480

$$$$
lig.pdb
 OpenBabel11021811453D
libRbt.so/2013.1/901 2013/11/27
 13 14  0  0  0  0  0  0  0  0999 V2000
  -11.0132    4.1016   -7.0483 N   0  0  0  0  0  0  0  0  0  0  0  0
  -11.0840    3.5896   -8.3128 C   0  0  0  0  0  0  0  0  0  0  0  0
   -9.9792    3.3324   -8.9897 N   0  0  0  0  0  0  0  0  0  0  0  0
   -8.7358    3.5637   -8.4683 C   0  0  0  0  0  0  0  0  0  0  0  0
   -8.6044    4.0992   -7.1640 C   0  0  0  0  0  0  0  0  0  0  0  0
   -9.8036    4.3730   -6.4396 C   0  0  0  0  0  0  0  0  0  0  0  0
   -9.7612    4.8360   -5.3132 O   0  0  0  0  0  0  0  0  0  0  0  0
   -7.1650    4.2349   -6.9119 C   0  0  0  0  0  0  0  0  0  0  0  0
   -6.4945    4.7760   -5.6768 C   0  0  0  0  0  0  0  0  0  0  0  0
   -6.4551    6.2429   -5.7410 N   0  0  0  0  0  0  0  0  0  0  0  0
   -6.5520    3.7825   -8.0127 C   0  0  0  0  0  0  0  0  0  0  0  0
   -7.4743    3.3878   -8.9449 N   0  0  0  0  0  0  0  0  0  0  0  0
  -12.3080    3.3430   -8.8795 N   0  0  0  0  0  0  0  0  0  0  0  0
  1  6  1  0  0  0  0
  2  1  1  0  0  0  0
  3  4  1  0  0  0  0
  3  2  2  0  0  0  0
  4  5  2  0  0  0  0
  5  8  1  0  0  0  0
  5  6  1  0  0  0  0
  6  7  2  0  0  0  0
  8  9  1  0  0  0  0
  9 10  1  0  0  0  0
 11  8  2  0  0  0  0
 12  4  1  0  0  0  0
 12 11  1  0  0  0  0
 13  2  1  0  0  0  0
M  END
>  <CHROM.1>
-82.81350501,-140.64400901,-8.91407176,4.16072408,-7.35604355,2.64314345
-0.07008474,-2.07277940

>  <Name>
lig.pdb

>  <RI>
1.51961e+07

>  <Rbt.Current_Directory>
/home/itssahil/PROJECTS/Mol_Feturizer/New_Systems/rnas/2miy

>  <Rbt.Executable>
rbdock ($Id: //depot/dev/client3/rdock/2013.1/src/exe/rbdock.cxx#4 $)

>  <Rbt.Library>
libRbt.so (2013.1, Build901 2013/11/27)

>  <Rbt.Parameter_File>
/export/apps/rDock/src/rDock_2013.1_src/data/scripts/dock_solv.prm

>  <Rbt.Receptor>
prm/pocket_docking_3.prm

>  <SCORE>
-45.3124

>  <SCORE.INTER>
-47.0496

>  <SCORE.INTER.CONST>
1

>  <SCORE.INTER.POLAR>
-5.15141

>  <SCORE.INTER.ROT>
2

>  <SCORE.INTER.SOLV>
19.1464

>  <SCORE.INTER.VDW>
-25.5105

>  <SCORE.INTER.norm>
-3.6192

>  <SCORE.INTRA>
1.70077

>  <SCORE.INTRA.DIHEDRAL>
0.352344

>  <SCORE.INTRA.DIHEDRAL.0>
1.76676

>  <SCORE.INTRA.POLAR>
0.472211

>  <SCORE.INTRA.POLAR.0>
-0.472211

>  <SCORE.INTRA.REPUL>
0

>  <SCORE.INTRA.REPUL.0>
0

>  <SCORE.INTRA.SOLV>
-0.382688

>  <SCORE.INTRA.SOLV.lig_0>
-22.5855

>  <SCORE.INTRA.VDW>
0.110421

>  <SCORE.INTRA.VDW.0>
-0.733656

>  <SCORE.INTRA.norm>
0.130828

>  <SCORE.RESTR>
0.036341

>  <SCORE.RESTR.CAVITY>
0.036341

>  <SCORE.RESTR.norm>
0.00279546

>  <SCORE.SYSTEM>
0

>  <SCORE.SYSTEM.CONST>
0

>  <SCORE.SYSTEM.DIHEDRAL>
0

>  <SCORE.SYSTEM.SOLV>
0

>  <SCORE.SYSTEM.norm>
0

>  <SCORE.heavy>
13

>  <SCORE.norm>
-3.48557

>  <RMSD>
0.481

$$$$
lig.pdb
 OpenBabel11021811453D
libRbt.so/2013.1/901 2013/11/27
 13 14  0  0  0  0  0  0  0  0999 V2000
  -11.0155    4.0985   -7.0507 N   0  0  0  0  0  0  0  0  0  0  0  0
  -11.0850    3.5837   -8.3142 C   0  0  0  0  0  0  0  0  0  0  0  0
   -9.9795    3.3264   -8.9900 N   0  0  0  0  0  0  0  0  0  0  0  0
   -8.7367    3.5604   -8.4684 C   0  0  0  0  0  0  0  0  0  0  0  0
   -8.6066    4.0989   -7.1651 C   0  0  0  0  0  0  0  0  0  0  0  0
   -9.8065    4.3727   -6.4420 C   0  0  0  0  0  0  0  0  0  0  0  0
   -9.7653    4.8382   -5.3165 O   0  0  0  0  0  0  0  0  0  0  0  0
   -7.1675    4.2370   -6.9126 C   0  0  0  0  0  0  0  0  0  0  0  0
   -6.4983    4.7815   -5.6783 C   0  0  0  0  0  0  0  0  0  0  0  0
   -6.4603    6.2484   -5.7459 N   0  0  0  0  0  0  0  0  0  0  0  0
   -6.5534    3.7830   -8.0121 C   0  0  0  0  0  0  0  0  0  0  0  0
   -7.4747    3.3851   -8.9440 N   0  0  0  0  0  0  0  0  0  0  0  0
  -12.3083    3.3343   -8.8810 N   0  0  0  0  0  0  0  0  0  0  0  0
  1  6  1  0  0  0  0
  2  1  1  0  0  0  0
  3  4  1  0  0  0  0
  3  2  2  0  0  0  0
  4  5  2  0  0  0  0
  5  8  1  0  0  0  0
  5  6  1  0  0  0  0
  6  7  2  0  0  0  0
  8  9  1  0  0  0  0
  9 10  1  0  0  0  0
 11  8  2  0  0  0  0
 12  4  1  0  0  0  0
 12 11  1  0  0  0  0
 13  2  1  0  0  0  0
M  END
>  <CHROM.1>
-82.83322204,-139.34415573,-8.91620594,4.15963235,-7.35754270,2.64216736
-0.07096663,-2.07502052

>  <Name>
lig.pdb

>  <RI>
3.47783e+07

>  <Rbt.Current_Directory>
/home/itssahil/PROJECTS/Mol_Feturizer/New_Systems/rnas/2miy

>  <Rbt.Executable>
rbdock ($Id: //depot/dev/client3/rdock/2013.1/src/exe/rbdock.cxx#4 $)

>  <Rbt.Library>
libRbt.so (2013.1, Build901 2013/11/27)

>  <Rbt.Parameter_File>
/export/apps/rDock/src/rDock_2013.1_src/data/scripts/dock_solv.prm

>  <Rbt.Receptor>
prm/pocket_docking_8.prm

>  <SCORE>
-45.3407

>  <SCORE.INTER>
-47.0405

>  <SCORE.INTER.CONST>
1

>  <SCORE.INTER.POLAR>
-5.14383

>  <SCORE.INTER.ROT>
2

>  <SCORE.INTER.SOLV>
19.1563

>  <SCORE.INTER.VDW>
-25.533

>  <SCORE.INTER.norm>
-3.6185

>  <SCORE.INTRA>
1.69987

>  <SCORE.INTRA.DIHEDRAL>
0.354483

>  <SCORE.INTRA.DIHEDRAL.0>
1.76676

>  <SCORE.INTRA.POLAR>
0.472211

>  <SCORE.INTRA.POLAR.0>
-0.472211

>  <SCORE.INTRA.REPUL>
0

>  <SCORE.INTRA.REPUL.0>
0

>  <SCORE.INTRA.SOLV>
-0.382141

>  <SCORE.INTRA.SOLV.lig_0>
-22.5855

>  <SCORE.INTRA.VDW>
0.108186

>  <SCORE.INTRA.VDW.0>
-0.733656

>  <SCORE.INTRA.norm>
0.13076

>  <SCORE.RESTR>
0

>  <SCORE.RESTR.CAVITY>
0

>  <SCORE.RESTR.norm>
0

>  <SCORE.SYSTEM>
0

>  <SCORE.SYSTEM.CONST>
0

>  <SCORE.SYSTEM.DIHEDRAL>
0

>  <SCORE.SYSTEM.SOLV>
0

>  <SCORE.SYSTEM.norm>
0

>  <SCORE.heavy>
13

>  <SCORE.norm>
-3.48774

>  <RMSD>
0.481

$$$$
lig.pdb
 OpenBabel11021811453D
libRbt.so/2013.1/901 2013/11/27
 13 14  0  0  0  0  0  0  0  0999 V2000
  -11.0112    4.1095   -7.0517 N   0  0  0  0  0  0  0  0  0  0  0  0
  -11.0821    3.5976   -8.3163 C   0  0  0  0  0  0  0  0  0  0  0  0
   -9.9774    3.3395   -8.9930 N   0  0  0  0  0  0  0  0  0  0  0  0
   -8.7340    3.5698   -8.4712 C   0  0  0  0  0  0  0  0  0  0  0  0
   -8.6024    4.1051   -7.1669 C   0  0  0  0  0  0  0  0  0  0  0  0
   -9.8015    4.3799   -6.4428 C   0  0  0  0  0  0  0  0  0  0  0  0
   -9.7590    4.8428   -5.3163 O   0  0  0  0  0  0  0  0  0  0  0  0
   -7.1629    4.2397   -6.9145 C   0  0  0  0  0  0  0  0  0  0  0  0
   -6.4922    4.7801   -5.6793 C   0  0  0  0  0  0  0  0  0  0  0  0
   -6.4543    6.2472   -5.7420 N   0  0  0  0  0  0  0  0  0  0  0  0
   -6.5501    3.7868   -8.0152 C   0  0  0  0  0  0  0  0  0  0  0  0
   -7.4725    3.3928   -8.9476 N   0  0  0  0  0  0  0  0  0  0  0  0
  -12.3062    3.3520   -8.8831 N   0  0  0  0  0  0  0  0  0  0  0  0
  1  6  1  0  0  0  0
  2  1  1  0  0  0  0
  3  4  1  0  0  0  0
  3  2  2  0  0  0  0
  4  5  2  0  0  0  0
  5  8  1  0  0  0  0
  5  6  1  0  0  0  0
  6  7  2  0  0  0  0
  8  9  1  0  0  0  0
  9 10  1  0  0  0  0
 11  8  2  0  0  0  0
 12  4  1  0  0  0  0
 12 11  1  0  0  0  0
 13  2  1  0  0  0  0
M  END
>  <CHROM.1>
-82.68748252,-141.38308247,-8.91217815,4.16695646,-7.35889952,2.64310076
-0.06916237,-2.07278865

>  <Name>
lig.pdb

>  <RI>
0

>  <Rbt.Current_Directory>
/home/itssahil/PROJECTS/Mol_Feturizer/New_Systems/rnas/2miy

>  <Rbt.Executable>
rbdock ($Id: //depot/dev/client3/rdock/2013.1/src/exe/rbdock.cxx#4 $)

>  <Rbt.Library>
libRbt.so (2013.1, Build901 2013/11/27)

>  <Rbt.Parameter_File>
/export/apps/rDock/src/rDock_2013.1_src/data/scripts/dock_solv.prm

>  <Rbt.Receptor>
prm/pocket_docking_2.prm

>  <SCORE>
-45.3631

>  <SCORE.INTER>
-47.0614

>  <SCORE.INTER.CONST>
1

>  <SCORE.INTER.POLAR>
-5.16491

>  <SCORE.INTER.ROT>
2

>  <SCORE.INTER.SOLV>
19.1559

>  <SCORE.INTER.VDW>
-25.4765

>  <SCORE.INTER.norm>
-3.62011

>  <SCORE.INTRA>
1.69828

>  <SCORE.INTRA.DIHEDRAL>
0.345019

>  <SCORE.INTRA.DIHEDRAL.0>
1.76676

>  <SCORE.INTRA.POLAR>
0.472211

>  <SCORE.INTRA.POLAR.0>
-0.472211

>  <SCORE.INTRA.REPUL>
0

>  <SCORE.INTRA.REPUL.0>
0

>  <SCORE.INTRA.SOLV>
-0.38187

>  <SCORE.INTRA.SOLV.lig_0>
-22.5855

>  <SCORE.INTRA.VDW>
0.111192

>  <SCORE.INTRA.VDW.0>
-0.733656

>  <SCORE.INTRA.norm>
0.130637

>  <SCORE.RESTR>
0

>  <SCORE.RESTR.CAVITY>
0

>  <SCORE.RESTR.norm>
0

>  <SCORE.SYSTEM>
0

>  <SCORE.SYSTEM.CONST>
0

>  <SCORE.SYSTEM.DIHEDRAL>
0

>  <SCORE.SYSTEM.SOLV>
0

>  <SCORE.SYSTEM.norm>
0

>  <SCORE.heavy>
13

>  <SCORE.norm>
-3.48947

>  <RMSD>
0.484

$$$$
lig.pdb
 OpenBabel11021811453D
libRbt.so/2013.1/901 2013/11/27
 13 14  0  0  0  0  0  0  0  0999 V2000
  -11.0126    4.1011   -7.0514 N   0  0  0  0  0  0  0  0  0  0  0  0
  -11.0817    3.5850   -8.3145 C   0  0  0  0  0  0  0  0  0  0  0  0
   -9.9760    3.3195   -8.9866 N   0  0  0  0  0  0  0  0  0  0  0  0
   -8.7332    3.5459   -8.4616 C   0  0  0  0  0  0  0  0  0  0  0  0
   -8.6034    4.0853   -7.1587 C   0  0  0  0  0  0  0  0  0  0  0  0
   -9.8036    4.3681   -6.4395 C   0  0  0  0  0  0  0  0  0  0  0  0
   -9.7627    4.8348   -5.3145 O   0  0  0  0  0  0  0  0  0  0  0  0
   -7.1641    4.2142   -6.9021 C   0  0  0  0  0  0  0  0  0  0  0  0
   -6.4950    4.7559   -5.6665 C   0  0  0  0  0  0  0  0  0  0  0  0
   -6.4643    6.2232   -5.7270 N   0  0  0  0  0  0  0  0  0  0  0  0
   -6.5498    3.7545   -7.9991 C   0  0  0  0  0  0  0  0  0  0  0  0
   -7.4710    3.3615   -8.9332 N   0  0  0  0  0  0  0  0  0  0  0  0
  -12.3050    3.3430   -8.8845 N   0  0  0  0  0  0  0  0  0  0  0  0
  1  6  1  0  0  0  0
  2  1  1  0  0  0  0
  3  4  1  0  0  0  0
  3  2  2  0  0  0  0
  4  5  2  0  0  0  0
  5  8  1  0  0  0  0
  5  6  1  0  0  0  0
  6  7  2  0  0  0  0
  8  9  1  0  0  0  0
  9 10  1  0  0  0  0
 11  8  2  0  0  0  0
 12  4  1  0  0  0  0
 12 11  1  0  0  0  0
 13  2  1  0  0  0  0
M  END
>  <CHROM.1>
-82.02689939,39.08879767,-8.91355355,4.14788477,-7.35141246,2.64145724,-0.06307595
-2.07668334

>  <Name>
lig.pdb

>  <RI>
9.06885e+06

>  <Rbt.Current_Directory>
/home/itssahil/PROJECTS/Mol_Feturizer/New_Systems/rnas/2miy

>  <Rbt.Executable>
rbdock ($Id: //depot/dev/client3/rdock/2013.1/src/exe/rbdock.cxx#4 $)

>  <Rbt.Library>
libRbt.so (2013.1, Build901 2013/11/27)

>  <Rbt.Parameter_File>
/export/apps/rDock/src/rDock_2013.1_src/data/scripts/dock_solv.prm

>  <Rbt.Receptor>
prm/pocket_docking_6.prm

>  <SCORE>
-45.2094

>  <SCORE.INTER>
-46.9464

>  <SCORE.INTER.CONST>
1

>  <SCORE.INTER.POLAR>
-5.17251

>  <SCORE.INTER.ROT>
2

>  <SCORE.INTER.SOLV>
19.0852

>  <SCORE.INTER.VDW>
-25.351

>  <SCORE.INTER.norm>
-3.61126

>  <SCORE.INTRA>
1.70788

>  <SCORE.INTRA.DIHEDRAL>
0.363428

>  <SCORE.INTRA.DIHEDRAL.0>
1.76676

>  <SCORE.INTRA.POLAR>
0.472211

>  <SCORE.INTRA.POLAR.0>
-0.472211

>  <SCORE.INTRA.REPUL>
0

>  <SCORE.INTRA.REPUL.0>
0

>  <SCORE.INTRA.SOLV>
-0.375143

>  <SCORE.INTRA.SOLV.lig_0>
-22.5855

>  <SCORE.INTRA.VDW>
0.108217

>  <SCORE.INTRA.VDW.0>
-0.733656

>  <SCORE.INTRA.norm>
0.131375

>  <SCORE.RESTR>
0.0291048

>  <SCORE.RESTR.CAVITY>
0.0291048

>  <SCORE.RESTR.norm>
0.00223883

>  <SCORE.SYSTEM>
0

>  <SCORE.SYSTEM.CONST>
0

>  <SCORE.SYSTEM.DIHEDRAL>
0

>  <SCORE.SYSTEM.SOLV>
0

>  <SCORE.SYSTEM.norm>
0

>  <SCORE.heavy>
13

>  <SCORE.norm>
-3.47765

>  <RMSD>
0.484

$$$$
lig.pdb
 OpenBabel11021811453D
libRbt.so/2013.1/901 2013/11/27
 13 14  0  0  0  0  0  0  0  0999 V2000
  -11.0124    4.1060   -7.0528 N   0  0  0  0  0  0  0  0  0  0  0  0
  -11.0821    3.5942   -8.3175 C   0  0  0  0  0  0  0  0  0  0  0  0
   -9.9767    3.3368   -8.9933 N   0  0  0  0  0  0  0  0  0  0  0  0
   -8.7337    3.5674   -8.4704 C   0  0  0  0  0  0  0  0  0  0  0  0
   -8.6035    4.1025   -7.1659 C   0  0  0  0  0  0  0  0  0  0  0  0
   -9.8033    4.3767   -6.4427 C   0  0  0  0  0  0  0  0  0  0  0  0
   -9.7620    4.8394   -5.3161 O   0  0  0  0  0  0  0  0  0  0  0  0
   -7.1643    4.2376   -6.9122 C   0  0  0  0  0  0  0  0  0  0  0  0
   -6.4949    4.7780   -5.6763 C   0  0  0  0  0  0  0  0  0  0  0  0
   -6.4540    6.2449   -5.7405 N   0  0  0  0  0  0  0  0  0  0  0  0
   -6.5503    3.7851   -8.0125 C   0  0  0  0  0  0  0  0  0  0  0  0
   -7.4718    3.3910   -8.9458 N   0  0  0  0  0  0  0  0  0  0  0  0
  -12.3055    3.3483   -8.8855 N   0  0  0  0  0  0  0  0  0  0  0  0
  1  6  1  0  0  0  0
  2  1  1  0  0  0  0
  3  4  1  0  0  0  0
  3  2  2  0  0  0  0
  4  5  2  0  0  0  0
  5  8  1  0  0  0  0
  5  6  1  0  0  0  0
  6  7  2  0  0  0  0
  8  9  1  0  0  0  0
  9 10  1  0  0  0  0
 11  8  2  0  0  0  0
 12  4  1  0  0  0  0
 12 11  1  0  0  0  0
 13  2  1  0  0  0  0
M  END
>  <CHROM.1>
-82.84874815,-141.21703844,-8.91283840,4.16423071,-7.35830095,2.64244626
-0.06921548,-2.07256553

>  <Name>
lig.pdb

>  <RI>
3.47783e+07

>  <Rbt.Current_Directory>
/home/itssahil/PROJECTS/Mol_Feturizer/New_Systems/rnas/2miy

>  <Rbt.Executable>
rbdock ($Id: //depot/dev/client3/rdock/2013.1/src/exe/rbdock.cxx#4 $)

>  <Rbt.Library>
libRbt.so (2013.1, Build901 2013/11/27)

>  <Rbt.Parameter_File>
/export/apps/rDock/src/rDock_2013.1_src/data/scripts/dock_solv.prm

>  <Rbt.Receptor>
prm/pocket_docking_8.prm

>  <SCORE>
-45.3739

>  <SCORE.INTER>
-47.0762

>  <SCORE.INTER.CONST>
1

>  <SCORE.INTER.POLAR>
-5.15792

>  <SCORE.INTER.ROT>
2

>  <SCORE.INTER.SOLV>
19.1522

>  <SCORE.INTER.VDW>
-25.5085

>  <SCORE.INTER.norm>
-3.62125

>  <SCORE.INTRA>
1.70238

>  <SCORE.INTRA.DIHEDRAL>
0.353803

>  <SCORE.INTRA.DIHEDRAL.0>
1.76676

>  <SCORE.INTRA.POLAR>
0.472211

>  <SCORE.INTRA.POLAR.0>
-0.472211

>  <SCORE.INTRA.REPUL>
0

>  <SCORE.INTRA.REPUL.0>
0

>  <SCORE.INTRA.SOLV>
-0.383377

>  <SCORE.INTRA.SOLV.lig_0>
-22.5855

>  <SCORE.INTRA.VDW>
0.111647

>  <SCORE.INTRA.VDW.0>
-0.733656

>  <SCORE.INTRA.norm>
0.130952

>  <SCORE.RESTR>
0

>  <SCORE.RESTR.CAVITY>
0

>  <SCORE.RESTR.norm>
0

>  <SCORE.SYSTEM>
0

>  <SCORE.SYSTEM.CONST>
0

>  <SCORE.SYSTEM.DIHEDRAL>
0

>  <SCORE.SYSTEM.SOLV>
0

>  <SCORE.SYSTEM.norm>
0

>  <SCORE.heavy>
13

>  <SCORE.norm>
-3.4903

>  <RMSD>
0.484

$$$$
lig.pdb
 OpenBabel11021811453D
libRbt.so/2013.1/901 2013/11/27
 13 14  0  0  0  0  0  0  0  0999 V2000
  -11.0161    4.0961   -7.0550 N   0  0  0  0  0  0  0  0  0  0  0  0
  -11.0834    3.5791   -8.3177 C   0  0  0  0  0  0  0  0  0  0  0  0
   -9.9768    3.3211   -8.9913 N   0  0  0  0  0  0  0  0  0  0  0  0
   -8.7349    3.5564   -8.4681 C   0  0  0  0  0  0  0  0  0  0  0  0
   -8.6071    4.0971   -7.1656 C   0  0  0  0  0  0  0  0  0  0  0  0
   -9.8082    4.3718   -6.4448 C   0  0  0  0  0  0  0  0  0  0  0  0
   -9.7690    4.8392   -5.3201 O   0  0  0  0  0  0  0  0  0  0  0  0
   -7.1684    4.2363   -6.9111 C   0  0  0  0  0  0  0  0  0  0  0  0
   -6.5014    4.7831   -5.6767 C   0  0  0  0  0  0  0  0  0  0  0  0
   -6.4614    6.2497   -5.7479 N   0  0  0  0  0  0  0  0  0  0  0  0
   -6.5524    3.7806   -8.0088 C   0  0  0  0  0  0  0  0  0  0  0  0
   -7.4721    3.3808   -8.9415 N   0  0  0  0  0  0  0  0  0  0  0  0
  -12.3058    3.3283   -8.8859 N   0  0  0  0  0  0  0  0  0  0  0  0
  1  6  1  0  0  0  0
  2  1  1  0  0  0  0
  3  4  1  0  0  0  0
  3  2  2  0  0  0  0
  4  5  2  0  0  0  0
  5  8  1  0  0  0  0
  5  6  1  0  0  0  0
  6  7  2  0  0  0  0
  8  9  1  0  0  0  0
  9 10  1  0  0  0  0
 11  8  2  0  0  0  0
 12  4  1  0  0  0  0
 12 11  1  0  0  0  0
 13  2  1  0  0  0  0
M  END
>  <CHROM.1>
-82.94523008,-138.96319118,-8.91613474,4.15745745,-7.35871323,2.64083287
-0.07062868,-2.07675690

>  <Name>
lig.pdb

>  <RI>
3.47783e+07

>  <Rbt.Current_Directory>
/home/itssahil/PROJECTS/Mol_Feturizer/New_Systems/rnas/2miy

>  <Rbt.Executable>
rbdock ($Id: //depot/dev/client3/rdock/2013.1/src/exe/rbdock.cxx#4 $)

>  <Rbt.Library>
libRbt.so (2013.1, Build901 2013/11/27)

>  <Rbt.Parameter_File>
/export/apps/rDock/src/rDock_2013.1_src/data/scripts/dock_solv.prm

>  <Rbt.Receptor>
prm/pocket_docking_8.prm

>  <SCORE>
-45.3559

>  <SCORE.INTER>
-47.0584

>  <SCORE.INTER.CONST>
1

>  <SCORE.INTER.POLAR>
-5.13567

>  <SCORE.INTER.ROT>
2

>  <SCORE.INTER.SOLV>
19.162

>  <SCORE.INTER.VDW>
-25.574

>  <SCORE.INTER.norm>
-3.61988

>  <SCORE.INTRA>
1.70248

>  <SCORE.INTRA.DIHEDRAL>
0.360852

>  <SCORE.INTRA.DIHEDRAL.0>
1.76676

>  <SCORE.INTRA.POLAR>
0.472211

>  <SCORE.INTRA.POLAR.0>
-0.472211

>  <SCORE.INTRA.REPUL>
0

>  <SCORE.INTRA.REPUL.0>
0

>  <SCORE.INTRA.SOLV>
-0.383044

>  <SCORE.INTRA.SOLV.lig_0>
-22.5855

>  <SCORE.INTRA.VDW>
0.108055

>  <SCORE.INTRA.VDW.0>
-0.733656

>  <SCORE.INTRA.norm>
0.13096

>  <SCORE.RESTR>
0

>  <SCORE.RESTR.CAVITY>
0

>  <SCORE.RESTR.norm>
0

>  <SCORE.SYSTEM>
0

>  <SCORE.SYSTEM.CONST>
0

>  <SCORE.SYSTEM.DIHEDRAL>
0

>  <SCORE.SYSTEM.SOLV>
0

>  <SCORE.SYSTEM.norm>
0

>  <SCORE.heavy>
13

>  <SCORE.norm>
-3.48892

>  <RMSD>
0.484

$$$$
lig.pdb
 OpenBabel11021811453D
libRbt.so/2013.1/901 2013/11/27
 13 14  0  0  0  0  0  0  0  0999 V2000
  -11.0054    4.1204   -7.0407 N   0  0  0  0  0  0  0  0  0  0  0  0
  -11.0803    3.5925   -8.2985 C   0  0  0  0  0  0  0  0  0  0  0  0
   -9.9777    3.3267   -8.9756 N   0  0  0  0  0  0  0  0  0  0  0  0
   -8.7326    3.5643   -8.4611 C   0  0  0  0  0  0  0  0  0  0  0  0
   -8.5970    4.1161   -7.1640 C   0  0  0  0  0  0  0  0  0  0  0  0
   -9.7938    4.3992   -6.4394 C   0  0  0  0  0  0  0  0  0  0  0  0
   -9.7478    4.8764   -5.3190 O   0  0  0  0  0  0  0  0  0  0  0  0
   -7.1567    4.2548   -6.9183 C   0  0  0  0  0  0  0  0  0  0  0  0
   -6.4822    4.8112   -5.6922 C   0  0  0  0  0  0  0  0  0  0  0  0
   -6.4348    6.2768   -5.7792 N   0  0  0  0  0  0  0  0  0  0  0  0
   -6.5473    3.7884   -8.0152 C   0  0  0  0  0  0  0  0  0  0  0  0
   -7.4726    3.3822   -8.9395 N   0  0  0  0  0  0  0  0  0  0  0  0
  -12.3061    3.3390   -8.8581 N   0  0  0  0  0  0  0  0  0  0  0  0
  1  6  1  0  0  0  0
  2  1  1  0  0  0  0
  3  4  1  0  0  0  0
  3  2  2  0  0  0  0
  4  5  2  0  0  0  0
  5  8  1  0  0  0  0
  5  6  1  0  0  0  0
  6  7  2  0  0  0  0
  8  9  1  0  0  0  0
  9 10  1  0  0  0  0
 11  8  2  0  0  0  0
 12  4  1  0  0  0  0
 12 11  1  0  0  0  0
 13  2  1  0  0  0  0
M  END
>  <CHROM.1>
-83.19029830,34.70831206,-8.90639404,4.17525174,-7.35642511,2.64667208,-0.07191316
-2.08476482

>  <Name>
lig.pdb

>  <RI>
2.95488e+07

>  <Rbt.Current_Directory>
/home/itssahil/PROJECTS/Mol_Feturizer/New_Systems/rnas/2miy

>  <Rbt.Executable>
rbdock ($Id: //depot/dev/client3/rdock/2013.1/src/exe/rbdock.cxx#4 $)

>  <Rbt.Library>
libRbt.so (2013.1, Build901 2013/11/27)

>  <Rbt.Parameter_File>
/export/apps/rDock/src/rDock_2013.1_src/data/scripts/dock_solv.prm

>  <Rbt.Receptor>
prm/blind_docking_20.prm

>  <SCORE>
-45.1067

>  <SCORE.INTER>
-46.8705

>  <SCORE.INTER.CONST>
1

>  <SCORE.INTER.POLAR>
-5.15798

>  <SCORE.INTER.ROT>
2

>  <SCORE.INTER.SOLV>
19.2454

>  <SCORE.INTER.VDW>
-25.4022

>  <SCORE.INTER.norm>
-3.60542

>  <SCORE.INTRA>
1.74756

>  <SCORE.INTRA.DIHEDRAL>
0.428322

>  <SCORE.INTRA.DIHEDRAL.0>
1.76676

>  <SCORE.INTRA.POLAR>
0.472211

>  <SCORE.INTRA.POLAR.0>
-0.472211

>  <SCORE.INTRA.REPUL>
0

>  <SCORE.INTRA.REPUL.0>
0

>  <SCORE.INTRA.SOLV>
-0.389599

>  <SCORE.INTRA.SOLV.lig_0>
-22.5855

>  <SCORE.INTRA.VDW>
0.12268

>  <SCORE.INTRA.VDW.0>
-0.733656

>  <SCORE.INTRA.norm>
0.134428

>  <SCORE.RESTR>
0.0162206

>  <SCORE.RESTR.CAVITY>
0.0162206

>  <SCORE.RESTR.norm>
0.00124774

>  <SCORE.SYSTEM>
0

>  <SCORE.SYSTEM.CONST>
0

>  <SCORE.SYSTEM.DIHEDRAL>
0

>  <SCORE.SYSTEM.SOLV>
0

>  <SCORE.SYSTEM.norm>
0

>  <SCORE.heavy>
13

>  <SCORE.norm>
-3.46975

>  <RMSD>
0.487

$$$$
lig.pdb
 OpenBabel11021811453D
libRbt.so/2013.1/901 2013/11/27
 13 14  0  0  0  0  0  0  0  0999 V2000
  -11.0844    3.9484   -7.0482 N   0  0  0  0  0  0  0  0  0  0  0  0
  -11.1710    3.4657   -8.3233 C   0  0  0  0  0  0  0  0  0  0  0  0
  -10.0754    3.2426   -9.0266 N   0  0  0  0  0  0  0  0  0  0  0  0
   -8.8261    3.4814   -8.5228 C   0  0  0  0  0  0  0  0  0  0  0  0
   -8.6784    3.9875   -7.2086 C   0  0  0  0  0  0  0  0  0  0  0  0
   -9.8678    4.2246   -6.4557 C   0  0  0  0  0  0  0  0  0  0  0  0
   -9.8114    4.6611   -5.3194 O   0  0  0  0  0  0  0  0  0  0  0  0
   -7.2368    4.1404   -6.9800 C   0  0  0  0  0  0  0  0  0  0  0  0
   -6.5516    4.6624   -5.7448 C   0  0  0  0  0  0  0  0  0  0  0  0
   -6.3969    6.1196   -5.8468 N   0  0  0  0  0  0  0  0  0  0  0  0
   -6.6378    3.7243   -8.1026 C   0  0  0  0  0  0  0  0  0  0  0  0
   -7.5712    3.3372   -9.0269 N   0  0  0  0  0  0  0  0  0  0  0  0
  -12.4015    3.2131   -8.8730 N   0  0  0  0  0  0  0  0  0  0  0  0
  1  6  1  0  0  0  0
  2  1  1  0  0  0  0
  3  4  1  0  0  0  0
  3  2  2  0  0  0  0
  4  5  2  0  0  0  0
  5  8  1  0  0  0  0
  5  6  1  0  0  0  0
  6  7  2  0  0  0  0
  8  9  1  0  0  0  0
  9 10  1  0  0  0  0
 11  8  2  0  0  0  0
 12  4  1  0  0  0  0
 12 11  1  0  0  0  0
 13  2  1  0  0  0  0
M  END
>  <CHROM.1>
-89.34386211,-136.98939173,-8.97956422,4.04762505,-7.40010943,2.66470557
-0.09820078,-2.04326687

>  <Name>
lig.pdb

>  <RI>
1.8118e+07

>  <Rbt.Current_Directory>
/home/itssahil/PROJECTS/Mol_Feturizer/New_Systems/rnas/2miy

>  <Rbt.Executable>
rbdock ($Id: //depot/dev/client3/rdock/2013.1/src/exe/rbdock.cxx#4 $)

>  <Rbt.Library>
libRbt.so (2013.1, Build901 2013/11/27)

>  <Rbt.Parameter_File>
/export/apps/rDock/src/rDock_2013.1_src/data/scripts/dock_solv.prm

>  <Rbt.Receptor>
prm/blind_docking_100.prm

>  <SCORE>
-41.5133

>  <SCORE.INTER>
-45.9961

>  <SCORE.INTER.CONST>
1

>  <SCORE.INTER.POLAR>
-4.97398

>  <SCORE.INTER.ROT>
2

>  <SCORE.INTER.SOLV>
19.3705

>  <SCORE.INTER.VDW>
-25.4743

>  <SCORE.INTER.norm>
-3.53816

>  <SCORE.INTRA>
1.88936

>  <SCORE.INTRA.DIHEDRAL>
0.722797

>  <SCORE.INTRA.DIHEDRAL.0>
1.76676

>  <SCORE.INTRA.POLAR>
0.472211

>  <SCORE.INTRA.POLAR.0>
-0.472211

>  <SCORE.INTRA.REPUL>
0

>  <SCORE.INTRA.REPUL.0>
0

>  <SCORE.INTRA.SOLV>
-0.445008

>  <SCORE.INTRA.SOLV.lig_0>
-22.5855

>  <SCORE.INTRA.VDW>
0.144951

>  <SCORE.INTRA.VDW.0>
-0.733656

>  <SCORE.INTRA.norm>
0.145336

>  <SCORE.RESTR>
2.59345

>  <SCORE.RESTR.CAVITY>
2.59345

>  <SCORE.RESTR.norm>
0.199496

>  <SCORE.SYSTEM>
0

>  <SCORE.SYSTEM.CONST>
0

>  <SCORE.SYSTEM.DIHEDRAL>
0

>  <SCORE.SYSTEM.SOLV>
0

>  <SCORE.SYSTEM.norm>
0

>  <SCORE.heavy>
13

>  <SCORE.norm>
-3.19333

>  <RMSD>
0.489

$$$$
lig.pdb
 OpenBabel11021811453D
libRbt.so/2013.1/901 2013/11/27
 13 14  0  0  0  0  0  0  0  0999 V2000
  -11.0124    4.1046   -7.0512 N   0  0  0  0  0  0  0  0  0  0  0  0
  -11.0820    3.5803   -8.3108 C   0  0  0  0  0  0  0  0  0  0  0  0
   -9.9766    3.3228   -8.9868 N   0  0  0  0  0  0  0  0  0  0  0  0
   -8.7339    3.5659   -8.4691 C   0  0  0  0  0  0  0  0  0  0  0  0
   -8.6038    4.1144   -7.1701 C   0  0  0  0  0  0  0  0  0  0  0  0
   -9.8035    4.3884   -6.4468 C   0  0  0  0  0  0  0  0  0  0  0  0
   -9.7623    4.8623   -5.3248 O   0  0  0  0  0  0  0  0  0  0  0  0
   -7.1648    4.2605   -6.9213 C   0  0  0  0  0  0  0  0  0  0  0  0
   -6.4957    4.8168   -5.6923 C   0  0  0  0  0  0  0  0  0  0  0  0
   -6.4318    6.2813   -5.7872 N   0  0  0  0  0  0  0  0  0  0  0  0
   -6.5507    3.8010   -8.0186 C   0  0  0  0  0  0  0  0  0  0  0  0
   -7.4720    3.3924   -8.9458 N   0  0  0  0  0  0  0  0  0  0  0  0
  -12.3053    3.3216   -8.8735 N   0  0  0  0  0  0  0  0  0  0  0  0
  1  6  1  0  0  0  0
  2  1  1  0  0  0  0
  3  4  1  0  0  0  0
  3  2  2  0  0  0  0
  4  5  2  0  0  0  0
  5  8  1  0  0  0  0
  5  6  1  0  0  0  0
  6  7  2  0  0  0  0
  8  9  1  0  0  0  0
  9 10  1  0  0  0  0
 11  8  2  0  0  0  0
 12  4  1  0  0  0  0
 12 11  1  0  0  0  0
 13  2  1  0  0  0  0
M  END
>  <CHROM.1>
-84.33669071,-145.01836979,-8.91094292,4.17222422,-7.36395521,2.64420472
-0.07685903,-2.08130131

>  <Name>
lig.pdb

>  <RI>
2.95488e+07

>  <Rbt.Current_Directory>
/home/itssahil/PROJECTS/Mol_Feturizer/New_Systems/rnas/2miy

>  <Rbt.Executable>
rbdock ($Id: //depot/dev/client3/rdock/2013.1/src/exe/rbdock.cxx#4 $)

>  <Rbt.Library>
libRbt.so (2013.1, Build901 2013/11/27)

>  <Rbt.Parameter_File>
/export/apps/rDock/src/rDock_2013.1_src/data/scripts/dock_solv.prm

>  <Rbt.Receptor>
prm/blind_docking_20.prm

>  <SCORE>
-45.2324

>  <SCORE.INTER>
-47.004

>  <SCORE.INTER.CONST>
1

>  <SCORE.INTER.POLAR>
-5.09993

>  <SCORE.INTER.ROT>
2

>  <SCORE.INTER.SOLV>
19.283

>  <SCORE.INTER.VDW>
-25.6972

>  <SCORE.INTER.norm>
-3.61569

>  <SCORE.INTRA>
1.75882

>  <SCORE.INTRA.DIHEDRAL>
0.432697

>  <SCORE.INTRA.DIHEDRAL.0>
1.76676

>  <SCORE.INTRA.POLAR>
0.472211

>  <SCORE.INTRA.POLAR.0>
-0.472211

>  <SCORE.INTRA.REPUL>
0

>  <SCORE.INTRA.REPUL.0>
0

>  <SCORE.INTRA.SOLV>
-0.400564

>  <SCORE.INTRA.SOLV.lig_0>
-22.5855

>  <SCORE.INTRA.VDW>
0.137234

>  <SCORE.INTRA.VDW.0>
-0.733656

>  <SCORE.INTRA.norm>
0.135294

>  <SCORE.RESTR>
0.0127388

>  <SCORE.RESTR.CAVITY>
0.0127388

>  <SCORE.RESTR.norm>
0.000979906

>  <SCORE.SYSTEM>
0

>  <SCORE.SYSTEM.CONST>
0

>  <SCORE.SYSTEM.DIHEDRAL>
0

>  <SCORE.SYSTEM.SOLV>
0

>  <SCORE.SYSTEM.norm>
0

>  <SCORE.heavy>
13

>  <SCORE.norm>
-3.47942

>  <RMSD>
0.490

$$$$
lig.pdb
 OpenBabel11021811453D
libRbt.so/2013.1/901 2013/11/27
 13 14  0  0  0  0  0  0  0  0999 V2000
  -11.0852    3.9492   -7.0493 N   0  0  0  0  0  0  0  0  0  0  0  0
  -11.1747    3.4655   -8.3238 C   0  0  0  0  0  0  0  0  0  0  0  0
  -10.0806    3.2416   -9.0293 N   0  0  0  0  0  0  0  0  0  0  0  0
   -8.8302    3.4806   -8.5285 C   0  0  0  0  0  0  0  0  0  0  0  0
   -8.6796    3.9878   -7.2150 C   0  0  0  0  0  0  0  0  0  0  0  0
   -9.8673    4.2257   -6.4597 C   0  0  0  0  0  0  0  0  0  0  0  0
   -9.8083    4.6632   -5.3238 O   0  0  0  0  0  0  0  0  0  0  0  0
   -7.2374    4.1407   -6.9898 C   0  0  0  0  0  0  0  0  0  0  0  0
   -6.5494    4.6636   -5.7565 C   0  0  0  0  0  0  0  0  0  0  0  0
   -6.3888    6.1198   -5.8630 N   0  0  0  0  0  0  0  0  0  0  0  0
   -6.6409    3.7236   -8.1133 C   0  0  0  0  0  0  0  0  0  0  0  0
   -7.5765    3.3358   -9.0352 N   0  0  0  0  0  0  0  0  0  0  0  0
  -12.4064    3.2125   -8.8705 N   0  0  0  0  0  0  0  0  0  0  0  0
  1  6  1  0  0  0  0
  2  1  1  0  0  0  0
  3  4  1  0  0  0  0
  3  2  2  0  0  0  0
  4  5  2  0  0  0  0
  5  8  1  0  0  0  0
  5  6  1  0  0  0  0
  6  7  2  0  0  0  0
  8  9  1  0  0  0  0
  9 10  1  0  0  0  0
 11  8  2  0  0  0  0
 12  4  1  0  0  0  0
 12 11  1  0  0  0  0
 13  2  1  0  0  0  0
M  END
>  <CHROM.1>
-89.61976814,-137.77031572,-8.98056814,4.04774358,-7.40618989,2.66725166
-0.09927967,-2.04364673

>  <Name>
lig.pdb

>  <RI>
0

>  <Rbt.Current_Directory>
/home/itssahil/PROJECTS/Mol_Feturizer/New_Systems/rnas/2miy

>  <Rbt.Executable>
rbdock ($Id: //depot/dev/client3/rdock/2013.1/src/exe/rbdock.cxx#4 $)

>  <Rbt.Library>
libRbt.so (2013.1, Build901 2013/11/27)

>  <Rbt.Parameter_File>
/export/apps/rDock/src/rDock_2013.1_src/data/scripts/dock_solv.prm

>  <Rbt.Receptor>
prm/blind_docking_60.prm

>  <SCORE>
-41.45

>  <SCORE.INTER>
-45.9228

>  <SCORE.INTER.CONST>
1

>  <SCORE.INTER.POLAR>
-4.9801

>  <SCORE.INTER.ROT>
2

>  <SCORE.INTER.SOLV>
19.4101

>  <SCORE.INTER.VDW>
-25.4182

>  <SCORE.INTER.norm>
-3.53252

>  <SCORE.INTRA>
1.8978

>  <SCORE.INTRA.DIHEDRAL>
0.737899

>  <SCORE.INTRA.DIHEDRAL.0>
1.76676

>  <SCORE.INTRA.POLAR>
0.472211

>  <SCORE.INTRA.POLAR.0>
-0.472211

>  <SCORE.INTRA.REPUL>
0

>  <SCORE.INTRA.REPUL.0>
0

>  <SCORE.INTRA.SOLV>
-0.448103

>  <SCORE.INTRA.SOLV.lig_0>
-22.5855

>  <SCORE.INTRA.VDW>
0.147381

>  <SCORE.INTRA.VDW.0>
-0.733656

>  <SCORE.INTRA.norm>
0.145984

>  <SCORE.RESTR>
2.57497

>  <SCORE.RESTR.CAVITY>
2.57497

>  <SCORE.RESTR.norm>
0.198074

>  <SCORE.SYSTEM>
0

>  <SCORE.SYSTEM.CONST>
0

>  <SCORE.SYSTEM.DIHEDRAL>
0

>  <SCORE.SYSTEM.SOLV>
0

>  <SCORE.SYSTEM.norm>
0

>  <SCORE.heavy>
13

>  <SCORE.norm>
-3.18846

>  <RMSD>
0.492

$$$$
lig.pdb
 OpenBabel11021811453D
libRbt.so/2013.1/901 2013/11/27
 13 14  0  0  0  0  0  0  0  0999 V2000
  -11.0103    4.0942   -7.0626 N   0  0  0  0  0  0  0  0  0  0  0  0
  -11.0761    3.5697   -8.3223 C   0  0  0  0  0  0  0  0  0  0  0  0
   -9.9685    3.3035   -8.9912 N   0  0  0  0  0  0  0  0  0  0  0  0
   -8.7272    3.5375   -8.4661 C   0  0  0  0  0  0  0  0  0  0  0  0
   -8.6010    4.0857   -7.1666 C   0  0  0  0  0  0  0  0  0  0  0  0
   -9.8031    4.3692   -6.4508 C   0  0  0  0  0  0  0  0  0  0  0  0
   -9.7653    4.8434   -5.3289 O   0  0  0  0  0  0  0  0  0  0  0  0
   -7.1625    4.2212   -6.9089 C   0  0  0  0  0  0  0  0  0  0  0  0
   -6.4969    4.7732   -5.6760 C   0  0  0  0  0  0  0  0  0  0  0  0
   -6.4628    6.2398   -5.7503 N   0  0  0  0  0  0  0  0  0  0  0  0
   -6.5452    3.7564   -8.0021 C   0  0  0  0  0  0  0  0  0  0  0  0
   -7.4638    3.3543   -8.9348 N   0  0  0  0  0  0  0  0  0  0  0  0
  -12.2978    3.3199   -8.8924 N   0  0  0  0  0  0  0  0  0  0  0  0
  1  6  1  0  0  0  0
  2  1  1  0  0  0  0
  3  4  1  0  0  0  0
  3  2  2  0  0  0  0
  4  5  2  0  0  0  0
  5  8  1  0  0  0  0
  5  6  1  0  0  0  0
  6  7  2  0  0  0  0
  8  9  1  0  0  0  0
  9 10  1  0  0  0  0
 11  8  2  0  0  0  0
 12  4  1  0  0  0  0
 12 11  1  0  0  0  0
 13  2  1  0  0  0  0
M  END
>  <CHROM.1>
-82.41331229,40.46803615,-8.91033115,4.14603710,-7.36048890,2.63940715,-0.06569087
-2.08320932

>  <Name>
lig.pdb

>  <RI>
0

>  <Rbt.Current_Directory>
/home/itssahil/PROJECTS/Mol_Feturizer/New_Systems/rnas/2miy

>  <Rbt.Executable>
rbdock ($Id: //depot/dev/client3/rdock/2013.1/src/exe/rbdock.cxx#4 $)

>  <Rbt.Library>
libRbt.so (2013.1, Build901 2013/11/27)

>  <Rbt.Parameter_File>
/export/apps/rDock/src/rDock_2013.1_src/data/scripts/dock_solv.prm

>  <Rbt.Receptor>
prm/pocket_docking_2.prm

>  <SCORE>
-45.2602

>  <SCORE.INTER>
-46.9755

>  <SCORE.INTER.CONST>
1

>  <SCORE.INTER.POLAR>
-5.13034

>  <SCORE.INTER.ROT>
2

>  <SCORE.INTER.SOLV>
19.1551

>  <SCORE.INTER.VDW>
-25.5343

>  <SCORE.INTER.norm>
-3.6135

>  <SCORE.INTRA>
1.71529

>  <SCORE.INTRA.DIHEDRAL>
0.382822

>  <SCORE.INTRA.DIHEDRAL.0>
1.76676

>  <SCORE.INTRA.POLAR>
0.472211

>  <SCORE.INTRA.POLAR.0>
-0.472211

>  <SCORE.INTRA.REPUL>
0

>  <SCORE.INTRA.REPUL.0>
0

>  <SCORE.INTRA.SOLV>
-0.378168

>  <SCORE.INTRA.SOLV.lig_0>
-22.5855

>  <SCORE.INTRA.VDW>
0.107442

>  <SCORE.INTRA.VDW.0>
-0.733656

>  <SCORE.INTRA.norm>
0.131945

>  <SCORE.RESTR>
0

>  <SCORE.RESTR.CAVITY>
0

>  <SCORE.RESTR.norm>
0

>  <SCORE.SYSTEM>
0

>  <SCORE.SYSTEM.CONST>
0

>  <SCORE.SYSTEM.DIHEDRAL>
0

>  <SCORE.SYSTEM.SOLV>
0

>  <SCORE.SYSTEM.norm>
0

>  <SCORE.heavy>
13

>  <SCORE.norm>
-3.48155

>  <RMSD>
0.492

$$$$
lig.pdb
 OpenBabel11021811453D
libRbt.so/2013.1/901 2013/11/27
 13 14  0  0  0  0  0  0  0  0999 V2000
  -11.0044    4.1066   -7.0817 N   0  0  0  0  0  0  0  0  0  0  0  0
  -11.0656    3.6114   -8.3534 C   0  0  0  0  0  0  0  0  0  0  0  0
   -9.9556    3.3564   -9.0226 N   0  0  0  0  0  0  0  0  0  0  0  0
   -8.7161    3.5734   -8.4859 C   0  0  0  0  0  0  0  0  0  0  0  0
   -8.5946    4.0911   -7.1735 C   0  0  0  0  0  0  0  0  0  0  0  0
   -9.7993    4.3628   -6.4575 C   0  0  0  0  0  0  0  0  0  0  0  0
   -9.7655    4.8109   -5.3248 O   0  0  0  0  0  0  0  0  0  0  0  0
   -7.1570    4.2150   -6.9054 C   0  0  0  0  0  0  0  0  0  0  0  0
   -6.4957    4.7359   -5.6568 C   0  0  0  0  0  0  0  0  0  0  0  0
   -6.4788    6.2044   -5.6852 N   0  0  0  0  0  0  0  0  0  0  0  0
   -6.5358    3.7731   -8.0058 C   0  0  0  0  0  0  0  0  0  0  0  0
   -7.4510    3.3960   -8.9522 N   0  0  0  0  0  0  0  0  0  0  0  0
  -12.2852    3.3796   -8.9353 N   0  0  0  0  0  0  0  0  0  0  0  0
  1  6  1  0  0  0  0
  2  1  1  0  0  0  0
  3  4  1  0  0  0  0
  3  2  2  0  0  0  0
  4  5  2  0  0  0  0
  5  8  1  0  0  0  0
  5  6  1  0  0  0  0
  6  7  2  0  0  0  0
  8  9  1  0  0  0  0
  9 10  1  0  0  0  0
 11  8  2  0  0  0  0
 12  4  1  0  0  0  0
 12 11  1  0  0  0  0
 13  2  1  0  0  0  0
M  END
>  <CHROM.1>
-81.33538322,-135.75612792,-8.90492174,4.15716421,-7.36627573,2.63475678
-0.05883372,-2.06107454

>  <Name>
lig.pdb

>  <RI>
2.68696e+07

>  <Rbt.Current_Directory>
/home/itssahil/PROJECTS/Mol_Feturizer/New_Systems/rnas/2miy

>  <Rbt.Executable>
rbdock ($Id: //depot/dev/client3/rdock/2013.1/src/exe/rbdock.cxx#4 $)

>  <Rbt.Library>
libRbt.so (2013.1, Build901 2013/11/27)

>  <Rbt.Parameter_File>
/export/apps/rDock/src/rDock_2013.1_src/data/scripts/dock_solv.prm

>  <Rbt.Receptor>
prm/pocket_docking_4.prm

>  <SCORE>
-45.1989

>  <SCORE.INTER>
-46.8563

>  <SCORE.INTER.CONST>
1

>  <SCORE.INTER.POLAR>
-5.16794

>  <SCORE.INTER.ROT>
2

>  <SCORE.INTER.SOLV>
19.0287

>  <SCORE.INTER.VDW>
-25.2873

>  <SCORE.INTER.norm>
-3.60433

>  <SCORE.INTRA>
1.65738

>  <SCORE.INTRA.DIHEDRAL>
0.278782

>  <SCORE.INTRA.DIHEDRAL.0>
1.76676

>  <SCORE.INTRA.POLAR>
0.472211

>  <SCORE.INTRA.POLAR.0>
-0.472211

>  <SCORE.INTRA.REPUL>
0

>  <SCORE.INTRA.REPUL.0>
0

>  <SCORE.INTRA.SOLV>
-0.365339

>  <SCORE.INTRA.SOLV.lig_0>
-22.5855

>  <SCORE.INTRA.VDW>
0.0951409

>  <SCORE.INTRA.VDW.0>
-0.733656

>  <SCORE.INTRA.norm>
0.127491

>  <SCORE.RESTR>
0

>  <SCORE.RESTR.CAVITY>
0

>  <SCORE.RESTR.norm>
0

>  <SCORE.SYSTEM>
0

>  <SCORE.SYSTEM.CONST>
0

>  <SCORE.SYSTEM.DIHEDRAL>
0

>  <SCORE.SYSTEM.SOLV>
0

>  <SCORE.SYSTEM.norm>
0

>  <SCORE.heavy>
13

>  <SCORE.norm>
-3.47684

>  <RMSD>
0.495

$$$$
lig.pdb
 OpenBabel11021811453D
libRbt.so/2013.1/901 2013/11/27
 13 14  0  0  0  0  0  0  0  0999 V2000
  -11.0189    4.0763   -7.0985 N   0  0  0  0  0  0  0  0  0  0  0  0
  -11.0719    3.6335   -8.3898 C   0  0  0  0  0  0  0  0  0  0  0  0
   -9.9577    3.3897   -9.0563 N   0  0  0  0  0  0  0  0  0  0  0  0
   -8.7218    3.5672   -8.4973 C   0  0  0  0  0  0  0  0  0  0  0  0
   -8.6086    4.0301   -7.1639 C   0  0  0  0  0  0  0  0  0  0  0  0
   -9.8178    4.2900   -6.4511 C   0  0  0  0  0  0  0  0  0  0  0  0
   -9.7911    4.6918   -5.3010 O   0  0  0  0  0  0  0  0  0  0  0  0
   -7.1727    4.1225   -6.8749 C   0  0  0  0  0  0  0  0  0  0  0  0
   -6.5190    4.5834   -5.5990 C   0  0  0  0  0  0  0  0  0  0  0  0
   -6.5092    6.0516   -5.5538 N   0  0  0  0  0  0  0  0  0  0  0  0
   -6.5447    3.7163   -7.9853 C   0  0  0  0  0  0  0  0  0  0  0  0
   -7.4538    3.3907   -8.9563 N   0  0  0  0  0  0  0  0  0  0  0  0
  -12.2877    3.4426   -8.9943 N   0  0  0  0  0  0  0  0  0  0  0  0
  1  6  1  0  0  0  0
  2  1  1  0  0  0  0
  3  4  1  0  0  0  0
  3  2  2  0  0  0  0
  4  5  2  0  0  0  0
  5  8  1  0  0  0  0
  5  6  1  0  0  0  0
  6  7  2  0  0  0  0
  8  9  1  0  0  0  0
  9 10  1  0  0  0  0
 11  8  2  0  0  0  0
 12  4  1  0  0  0  0
 12 11  1  0  0  0  0
 13  2  1  0  0  0  0
M  END
>  <CHROM.1>
-80.04506508,49.40598915,-8.91821317,4.10824744,-7.35615868,2.62900351,-0.04008912
-2.02162654

>  <Name>
lig.pdb

>  <RI>
2.60406e+07

>  <Rbt.Current_Directory>
/home/itssahil/PROJECTS/Mol_Feturizer/New_Systems/rnas/2miy

>  <Rbt.Executable>
rbdock ($Id: //depot/dev/client3/rdock/2013.1/src/exe/rbdock.cxx#4 $)

>  <Rbt.Library>
libRbt.so (2013.1, Build901 2013/11/27)

>  <Rbt.Parameter_File>
/export/apps/rDock/src/rDock_2013.1_src/data/scripts/dock_solv.prm

>  <Rbt.Receptor>
prm/pocket_docking_7.prm

>  <SCORE>
-44.6005

>  <SCORE.INTER>
-46.2383

>  <SCORE.INTER.CONST>
1

>  <SCORE.INTER.POLAR>
-5.24134

>  <SCORE.INTER.ROT>
2

>  <SCORE.INTER.SOLV>
18.6425

>  <SCORE.INTER.VDW>
-24.5019

>  <SCORE.INTER.norm>
-3.55679

>  <SCORE.INTRA>
1.63745

>  <SCORE.INTRA.DIHEDRAL>
0.2499

>  <SCORE.INTRA.DIHEDRAL.0>
1.76676

>  <SCORE.INTRA.POLAR>
0.472211

>  <SCORE.INTRA.POLAR.0>
-0.472211

>  <SCORE.INTRA.REPUL>
0

>  <SCORE.INTRA.REPUL.0>
0

>  <SCORE.INTRA.SOLV>
-0.350143

>  <SCORE.INTRA.SOLV.lig_0>
-22.5855

>  <SCORE.INTRA.VDW>
0.0820549

>  <SCORE.INTRA.VDW.0>
-0.733656

>  <SCORE.INTRA.norm>
0.125958

>  <SCORE.RESTR>
0.000325121

>  <SCORE.RESTR.CAVITY>
0.000325121

>  <SCORE.RESTR.norm>
2.50093e-05

>  <SCORE.SYSTEM>
0

>  <SCORE.SYSTEM.CONST>
0

>  <SCORE.SYSTEM.DIHEDRAL>
0

>  <SCORE.SYSTEM.SOLV>
0

>  <SCORE.SYSTEM.norm>
0

>  <SCORE.heavy>
13

>  <SCORE.norm>
-3.43081

>  <RMSD>
0.502

$$$$
lig.pdb
 OpenBabel11021811453D
libRbt.so/2013.1/901 2013/11/27
 13 14  0  0  0  0  0  0  0  0999 V2000
  -11.1393    3.8324   -7.0115 N   0  0  0  0  0  0  0  0  0  0  0  0
  -11.2248    3.3997   -8.3045 C   0  0  0  0  0  0  0  0  0  0  0  0
  -10.1303    3.2385   -9.0263 N   0  0  0  0  0  0  0  0  0  0  0  0
   -8.8835    3.4938   -8.5245 C   0  0  0  0  0  0  0  0  0  0  0  0
   -8.7373    3.9501   -7.1919 C   0  0  0  0  0  0  0  0  0  0  0  0
   -9.9254    4.1205   -6.4192 C   0  0  0  0  0  0  0  0  0  0  0  0
   -9.8702    4.5118   -5.2664 O   0  0  0  0  0  0  0  0  0  0  0  0
   -7.2985    4.1367   -6.9704 C   0  0  0  0  0  0  0  0  0  0  0  0
   -6.6164    4.6282   -5.7211 C   0  0  0  0  0  0  0  0  0  0  0  0
   -5.9559    5.9116   -5.9937 N   0  0  0  0  0  0  0  0  0  0  0  0
   -6.6991    3.7849   -8.1146 C   0  0  0  0  0  0  0  0  0  0  0  0
   -7.6302    3.4081   -9.0454 N   0  0  0  0  0  0  0  0  0  0  0  0
  -12.4528    3.1329   -8.8528 N   0  0  0  0  0  0  0  0  0  0  0  0
  1  6  1  0  0  0  0
  2  1  1  0  0  0  0
  3  4  1  0  0  0  0
  3  2  2  0  0  0  0
  4  5  2  0  0  0  0
  5  8  1  0  0  0  0
  5  6  1  0  0  0  0
  6  7  2  0  0  0  0
  8  9  1  0  0  0  0
  9 10  1  0  0  0  0
 11  8  2  0  0  0  0
 12  4  1  0  0  0  0
 12 11  1  0  0  0  0
 13  2  1  0  0  0  0
M  END
>  <CHROM.1>
-115.34158086,-114.51454243,-8.99071565,3.99209781,-7.39947846,2.71306948
-0.13935993,-1.97163016

>  <Name>
lig.pdb

>  <RI>
0

>  <Rbt.Current_Directory>
/home/itssahil/PROJECTS/Mol_Feturizer/New_Systems/rnas/2miy

>  <Rbt.Executable>
rbdock ($Id: //depot/dev/client3/rdock/2013.1/src/exe/rbdock.cxx#4 $)

>  <Rbt.Library>
libRbt.so (2013.1, Build901 2013/11/27)

>  <Rbt.Parameter_File>
/export/apps/rDock/src/rDock_2013.1_src/data/scripts/dock_solv.prm

>  <Rbt.Receptor>
prm/blind_docking_60.prm

>  <SCORE>
-40.6703

>  <SCORE.INTER>
-45.47

>  <SCORE.INTER.CONST>
1

>  <SCORE.INTER.POLAR>
-4.74554

>  <SCORE.INTER.ROT>
2

>  <SCORE.INTER.SOLV>
20.2162

>  <SCORE.INTER.VDW>
-26.1669

>  <SCORE.INTER.norm>
-3.49769

>  <SCORE.INTRA>
2.46409

>  <SCORE.INTRA.DIHEDRAL>
1.85245

>  <SCORE.INTRA.DIHEDRAL.0>
1.76676

>  <SCORE.INTRA.POLAR>
0.472211

>  <SCORE.INTRA.POLAR.0>
-0.472211

>  <SCORE.INTRA.REPUL>
0

>  <SCORE.INTRA.REPUL.0>
0

>  <SCORE.INTRA.SOLV>
-0.613365

>  <SCORE.INTRA.SOLV.lig_0>
-22.5855

>  <SCORE.INTRA.VDW>
0.239027

>  <SCORE.INTRA.VDW.0>
-0.733656

>  <SCORE.INTRA.norm>
0.189545

>  <SCORE.RESTR>
2.33558

>  <SCORE.RESTR.CAVITY>
2.33558

>  <SCORE.RESTR.norm>
0.17966

>  <SCORE.SYSTEM>
0

>  <SCORE.SYSTEM.CONST>
0

>  <SCORE.SYSTEM.DIHEDRAL>
0

>  <SCORE.SYSTEM.SOLV>
0

>  <SCORE.SYSTEM.norm>
0

>  <SCORE.heavy>
13

>  <SCORE.norm>
-3.12848

>  <RMSD>
0.563

$$$$
lig.pdb
 OpenBabel11021811453D
libRbt.so/2013.1/901 2013/11/27
 13 14  0  0  0  0  0  0  0  0999 V2000
  -11.1098    3.9832   -7.0068 N   0  0  0  0  0  0  0  0  0  0  0  0
  -11.1791    3.4757   -8.2733 C   0  0  0  0  0  0  0  0  0  0  0  0
  -10.0745    3.2516   -8.9621 N   0  0  0  0  0  0  0  0  0  0  0  0
   -8.8327    3.5137   -8.4513 C   0  0  0  0  0  0  0  0  0  0  0  0
   -8.7031    4.0460   -7.1456 C   0  0  0  0  0  0  0  0  0  0  0  0
   -9.9021    4.2839   -6.4083 C   0  0  0  0  0  0  0  0  0  0  0  0
   -9.8612    4.7423   -5.2800 O   0  0  0  0  0  0  0  0  0  0  0  0
   -7.2654    4.2192   -6.9066 C   0  0  0  0  0  0  0  0  0  0  0  0
   -6.5977    4.7719   -5.6752 C   0  0  0  0  0  0  0  0  0  0  0  0
   -5.8309    5.9738   -6.0289 N   0  0  0  0  0  0  0  0  0  0  0  0
   -6.6513    3.7888   -8.0156 C   0  0  0  0  0  0  0  0  0  0  0  0
   -7.5717    3.3741   -8.9409 N   0  0  0  0  0  0  0  0  0  0  0  0
  -12.4015    3.1991   -8.8294 N   0  0  0  0  0  0  0  0  0  0  0  0
  1  6  1  0  0  0  0
  2  1  1  0  0  0  0
  3  4  1  0  0  0  0
  3  2  2  0  0  0  0
  4  5  2  0  0  0  0
  5  8  1  0  0  0  0
  5  6  1  0  0  0  0
  6  7  2  0  0  0  0
  8  9  1  0  0  0  0
  9 10  1  0  0  0  0
 11  8  2  0  0  0  0
 12  4  1  0  0  0  0
 12 11  1  0  0  0  0
 13  2  1  0  0  0  0
M  END
>  <CHROM.1>
-119.21760013,130.90560615,-8.94452945,4.07540906,-7.36216494,2.70978455
-0.11457011,-2.02691652

>  <Name>
lig.pdb

>  <RI>
2.68696e+07

>  <Rbt.Current_Directory>
/home/itssahil/PROJECTS/Mol_Feturizer/New_Systems/rnas/2miy

>  <Rbt.Executable>
rbdock ($Id: //depot/dev/client3/rdock/2013.1/src/exe/rbdock.cxx#4 $)

>  <Rbt.Library>
libRbt.so (2013.1, Build901 2013/11/27)

>  <Rbt.Parameter_File>
/export/apps/rDock/src/rDock_2013.1_src/data/scripts/dock_solv.prm

>  <Rbt.Receptor>
prm/pocket_docking_4.prm

>  <SCORE>
-45.0439

>  <SCORE.INTER>
-47.5599

>  <SCORE.INTER.CONST>
1

>  <SCORE.INTER.POLAR>
-5.40329

>  <SCORE.INTER.ROT>
2

>  <SCORE.INTER.SOLV>
20.335

>  <SCORE.INTER.VDW>
-25.4073

>  <SCORE.INTER.norm>
-3.65845

>  <SCORE.INTRA>
2.51602

>  <SCORE.INTRA.DIHEDRAL>
1.8897

>  <SCORE.INTRA.DIHEDRAL.0>
1.76676

>  <SCORE.INTRA.POLAR>
0.472211

>  <SCORE.INTRA.POLAR.0>
-0.472211

>  <SCORE.INTRA.REPUL>
0

>  <SCORE.INTRA.REPUL.0>
0

>  <SCORE.INTRA.SOLV>
-0.627343

>  <SCORE.INTRA.SOLV.lig_0>
-22.5855

>  <SCORE.INTRA.VDW>
0.279324

>  <SCORE.INTRA.VDW.0>
-0.733656

>  <SCORE.INTRA.norm>
0.19354

>  <SCORE.RESTR>
0

>  <SCORE.RESTR.CAVITY>
0

>  <SCORE.RESTR.norm>
0

>  <SCORE.SYSTEM>
0

>  <SCORE.SYSTEM.CONST>
0

>  <SCORE.SYSTEM.DIHEDRAL>
0

>  <SCORE.SYSTEM.SOLV>
0

>  <SCORE.SYSTEM.norm>
0

>  <SCORE.heavy>
13

>  <SCORE.norm>
-3.46491

>  <RMSD>
0.574

$$$$
lig.pdb
 OpenBabel11021811453D
libRbt.so/2013.1/901 2013/11/27
 13 14  0  0  0  0  0  0  0  0999 V2000
  -11.1087    3.9838   -7.0076 N   0  0  0  0  0  0  0  0  0  0  0  0
  -11.1731    3.4772   -8.2747 C   0  0  0  0  0  0  0  0  0  0  0  0
  -10.0659    3.2570   -8.9606 N   0  0  0  0  0  0  0  0  0  0  0  0
   -8.8263    3.5223   -8.4464 C   0  0  0  0  0  0  0  0  0  0  0  0
   -8.7018    4.0540   -7.1398 C   0  0  0  0  0  0  0  0  0  0  0  0
   -9.9034    4.2877   -6.4056 C   0  0  0  0  0  0  0  0  0  0  0  0
   -9.8670    4.7453   -5.2768 O   0  0  0  0  0  0  0  0  0  0  0  0
   -7.2653    4.2312   -6.8969 C   0  0  0  0  0  0  0  0  0  0  0  0
   -6.6025    4.7849   -5.6632 C   0  0  0  0  0  0  0  0  0  0  0  0
   -5.8184    5.9752   -6.0182 N   0  0  0  0  0  0  0  0  0  0  0  0
   -6.6469    3.8036   -8.0045 C   0  0  0  0  0  0  0  0  0  0  0  0
   -7.5635    3.3869   -8.9327 N   0  0  0  0  0  0  0  0  0  0  0  0
  -12.3931    3.1974   -8.8343 N   0  0  0  0  0  0  0  0  0  0  0  0
  1  6  1  0  0  0  0
  2  1  1  0  0  0  0
  3  4  1  0  0  0  0
  3  2  2  0  0  0  0
  4  5  2  0  0  0  0
  5  8  1  0  0  0  0
  5  6  1  0  0  0  0
  6  7  2  0  0  0  0
  8  9  1  0  0  0  0
  9 10  1  0  0  0  0
 11  8  2  0  0  0  0
 12  4  1  0  0  0  0
 12 11  1  0  0  0  0
 13  2  1  0  0  0  0
M  END
>  <CHROM.1>
-120.24666762,-46.07694146,-8.94075234,4.08143604,-7.35735188,2.70781600
-0.11586407,-2.02492190

>  <Name>
lig.pdb

>  <RI>
9.06885e+06

>  <Rbt.Current_Directory>
/home/itssahil/PROJECTS/Mol_Feturizer/New_Systems/rnas/2miy

>  <Rbt.Executable>
rbdock ($Id: //depot/dev/client3/rdock/2013.1/src/exe/rbdock.cxx#4 $)

>  <Rbt.Library>
libRbt.so (2013.1, Build901 2013/11/27)

>  <Rbt.Parameter_File>
/export/apps/rDock/src/rDock_2013.1_src/data/scripts/dock_solv.prm

>  <Rbt.Receptor>
prm/pocket_docking_6.prm

>  <SCORE>
-45.109

>  <SCORE.INTER>
-47.6176

>  <SCORE.INTER.CONST>
1

>  <SCORE.INTER.POLAR>
-5.4033

>  <SCORE.INTER.ROT>
2

>  <SCORE.INTER.SOLV>
20.3642

>  <SCORE.INTER.VDW>
-25.4554

>  <SCORE.INTER.norm>
-3.66289

>  <SCORE.INTRA>
2.50852

>  <SCORE.INTRA.DIHEDRAL>
1.85215

>  <SCORE.INTRA.DIHEDRAL.0>
1.76676

>  <SCORE.INTRA.POLAR>
0.472211

>  <SCORE.INTRA.POLAR.0>
-0.472211

>  <SCORE.INTRA.REPUL>
0

>  <SCORE.INTRA.REPUL.0>
0

>  <SCORE.INTRA.SOLV>
-0.630953

>  <SCORE.INTRA.SOLV.lig_0>
-22.5855

>  <SCORE.INTRA.VDW>
0.2924

>  <SCORE.INTRA.VDW.0>
-0.733656

>  <SCORE.INTRA.norm>
0.192963

>  <SCORE.RESTR>
0

>  <SCORE.RESTR.CAVITY>
0

>  <SCORE.RESTR.norm>
0

>  <SCORE.SYSTEM>
0

>  <SCORE.SYSTEM.CONST>
0

>  <SCORE.SYSTEM.DIHEDRAL>
0

>  <SCORE.SYSTEM.SOLV>
0

>  <SCORE.SYSTEM.norm>
0

>  <SCORE.heavy>
13

>  <SCORE.norm>
-3.46993

>  <RMSD>
0.575

$$$$
lig.pdb
 OpenBabel11021811453D
libRbt.so/2013.1/901 2013/11/27
 13 14  0  0  0  0  0  0  0  0999 V2000
  -11.1055    3.9751   -7.0094 N   0  0  0  0  0  0  0  0  0  0  0  0
  -11.1686    3.4669   -8.2759 C   0  0  0  0  0  0  0  0  0  0  0  0
  -10.0608    3.2461   -8.9606 N   0  0  0  0  0  0  0  0  0  0  0  0
   -8.8217    3.5124   -8.4456 C   0  0  0  0  0  0  0  0  0  0  0  0
   -8.6985    4.0457   -7.1397 C   0  0  0  0  0  0  0  0  0  0  0  0
   -9.9008    4.2801   -6.4068 C   0  0  0  0  0  0  0  0  0  0  0  0
   -9.8654    4.7391   -5.2785 O   0  0  0  0  0  0  0  0  0  0  0  0
   -7.2622    4.2237   -6.8957 C   0  0  0  0  0  0  0  0  0  0  0  0
   -6.6007    4.7791   -5.6621 C   0  0  0  0  0  0  0  0  0  0  0  0
   -5.8244    5.9748   -6.0163 N   0  0  0  0  0  0  0  0  0  0  0  0
   -6.6428    3.7948   -8.0023 C   0  0  0  0  0  0  0  0  0  0  0  0
   -7.5585    3.3767   -8.9307 N   0  0  0  0  0  0  0  0  0  0  0  0
  -12.3881    3.1860   -8.8362 N   0  0  0  0  0  0  0  0  0  0  0  0
  1  6  1  0  0  0  0
  2  1  1  0  0  0  0
  3  4  1  0  0  0  0
  3  2  2  0  0  0  0
  4  5  2  0  0  0  0
  5  8  1  0  0  0  0
  5  6  1  0  0  0  0
  6  7  2  0  0  0  0
  8  9  1  0  0  0  0
  9 10  1  0  0  0  0
 11  8  2  0  0  0  0
 12  4  1  0  0  0  0
 12 11  1  0  0  0  0
 13  2  1  0  0  0  0
M  END
>  <CHROM.1>
-119.83926709,134.65597171,-8.93811791,4.07345932,-7.35736704,2.70617152
-0.11589906,-2.02683819

>  <Name>
lig.pdb

>  <RI>
2.68696e+07

>  <Rbt.Current_Directory>
/home/itssahil/PROJECTS/Mol_Feturizer/New_Systems/rnas/2miy

>  <Rbt.Executable>
rbdock ($Id: //depot/dev/client3/rdock/2013.1/src/exe/rbdock.cxx#4 $)

>  <Rbt.Library>
libRbt.so (2013.1, Build901 2013/11/27)

>  <Rbt.Parameter_File>
/export/apps/rDock/src/rDock_2013.1_src/data/scripts/dock_solv.prm

>  <Rbt.Receptor>
prm/pocket_docking_4.prm

>  <SCORE>
-45.0327

>  <SCORE.INTER>
-47.5642

>  <SCORE.INTER.CONST>
1

>  <SCORE.INTER.POLAR>
-5.37174

>  <SCORE.INTER.ROT>
2

>  <SCORE.INTER.SOLV>
20.3401

>  <SCORE.INTER.VDW>
-25.517

>  <SCORE.INTER.norm>
-3.65878

>  <SCORE.INTRA>
2.5315

>  <SCORE.INTRA.DIHEDRAL>
1.89482

>  <SCORE.INTRA.DIHEDRAL.0>
1.76676

>  <SCORE.INTRA.POLAR>
0.472211

>  <SCORE.INTRA.POLAR.0>
-0.472211

>  <SCORE.INTRA.REPUL>
0

>  <SCORE.INTRA.REPUL.0>
0

>  <SCORE.INTRA.SOLV>
-0.629024

>  <SCORE.INTRA.SOLV.lig_0>
-22.5855

>  <SCORE.INTRA.VDW>
0.293086

>  <SCORE.INTRA.VDW.0>
-0.733656

>  <SCORE.INTRA.norm>
0.194731

>  <SCORE.RESTR>
0

>  <SCORE.RESTR.CAVITY>
0

>  <SCORE.RESTR.norm>
0

>  <SCORE.SYSTEM>
0

>  <SCORE.SYSTEM.CONST>
0

>  <SCORE.SYSTEM.DIHEDRAL>
0

>  <SCORE.SYSTEM.SOLV>
0

>  <SCORE.SYSTEM.norm>
0

>  <SCORE.heavy>
13

>  <SCORE.norm>
-3.46405

>  <RMSD>
0.576

$$$$
lig.pdb
 OpenBabel11021811453D
libRbt.so/2013.1/901 2013/11/27
 13 14  0  0  0  0  0  0  0  0999 V2000
  -11.1185    3.9626   -7.0186 N   0  0  0  0  0  0  0  0  0  0  0  0
  -11.1818    3.4635   -8.2887 C   0  0  0  0  0  0  0  0  0  0  0  0
  -10.0740    3.2466   -8.9747 N   0  0  0  0  0  0  0  0  0  0  0  0
   -8.8348    3.5081   -8.4574 C   0  0  0  0  0  0  0  0  0  0  0  0
   -8.7114    4.0320   -7.1477 C   0  0  0  0  0  0  0  0  0  0  0  0
   -9.9138    4.2621   -6.4135 C   0  0  0  0  0  0  0  0  0  0  0  0
   -9.8783    4.7130   -5.2819 O   0  0  0  0  0  0  0  0  0  0  0  0
   -7.2751    4.2069   -6.9020 C   0  0  0  0  0  0  0  0  0  0  0  0
   -6.6134    4.7528   -5.6644 C   0  0  0  0  0  0  0  0  0  0  0  0
   -5.8212    5.9397   -6.0129 N   0  0  0  0  0  0  0  0  0  0  0  0
   -6.6557    3.7853   -8.0115 C   0  0  0  0  0  0  0  0  0  0  0  0
   -7.5716    3.3747   -8.9431 N   0  0  0  0  0  0  0  0  0  0  0  0
  -12.4014    3.1878   -8.8514 N   0  0  0  0  0  0  0  0  0  0  0  0
  1  6  1  0  0  0  0
  2  1  1  0  0  0  0
  3  4  1  0  0  0  0
  3  2  2  0  0  0  0
  4  5  2  0  0  0  0
  5  8  1  0  0  0  0
  5  6  1  0  0  0  0
  6  7  2  0  0  0  0
  8  9  1  0  0  0  0
  9 10  1  0  0  0  0
 11  8  2  0  0  0  0
 12  4  1  0  0  0  0
 12 11  1  0  0  0  0
 13  2  1  0  0  0  0
M  END
>  <CHROM.1>
-120.60360032,-39.66549982,-8.94949061,4.06040696,-7.36543645,2.70754271
-0.11487288,-2.01825886

>  <Name>
lig.pdb

>  <RI>
0

>  <Rbt.Current_Directory>
/home/itssahil/PROJECTS/Mol_Feturizer/New_Systems/rnas/2miy

>  <Rbt.Executable>
rbdock ($Id: //depot/dev/client3/rdock/2013.1/src/exe/rbdock.cxx#4 $)

>  <Rbt.Library>
libRbt.so (2013.1, Build901 2013/11/27)

>  <Rbt.Parameter_File>
/export/apps/rDock/src/rDock_2013.1_src/data/scripts/dock_solv.prm

>  <Rbt.Receptor>
prm/pocket_docking_2.prm

>  <SCORE>
-44.6039

>  <SCORE.INTER>
-47.5561

>  <SCORE.INTER.CONST>
1

>  <SCORE.INTER.POLAR>
-5.37289

>  <SCORE.INTER.ROT>
2

>  <SCORE.INTER.SOLV>
20.3413

>  <SCORE.INTER.VDW>
-25.5082

>  <SCORE.INTER.norm>
-3.65816

>  <SCORE.INTRA>
2.52578

>  <SCORE.INTRA.DIHEDRAL>
1.84537

>  <SCORE.INTRA.DIHEDRAL.0>
1.76676

>  <SCORE.INTRA.POLAR>
0.472211

>  <SCORE.INTRA.POLAR.0>
-0.472211

>  <SCORE.INTRA.REPUL>
0

>  <SCORE.INTRA.REPUL.0>
0

>  <SCORE.INTRA.SOLV>
-0.631067

>  <SCORE.INTRA.SOLV.lig_0>
-22.5855

>  <SCORE.INTRA.VDW>
0.313106

>  <SCORE.INTRA.VDW.0>
-0.733656

>  <SCORE.INTRA.norm>
0.19429

>  <SCORE.RESTR>
0.426364

>  <SCORE.RESTR.CAVITY>
0.426364

>  <SCORE.RESTR.norm>
0.0327973

>  <SCORE.SYSTEM>
0

>  <SCORE.SYSTEM.CONST>
0

>  <SCORE.SYSTEM.DIHEDRAL>
0

>  <SCORE.SYSTEM.SOLV>
0

>  <SCORE.SYSTEM.norm>
0

>  <SCORE.heavy>
13

>  <SCORE.norm>
-3.43107

>  <RMSD>
0.579

$$$$
lig.pdb
 OpenBabel11021811453D
libRbt.so/2013.1/901 2013/11/27
 13 14  0  0  0  0  0  0  0  0999 V2000
  -11.1016    3.9890   -7.0193 N   0  0  0  0  0  0  0  0  0  0  0  0
  -11.1633    3.4887   -8.2891 C   0  0  0  0  0  0  0  0  0  0  0  0
  -10.0548    3.2740   -8.9746 N   0  0  0  0  0  0  0  0  0  0  0  0
   -8.8164    3.5388   -8.4572 C   0  0  0  0  0  0  0  0  0  0  0  0
   -8.6946    4.0641   -7.1478 C   0  0  0  0  0  0  0  0  0  0  0  0
   -9.8977    4.2920   -6.4141 C   0  0  0  0  0  0  0  0  0  0  0  0
   -9.8636    4.7439   -5.2829 O   0  0  0  0  0  0  0  0  0  0  0  0
   -7.2587    4.2426   -6.9019 C   0  0  0  0  0  0  0  0  0  0  0  0
   -6.5987    4.7912   -5.6646 C   0  0  0  0  0  0  0  0  0  0  0  0
   -5.8087    5.9793   -6.0140 N   0  0  0  0  0  0  0  0  0  0  0  0
   -6.6380    3.8217   -8.0109 C   0  0  0  0  0  0  0  0  0  0  0  0
   -7.5527    3.4081   -8.9425 N   0  0  0  0  0  0  0  0  0  0  0  0
  -12.3820    3.2096   -8.8518 N   0  0  0  0  0  0  0  0  0  0  0  0
  1  6  1  0  0  0  0
  2  1  1  0  0  0  0
  3  4  1  0  0  0  0
  3  2  2  0  0  0  0
  4  5  2  0  0  0  0
  5  8  1  0  0  0  0
  5  6  1  0  0  0  0
  6  7  2  0  0  0  0
  8  9  1  0  0  0  0
  9 10  1  0  0  0  0
 11  8  2  0  0  0  0
 12  4  1  0  0  0  0
 12 11  1  0  0  0  0
 13  2  1  0  0  0  0
M  END
>  <CHROM.1>
-120.63376068,-46.52056147,-8.93260825,4.09174867,-7.36569597,2.70649059
-0.11673086,-2.01959339

>  <Name>
lig.pdb

>  <RI>
1.51961e+07

>  <Rbt.Current_Directory>
/home/itssahil/PROJECTS/Mol_Feturizer/New_Systems/rnas/2miy

>  <Rbt.Executable>
rbdock ($Id: //depot/dev/client3/rdock/2013.1/src/exe/rbdock.cxx#4 $)

>  <Rbt.Library>
libRbt.so (2013.1, Build901 2013/11/27)

>  <Rbt.Parameter_File>
/export/apps/rDock/src/rDock_2013.1_src/data/scripts/dock_solv.prm

>  <Rbt.Receptor>
prm/pocket_docking_3.prm

>  <SCORE>
-45.0171

>  <SCORE.INTER>
-47.5504

>  <SCORE.INTER.CONST>
1

>  <SCORE.INTER.POLAR>
-5.39527

>  <SCORE.INTER.ROT>
2

>  <SCORE.INTER.SOLV>
20.405

>  <SCORE.INTER.VDW>
-25.4511

>  <SCORE.INTER.norm>
-3.65773

>  <SCORE.INTRA>
2.50928

>  <SCORE.INTRA.DIHEDRAL>
1.85194

>  <SCORE.INTRA.DIHEDRAL.0>
1.76676

>  <SCORE.INTRA.POLAR>
0.472211

>  <SCORE.INTRA.POLAR.0>
-0.472211

>  <SCORE.INTRA.REPUL>
0

>  <SCORE.INTRA.REPUL.0>
0

>  <SCORE.INTRA.SOLV>
-0.631972

>  <SCORE.INTRA.SOLV.lig_0>
-22.5855

>  <SCORE.INTRA.VDW>
0.293773

>  <SCORE.INTRA.VDW.0>
-0.733656

>  <SCORE.INTRA.norm>
0.193021

>  <SCORE.RESTR>
0.0240274

>  <SCORE.RESTR.CAVITY>
0.0240274

>  <SCORE.RESTR.norm>
0.00184826

>  <SCORE.SYSTEM>
0

>  <SCORE.SYSTEM.CONST>
0

>  <SCORE.SYSTEM.DIHEDRAL>
0

>  <SCORE.SYSTEM.SOLV>
0

>  <SCORE.SYSTEM.norm>
0

>  <SCORE.heavy>
13

>  <SCORE.norm>
-3.46286

>  <RMSD>
0.579

$$$$
lig.pdb
 OpenBabel11021811453D
libRbt.so/2013.1/901 2013/11/27
 13 14  0  0  0  0  0  0  0  0999 V2000
  -10.8667    4.3817   -7.1111 N   0  0  0  0  0  0  0  0  0  0  0  0
  -10.9755    3.6556   -8.2632 C   0  0  0  0  0  0  0  0  0  0  0  0
   -9.8913    3.2712   -8.9126 N   0  0  0  0  0  0  0  0  0  0  0  0
   -8.6327    3.5773   -8.4727 C   0  0  0  0  0  0  0  0  0  0  0  0
   -8.4621    4.3328   -7.2873 C   0  0  0  0  0  0  0  0  0  0  0  0
   -9.6391    4.7430   -6.5916 C   0  0  0  0  0  0  0  0  0  0  0  0
   -9.5629    5.3968   -5.5660 O   0  0  0  0  0  0  0  0  0  0  0  0
   -7.0154    4.4952   -7.1008 C   0  0  0  0  0  0  0  0  0  0  0  0
   -6.3078    5.2381   -5.9984 C   0  0  0  0  0  0  0  0  0  0  0  0
   -7.1089    6.4020   -5.5966 N   0  0  0  0  0  0  0  0  0  0  0  0
   -6.4358    3.8492   -8.1200 C   0  0  0  0  0  0  0  0  0  0  0  0
   -7.3859    3.3064   -8.9436 N   0  0  0  0  0  0  0  0  0  0  0  0
  -12.2161    3.3264   -8.7452 N   0  0  0  0  0  0  0  0  0  0  0  0
  1  6  1  0  0  0  0
  2  1  1  0  0  0  0
  3  4  1  0  0  0  0
  3  2  2  0  0  0  0
  4  5  2  0  0  0  0
  5  8  1  0  0  0  0
  5  6  1  0  0  0  0
  6  7  2  0  0  0  0
  8  9  1  0  0  0  0
  9 10  1  0  0  0  0
 11  8  2  0  0  0  0
 12  4  1  0  0  0  0
 12 11  1  0  0  0  0
 13  2  1  0  0  0  0
M  END
>  <CHROM.1>
-33.85354195,59.40795862,-8.85557392,4.33784661,-7.41159262,2.60646755,-0.03811197
-2.21559428

>  <Name>
lig.pdb

>  <RI>
2.60406e+07

>  <Rbt.Current_Directory>
/home/itssahil/PROJECTS/Mol_Feturizer/New_Systems/rnas/2miy

>  <Rbt.Executable>
rbdock ($Id: //depot/dev/client3/rdock/2013.1/src/exe/rbdock.cxx#4 $)

>  <Rbt.Library>
libRbt.so (2013.1, Build901 2013/11/27)

>  <Rbt.Parameter_File>
/export/apps/rDock/src/rDock_2013.1_src/data/scripts/dock_solv.prm

>  <Rbt.Receptor>
prm/pocket_docking_7.prm

>  <SCORE>
-48.7584

>  <SCORE.INTER>
-48.2423

>  <SCORE.INTER.CONST>
1

>  <SCORE.INTER.POLAR>
-5.02054

>  <SCORE.INTER.ROT>
2

>  <SCORE.INTER.SOLV>
18.5786

>  <SCORE.INTER.VDW>
-26.5526

>  <SCORE.INTER.norm>
-3.71094

>  <SCORE.INTRA>
-0.608326

>  <SCORE.INTRA.DIHEDRAL>
0.542762

>  <SCORE.INTRA.DIHEDRAL.0>
1.76676

>  <SCORE.INTRA.POLAR>
-0.343011

>  <SCORE.INTRA.POLAR.0>
-0.472211

>  <SCORE.INTRA.REPUL>
0

>  <SCORE.INTRA.REPUL.0>
0

>  <SCORE.INTRA.SOLV>
0.0978408

>  <SCORE.INTRA.SOLV.lig_0>
-22.5855

>  <SCORE.INTRA.VDW>
0.237609

>  <SCORE.INTRA.VDW.0>
-0.733656

>  <SCORE.INTRA.norm>
-0.0467943

>  <SCORE.RESTR>
0.0921696

>  <SCORE.RESTR.CAVITY>
0.0921696

>  <SCORE.RESTR.norm>
0.00708997

>  <SCORE.SYSTEM>
0

>  <SCORE.SYSTEM.CONST>
0

>  <SCORE.SYSTEM.DIHEDRAL>
0

>  <SCORE.SYSTEM.SOLV>
0

>  <SCORE.SYSTEM.norm>
0

>  <SCORE.heavy>
13

>  <SCORE.norm>
-3.75065

>  <RMSD>
0.581

$$$$
lig.pdb
 OpenBabel11021811453D
libRbt.so/2013.1/901 2013/11/27
 13 14  0  0  0  0  0  0  0  0999 V2000
  -10.8618    4.3870   -7.1129 N   0  0  0  0  0  0  0  0  0  0  0  0
  -10.9708    3.6614   -8.2653 C   0  0  0  0  0  0  0  0  0  0  0  0
   -9.8869    3.2772   -8.9151 N   0  0  0  0  0  0  0  0  0  0  0  0
   -8.6281    3.5830   -8.4754 C   0  0  0  0  0  0  0  0  0  0  0  0
   -8.4572    4.3380   -7.2897 C   0  0  0  0  0  0  0  0  0  0  0  0
   -9.6340    4.7480   -6.5936 C   0  0  0  0  0  0  0  0  0  0  0  0
   -9.5575    5.4014   -5.5678 O   0  0  0  0  0  0  0  0  0  0  0  0
   -7.0105    4.5003   -7.1035 C   0  0  0  0  0  0  0  0  0  0  0  0
   -6.3026    5.2428   -6.0010 C   0  0  0  0  0  0  0  0  0  0  0  0
   -7.1093    6.3995   -5.5901 N   0  0  0  0  0  0  0  0  0  0  0  0
   -6.4312    3.8547   -8.1231 C   0  0  0  0  0  0  0  0  0  0  0  0
   -7.3814    3.3122   -8.9467 N   0  0  0  0  0  0  0  0  0  0  0  0
  -12.2115    3.3324   -8.7472 N   0  0  0  0  0  0  0  0  0  0  0  0
  1  6  1  0  0  0  0
  2  1  1  0  0  0  0
  3  4  1  0  0  0  0
  3  2  2  0  0  0  0
  4  5  2  0  0  0  0
  5  8  1  0  0  0  0
  5  6  1  0  0  0  0
  6  7  2  0  0  0  0
  8  9  1  0  0  0  0
  9 10  1  0  0  0  0
 11  8  2  0  0  0  0
 12  4  1  0  0  0  0
 12 11  1  0  0  0  0
 13  2  1  0  0  0  0
M  END
>  <CHROM.1>
-33.33620464,59.08771784,-8.85125062,4.34251735,-7.41316565,2.60629613,-0.03790045
-2.21427726

>  <Name>
lig.pdb

>  <RI>
2.60406e+07

>  <Rbt.Current_Directory>
/home/itssahil/PROJECTS/Mol_Feturizer/New_Systems/rnas/2miy

>  <Rbt.Executable>
rbdock ($Id: //depot/dev/client3/rdock/2013.1/src/exe/rbdock.cxx#4 $)

>  <Rbt.Library>
libRbt.so (2013.1, Build901 2013/11/27)

>  <Rbt.Parameter_File>
/export/apps/rDock/src/rDock_2013.1_src/data/scripts/dock_solv.prm

>  <Rbt.Receptor>
prm/pocket_docking_7.prm

>  <SCORE>
-48.7855

>  <SCORE.INTER>
-48.2894

>  <SCORE.INTER.CONST>
1

>  <SCORE.INTER.POLAR>
-5.02259

>  <SCORE.INTER.ROT>
2

>  <SCORE.INTER.SOLV>
18.5826

>  <SCORE.INTER.VDW>
-26.5785

>  <SCORE.INTER.norm>
-3.71457

>  <SCORE.INTRA>
-0.593951

>  <SCORE.INTRA.DIHEDRAL>
0.572485

>  <SCORE.INTRA.DIHEDRAL.0>
1.76676

>  <SCORE.INTRA.POLAR>
-0.349726

>  <SCORE.INTRA.POLAR.0>
-0.472211

>  <SCORE.INTRA.REPUL>
0

>  <SCORE.INTRA.REPUL.0>
0

>  <SCORE.INTRA.SOLV>
0.10231

>  <SCORE.INTRA.SOLV.lig_0>
-22.5855

>  <SCORE.INTRA.VDW>
0.257718

>  <SCORE.INTRA.VDW.0>
-0.733656

>  <SCORE.INTRA.norm>
-0.0456886

>  <SCORE.RESTR>
0.0977967

>  <SCORE.RESTR.CAVITY>
0.0977967

>  <SCORE.RESTR.norm>
0.00752283

>  <SCORE.SYSTEM>
0

>  <SCORE.SYSTEM.CONST>
0

>  <SCORE.SYSTEM.DIHEDRAL>
0

>  <SCORE.SYSTEM.SOLV>
0

>  <SCORE.SYSTEM.norm>
0

>  <SCORE.heavy>
13

>  <SCORE.norm>
-3.75273

>  <RMSD>
0.585

$$$$
lig.pdb
 OpenBabel11021811453D
libRbt.so/2013.1/901 2013/11/27
 13 14  0  0  0  0  0  0  0  0999 V2000
  -10.8679    4.3858   -7.1260 N   0  0  0  0  0  0  0  0  0  0  0  0
  -10.9718    3.6623   -8.2802 C   0  0  0  0  0  0  0  0  0  0  0  0
   -9.8850    3.2809   -8.9269 N   0  0  0  0  0  0  0  0  0  0  0  0
   -8.6282    3.5875   -8.4821 C   0  0  0  0  0  0  0  0  0  0  0  0
   -8.4626    4.3404   -7.2942 C   0  0  0  0  0  0  0  0  0  0  0  0
   -9.6425    4.7474   -6.6015 C   0  0  0  0  0  0  0  0  0  0  0  0
   -9.5706    5.3988   -5.5742 O   0  0  0  0  0  0  0  0  0  0  0  0
   -7.0168    4.5043   -7.1025 C   0  0  0  0  0  0  0  0  0  0  0  0
   -6.3139    5.2454   -5.9960 C   0  0  0  0  0  0  0  0  0  0  0  0
   -7.1261    6.3972   -5.5821 N   0  0  0  0  0  0  0  0  0  0  0  0
   -6.4330    3.8614   -8.1213 C   0  0  0  0  0  0  0  0  0  0  0  0
   -7.3795    3.3194   -8.9494 N   0  0  0  0  0  0  0  0  0  0  0  0
  -12.2104    3.3326   -8.7673 N   0  0  0  0  0  0  0  0  0  0  0  0
  1  6  1  0  0  0  0
  2  1  1  0  0  0  0
  3  4  1  0  0  0  0
  3  2  2  0  0  0  0
  4  5  2  0  0  0  0
  5  8  1  0  0  0  0
  5  6  1  0  0  0  0
  6  7  2  0  0  0  0
  8  9  1  0  0  0  0
  9 10  1  0  0  0  0
 11  8  2  0  0  0  0
 12  4  1  0  0  0  0
 12 11  1  0  0  0  0
 13  2  1  0  0  0  0
M  END
>  <CHROM.1>
-33.11789184,-121.88444001,-8.85643429,4.34429121,-7.41858761,2.60225721
-0.03666236,-2.21193051

>  <Name>
lig.pdb

>  <RI>
2.60406e+07

>  <Rbt.Current_Directory>
/home/itssahil/PROJECTS/Mol_Feturizer/New_Systems/rnas/2miy

>  <Rbt.Executable>
rbdock ($Id: //depot/dev/client3/rdock/2013.1/src/exe/rbdock.cxx#4 $)

>  <Rbt.Library>
libRbt.so (2013.1, Build901 2013/11/27)

>  <Rbt.Parameter_File>
/export/apps/rDock/src/rDock_2013.1_src/data/scripts/dock_solv.prm

>  <Rbt.Receptor>
prm/pocket_docking_7.prm

>  <SCORE>
-48.7248

>  <SCORE.INTER>
-48.2214

>  <SCORE.INTER.CONST>
1

>  <SCORE.INTER.POLAR>
-4.98805

>  <SCORE.INTER.ROT>
2

>  <SCORE.INTER.SOLV>
18.5867

>  <SCORE.INTER.VDW>
-26.6497

>  <SCORE.INTER.norm>
-3.70934

>  <SCORE.INTRA>
-0.589475

>  <SCORE.INTRA.DIHEDRAL>
0.581952

>  <SCORE.INTRA.DIHEDRAL.0>
1.76676

>  <SCORE.INTRA.POLAR>
-0.35276

>  <SCORE.INTRA.POLAR.0>
-0.472211

>  <SCORE.INTRA.REPUL>
0

>  <SCORE.INTRA.REPUL.0>
0

>  <SCORE.INTRA.SOLV>
0.103547

>  <SCORE.INTRA.SOLV.lig_0>
-22.5855

>  <SCORE.INTRA.VDW>
0.26716

>  <SCORE.INTRA.VDW.0>
-0.733656

>  <SCORE.INTRA.norm>
-0.0453443

>  <SCORE.RESTR>
0.0860848

>  <SCORE.RESTR.CAVITY>
0.0860848

>  <SCORE.RESTR.norm>
0.0066219

>  <SCORE.SYSTEM>
0

>  <SCORE.SYSTEM.CONST>
0

>  <SCORE.SYSTEM.DIHEDRAL>
0

>  <SCORE.SYSTEM.SOLV>
0

>  <SCORE.SYSTEM.norm>
0

>  <SCORE.heavy>
13

>  <SCORE.norm>
-3.74806

>  <RMSD>
0.586

$$$$
lig.pdb
 OpenBabel11021811453D
libRbt.so/2013.1/901 2013/11/27
 13 14  0  0  0  0  0  0  0  0999 V2000
  -10.8864    4.3755   -7.0722 N   0  0  0  0  0  0  0  0  0  0  0  0
  -10.9943    3.7271   -8.2698 C   0  0  0  0  0  0  0  0  0  0  0  0
   -9.9096    3.3835   -8.9408 N   0  0  0  0  0  0  0  0  0  0  0  0
   -8.6512    3.6568   -8.4791 C   0  0  0  0  0  0  0  0  0  0  0  0
   -8.4815    4.3322   -7.2462 C   0  0  0  0  0  0  0  0  0  0  0  0
   -9.6592    4.6987   -6.5275 C   0  0  0  0  0  0  0  0  0  0  0  0
   -9.5837    5.2835   -5.4610 O   0  0  0  0  0  0  0  0  0  0  0  0
   -7.0349    4.4784   -7.0463 C   0  0  0  0  0  0  0  0  0  0  0  0
   -6.3281    5.1454   -5.8960 C   0  0  0  0  0  0  0  0  0  0  0  0
   -6.6936    6.5674   -5.8520 N   0  0  0  0  0  0  0  0  0  0  0  0
   -6.4546    3.8994   -8.1047 C   0  0  0  0  0  0  0  0  0  0  0  0
   -7.4040    3.4143   -8.9641 N   0  0  0  0  0  0  0  0  0  0  0  0
  -12.2346    3.4333   -8.7751 N   0  0  0  0  0  0  0  0  0  0  0  0
  1  6  1  0  0  0  0
  2  1  1  0  0  0  0
  3  4  1  0  0  0  0
  3  2  2  0  0  0  0
  4  5  2  0  0  0  0
  5  8  1  0  0  0  0
  5  6  1  0  0  0  0
  6  7  2  0  0  0  0
  8  9  1  0  0  0  0
  9 10  1  0  0  0  0
 11  8  2  0  0  0  0
 12  4  1  0  0  0  0
 12 11  1  0  0  0  0
 13  2  1  0  0  0  0
M  END
>  <CHROM.1>
-62.08226549,7.32966632,-8.83420788,4.37305414,-7.41097238,2.63479785,-0.05559458
-2.18301220

>  <Name>
lig.pdb

>  <RI>
2.95488e+07

>  <Rbt.Current_Directory>
/home/itssahil/PROJECTS/Mol_Feturizer/New_Systems/rnas/2miy

>  <Rbt.Executable>
rbdock ($Id: //depot/dev/client3/rdock/2013.1/src/exe/rbdock.cxx#4 $)

>  <Rbt.Library>
libRbt.so (2013.1, Build901 2013/11/27)

>  <Rbt.Parameter_File>
/export/apps/rDock/src/rDock_2013.1_src/data/scripts/dock_solv.prm

>  <Rbt.Receptor>
prm/blind_docking_20.prm

>  <SCORE>
-46.8658

>  <SCORE.INTER>
-48.3081

>  <SCORE.INTER.CONST>
1

>  <SCORE.INTER.POLAR>
-5.29004

>  <SCORE.INTER.ROT>
2

>  <SCORE.INTER.SOLV>
19.3775

>  <SCORE.INTER.VDW>
-25.9644

>  <SCORE.INTER.norm>
-3.71601

>  <SCORE.INTRA>
1.44228

>  <SCORE.INTRA.DIHEDRAL>
-0.306944

>  <SCORE.INTRA.DIHEDRAL.0>
1.76676

>  <SCORE.INTRA.POLAR>
0.472211

>  <SCORE.INTRA.POLAR.0>
-0.472211

>  <SCORE.INTRA.REPUL>
0

>  <SCORE.INTRA.REPUL.0>
0

>  <SCORE.INTRA.SOLV>
-0.193775

>  <SCORE.INTRA.SOLV.lig_0>
-22.5855

>  <SCORE.INTRA.VDW>
0.0871255

>  <SCORE.INTRA.VDW.0>
-0.733656

>  <SCORE.INTRA.norm>
0.110945

>  <SCORE.RESTR>
0

>  <SCORE.RESTR.CAVITY>
0

>  <SCORE.RESTR.norm>
0

>  <SCORE.SYSTEM>
0

>  <SCORE.SYSTEM.CONST>
0

>  <SCORE.SYSTEM.DIHEDRAL>
0

>  <SCORE.SYSTEM.SOLV>
0

>  <SCORE.SYSTEM.norm>
0

>  <SCORE.heavy>
13

>  <SCORE.norm>
-3.60506

>  <RMSD>
0.587

$$$$
lig.pdb
 OpenBabel11021811453D
libRbt.so/2013.1/901 2013/11/27
 13 14  0  0  0  0  0  0  0  0999 V2000
  -10.8678    4.3881   -7.1270 N   0  0  0  0  0  0  0  0  0  0  0  0
  -10.9724    3.6654   -8.2817 C   0  0  0  0  0  0  0  0  0  0  0  0
   -9.8859    3.2826   -8.9281 N   0  0  0  0  0  0  0  0  0  0  0  0
   -8.6288    3.5870   -8.4826 C   0  0  0  0  0  0  0  0  0  0  0  0
   -8.4625    4.3390   -7.2943 C   0  0  0  0  0  0  0  0  0  0  0  0
   -9.6421    4.7475   -6.6019 C   0  0  0  0  0  0  0  0  0  0  0  0
   -9.5696    5.3983   -5.5741 O   0  0  0  0  0  0  0  0  0  0  0  0
   -7.0166    4.5006   -7.1018 C   0  0  0  0  0  0  0  0  0  0  0  0
   -6.3130    5.2400   -5.9946 C   0  0  0  0  0  0  0  0  0  0  0  0
   -7.1118    6.4070   -5.5974 N   0  0  0  0  0  0  0  0  0  0  0  0
   -6.4333    3.8573   -8.1208 C   0  0  0  0  0  0  0  0  0  0  0  0
   -7.3803    3.3172   -8.9495 N   0  0  0  0  0  0  0  0  0  0  0  0
  -12.2112    3.3378   -8.7694 N   0  0  0  0  0  0  0  0  0  0  0  0
  1  6  1  0  0  0  0
  2  1  1  0  0  0  0
  3  4  1  0  0  0  0
  3  2  2  0  0  0  0
  4  5  2  0  0  0  0
  5  8  1  0  0  0  0
  5  6  1  0  0  0  0
  6  7  2  0  0  0  0
  8  9  1  0  0  0  0
  9 10  1  0  0  0  0
 11  8  2  0  0  0  0
 12  4  1  0  0  0  0
 12 11  1  0  0  0  0
 13  2  1  0  0  0  0
M  END
>  <CHROM.1>
-34.15548049,60.00011878,-8.85525015,4.34494391,-7.42054766,2.60381461,-0.03583349
-2.21329603

>  <Name>
lig.pdb

>  <RI>
2.60406e+07

>  <Rbt.Current_Directory>
/home/itssahil/PROJECTS/Mol_Feturizer/New_Systems/rnas/2miy

>  <Rbt.Executable>
rbdock ($Id: //depot/dev/client3/rdock/2013.1/src/exe/rbdock.cxx#4 $)

>  <Rbt.Library>
libRbt.so (2013.1, Build901 2013/11/27)

>  <Rbt.Parameter_File>
/export/apps/rDock/src/rDock_2013.1_src/data/scripts/dock_solv.prm

>  <Rbt.Receptor>
prm/pocket_docking_7.prm

>  <SCORE>
-48.7298

>  <SCORE.INTER>
-48.2003

>  <SCORE.INTER.CONST>
1

>  <SCORE.INTER.POLAR>
-4.99937

>  <SCORE.INTER.ROT>
2

>  <SCORE.INTER.SOLV>
18.6127

>  <SCORE.INTER.VDW>
-26.6065

>  <SCORE.INTER.norm>
-3.70772

>  <SCORE.INTRA>
-0.616454

>  <SCORE.INTRA.DIHEDRAL>
0.524848

>  <SCORE.INTRA.DIHEDRAL.0>
1.76676

>  <SCORE.INTRA.POLAR>
-0.338133

>  <SCORE.INTRA.POLAR.0>
-0.472211

>  <SCORE.INTRA.REPUL>
0

>  <SCORE.INTRA.REPUL.0>
0

>  <SCORE.INTRA.SOLV>
0.095092

>  <SCORE.INTRA.SOLV.lig_0>
-22.5855

>  <SCORE.INTRA.VDW>
0.223229

>  <SCORE.INTRA.VDW.0>
-0.733656

>  <SCORE.INTRA.norm>
-0.0474195

>  <SCORE.RESTR>
0.0870083

>  <SCORE.RESTR.CAVITY>
0.0870083

>  <SCORE.RESTR.norm>
0.00669294

>  <SCORE.SYSTEM>
0

>  <SCORE.SYSTEM.CONST>
0

>  <SCORE.SYSTEM.DIHEDRAL>
0

>  <SCORE.SYSTEM.SOLV>
0

>  <SCORE.SYSTEM.norm>
0

>  <SCORE.heavy>
13

>  <SCORE.norm>
-3.74844

>  <RMSD>
0.588

$$$$
lig.pdb
 OpenBabel11021811453D
libRbt.so/2013.1/901 2013/11/27
 13 14  0  0  0  0  0  0  0  0999 V2000
  -10.9316    4.2823   -7.1651 N   0  0  0  0  0  0  0  0  0  0  0  0
  -10.9954    3.7498   -8.4216 C   0  0  0  0  0  0  0  0  0  0  0  0
   -9.8875    3.4327   -9.0672 N   0  0  0  0  0  0  0  0  0  0  0  0
   -8.6476    3.6203   -8.5205 C   0  0  0  0  0  0  0  0  0  0  0  0
   -8.5232    4.1745   -7.2234 C   0  0  0  0  0  0  0  0  0  0  0  0
   -9.7257    4.5131   -6.5328 C   0  0  0  0  0  0  0  0  0  0  0  0
   -9.6893    4.9953   -5.4142 O   0  0  0  0  0  0  0  0  0  0  0  0
   -7.0854    4.2532   -6.9396 C   0  0  0  0  0  0  0  0  0  0  0  0
   -6.4207    4.7884   -5.6988 C   0  0  0  0  0  0  0  0  0  0  0  0
   -6.4314    6.2570   -5.7296 N   0  0  0  0  0  0  0  0  0  0  0  0
   -6.4674    3.7540   -8.0171 C   0  0  0  0  0  0  0  0  0  0  0  0
   -7.3842    3.3815   -8.9638 N   0  0  0  0  0  0  0  0  0  0  0  0
  -12.2155    3.5451   -9.0127 N   0  0  0  0  0  0  0  0  0  0  0  0
  1  6  1  0  0  0  0
  2  1  1  0  0  0  0
  3  4  1  0  0  0  0
  3  2  2  0  0  0  0
  4  5  2  0  0  0  0
  5  8  1  0  0  0  0
  5  6  1  0  0  0  0
  6  7  2  0  0  0  0
  8  9  1  0  0  0  0
  9 10  1  0  0  0  0
 11  8  2  0  0  0  0
 12  4  1  0  0  0  0
 12 11  1  0  0  0  0
 13  2  1  0  0  0  0
M  END
>  <CHROM.1>
-77.45846727,-142.78105497,-8.83608687,4.24612169,-7.41834387,2.63424317
-0.01627281,-2.09364467

>  <Name>
lig.pdb

>  <RI>
1.82164e+07

>  <Rbt.Current_Directory>
/home/itssahil/PROJECTS/Mol_Feturizer/New_Systems/rnas/2miy

>  <Rbt.Executable>
rbdock ($Id: //depot/dev/client3/rdock/2013.1/src/exe/rbdock.cxx#4 $)

>  <Rbt.Library>
libRbt.so (2013.1, Build901 2013/11/27)

>  <Rbt.Parameter_File>
/export/apps/rDock/src/rDock_2013.1_src/data/scripts/dock_solv.prm

>  <Rbt.Receptor>
prm/blind_docking_80.prm

>  <SCORE>
-44.84

>  <SCORE.INTER>
-46.4099

>  <SCORE.INTER.CONST>
1

>  <SCORE.INTER.POLAR>
-5.4012

>  <SCORE.INTER.ROT>
2

>  <SCORE.INTER.SOLV>
19.3351

>  <SCORE.INTER.VDW>
-24.3143

>  <SCORE.INTER.norm>
-3.56999

>  <SCORE.INTRA>
1.56997

>  <SCORE.INTRA.DIHEDRAL>
0.0820999

>  <SCORE.INTRA.DIHEDRAL.0>
1.76676

>  <SCORE.INTRA.POLAR>
0.472211

>  <SCORE.INTRA.POLAR.0>
-0.472211

>  <SCORE.INTRA.REPUL>
0

>  <SCORE.INTRA.REPUL.0>
0

>  <SCORE.INTRA.SOLV>
-0.33035

>  <SCORE.INTRA.SOLV.lig_0>
-22.5855

>  <SCORE.INTRA.VDW>
0.0885728

>  <SCORE.INTRA.VDW.0>
-0.733656

>  <SCORE.INTRA.norm>
0.120767

>  <SCORE.RESTR>
0

>  <SCORE.RESTR.CAVITY>
0

>  <SCORE.RESTR.norm>
0

>  <SCORE.SYSTEM>
0

>  <SCORE.SYSTEM.CONST>
0

>  <SCORE.SYSTEM.DIHEDRAL>
0

>  <SCORE.SYSTEM.SOLV>
0

>  <SCORE.SYSTEM.norm>
0

>  <SCORE.heavy>
13

>  <SCORE.norm>
-3.44923

>  <RMSD>
0.589

$$$$
lig.pdb
 OpenBabel11021811453D
libRbt.so/2013.1/901 2013/11/27
 13 14  0  0  0  0  0  0  0  0999 V2000
  -10.9546    4.2745   -7.2061 N   0  0  0  0  0  0  0  0  0  0  0  0
  -11.0019    3.7900   -8.4826 C   0  0  0  0  0  0  0  0  0  0  0  0
   -9.8858    3.4915   -9.1231 N   0  0  0  0  0  0  0  0  0  0  0  0
   -8.6535    3.6518   -8.5513 C   0  0  0  0  0  0  0  0  0  0  0  0
   -8.5461    4.1560   -7.2324 C   0  0  0  0  0  0  0  0  0  0  0  0
   -9.7573    4.4749   -6.5476 C   0  0  0  0  0  0  0  0  0  0  0  0
   -9.7355    4.9144   -5.4112 O   0  0  0  0  0  0  0  0  0  0  0  0
   -7.1124    4.2163   -6.9244 C   0  0  0  0  0  0  0  0  0  0  0  0
   -6.4640    4.7009   -5.6545 C   0  0  0  0  0  0  0  0  0  0  0  0
   -6.4814    6.1693   -5.6226 N   0  0  0  0  0  0  0  0  0  0  0  0
   -6.4806    3.7547   -8.0106 C   0  0  0  0  0  0  0  0  0  0  0  0
   -7.3847    3.4230   -8.9842 N   0  0  0  0  0  0  0  0  0  0  0  0
  -12.2139    3.6143   -9.0992 N   0  0  0  0  0  0  0  0  0  0  0  0
  1  6  1  0  0  0  0
  2  1  1  0  0  0  0
  3  4  1  0  0  0  0
  3  2  2  0  0  0  0
  4  5  2  0  0  0  0
  5  8  1  0  0  0  0
  5  6  1  0  0  0  0
  6  7  2  0  0  0  0
  8  9  1  0  0  0  0
  9 10  1  0  0  0  0
 11  8  2  0  0  0  0
 12  4  1  0  0  0  0
 12 11  1  0  0  0  0
 13  2  1  0  0  0  0
M  END
>  <CHROM.1>
-76.79173959,-136.15226006,-8.85696417,4.23662830,-7.42849147,2.62269537
-0.00400072,-2.05635263

>  <Name>
lig.pdb

>  <RI>
4.2128e+07

>  <Rbt.Current_Directory>
/home/itssahil/PROJECTS/Mol_Feturizer/New_Systems/rnas/2miy

>  <Rbt.Executable>
rbdock ($Id: //depot/dev/client3/rdock/2013.1/src/exe/rbdock.cxx#4 $)

>  <Rbt.Library>
libRbt.so (2013.1, Build901 2013/11/27)

>  <Rbt.Parameter_File>
/export/apps/rDock/src/rDock_2013.1_src/data/scripts/dock_solv.prm

>  <Rbt.Receptor>
prm/pocket_docking_5.prm

>  <SCORE>
-44.7342

>  <SCORE.INTER>
-46.282

>  <SCORE.INTER.CONST>
1

>  <SCORE.INTER.POLAR>
-5.40925

>  <SCORE.INTER.ROT>
2

>  <SCORE.INTER.SOLV>
19.077

>  <SCORE.INTER.VDW>
-24.1162

>  <SCORE.INTER.norm>
-3.56016

>  <SCORE.INTRA>
1.54785

>  <SCORE.INTRA.DIHEDRAL>
0.0575916

>  <SCORE.INTRA.DIHEDRAL.0>
1.76676

>  <SCORE.INTRA.POLAR>
0.472211

>  <SCORE.INTRA.POLAR.0>
-0.472211

>  <SCORE.INTRA.REPUL>
0

>  <SCORE.INTRA.REPUL.0>
0

>  <SCORE.INTRA.SOLV>
-0.320029

>  <SCORE.INTRA.SOLV.lig_0>
-22.5855

>  <SCORE.INTRA.VDW>
0.0735519

>  <SCORE.INTRA.VDW.0>
-0.733656

>  <SCORE.INTRA.norm>
0.119065

>  <SCORE.RESTR>
0

>  <SCORE.RESTR.CAVITY>
0

>  <SCORE.RESTR.norm>
0

>  <SCORE.SYSTEM>
0

>  <SCORE.SYSTEM.CONST>
0

>  <SCORE.SYSTEM.DIHEDRAL>
0

>  <SCORE.SYSTEM.SOLV>
0

>  <SCORE.SYSTEM.norm>
0

>  <SCORE.heavy>
13

>  <SCORE.norm>
-3.44109

>  <RMSD>
0.592

$$$$
lig.pdb
 OpenBabel11021811453D
libRbt.so/2013.1/901 2013/11/27
 13 14  0  0  0  0  0  0  0  0999 V2000
  -11.1154    3.9482   -7.0420 N   0  0  0  0  0  0  0  0  0  0  0  0
  -11.1961    3.4499   -8.3114 C   0  0  0  0  0  0  0  0  0  0  0  0
  -10.0974    3.2263   -9.0099 N   0  0  0  0  0  0  0  0  0  0  0  0
   -8.8509    3.4799   -8.5065 C   0  0  0  0  0  0  0  0  0  0  0  0
   -8.7095    4.0026   -7.1981 C   0  0  0  0  0  0  0  0  0  0  0  0
   -9.9021    4.2400   -6.4504 C   0  0  0  0  0  0  0  0  0  0  0  0
   -9.8511    4.6903   -5.3192 O   0  0  0  0  0  0  0  0  0  0  0  0
   -7.2695    4.1684   -6.9685 C   0  0  0  0  0  0  0  0  0  0  0  0
   -6.5905    4.7099   -5.7382 C   0  0  0  0  0  0  0  0  0  0  0  0
   -5.8424    5.9257   -6.0841 N   0  0  0  0  0  0  0  0  0  0  0  0
   -6.6652    3.7434   -8.0850 C   0  0  0  0  0  0  0  0  0  0  0  0
   -7.5940    3.3388   -9.0064 N   0  0  0  0  0  0  0  0  0  0  0  0
  -12.4235    3.1820   -8.8605 N   0  0  0  0  0  0  0  0  0  0  0  0
  1  6  1  0  0  0  0
  2  1  1  0  0  0  0
  3  4  1  0  0  0  0
  3  2  2  0  0  0  0
  4  5  2  0  0  0  0
  5  8  1  0  0  0  0
  5  6  1  0  0  0  0
  6  7  2  0  0  0  0
  8  9  1  0  0  0  0
  9 10  1  0  0  0  0
 11  8  2  0  0  0  0
 12  4  1  0  0  0  0
 12 11  1  0  0  0  0
 13  2  1  0  0  0  0
M  END
>  <CHROM.1>
-118.14666976,122.94796459,-8.95438082,4.03578214,-7.41220363,2.71645569
-0.11423054,-2.02079599

>  <Name>
lig.pdb

>  <RI>
0

>  <Rbt.Current_Directory>
/home/itssahil/PROJECTS/Mol_Feturizer/New_Systems/rnas/2miy

>  <Rbt.Executable>
rbdock ($Id: //depot/dev/client3/rdock/2013.1/src/exe/rbdock.cxx#4 $)

>  <Rbt.Library>
libRbt.so (2013.1, Build901 2013/11/27)

>  <Rbt.Parameter_File>
/export/apps/rDock/src/rDock_2013.1_src/data/scripts/dock_solv.prm

>  <Rbt.Receptor>
prm/blind_docking_60.prm

>  <SCORE>
-42.3119

>  <SCORE.INTER>
-47.1888

>  <SCORE.INTER.CONST>
1

>  <SCORE.INTER.POLAR>
-5.33491

>  <SCORE.INTER.ROT>
2

>  <SCORE.INTER.SOLV>
20.3909

>  <SCORE.INTER.VDW>
-25.4065

>  <SCORE.INTER.norm>
-3.62991

>  <SCORE.INTRA>
2.49694

>  <SCORE.INTRA.DIHEDRAL>
1.87442

>  <SCORE.INTRA.DIHEDRAL.0>
1.76676

>  <SCORE.INTRA.POLAR>
0.472211

>  <SCORE.INTRA.POLAR.0>
-0.472211

>  <SCORE.INTRA.REPUL>
0

>  <SCORE.INTRA.REPUL.0>
0

>  <SCORE.INTRA.SOLV>
-0.624283

>  <SCORE.INTRA.SOLV.lig_0>
-22.5855

>  <SCORE.INTRA.VDW>
0.266353

>  <SCORE.INTRA.VDW.0>
-0.733656

>  <SCORE.INTRA.norm>
0.192072

>  <SCORE.RESTR>
2.37994

>  <SCORE.RESTR.CAVITY>
2.37994

>  <SCORE.RESTR.norm>
0.183072

>  <SCORE.SYSTEM>
0

>  <SCORE.SYSTEM.CONST>
0

>  <SCORE.SYSTEM.DIHEDRAL>
0

>  <SCORE.SYSTEM.SOLV>
0

>  <SCORE.SYSTEM.norm>
0

>  <SCORE.heavy>
13

>  <SCORE.norm>
-3.25476

>  <RMSD>
0.597

$$$$
lig.pdb
 OpenBabel11021811453D
libRbt.so/2013.1/901 2013/11/27
 13 14  0  0  0  0  0  0  0  0999 V2000
  -11.0539    4.0423   -7.0436 N   0  0  0  0  0  0  0  0  0  0  0  0
  -11.1166    3.5317   -8.3092 C   0  0  0  0  0  0  0  0  0  0  0  0
  -10.0079    3.2932   -8.9865 N   0  0  0  0  0  0  0  0  0  0  0  0
   -8.7683    3.5430   -8.4645 C   0  0  0  0  0  0  0  0  0  0  0  0
   -8.6454    4.0780   -7.1592 C   0  0  0  0  0  0  0  0  0  0  0  0
   -9.8487    4.3315   -6.4343 C   0  0  0  0  0  0  0  0  0  0  0  0
   -9.8137    4.7929   -5.3070 O   0  0  0  0  0  0  0  0  0  0  0  0
   -7.2082    4.2359   -6.9068 C   0  0  0  0  0  0  0  0  0  0  0  0
   -6.5464    4.7850   -5.6706 C   0  0  0  0  0  0  0  0  0  0  0  0
   -5.7948    5.9997   -6.0133 N   0  0  0  0  0  0  0  0  0  0  0  0
   -6.5883    3.7953   -8.0084 C   0  0  0  0  0  0  0  0  0  0  0  0
   -7.5042    3.3879   -8.9415 N   0  0  0  0  0  0  0  0  0  0  0  0
  -12.3365    3.2669   -8.8763 N   0  0  0  0  0  0  0  0  0  0  0  0
  1  6  1  0  0  0  0
  2  1  1  0  0  0  0
  3  4  1  0  0  0  0
  3  2  2  0  0  0  0
  4  5  2  0  0  0  0
  5  8  1  0  0  0  0
  5  6  1  0  0  0  0
  6  7  2  0  0  0  0
  8  9  1  0  0  0  0
  9 10  1  0  0  0  0
 11  8  2  0  0  0  0
 12  4  1  0  0  0  0
 12 11  1  0  0  0  0
 13  2  1  0  0  0  0
M  END
>  <CHROM.1>
-117.57171791,-51.12788572,-8.88725807,4.11142191,-7.37742523,2.70296306
-0.10048618,-2.03269097

>  <Name>
lig.pdb

>  <RI>
1.17462e+07

>  <Rbt.Current_Directory>
/home/itssahil/PROJECTS/Mol_Feturizer/New_Systems/rnas/2miy

>  <Rbt.Executable>
rbdock ($Id: //depot/dev/client3/rdock/2013.1/src/exe/rbdock.cxx#4 $)

>  <Rbt.Library>
libRbt.so (2013.1, Build901 2013/11/27)

>  <Rbt.Parameter_File>
/export/apps/rDock/src/rDock_2013.1_src/data/scripts/dock_solv.prm

>  <Rbt.Receptor>
prm/blind_docking_40.prm

>  <SCORE>
-44.6404

>  <SCORE.INTER>
-47.3204

>  <SCORE.INTER.CONST>
1

>  <SCORE.INTER.POLAR>
-5.49821

>  <SCORE.INTER.ROT>
2

>  <SCORE.INTER.SOLV>
20.4254

>  <SCORE.INTER.VDW>
-24.9614

>  <SCORE.INTER.norm>
-3.64003

>  <SCORE.INTRA>
2.48419

>  <SCORE.INTRA.DIHEDRAL>
1.85132

>  <SCORE.INTRA.DIHEDRAL.0>
1.76676

>  <SCORE.INTRA.POLAR>
0.472211

>  <SCORE.INTRA.POLAR.0>
-0.472211

>  <SCORE.INTRA.REPUL>
0

>  <SCORE.INTRA.REPUL.0>
0

>  <SCORE.INTRA.SOLV>
-0.622238

>  <SCORE.INTRA.SOLV.lig_0>
-22.5855

>  <SCORE.INTRA.VDW>
0.264126

>  <SCORE.INTRA.VDW.0>
-0.733656

>  <SCORE.INTRA.norm>
0.191091

>  <SCORE.RESTR>
0.195828

>  <SCORE.RESTR.CAVITY>
0.195828

>  <SCORE.RESTR.norm>
0.0150637

>  <SCORE.SYSTEM>
0

>  <SCORE.SYSTEM.CONST>
0

>  <SCORE.SYSTEM.DIHEDRAL>
0

>  <SCORE.SYSTEM.SOLV>
0

>  <SCORE.SYSTEM.norm>
0

>  <SCORE.heavy>
13

>  <SCORE.norm>
-3.43388

>  <RMSD>
0.601

$$$$
lig.pdb
 OpenBabel11021811453D
libRbt.so/2013.1/901 2013/11/27
 13 14  0  0  0  0  0  0  0  0999 V2000
  -11.0556    4.0402   -7.0422 N   0  0  0  0  0  0  0  0  0  0  0  0
  -11.1181    3.5273   -8.3069 C   0  0  0  0  0  0  0  0  0  0  0  0
  -10.0092    3.2859   -8.9829 N   0  0  0  0  0  0  0  0  0  0  0  0
   -8.7697    3.5348   -8.4604 C   0  0  0  0  0  0  0  0  0  0  0  0
   -8.6469    4.0720   -7.1559 C   0  0  0  0  0  0  0  0  0  0  0  0
   -9.8504    4.3287   -6.4325 C   0  0  0  0  0  0  0  0  0  0  0  0
   -9.8156    4.7922   -5.3060 O   0  0  0  0  0  0  0  0  0  0  0  0
   -7.2098    4.2282   -6.9027 C   0  0  0  0  0  0  0  0  0  0  0  0
   -6.5480    4.7786   -5.6670 C   0  0  0  0  0  0  0  0  0  0  0  0
   -5.7882    5.9872   -6.0128 N   0  0  0  0  0  0  0  0  0  0  0  0
   -6.5896    3.7845   -8.0030 C   0  0  0  0  0  0  0  0  0  0  0  0
   -7.5054    3.3768   -8.9360 N   0  0  0  0  0  0  0  0  0  0  0  0
  -12.3380    3.2634   -8.8745 N   0  0  0  0  0  0  0  0  0  0  0  0
  1  6  1  0  0  0  0
  2  1  1  0  0  0  0
  3  4  1  0  0  0  0
  3  2  2  0  0  0  0
  4  5  2  0  0  0  0
  5  8  1  0  0  0  0
  5  6  1  0  0  0  0
  6  7  2  0  0  0  0
  8  9  1  0  0  0  0
  9 10  1  0  0  0  0
 11  8  2  0  0  0  0
 12  4  1  0  0  0  0
 12 11  1  0  0  0  0
 13  2  1  0  0  0  0
M  END
>  <CHROM.1>
-117.88372557,128.50896655,-8.88813216,4.10504035,-7.37467923,2.70358656
-0.09874603,-2.03418491

>  <Name>
lig.pdb

>  <RI>
1.82164e+07

>  <Rbt.Current_Directory>
/home/itssahil/PROJECTS/Mol_Feturizer/New_Systems/rnas/2miy

>  <Rbt.Executable>
rbdock ($Id: //depot/dev/client3/rdock/2013.1/src/exe/rbdock.cxx#4 $)

>  <Rbt.Library>
libRbt.so (2013.1, Build901 2013/11/27)

>  <Rbt.Parameter_File>
/export/apps/rDock/src/rDock_2013.1_src/data/scripts/dock_solv.prm

>  <Rbt.Receptor>
prm/blind_docking_80.prm

>  <SCORE>
-44.6006

>  <SCORE.INTER>
-47.3081

>  <SCORE.INTER.CONST>
1

>  <SCORE.INTER.POLAR>
-5.49721

>  <SCORE.INTER.ROT>
2

>  <SCORE.INTER.SOLV>
20.4101

>  <SCORE.INTER.VDW>
-24.9514

>  <SCORE.INTER.norm>
-3.63908

>  <SCORE.INTRA>
2.50056

>  <SCORE.INTRA.DIHEDRAL>
1.88133

>  <SCORE.INTRA.DIHEDRAL.0>
1.76676

>  <SCORE.INTRA.POLAR>
0.472211

>  <SCORE.INTRA.POLAR.0>
-0.472211

>  <SCORE.INTRA.REPUL>
0

>  <SCORE.INTRA.REPUL.0>
0

>  <SCORE.INTRA.SOLV>
-0.622936

>  <SCORE.INTRA.SOLV.lig_0>
-22.5855

>  <SCORE.INTRA.VDW>
0.265849

>  <SCORE.INTRA.VDW.0>
-0.733656

>  <SCORE.INTRA.norm>
0.192351

>  <SCORE.RESTR>
0.20695

>  <SCORE.RESTR.CAVITY>
0.20695

>  <SCORE.RESTR.norm>
0.0159192

>  <SCORE.SYSTEM>
0

>  <SCORE.SYSTEM.CONST>
0

>  <SCORE.SYSTEM.DIHEDRAL>
0

>  <SCORE.SYSTEM.SOLV>
0

>  <SCORE.SYSTEM.norm>
0

>  <SCORE.heavy>
13

>  <SCORE.norm>
-3.43081

>  <RMSD>
0.603

$$$$
lig.pdb
 OpenBabel11021811453D
libRbt.so/2013.1/901 2013/11/27
 13 14  0  0  0  0  0  0  0  0999 V2000
  -10.8480    4.4404   -7.1054 N   0  0  0  0  0  0  0  0  0  0  0  0
  -10.9707    3.7037   -8.2493 C   0  0  0  0  0  0  0  0  0  0  0  0
   -9.8943    3.2989   -8.8991 N   0  0  0  0  0  0  0  0  0  0  0  0
   -8.6300    3.5937   -8.4677 C   0  0  0  0  0  0  0  0  0  0  0  0
   -8.4449    4.3594   -7.2910 C   0  0  0  0  0  0  0  0  0  0  0  0
   -9.6137    4.7916   -6.5948 C   0  0  0  0  0  0  0  0  0  0  0  0
   -9.5250    5.4551   -5.5765 O   0  0  0  0  0  0  0  0  0  0  0  0
   -6.9955    4.5056   -7.1121 C   0  0  0  0  0  0  0  0  0  0  0  0
   -6.2740    5.2510   -6.0206 C   0  0  0  0  0  0  0  0  0  0  0  0
   -7.0719    6.4134   -5.6084 N   0  0  0  0  0  0  0  0  0  0  0  0
   -6.4285    3.8416   -8.1269 C   0  0  0  0  0  0  0  0  0  0  0  0
   -7.3887    3.3022   -8.9408 N   0  0  0  0  0  0  0  0  0  0  0  0
  -12.2174    3.3850   -8.7228 N   0  0  0  0  0  0  0  0  0  0  0  0
  1  6  1  0  0  0  0
  2  1  1  0  0  0  0
  3  4  1  0  0  0  0
  3  2  2  0  0  0  0
  4  5  2  0  0  0  0
  5  8  1  0  0  0  0
  5  6  1  0  0  0  0
  6  7  2  0  0  0  0
  8  9  1  0  0  0  0
  9 10  1  0  0  0  0
 11  8  2  0  0  0  0
 12  4  1  0  0  0  0
 12 11  1  0  0  0  0
 13  2  1  0  0  0  0
M  END
>  <CHROM.1>
-32.68375669,-121.61401918,-8.84001988,4.36661677,-7.41174895,2.61633995
-0.02990175,-2.22353973

>  <Name>
lig.pdb

>  <RI>
2.60406e+07

>  <Rbt.Current_Directory>
/home/itssahil/PROJECTS/Mol_Feturizer/New_Systems/rnas/2miy

>  <Rbt.Executable>
rbdock ($Id: //depot/dev/client3/rdock/2013.1/src/exe/rbdock.cxx#4 $)

>  <Rbt.Library>
libRbt.so (2013.1, Build901 2013/11/27)

>  <Rbt.Parameter_File>
/export/apps/rDock/src/rDock_2013.1_src/data/scripts/dock_solv.prm

>  <Rbt.Receptor>
prm/pocket_docking_7.prm

>  <SCORE>
-48.9471

>  <SCORE.INTER>
-48.5068

>  <SCORE.INTER.CONST>
1

>  <SCORE.INTER.POLAR>
-5.21293

>  <SCORE.INTER.ROT>
2

>  <SCORE.INTER.SOLV>
18.6748

>  <SCORE.INTER.VDW>
-26.1197

>  <SCORE.INTER.norm>
-3.73129

>  <SCORE.INTRA>
-0.57386

>  <SCORE.INTRA.DIHEDRAL>
0.607059

>  <SCORE.INTRA.DIHEDRAL.0>
1.76676

>  <SCORE.INTRA.POLAR>
-0.356243

>  <SCORE.INTRA.POLAR.0>
-0.472211

>  <SCORE.INTRA.REPUL>
0

>  <SCORE.INTRA.REPUL.0>
0

>  <SCORE.INTRA.SOLV>
0.107062

>  <SCORE.INTRA.SOLV.lig_0>
-22.5855

>  <SCORE.INTRA.VDW>
0.280307

>  <SCORE.INTRA.VDW.0>
-0.733656

>  <SCORE.INTRA.norm>
-0.0441431

>  <SCORE.RESTR>
0.133569

>  <SCORE.RESTR.CAVITY>
0.133569

>  <SCORE.RESTR.norm>
0.0102746

>  <SCORE.SYSTEM>
0

>  <SCORE.SYSTEM.CONST>
0

>  <SCORE.SYSTEM.DIHEDRAL>
0

>  <SCORE.SYSTEM.SOLV>
0

>  <SCORE.SYSTEM.norm>
0

>  <SCORE.heavy>
13

>  <SCORE.norm>
-3.76516

>  <RMSD>
0.604

$$$$
lig.pdb
 OpenBabel11021811453D
libRbt.so/2013.1/901 2013/11/27
 13 14  0  0  0  0  0  0  0  0999 V2000
  -10.8483    4.4393   -7.1102 N   0  0  0  0  0  0  0  0  0  0  0  0
  -10.9693    3.7043   -8.2554 C   0  0  0  0  0  0  0  0  0  0  0  0
   -9.8918    3.3001   -8.9040 N   0  0  0  0  0  0  0  0  0  0  0  0
   -8.6282    3.5938   -8.4699 C   0  0  0  0  0  0  0  0  0  0  0  0
   -8.4449    4.3578   -7.2917 C   0  0  0  0  0  0  0  0  0  0  0  0
   -9.6149    4.7893   -6.5969 C   0  0  0  0  0  0  0  0  0  0  0  0
   -9.5277    5.4513   -5.5775 O   0  0  0  0  0  0  0  0  0  0  0  0
   -6.9959    4.5032   -7.1101 C   0  0  0  0  0  0  0  0  0  0  0  0
   -6.2760    5.2469   -6.0162 C   0  0  0  0  0  0  0  0  0  0  0  0
   -7.0746    6.4085   -5.6032 N   0  0  0  0  0  0  0  0  0  0  0  0
   -6.4272    3.8406   -8.1249 C   0  0  0  0  0  0  0  0  0  0  0  0
   -7.3862    3.3027   -8.9412 N   0  0  0  0  0  0  0  0  0  0  0  0
  -12.2152    3.3866   -8.7315 N   0  0  0  0  0  0  0  0  0  0  0  0
  1  6  1  0  0  0  0
  2  1  1  0  0  0  0
  3  4  1  0  0  0  0
  3  2  2  0  0  0  0
  4  5  2  0  0  0  0
  5  8  1  0  0  0  0
  5  6  1  0  0  0  0
  6  7  2  0  0  0  0
  8  9  1  0  0  0  0
  9 10  1  0  0  0  0
 11  8  2  0  0  0  0
 12  4  1  0  0  0  0
 12 11  1  0  0  0  0
 13  2  1  0  0  0  0
M  END
>  <CHROM.1>
-32.65458409,58.33976094,-8.83993408,4.36526994,-7.41327739,2.61528783,-0.02858639
-2.22216507

>  <Name>
lig.pdb

>  <RI>
2.60406e+07

>  <Rbt.Current_Directory>
/home/itssahil/PROJECTS/Mol_Feturizer/New_Systems/rnas/2miy

>  <Rbt.Executable>
rbdock ($Id: //depot/dev/client3/rdock/2013.1/src/exe/rbdock.cxx#4 $)

>  <Rbt.Library>
libRbt.so (2013.1, Build901 2013/11/27)

>  <Rbt.Parameter_File>
/export/apps/rDock/src/rDock_2013.1_src/data/scripts/dock_solv.prm

>  <Rbt.Receptor>
prm/pocket_docking_7.prm

>  <SCORE>
-48.9286

>  <SCORE.INTER>
-48.4875

>  <SCORE.INTER.CONST>
1

>  <SCORE.INTER.POLAR>
-5.20112

>  <SCORE.INTER.ROT>
2

>  <SCORE.INTER.SOLV>
18.6655

>  <SCORE.INTER.VDW>
-26.1431

>  <SCORE.INTER.norm>
-3.72981

>  <SCORE.INTRA>
-0.571007

>  <SCORE.INTRA.DIHEDRAL>
0.612387

>  <SCORE.INTRA.DIHEDRAL.0>
1.76676

>  <SCORE.INTRA.POLAR>
-0.358738

>  <SCORE.INTRA.POLAR.0>
-0.472211

>  <SCORE.INTRA.REPUL>
0

>  <SCORE.INTRA.REPUL.0>
0

>  <SCORE.INTRA.SOLV>
0.108209

>  <SCORE.INTRA.SOLV.lig_0>
-22.5855

>  <SCORE.INTRA.VDW>
0.288404

>  <SCORE.INTRA.VDW.0>
-0.733656

>  <SCORE.INTRA.norm>
-0.0439236

>  <SCORE.RESTR>
0.129887

>  <SCORE.RESTR.CAVITY>
0.129887

>  <SCORE.RESTR.norm>
0.00999128

>  <SCORE.SYSTEM>
0

>  <SCORE.SYSTEM.CONST>
0

>  <SCORE.SYSTEM.DIHEDRAL>
0

>  <SCORE.SYSTEM.SOLV>
0

>  <SCORE.SYSTEM.norm>
0

>  <SCORE.heavy>
13

>  <SCORE.norm>
-3.76374

>  <RMSD>
0.604

$$$$
lig.pdb
 OpenBabel11021811453D
libRbt.so/2013.1/901 2013/11/27
 13 14  0  0  0  0  0  0  0  0999 V2000
  -10.8461    4.4505   -7.1080 N   0  0  0  0  0  0  0  0  0  0  0  0
  -10.9710    3.7113   -8.2501 C   0  0  0  0  0  0  0  0  0  0  0  0
   -9.8958    3.3011   -8.8985 N   0  0  0  0  0  0  0  0  0  0  0  0
   -8.6306    3.5927   -8.4674 C   0  0  0  0  0  0  0  0  0  0  0  0
   -8.4433    4.3608   -7.2926 C   0  0  0  0  0  0  0  0  0  0  0  0
   -9.6109    4.7988   -6.5979 C   0  0  0  0  0  0  0  0  0  0  0  0
   -9.5202    5.4646   -5.5813 O   0  0  0  0  0  0  0  0  0  0  0  0
   -6.9935    4.5025   -7.1137 C   0  0  0  0  0  0  0  0  0  0  0  0
   -6.2698    5.2482   -6.0238 C   0  0  0  0  0  0  0  0  0  0  0  0
   -7.0699    6.4070   -5.6057 N   0  0  0  0  0  0  0  0  0  0  0  0
   -6.4284    3.8340   -8.1266 C   0  0  0  0  0  0  0  0  0  0  0  0
   -7.3902    3.2958   -8.9394 N   0  0  0  0  0  0  0  0  0  0  0  0
  -12.2186    3.3956   -8.7232 N   0  0  0  0  0  0  0  0  0  0  0  0
  1  6  1  0  0  0  0
  2  1  1  0  0  0  0
  3  4  1  0  0  0  0
  3  2  2  0  0  0  0
  4  5  2  0  0  0  0
  5  8  1  0  0  0  0
  5  6  1  0  0  0  0
  6  7  2  0  0  0  0
  8  9  1  0  0  0  0
  9 10  1  0  0  0  0
 11  8  2  0  0  0  0
 12  4  1  0  0  0  0
 12 11  1  0  0  0  0
 13  2  1  0  0  0  0
M  END
>  <CHROM.1>
-32.13751200,-123.45026945,-8.83892706,4.36836087,-7.41268808,2.61774272
-0.02662326,-2.22509071

>  <Name>
lig.pdb

>  <RI>
2.60406e+07

>  <Rbt.Current_Directory>
/home/itssahil/PROJECTS/Mol_Feturizer/New_Systems/rnas/2miy

>  <Rbt.Executable>
rbdock ($Id: //depot/dev/client3/rdock/2013.1/src/exe/rbdock.cxx#4 $)

>  <Rbt.Library>
libRbt.so (2013.1, Build901 2013/11/27)

>  <Rbt.Parameter_File>
/export/apps/rDock/src/rDock_2013.1_src/data/scripts/dock_solv.prm

>  <Rbt.Receptor>
prm/pocket_docking_7.prm

>  <SCORE>
-48.9729

>  <SCORE.INTER>
-48.558

>  <SCORE.INTER.CONST>
1

>  <SCORE.INTER.POLAR>
-5.25349

>  <SCORE.INTER.ROT>
2

>  <SCORE.INTER.SOLV>
18.6857

>  <SCORE.INTER.VDW>
-26.0223

>  <SCORE.INTER.norm>
-3.73523

>  <SCORE.INTRA>
-0.553725

>  <SCORE.INTRA.DIHEDRAL>
0.63533

>  <SCORE.INTRA.DIHEDRAL.0>
1.76676

>  <SCORE.INTRA.POLAR>
-0.366331

>  <SCORE.INTRA.POLAR.0>
-0.472211

>  <SCORE.INTRA.REPUL>
0

>  <SCORE.INTRA.REPUL.0>
0

>  <SCORE.INTRA.SOLV>
0.113812

>  <SCORE.INTRA.SOLV.lig_0>
-22.5855

>  <SCORE.INTRA.VDW>
0.317229

>  <SCORE.INTRA.VDW.0>
-0.733656

>  <SCORE.INTRA.norm>
-0.0425942

>  <SCORE.RESTR>
0.138829

>  <SCORE.RESTR.CAVITY>
0.138829

>  <SCORE.RESTR.norm>
0.0106792

>  <SCORE.SYSTEM>
0

>  <SCORE.SYSTEM.CONST>
0

>  <SCORE.SYSTEM.DIHEDRAL>
0

>  <SCORE.SYSTEM.SOLV>
0

>  <SCORE.SYSTEM.norm>
0

>  <SCORE.heavy>
13

>  <SCORE.norm>
-3.76715

>  <RMSD>
0.608

$$$$
lig.pdb
 OpenBabel11021811453D
libRbt.so/2013.1/901 2013/11/27
 13 14  0  0  0  0  0  0  0  0999 V2000
  -11.2037    3.8660   -7.0069 N   0  0  0  0  0  0  0  0  0  0  0  0
  -11.2683    3.3803   -8.2822 C   0  0  0  0  0  0  0  0  0  0  0  0
  -10.1631    3.2023   -8.9835 N   0  0  0  0  0  0  0  0  0  0  0  0
   -8.9255    3.4918   -8.4774 C   0  0  0  0  0  0  0  0  0  0  0  0
   -8.8011    4.0035   -7.1629 C   0  0  0  0  0  0  0  0  0  0  0  0
  -10.0006    4.1917   -6.4122 C   0  0  0  0  0  0  0  0  0  0  0  0
   -9.9641    4.6301   -5.2757 O   0  0  0  0  0  0  0  0  0  0  0  0
   -7.3673    4.2151   -6.9317 C   0  0  0  0  0  0  0  0  0  0  0  0
   -6.7063    4.7646   -5.6952 C   0  0  0  0  0  0  0  0  0  0  0  0
   -5.7037    5.7676   -6.0779 N   0  0  0  0  0  0  0  0  0  0  0  0
   -6.7498    3.8240   -8.0532 C   0  0  0  0  0  0  0  0  0  0  0  0
   -7.6649    3.3991   -8.9792 N   0  0  0  0  0  0  0  0  0  0  0  0
  -12.4863    3.0776   -8.8341 N   0  0  0  0  0  0  0  0  0  0  0  0
  1  6  1  0  0  0  0
  2  1  1  0  0  0  0
  3  4  1  0  0  0  0
  3  2  2  0  0  0  0
  4  5  2  0  0  0  0
  5  8  1  0  0  0  0
  5  6  1  0  0  0  0
  6  7  2  0  0  0  0
  8  9  1  0  0  0  0
  9 10  1  0  0  0  0
 11  8  2  0  0  0  0
 12  4  1  0  0  0  0
 12 11  1  0  0  0  0
 13  2  1  0  0  0  0
M  END
>  <CHROM.1>
-134.15669526,-0.93803319,-9.01934658,4.00831272,-7.38125649,2.72949481,-0.13856482
-1.98593238

>  <Name>
lig.pdb

>  <RI>
2.60406e+07

>  <Rbt.Current_Directory>
/home/itssahil/PROJECTS/Mol_Feturizer/New_Systems/rnas/2miy

>  <Rbt.Executable>
rbdock ($Id: //depot/dev/client3/rdock/2013.1/src/exe/rbdock.cxx#4 $)

>  <Rbt.Library>
libRbt.so (2013.1, Build901 2013/11/27)

>  <Rbt.Parameter_File>
/export/apps/rDock/src/rDock_2013.1_src/data/scripts/dock_solv.prm

>  <Rbt.Receptor>
prm/pocket_docking_7.prm

>  <SCORE>
-44.1322

>  <SCORE.INTER>
-47.5397

>  <SCORE.INTER.CONST>
1

>  <SCORE.INTER.POLAR>
-5.70381

>  <SCORE.INTER.ROT>
2

>  <SCORE.INTER.SOLV>
20.6022

>  <SCORE.INTER.VDW>
-24.4812

>  <SCORE.INTER.norm>
-3.6569

>  <SCORE.INTRA>
2.61178

>  <SCORE.INTRA.DIHEDRAL>
1.5768

>  <SCORE.INTRA.DIHEDRAL.0>
1.76676

>  <SCORE.INTRA.POLAR>
0.472211

>  <SCORE.INTRA.POLAR.0>
-0.472211

>  <SCORE.INTRA.REPUL>
0

>  <SCORE.INTRA.REPUL.0>
0

>  <SCORE.INTRA.SOLV>
-0.614143

>  <SCORE.INTRA.SOLV.lig_0>
-22.5855

>  <SCORE.INTRA.VDW>
0.524929

>  <SCORE.INTRA.VDW.0>
-0.733656

>  <SCORE.INTRA.norm>
0.200906

>  <SCORE.RESTR>
0.79569

>  <SCORE.RESTR.CAVITY>
0.79569

>  <SCORE.RESTR.norm>
0.0612069

>  <SCORE.SYSTEM>
0

>  <SCORE.SYSTEM.CONST>
0

>  <SCORE.SYSTEM.DIHEDRAL>
0

>  <SCORE.SYSTEM.SOLV>
0

>  <SCORE.SYSTEM.norm>
0

>  <SCORE.heavy>
13

>  <SCORE.norm>
-3.39478

>  <RMSD>
0.608

$$$$
lig.pdb
 OpenBabel11021811453D
libRbt.so/2013.1/901 2013/11/27
 13 14  0  0  0  0  0  0  0  0999 V2000
  -10.8465    4.4379   -7.1155 N   0  0  0  0  0  0  0  0  0  0  0  0
  -10.9653    3.7041   -8.2617 C   0  0  0  0  0  0  0  0  0  0  0  0
   -9.8866    3.3024   -8.9098 N   0  0  0  0  0  0  0  0  0  0  0  0
   -8.6238    3.5978   -8.4742 C   0  0  0  0  0  0  0  0  0  0  0  0
   -8.4429    4.3606   -7.2950 C   0  0  0  0  0  0  0  0  0  0  0  0
   -9.6141    4.7894   -6.6007 C   0  0  0  0  0  0  0  0  0  0  0  0
   -9.5289    5.4503   -5.5805 O   0  0  0  0  0  0  0  0  0  0  0  0
   -6.9942    4.5082   -7.1120 C   0  0  0  0  0  0  0  0  0  0  0  0
   -6.2766    5.2517   -6.0165 C   0  0  0  0  0  0  0  0  0  0  0  0
   -7.0730    6.4169   -5.6094 N   0  0  0  0  0  0  0  0  0  0  0  0
   -6.4236    3.8478   -8.1270 C   0  0  0  0  0  0  0  0  0  0  0  0
   -7.3809    3.3093   -8.9449 N   0  0  0  0  0  0  0  0  0  0  0  0
  -12.2103    3.3850   -8.7393 N   0  0  0  0  0  0  0  0  0  0  0  0
  1  6  1  0  0  0  0
  2  1  1  0  0  0  0
  3  4  1  0  0  0  0
  3  2  2  0  0  0  0
  4  5  2  0  0  0  0
  5  8  1  0  0  0  0
  5  6  1  0  0  0  0
  6  7  2  0  0  0  0
  8  9  1  0  0  0  0
  9 10  1  0  0  0  0
 11  8  2  0  0  0  0
 12  4  1  0  0  0  0
 12 11  1  0  0  0  0
 13  2  1  0  0  0  0
M  END
>  <CHROM.1>
-33.05193794,-122.12143865,-8.83731602,4.36806582,-7.41735845,2.61369751
-0.02959428,-2.22163782

>  <Name>
lig.pdb

>  <RI>
2.60406e+07

>  <Rbt.Current_Directory>
/home/itssahil/PROJECTS/Mol_Feturizer/New_Systems/rnas/2miy

>  <Rbt.Executable>
rbdock ($Id: //depot/dev/client3/rdock/2013.1/src/exe/rbdock.cxx#4 $)

>  <Rbt.Library>
libRbt.so (2013.1, Build901 2013/11/27)

>  <Rbt.Parameter_File>
/export/apps/rDock/src/rDock_2013.1_src/data/scripts/dock_solv.prm

>  <Rbt.Receptor>
prm/pocket_docking_7.prm

>  <SCORE>
-48.9328

>  <SCORE.INTER>
-48.4749

>  <SCORE.INTER.CONST>
1

>  <SCORE.INTER.POLAR>
-5.17747

>  <SCORE.INTER.ROT>
2

>  <SCORE.INTER.SOLV>
18.6982

>  <SCORE.INTER.VDW>
-26.2244

>  <SCORE.INTER.norm>
-3.72884

>  <SCORE.INTRA>
-0.587476

>  <SCORE.INTRA.DIHEDRAL>
0.58532

>  <SCORE.INTRA.DIHEDRAL.0>
1.76676

>  <SCORE.INTRA.POLAR>
-0.35403

>  <SCORE.INTRA.POLAR.0>
-0.472211

>  <SCORE.INTRA.REPUL>
0

>  <SCORE.INTRA.REPUL.0>
0

>  <SCORE.INTRA.SOLV>
0.104172

>  <SCORE.INTRA.SOLV.lig_0>
-22.5855

>  <SCORE.INTRA.VDW>
0.27148

>  <SCORE.INTRA.VDW.0>
-0.733656

>  <SCORE.INTRA.norm>
-0.0451905

>  <SCORE.RESTR>
0.129575

>  <SCORE.RESTR.CAVITY>
0.129575

>  <SCORE.RESTR.norm>
0.00996729

>  <SCORE.SYSTEM>
0

>  <SCORE.SYSTEM.CONST>
0

>  <SCORE.SYSTEM.DIHEDRAL>
0

>  <SCORE.SYSTEM.SOLV>
0

>  <SCORE.SYSTEM.norm>
0

>  <SCORE.heavy>
13

>  <SCORE.norm>
-3.76406

>  <RMSD>
0.608

$$$$
lig.pdb
 OpenBabel11021811453D
libRbt.so/2013.1/901 2013/11/27
 13 14  0  0  0  0  0  0  0  0999 V2000
  -11.0381    4.0685   -7.0564 N   0  0  0  0  0  0  0  0  0  0  0  0
  -11.1007    3.5564   -8.3214 C   0  0  0  0  0  0  0  0  0  0  0  0
   -9.9917    3.3074   -8.9944 N   0  0  0  0  0  0  0  0  0  0  0  0
   -8.7518    3.5473   -8.4684 C   0  0  0  0  0  0  0  0  0  0  0  0
   -8.6290    4.0833   -7.1634 C   0  0  0  0  0  0  0  0  0  0  0  0
   -9.8326    4.3483   -6.4433 C   0  0  0  0  0  0  0  0  0  0  0  0
   -9.7977    4.8112   -5.3166 O   0  0  0  0  0  0  0  0  0  0  0  0
   -7.1914    4.2292   -6.9062 C   0  0  0  0  0  0  0  0  0  0  0  0
   -6.5293    4.7745   -5.6685 C   0  0  0  0  0  0  0  0  0  0  0  0
   -5.7789    5.9910   -6.0074 N   0  0  0  0  0  0  0  0  0  0  0  0
   -6.5713    3.7814   -8.0049 C   0  0  0  0  0  0  0  0  0  0  0  0
   -7.4874    3.3805   -8.9405 N   0  0  0  0  0  0  0  0  0  0  0  0
  -12.3208    3.3013   -8.8925 N   0  0  0  0  0  0  0  0  0  0  0  0
  1  6  1  0  0  0  0
  2  1  1  0  0  0  0
  3  4  1  0  0  0  0
  3  2  2  0  0  0  0
  4  5  2  0  0  0  0
  5  8  1  0  0  0  0
  5  6  1  0  0  0  0
  6  7  2  0  0  0  0
  8  9  1  0  0  0  0
  9 10  1  0  0  0  0
 11  8  2  0  0  0  0
 12  4  1  0  0  0  0
 12 11  1  0  0  0  0
 13  2  1  0  0  0  0
M  END
>  <CHROM.1>
-116.91299146,-51.37553817,-8.87096469,4.11927623,-7.38232844,2.70239905
-0.09124483,-2.03512368

>  <Name>
lig.pdb

>  <RI>
1.17462e+07

>  <Rbt.Current_Directory>
/home/itssahil/PROJECTS/Mol_Feturizer/New_Systems/rnas/2miy

>  <Rbt.Executable>
rbdock ($Id: //depot/dev/client3/rdock/2013.1/src/exe/rbdock.cxx#4 $)

>  <Rbt.Library>
libRbt.so (2013.1, Build901 2013/11/27)

>  <Rbt.Parameter_File>
/export/apps/rDock/src/rDock_2013.1_src/data/scripts/dock_solv.prm

>  <Rbt.Receptor>
prm/blind_docking_40.prm

>  <SCORE>
-44.4531

>  <SCORE.INTER>
-47.1167

>  <SCORE.INTER.CONST>
1

>  <SCORE.INTER.POLAR>
-5.55895

>  <SCORE.INTER.ROT>
2

>  <SCORE.INTER.SOLV>
20.4368

>  <SCORE.INTER.VDW>
-24.6269

>  <SCORE.INTER.norm>
-3.62436

>  <SCORE.INTRA>
2.48937

>  <SCORE.INTRA.DIHEDRAL>
1.84657

>  <SCORE.INTRA.DIHEDRAL.0>
1.76676

>  <SCORE.INTRA.POLAR>
0.472211

>  <SCORE.INTRA.POLAR.0>
-0.472211

>  <SCORE.INTRA.REPUL>
0

>  <SCORE.INTRA.REPUL.0>
0

>  <SCORE.INTRA.SOLV>
-0.619886

>  <SCORE.INTRA.SOLV.lig_0>
-22.5855

>  <SCORE.INTRA.VDW>
0.27051

>  <SCORE.INTRA.VDW.0>
-0.733656

>  <SCORE.INTRA.norm>
0.19149

>  <SCORE.RESTR>
0.174244

>  <SCORE.RESTR.CAVITY>
0.174244

>  <SCORE.RESTR.norm>
0.0134034

>  <SCORE.SYSTEM>
0

>  <SCORE.SYSTEM.CONST>
0

>  <SCORE.SYSTEM.DIHEDRAL>
0

>  <SCORE.SYSTEM.SOLV>
0

>  <SCORE.SYSTEM.norm>
0

>  <SCORE.heavy>
13

>  <SCORE.norm>
-3.41947

>  <RMSD>
0.614

$$$$
lig.pdb
 OpenBabel11021811453D
libRbt.so/2013.1/901 2013/11/27
 13 14  0  0  0  0  0  0  0  0999 V2000
  -11.1884    3.8516   -7.0095 N   0  0  0  0  0  0  0  0  0  0  0  0
  -11.2615    3.3814   -8.2902 C   0  0  0  0  0  0  0  0  0  0  0  0
  -10.1612    3.2143   -9.0018 N   0  0  0  0  0  0  0  0  0  0  0  0
   -8.9205    3.5003   -8.5014 C   0  0  0  0  0  0  0  0  0  0  0  0
   -8.7873    3.9960   -7.1817 C   0  0  0  0  0  0  0  0  0  0  0  0
   -9.9815    4.1724   -6.4198 C   0  0  0  0  0  0  0  0  0  0  0  0
   -9.9374    4.5969   -5.2784 O   0  0  0  0  0  0  0  0  0  0  0  0
   -7.3523    4.2079   -6.9586 C   0  0  0  0  0  0  0  0  0  0  0  0
   -6.6831    4.7435   -5.7205 C   0  0  0  0  0  0  0  0  0  0  0  0
   -5.6862    5.7540   -6.0982 N   0  0  0  0  0  0  0  0  0  0  0  0
   -6.7423    3.8318   -8.0895 C   0  0  0  0  0  0  0  0  0  0  0  0
   -7.6635    3.4165   -9.0137 N   0  0  0  0  0  0  0  0  0  0  0  0
  -12.4831    3.0829   -8.8366 N   0  0  0  0  0  0  0  0  0  0  0  0
  1  6  1  0  0  0  0
  2  1  1  0  0  0  0
  3  4  1  0  0  0  0
  3  2  2  0  0  0  0
  4  5  2  0  0  0  0
  5  8  1  0  0  0  0
  5  6  1  0  0  0  0
  6  7  2  0  0  0  0
  8  9  1  0  0  0  0
  9 10  1  0  0  0  0
 11  8  2  0  0  0  0
 12  4  1  0  0  0  0
 12 11  1  0  0  0  0
 13  2  1  0  0  0  0
M  END
>  <CHROM.1>
-134.11244544,177.29750184,-9.00737080,4.00325594,-7.39837360,2.73539645
-0.14354066,-1.97301373

>  <Name>
lig.pdb

>  <RI>
3.47783e+07

>  <Rbt.Current_Directory>
/home/itssahil/PROJECTS/Mol_Feturizer/New_Systems/rnas/2miy

>  <Rbt.Executable>
rbdock ($Id: //depot/dev/client3/rdock/2013.1/src/exe/rbdock.cxx#4 $)

>  <Rbt.Library>
libRbt.so (2013.1, Build901 2013/11/27)

>  <Rbt.Parameter_File>
/export/apps/rDock/src/rDock_2013.1_src/data/scripts/dock_solv.prm

>  <Rbt.Receptor>
prm/pocket_docking_8.prm

>  <SCORE>
-44.7647

>  <SCORE.INTER>
-47.3807

>  <SCORE.INTER.CONST>
1

>  <SCORE.INTER.POLAR>
-5.62083

>  <SCORE.INTER.ROT>
2

>  <SCORE.INTER.SOLV>
20.6469

>  <SCORE.INTER.VDW>
-24.6667

>  <SCORE.INTER.norm>
-3.64467

>  <SCORE.INTRA>
2.61597

>  <SCORE.INTRA.DIHEDRAL>
1.58278

>  <SCORE.INTRA.DIHEDRAL.0>
1.76676

>  <SCORE.INTRA.POLAR>
0.472211

>  <SCORE.INTRA.POLAR.0>
-0.472211

>  <SCORE.INTRA.REPUL>
0

>  <SCORE.INTRA.REPUL.0>
0

>  <SCORE.INTRA.SOLV>
-0.61432

>  <SCORE.INTRA.SOLV.lig_0>
-22.5855

>  <SCORE.INTRA.VDW>
0.526217

>  <SCORE.INTRA.VDW.0>
-0.733656

>  <SCORE.INTRA.norm>
0.201228

>  <SCORE.RESTR>
0

>  <SCORE.RESTR.CAVITY>
0

>  <SCORE.RESTR.norm>
0

>  <SCORE.SYSTEM>
0

>  <SCORE.SYSTEM.CONST>
0

>  <SCORE.SYSTEM.DIHEDRAL>
0

>  <SCORE.SYSTEM.SOLV>
0

>  <SCORE.SYSTEM.norm>
0

>  <SCORE.heavy>
13

>  <SCORE.norm>
-3.44344

>  <RMSD>
0.616

$$$$
lig.pdb
 OpenBabel11021811453D
libRbt.so/2013.1/901 2013/11/27
 13 14  0  0  0  0  0  0  0  0999 V2000
  -10.9676    4.2986   -7.2538 N   0  0  0  0  0  0  0  0  0  0  0  0
  -11.0011    3.8259   -8.5351 C   0  0  0  0  0  0  0  0  0  0  0  0
   -9.8807    3.4983   -9.1533 N   0  0  0  0  0  0  0  0  0  0  0  0
   -8.6571    3.6162   -8.5530 C   0  0  0  0  0  0  0  0  0  0  0  0
   -8.5638    4.1064   -7.2278 C   0  0  0  0  0  0  0  0  0  0  0  0
   -9.7798    4.4570   -6.5672 C   0  0  0  0  0  0  0  0  0  0  0  0
   -9.7700    4.8867   -5.4269 O   0  0  0  0  0  0  0  0  0  0  0  0
   -7.1362    4.1203   -6.8876 C   0  0  0  0  0  0  0  0  0  0  0  0
   -6.5019    4.5747   -5.5996 C   0  0  0  0  0  0  0  0  0  0  0  0
   -6.4916    6.0426   -5.5475 N   0  0  0  0  0  0  0  0  0  0  0  0
   -6.4947    3.6480   -7.9635 C   0  0  0  0  0  0  0  0  0  0  0  0
   -7.3865    3.3519   -8.9597 N   0  0  0  0  0  0  0  0  0  0  0  0
  -12.2038    3.6923   -9.1798 N   0  0  0  0  0  0  0  0  0  0  0  0
  1  6  1  0  0  0  0
  2  1  1  0  0  0  0
  3  4  1  0  0  0  0
  3  2  2  0  0  0  0
  4  5  2  0  0  0  0
  5  8  1  0  0  0  0
  5  6  1  0  0  0  0
  6  7  2  0  0  0  0
  8  9  1  0  0  0  0
  9 10  1  0  0  0  0
 11  8  2  0  0  0  0
 12  4  1  0  0  0  0
 12 11  1  0  0  0  0
 13  2  1  0  0  0  0
M  END
>  <CHROM.1>
-76.03597238,-127.98693160,-8.86918660,4.19809366,-7.42923985,2.61621780
0.03398599,-2.04827037

>  <Name>
lig.pdb

>  <RI>
2.60406e+07

>  <Rbt.Current_Directory>
/home/itssahil/PROJECTS/Mol_Feturizer/New_Systems/rnas/2miy

>  <Rbt.Executable>
rbdock ($Id: //depot/dev/client3/rdock/2013.1/src/exe/rbdock.cxx#4 $)

>  <Rbt.Library>
libRbt.so (2013.1, Build901 2013/11/27)

>  <Rbt.Parameter_File>
/export/apps/rDock/src/rDock_2013.1_src/data/scripts/dock_solv.prm

>  <Rbt.Receptor>
prm/pocket_docking_7.prm

>  <SCORE>
-44.6746

>  <SCORE.INTER>
-46.2025

>  <SCORE.INTER.CONST>
1

>  <SCORE.INTER.POLAR>
-5.52655

>  <SCORE.INTER.ROT>
2

>  <SCORE.INTER.SOLV>
18.8597

>  <SCORE.INTER.VDW>
-23.5998

>  <SCORE.INTER.norm>
-3.55404

>  <SCORE.INTRA>
1.52794

>  <SCORE.INTRA.DIHEDRAL>
0.0349337

>  <SCORE.INTRA.DIHEDRAL.0>
1.76676

>  <SCORE.INTRA.POLAR>
0.472211

>  <SCORE.INTRA.POLAR.0>
-0.472211

>  <SCORE.INTRA.REPUL>
0

>  <SCORE.INTRA.REPUL.0>
0

>  <SCORE.INTRA.SOLV>
-0.309345

>  <SCORE.INTRA.SOLV.lig_0>
-22.5855

>  <SCORE.INTRA.VDW>
0.0596238

>  <SCORE.INTRA.VDW.0>
-0.733656

>  <SCORE.INTRA.norm>
0.117534

>  <SCORE.RESTR>
0

>  <SCORE.RESTR.CAVITY>
0

>  <SCORE.RESTR.norm>
0

>  <SCORE.SYSTEM>
0

>  <SCORE.SYSTEM.CONST>
0

>  <SCORE.SYSTEM.DIHEDRAL>
0

>  <SCORE.SYSTEM.SOLV>
0

>  <SCORE.SYSTEM.norm>
0

>  <SCORE.heavy>
13

>  <SCORE.norm>
-3.4365

>  <RMSD>
0.625

$$$$
lig.pdb
 OpenBabel11021811453D
libRbt.so/2013.1/901 2013/11/27
 13 14  0  0  0  0  0  0  0  0999 V2000
  -10.9561    4.3175   -7.2587 N   0  0  0  0  0  0  0  0  0  0  0  0
  -10.9923    3.8270   -8.5332 C   0  0  0  0  0  0  0  0  0  0  0  0
   -9.8726    3.4981   -9.1520 N   0  0  0  0  0  0  0  0  0  0  0  0
   -8.6471    3.6320   -8.5589 C   0  0  0  0  0  0  0  0  0  0  0  0
   -8.5511    4.1410   -7.2410 C   0  0  0  0  0  0  0  0  0  0  0  0
   -9.7663    4.4928   -6.5798 C   0  0  0  0  0  0  0  0  0  0  0  0
   -9.7542    4.9380   -5.4455 O   0  0  0  0  0  0  0  0  0  0  0  0
   -7.1221    4.1686   -6.9076 C   0  0  0  0  0  0  0  0  0  0  0  0
   -6.4850    4.6446   -5.6288 C   0  0  0  0  0  0  0  0  0  0  0  0
   -6.4869    6.1131   -5.5952 N   0  0  0  0  0  0  0  0  0  0  0  0
   -6.4823    3.6858   -7.9799 C   0  0  0  0  0  0  0  0  0  0  0  0
   -7.3767    3.3704   -8.9678 N   0  0  0  0  0  0  0  0  0  0  0  0
  -12.1970    3.6770   -9.1705 N   0  0  0  0  0  0  0  0  0  0  0  0
  1  6  1  0  0  0  0
  2  1  1  0  0  0  0
  3  4  1  0  0  0  0
  3  2  2  0  0  0  0
  4  5  2  0  0  0  0
  5  8  1  0  0  0  0
  5  6  1  0  0  0  0
  6  7  2  0  0  0  0
  8  9  1  0  0  0  0
  9 10  1  0  0  0  0
 11  8  2  0  0  0  0
 12  4  1  0  0  0  0
 12 11  1  0  0  0  0
 13  2  1  0  0  0  0
M  END
>  <CHROM.1>
-75.89377096,-132.36672699,-8.85820674,4.22790818,-7.44215619,2.61681460
0.02642669,-2.06198176

>  <Name>
lig.pdb

>  <RI>
9.06885e+06

>  <Rbt.Current_Directory>
/home/itssahil/PROJECTS/Mol_Feturizer/New_Systems/rnas/2miy

>  <Rbt.Executable>
rbdock ($Id: //depot/dev/client3/rdock/2013.1/src/exe/rbdock.cxx#4 $)

>  <Rbt.Library>
libRbt.so (2013.1, Build901 2013/11/27)

>  <Rbt.Parameter_File>
/export/apps/rDock/src/rDock_2013.1_src/data/scripts/dock_solv.prm

>  <Rbt.Receptor>
prm/pocket_docking_6.prm

>  <SCORE>
-44.7672

>  <SCORE.INTER>
-46.2931

>  <SCORE.INTER.CONST>
1

>  <SCORE.INTER.POLAR>
-5.47424

>  <SCORE.INTER.ROT>
2

>  <SCORE.INTER.SOLV>
19.0427

>  <SCORE.INTER.VDW>
-23.8955

>  <SCORE.INTER.norm>
-3.56101

>  <SCORE.INTRA>
1.52597

>  <SCORE.INTRA.DIHEDRAL>
0.0227365

>  <SCORE.INTRA.DIHEDRAL.0>
1.76676

>  <SCORE.INTRA.POLAR>
0.472211

>  <SCORE.INTRA.POLAR.0>
-0.472211

>  <SCORE.INTRA.REPUL>
0

>  <SCORE.INTRA.REPUL.0>
0

>  <SCORE.INTRA.SOLV>
-0.309392

>  <SCORE.INTRA.SOLV.lig_0>
-22.5855

>  <SCORE.INTRA.VDW>
0.0637778

>  <SCORE.INTRA.VDW.0>
-0.733656

>  <SCORE.INTRA.norm>
0.117382

>  <SCORE.RESTR>
0

>  <SCORE.RESTR.CAVITY>
0

>  <SCORE.RESTR.norm>
0

>  <SCORE.SYSTEM>
0

>  <SCORE.SYSTEM.CONST>
0

>  <SCORE.SYSTEM.DIHEDRAL>
0

>  <SCORE.SYSTEM.SOLV>
0

>  <SCORE.SYSTEM.norm>
0

>  <SCORE.heavy>
13

>  <SCORE.norm>
-3.44363

>  <RMSD>
0.628

$$$$
lig.pdb
 OpenBabel11021811453D
libRbt.so/2013.1/901 2013/11/27
 13 14  0  0  0  0  0  0  0  0999 V2000
  -10.9719    4.2876   -7.2524 N   0  0  0  0  0  0  0  0  0  0  0  0
  -11.0036    3.8191   -8.5353 C   0  0  0  0  0  0  0  0  0  0  0  0
   -9.8827    3.4897   -9.1517 N   0  0  0  0  0  0  0  0  0  0  0  0
   -8.6603    3.6015   -8.5478 C   0  0  0  0  0  0  0  0  0  0  0  0
   -8.5688    4.0873   -7.2208 C   0  0  0  0  0  0  0  0  0  0  0  0
   -9.7853    4.4398   -6.5623 C   0  0  0  0  0  0  0  0  0  0  0  0
   -9.7771    4.8657   -5.4206 O   0  0  0  0  0  0  0  0  0  0  0  0
   -7.1421    4.0952   -6.8770 C   0  0  0  0  0  0  0  0  0  0  0  0
   -6.5096    4.5433   -5.5859 C   0  0  0  0  0  0  0  0  0  0  0  0
   -6.4576    6.0108   -5.5470 N   0  0  0  0  0  0  0  0  0  0  0  0
   -6.4993    3.6243   -7.9527 C   0  0  0  0  0  0  0  0  0  0  0  0
   -7.3896    3.3344   -8.9522 N   0  0  0  0  0  0  0  0  0  0  0  0
  -12.2051    3.6916   -9.1835 N   0  0  0  0  0  0  0  0  0  0  0  0
  1  6  1  0  0  0  0
  2  1  1  0  0  0  0
  3  4  1  0  0  0  0
  3  2  2  0  0  0  0
  4  5  2  0  0  0  0
  5  8  1  0  0  0  0
  5  6  1  0  0  0  0
  6  7  2  0  0  0  0
  8  9  1  0  0  0  0
  9 10  1  0  0  0  0
 11  8  2  0  0  0  0
 12  4  1  0  0  0  0
 12 11  1  0  0  0  0
 13  2  1  0  0  0  0
M  END
>  <CHROM.1>
-77.73657281,54.17512212,-8.86987433,4.18055987,-7.42461256,2.61863788,0.03648843
-2.04456943

>  <Name>
lig.pdb

>  <RI>
2.60406e+07

>  <Rbt.Current_Directory>
/home/itssahil/PROJECTS/Mol_Feturizer/New_Systems/rnas/2miy

>  <Rbt.Executable>
rbdock ($Id: //depot/dev/client3/rdock/2013.1/src/exe/rbdock.cxx#4 $)

>  <Rbt.Library>
libRbt.so (2013.1, Build901 2013/11/27)

>  <Rbt.Parameter_File>
/export/apps/rDock/src/rDock_2013.1_src/data/scripts/dock_solv.prm

>  <Rbt.Receptor>
prm/pocket_docking_7.prm

>  <SCORE>
-44.7571

>  <SCORE.INTER>
-46.3311

>  <SCORE.INTER.CONST>
1

>  <SCORE.INTER.POLAR>
-5.56977

>  <SCORE.INTER.ROT>
2

>  <SCORE.INTER.SOLV>
18.8617

>  <SCORE.INTER.VDW>
-23.5421

>  <SCORE.INTER.norm>
-3.56393

>  <SCORE.INTRA>
1.57406

>  <SCORE.INTRA.DIHEDRAL>
0.131241

>  <SCORE.INTRA.DIHEDRAL.0>
1.76676

>  <SCORE.INTRA.POLAR>
0.472211

>  <SCORE.INTRA.POLAR.0>
-0.472211

>  <SCORE.INTRA.REPUL>
0

>  <SCORE.INTRA.REPUL.0>
0

>  <SCORE.INTRA.SOLV>
-0.325509

>  <SCORE.INTRA.SOLV.lig_0>
-22.5855

>  <SCORE.INTRA.VDW>
0.0656729

>  <SCORE.INTRA.VDW.0>
-0.733656

>  <SCORE.INTRA.norm>
0.121081

>  <SCORE.RESTR>
0

>  <SCORE.RESTR.CAVITY>
0

>  <SCORE.RESTR.norm>
0

>  <SCORE.SYSTEM>
0

>  <SCORE.SYSTEM.CONST>
0

>  <SCORE.SYSTEM.DIHEDRAL>
0

>  <SCORE.SYSTEM.SOLV>
0

>  <SCORE.SYSTEM.norm>
0

>  <SCORE.heavy>
13

>  <SCORE.norm>
-3.44285

>  <RMSD>
0.630

$$$$
lig.pdb
 OpenBabel11021811453D
libRbt.so/2013.1/901 2013/11/27
 13 14  0  0  0  0  0  0  0  0999 V2000
  -10.9591    4.3095   -7.2573 N   0  0  0  0  0  0  0  0  0  0  0  0
  -10.9939    3.8293   -8.5358 C   0  0  0  0  0  0  0  0  0  0  0  0
   -9.8735    3.5046   -9.1557 N   0  0  0  0  0  0  0  0  0  0  0  0
   -8.6487    3.6329   -8.5599 C   0  0  0  0  0  0  0  0  0  0  0  0
   -8.5542    4.1312   -7.2378 C   0  0  0  0  0  0  0  0  0  0  0  0
   -9.7701    4.4785   -6.5754 C   0  0  0  0  0  0  0  0  0  0  0  0
   -9.7592    4.9147   -5.4376 O   0  0  0  0  0  0  0  0  0  0  0  0
   -7.1256    4.1551   -6.9023 C   0  0  0  0  0  0  0  0  0  0  0  0
   -6.4899    4.6204   -5.6189 C   0  0  0  0  0  0  0  0  0  0  0  0
   -6.4609    6.0887   -5.5884 N   0  0  0  0  0  0  0  0  0  0  0  0
   -6.4847    3.6805   -7.9775 C   0  0  0  0  0  0  0  0  0  0  0  0
   -7.3780    3.3737   -8.9692 N   0  0  0  0  0  0  0  0  0  0  0  0
  -12.1978    3.6852   -9.1759 N   0  0  0  0  0  0  0  0  0  0  0  0
  1  6  1  0  0  0  0
  2  1  1  0  0  0  0
  3  4  1  0  0  0  0
  3  2  2  0  0  0  0
  4  5  2  0  0  0  0
  5  8  1  0  0  0  0
  5  6  1  0  0  0  0
  6  7  2  0  0  0  0
  8  9  1  0  0  0  0
  9 10  1  0  0  0  0
 11  8  2  0  0  0  0
 12  4  1  0  0  0  0
 12 11  1  0  0  0  0
 13  2  1  0  0  0  0
M  END
>  <CHROM.1>
-77.28299668,46.69688205,-8.85812550,4.21995489,-7.44023510,2.61845972,0.02632929
-2.05357629

>  <Name>
lig.pdb

>  <RI>
3.47783e+07

>  <Rbt.Current_Directory>
/home/itssahil/PROJECTS/Mol_Feturizer/New_Systems/rnas/2miy

>  <Rbt.Executable>
rbdock ($Id: //depot/dev/client3/rdock/2013.1/src/exe/rbdock.cxx#4 $)

>  <Rbt.Library>
libRbt.so (2013.1, Build901 2013/11/27)

>  <Rbt.Parameter_File>
/export/apps/rDock/src/rDock_2013.1_src/data/scripts/dock_solv.prm

>  <Rbt.Receptor>
prm/pocket_docking_8.prm

>  <SCORE>
-44.7771

>  <SCORE.INTER>
-46.3535

>  <SCORE.INTER.CONST>
1

>  <SCORE.INTER.POLAR>
-5.49915

>  <SCORE.INTER.ROT>
2

>  <SCORE.INTER.SOLV>
19.0382

>  <SCORE.INTER.VDW>
-23.8512

>  <SCORE.INTER.norm>
-3.56565

>  <SCORE.INTRA>
1.57633

>  <SCORE.INTRA.DIHEDRAL>
0.120857

>  <SCORE.INTRA.DIHEDRAL.0>
1.76676

>  <SCORE.INTRA.POLAR>
0.472211

>  <SCORE.INTRA.POLAR.0>
-0.472211

>  <SCORE.INTRA.REPUL>
0

>  <SCORE.INTRA.REPUL.0>
0

>  <SCORE.INTRA.SOLV>
-0.323641

>  <SCORE.INTRA.SOLV.lig_0>
-22.5855

>  <SCORE.INTRA.VDW>
0.0722068

>  <SCORE.INTRA.VDW.0>
-0.733656

>  <SCORE.INTRA.norm>
0.121256

>  <SCORE.RESTR>
0

>  <SCORE.RESTR.CAVITY>
0

>  <SCORE.RESTR.norm>
0

>  <SCORE.SYSTEM>
0

>  <SCORE.SYSTEM.CONST>
0

>  <SCORE.SYSTEM.DIHEDRAL>
0

>  <SCORE.SYSTEM.SOLV>
0

>  <SCORE.SYSTEM.norm>
0

>  <SCORE.heavy>
13

>  <SCORE.norm>
-3.44439

>  <RMSD>
0.631

$$$$
lig.pdb
 OpenBabel11021811453D
libRbt.so/2013.1/901 2013/11/27
 13 14  0  0  0  0  0  0  0  0999 V2000
  -10.9385    4.3591   -7.2503 N   0  0  0  0  0  0  0  0  0  0  0  0
  -10.9844    3.8460   -8.5156 C   0  0  0  0  0  0  0  0  0  0  0  0
   -9.8693    3.5088   -9.1381 N   0  0  0  0  0  0  0  0  0  0  0  0
   -8.6390    3.6560   -8.5582 C   0  0  0  0  0  0  0  0  0  0  0  0
   -8.5329    4.1885   -7.2504 C   0  0  0  0  0  0  0  0  0  0  0  0
   -9.7433    4.5492   -6.5850 C   0  0  0  0  0  0  0  0  0  0  0  0
   -9.7225    5.0145   -5.4589 O   0  0  0  0  0  0  0  0  0  0  0  0
   -7.1012    4.2254   -6.9299 C   0  0  0  0  0  0  0  0  0  0  0  0
   -6.4542    4.7255   -5.6654 C   0  0  0  0  0  0  0  0  0  0  0  0
   -6.4751    6.1942   -5.6498 N   0  0  0  0  0  0  0  0  0  0  0  0
   -6.4695    3.7251   -7.9990 C   0  0  0  0  0  0  0  0  0  0  0  0
   -7.3716    3.3901   -8.9734 N   0  0  0  0  0  0  0  0  0  0  0  0
  -12.1942    3.6818   -9.1396 N   0  0  0  0  0  0  0  0  0  0  0  0
  1  6  1  0  0  0  0
  2  1  1  0  0  0  0
  3  4  1  0  0  0  0
  3  2  2  0  0  0  0
  4  5  2  0  0  0  0
  5  8  1  0  0  0  0
  5  6  1  0  0  0  0
  6  7  2  0  0  0  0
  8  9  1  0  0  0  0
  9 10  1  0  0  0  0
 11  8  2  0  0  0  0
 12  4  1  0  0  0  0
 12 11  1  0  0  0  0
 13  2  1  0  0  0  0
M  END
>  <CHROM.1>
-75.16933294,42.89753235,-8.84338877,4.27115093,-7.44979663,2.62202100,0.02081154
-2.07998085

>  <Name>
lig.pdb

>  <RI>
1.82164e+07

>  <Rbt.Current_Directory>
/home/itssahil/PROJECTS/Mol_Feturizer/New_Systems/rnas/2miy

>  <Rbt.Executable>
rbdock ($Id: //depot/dev/client3/rdock/2013.1/src/exe/rbdock.cxx#4 $)

>  <Rbt.Library>
libRbt.so (2013.1, Build901 2013/11/27)

>  <Rbt.Parameter_File>
/export/apps/rDock/src/rDock_2013.1_src/data/scripts/dock_solv.prm

>  <Rbt.Receptor>
prm/blind_docking_80.prm

>  <SCORE>
-44.8648

>  <SCORE.INTER>
-46.4025

>  <SCORE.INTER.CONST>
1

>  <SCORE.INTER.POLAR>
-5.49837

>  <SCORE.INTER.ROT>
2

>  <SCORE.INTER.SOLV>
19.2524

>  <SCORE.INTER.VDW>
-23.9579

>  <SCORE.INTER.norm>
-3.56943

>  <SCORE.INTRA>
1.53774

>  <SCORE.INTRA.DIHEDRAL>
0.0330448

>  <SCORE.INTRA.DIHEDRAL.0>
1.76676

>  <SCORE.INTRA.POLAR>
0.472211

>  <SCORE.INTRA.POLAR.0>
-0.472211

>  <SCORE.INTRA.REPUL>
0

>  <SCORE.INTRA.REPUL.0>
0

>  <SCORE.INTRA.SOLV>
-0.30424

>  <SCORE.INTRA.SOLV.lig_0>
-22.5855

>  <SCORE.INTRA.VDW>
0.0678163

>  <SCORE.INTRA.VDW.0>
-0.733656

>  <SCORE.INTRA.norm>
0.118287

>  <SCORE.RESTR>
0

>  <SCORE.RESTR.CAVITY>
0

>  <SCORE.RESTR.norm>
0

>  <SCORE.SYSTEM>
0

>  <SCORE.SYSTEM.CONST>
0

>  <SCORE.SYSTEM.DIHEDRAL>
0

>  <SCORE.SYSTEM.SOLV>
0

>  <SCORE.SYSTEM.norm>
0

>  <SCORE.heavy>
13

>  <SCORE.norm>
-3.45114

>  <RMSD>
0.634

$$$$
lig.pdb
 OpenBabel11021811453D
libRbt.so/2013.1/901 2013/11/27
 13 14  0  0  0  0  0  0  0  0999 V2000
  -10.9370    4.3501   -7.2526 N   0  0  0  0  0  0  0  0  0  0  0  0
  -10.9814    3.8370   -8.5180 C   0  0  0  0  0  0  0  0  0  0  0  0
   -9.8653    3.5023   -9.1402 N   0  0  0  0  0  0  0  0  0  0  0  0
   -8.6356    3.6522   -8.5599 C   0  0  0  0  0  0  0  0  0  0  0  0
   -8.5311    4.1849   -7.2520 C   0  0  0  0  0  0  0  0  0  0  0  0
   -9.7424    4.5428   -6.5870 C   0  0  0  0  0  0  0  0  0  0  0  0
   -9.7230    5.0082   -5.4609 O   0  0  0  0  0  0  0  0  0  0  0  0
   -7.0995    4.2249   -6.9311 C   0  0  0  0  0  0  0  0  0  0  0  0
   -6.4540    4.7264   -5.6663 C   0  0  0  0  0  0  0  0  0  0  0  0
   -6.4700    6.1951   -5.6549 N   0  0  0  0  0  0  0  0  0  0  0  0
   -6.4664    3.7260   -8.0000 C   0  0  0  0  0  0  0  0  0  0  0  0
   -7.3674    3.3891   -8.9747 N   0  0  0  0  0  0  0  0  0  0  0  0
  -12.1906    3.6702   -9.1424 N   0  0  0  0  0  0  0  0  0  0  0  0
  1  6  1  0  0  0  0
  2  1  1  0  0  0  0
  3  4  1  0  0  0  0
  3  2  2  0  0  0  0
  4  5  2  0  0  0  0
  5  8  1  0  0  0  0
  5  6  1  0  0  0  0
  6  7  2  0  0  0  0
  8  9  1  0  0  0  0
  9 10  1  0  0  0  0
 11  8  2  0  0  0  0
 12  4  1  0  0  0  0
 12 11  1  0  0  0  0
 13  2  1  0  0  0  0
M  END
>  <CHROM.1>
-75.55057127,-137.44416379,-8.84092725,4.26682586,-7.45173812,2.62110489
0.01877299,-2.07985250

>  <Name>
lig.pdb

>  <RI>
1.17462e+07

>  <Rbt.Current_Directory>
/home/itssahil/PROJECTS/Mol_Feturizer/New_Systems/rnas/2miy

>  <Rbt.Executable>
rbdock ($Id: //depot/dev/client3/rdock/2013.1/src/exe/rbdock.cxx#4 $)

>  <Rbt.Library>
libRbt.so (2013.1, Build901 2013/11/27)

>  <Rbt.Parameter_File>
/export/apps/rDock/src/rDock_2013.1_src/data/scripts/dock_solv.prm

>  <Rbt.Receptor>
prm/blind_docking_40.prm

>  <SCORE>
-44.8846

>  <SCORE.INTER>
-46.4067

>  <SCORE.INTER.CONST>
1

>  <SCORE.INTER.POLAR>
-5.47041

>  <SCORE.INTER.ROT>
2

>  <SCORE.INTER.SOLV>
19.2632

>  <SCORE.INTER.VDW>
-24.0575

>  <SCORE.INTER.norm>
-3.56975

>  <SCORE.INTRA>
1.52205

>  <SCORE.INTRA.DIHEDRAL>
0.00225677

>  <SCORE.INTRA.DIHEDRAL.0>
1.76676

>  <SCORE.INTRA.POLAR>
0.472211

>  <SCORE.INTRA.POLAR.0>
-0.472211

>  <SCORE.INTRA.REPUL>
0

>  <SCORE.INTRA.REPUL.0>
0

>  <SCORE.INTRA.SOLV>
-0.30819

>  <SCORE.INTRA.SOLV.lig_0>
-22.5855

>  <SCORE.INTRA.VDW>
0.0694959

>  <SCORE.INTRA.VDW.0>
-0.733656

>  <SCORE.INTRA.norm>
0.117081

>  <SCORE.RESTR>
0

>  <SCORE.RESTR.CAVITY>
0

>  <SCORE.RESTR.norm>
0

>  <SCORE.SYSTEM>
0

>  <SCORE.SYSTEM.CONST>
0

>  <SCORE.SYSTEM.DIHEDRAL>
0

>  <SCORE.SYSTEM.SOLV>
0

>  <SCORE.SYSTEM.norm>
0

>  <SCORE.heavy>
13

>  <SCORE.norm>
-3.45266

>  <RMSD>
0.635

$$$$
lig.pdb
 OpenBabel11021811453D
libRbt.so/2013.1/901 2013/11/27
 13 14  0  0  0  0  0  0  0  0999 V2000
  -10.9605    4.3057   -7.2567 N   0  0  0  0  0  0  0  0  0  0  0  0
  -10.9951    3.8265   -8.5356 C   0  0  0  0  0  0  0  0  0  0  0  0
   -9.8748    3.4997   -9.1545 N   0  0  0  0  0  0  0  0  0  0  0  0
   -8.6504    3.6247   -8.5574 C   0  0  0  0  0  0  0  0  0  0  0  0
   -8.5560    4.1218   -7.2349 C   0  0  0  0  0  0  0  0  0  0  0  0
   -9.7717    4.4714   -6.5735 C   0  0  0  0  0  0  0  0  0  0  0  0
   -9.7610    4.9067   -5.4353 O   0  0  0  0  0  0  0  0  0  0  0  0
   -7.1277    4.1422   -6.8978 C   0  0  0  0  0  0  0  0  0  0  0  0
   -6.4923    4.6050   -5.6134 C   0  0  0  0  0  0  0  0  0  0  0  0
   -6.4286    6.0725   -5.5971 N   0  0  0  0  0  0  0  0  0  0  0  0
   -6.4869    3.6668   -7.9728 C   0  0  0  0  0  0  0  0  0  0  0  0
   -7.3798    3.3628   -8.9656 N   0  0  0  0  0  0  0  0  0  0  0  0
  -12.1987    3.6857   -9.1770 N   0  0  0  0  0  0  0  0  0  0  0  0
  1  6  1  0  0  0  0
  2  1  1  0  0  0  0
  3  4  1  0  0  0  0
  3  2  2  0  0  0  0
  4  5  2  0  0  0  0
  5  8  1  0  0  0  0
  5  6  1  0  0  0  0
  6  7  2  0  0  0  0
  8  9  1  0  0  0  0
  9 10  1  0  0  0  0
 11  8  2  0  0  0  0
 12  4  1  0  0  0  0
 12 11  1  0  0  0  0
 13  2  1  0  0  0  0
M  END
>  <CHROM.1>
-78.72303198,50.69385737,-8.85661720,4.21135269,-7.43895114,2.62127799,0.02749865
-2.05240289

>  <Name>
lig.pdb

>  <RI>
9.06885e+06

>  <Rbt.Current_Directory>
/home/itssahil/PROJECTS/Mol_Feturizer/New_Systems/rnas/2miy

>  <Rbt.Executable>
rbdock ($Id: //depot/dev/client3/rdock/2013.1/src/exe/rbdock.cxx#4 $)

>  <Rbt.Library>
libRbt.so (2013.1, Build901 2013/11/27)

>  <Rbt.Parameter_File>
/export/apps/rDock/src/rDock_2013.1_src/data/scripts/dock_solv.prm

>  <Rbt.Receptor>
prm/pocket_docking_6.prm

>  <SCORE>
-44.7787

>  <SCORE.INTER>
-46.3815

>  <SCORE.INTER.CONST>
1

>  <SCORE.INTER.POLAR>
-5.54716

>  <SCORE.INTER.ROT>
2

>  <SCORE.INTER.SOLV>
19.0773

>  <SCORE.INTER.VDW>
-23.7229

>  <SCORE.INTER.norm>
-3.56781

>  <SCORE.INTRA>
1.60289

>  <SCORE.INTRA.DIHEDRAL>
0.183056

>  <SCORE.INTRA.DIHEDRAL.0>
1.76676

>  <SCORE.INTRA.POLAR>
0.472211

>  <SCORE.INTRA.POLAR.0>
-0.472211

>  <SCORE.INTRA.REPUL>
0

>  <SCORE.INTRA.REPUL.0>
0

>  <SCORE.INTRA.SOLV>
-0.336456

>  <SCORE.INTRA.SOLV.lig_0>
-22.5855

>  <SCORE.INTRA.VDW>
0.0740677

>  <SCORE.INTRA.VDW.0>
-0.733656

>  <SCORE.INTRA.norm>
0.123299

>  <SCORE.RESTR>
0

>  <SCORE.RESTR.CAVITY>
0

>  <SCORE.RESTR.norm>
0

>  <SCORE.SYSTEM>
0

>  <SCORE.SYSTEM.CONST>
0

>  <SCORE.SYSTEM.DIHEDRAL>
0

>  <SCORE.SYSTEM.SOLV>
0

>  <SCORE.SYSTEM.norm>
0

>  <SCORE.heavy>
13

>  <SCORE.norm>
-3.44451

>  <RMSD>
0.635

$$$$
lig.pdb
 OpenBabel11021811453D
libRbt.so/2013.1/901 2013/11/27
 13 14  0  0  0  0  0  0  0  0999 V2000
  -10.9597    4.3060   -7.2491 N   0  0  0  0  0  0  0  0  0  0  0  0
  -10.9963    3.8222   -8.5261 C   0  0  0  0  0  0  0  0  0  0  0  0
   -9.8777    3.4849   -9.1426 N   0  0  0  0  0  0  0  0  0  0  0  0
   -8.6530    3.6034   -8.5445 C   0  0  0  0  0  0  0  0  0  0  0  0
   -8.5566    4.1049   -7.2238 C   0  0  0  0  0  0  0  0  0  0  0  0
   -9.7705    4.4659   -6.5651 C   0  0  0  0  0  0  0  0  0  0  0  0
   -9.7579    4.9054   -5.4286 O   0  0  0  0  0  0  0  0  0  0  0  0
   -7.1286    4.1163   -6.8852 C   0  0  0  0  0  0  0  0  0  0  0  0
   -6.4912    4.5795   -5.6019 C   0  0  0  0  0  0  0  0  0  0  0  0
   -6.4134    6.0464   -5.5928 N   0  0  0  0  0  0  0  0  0  0  0  0
   -6.4900    3.6322   -7.9576 C   0  0  0  0  0  0  0  0  0  0  0  0
   -7.3839    3.3308   -8.9502 N   0  0  0  0  0  0  0  0  0  0  0  0
  -12.2001    3.6875   -9.1684 N   0  0  0  0  0  0  0  0  0  0  0  0
  1  6  1  0  0  0  0
  2  1  1  0  0  0  0
  3  4  1  0  0  0  0
  3  2  2  0  0  0  0
  4  5  2  0  0  0  0
  5  8  1  0  0  0  0
  5  6  1  0  0  0  0
  6  7  2  0  0  0  0
  8  9  1  0  0  0  0
  9 10  1  0  0  0  0
 11  8  2  0  0  0  0
 12  4  1  0  0  0  0
 12 11  1  0  0  0  0
 13  2  1  0  0  0  0
M  END
>  <CHROM.1>
-78.88621834,50.85909622,-8.85599194,4.19582393,-7.42871460,2.62391690,0.03425461
-2.05627799

>  <Name>
lig.pdb

>  <RI>
0

>  <Rbt.Current_Directory>
/home/itssahil/PROJECTS/Mol_Feturizer/New_Systems/rnas/2miy

>  <Rbt.Executable>
rbdock ($Id: //depot/dev/client3/rdock/2013.1/src/exe/rbdock.cxx#4 $)

>  <Rbt.Library>
libRbt.so (2013.1, Build901 2013/11/27)

>  <Rbt.Parameter_File>
/export/apps/rDock/src/rDock_2013.1_src/data/scripts/dock_solv.prm

>  <Rbt.Receptor>
prm/pocket_docking_2.prm

>  <SCORE>
-44.7833

>  <SCORE.INTER>
-46.3898

>  <SCORE.INTER.CONST>
1

>  <SCORE.INTER.POLAR>
-5.59461

>  <SCORE.INTER.ROT>
2

>  <SCORE.INTER.SOLV>
19.0413

>  <SCORE.INTER.VDW>
-23.5583

>  <SCORE.INTER.norm>
-3.56845

>  <SCORE.INTRA>
1.60653

>  <SCORE.INTRA.DIHEDRAL>
0.190699

>  <SCORE.INTRA.DIHEDRAL.0>
1.76676

>  <SCORE.INTRA.POLAR>
0.472211

>  <SCORE.INTRA.POLAR.0>
-0.472211

>  <SCORE.INTRA.REPUL>
0

>  <SCORE.INTRA.REPUL.0>
0

>  <SCORE.INTRA.SOLV>
-0.338028

>  <SCORE.INTRA.SOLV.lig_0>
-22.5855

>  <SCORE.INTRA.VDW>
0.0746738

>  <SCORE.INTRA.VDW.0>
-0.733656

>  <SCORE.INTRA.norm>
0.123579

>  <SCORE.RESTR>
0

>  <SCORE.RESTR.CAVITY>
0

>  <SCORE.RESTR.norm>
0

>  <SCORE.SYSTEM>
0

>  <SCORE.SYSTEM.CONST>
0

>  <SCORE.SYSTEM.DIHEDRAL>
0

>  <SCORE.SYSTEM.SOLV>
0

>  <SCORE.SYSTEM.norm>
0

>  <SCORE.heavy>
13

>  <SCORE.norm>
-3.44487

>  <RMSD>
0.636

$$$$
lig.pdb
 OpenBabel11021811453D
libRbt.so/2013.1/901 2013/11/27
 13 14  0  0  0  0  0  0  0  0999 V2000
  -10.9226    4.3653   -7.2358 N   0  0  0  0  0  0  0  0  0  0  0  0
  -10.9759    3.8361   -8.4942 C   0  0  0  0  0  0  0  0  0  0  0  0
   -9.8637    3.5006   -9.1229 N   0  0  0  0  0  0  0  0  0  0  0  0
   -8.6295    3.6653   -8.5563 C   0  0  0  0  0  0  0  0  0  0  0  0
   -8.5158    4.2149   -7.2562 C   0  0  0  0  0  0  0  0  0  0  0  0
   -9.7230    4.5736   -6.5841 C   0  0  0  0  0  0  0  0  0  0  0  0
   -9.6958    5.0531   -5.4641 O   0  0  0  0  0  0  0  0  0  0  0  0
   -7.0815    4.2677   -6.9496 C   0  0  0  0  0  0  0  0  0  0  0  0
   -6.4272    4.7889   -5.6975 C   0  0  0  0  0  0  0  0  0  0  0  0
   -6.4395    6.2577   -5.7108 N   0  0  0  0  0  0  0  0  0  0  0  0
   -6.4555    3.7595   -8.0183 C   0  0  0  0  0  0  0  0  0  0  0  0
   -7.3637    3.4050   -8.9801 N   0  0  0  0  0  0  0  0  0  0  0  0
  -12.1900    3.6541   -9.1048 N   0  0  0  0  0  0  0  0  0  0  0  0
  1  6  1  0  0  0  0
  2  1  1  0  0  0  0
  3  4  1  0  0  0  0
  3  2  2  0  0  0  0
  4  5  2  0  0  0  0
  5  8  1  0  0  0  0
  5  6  1  0  0  0  0
  6  7  2  0  0  0  0
  8  9  1  0  0  0  0
  9 10  1  0  0  0  0
 11  8  2  0  0  0  0
 12  4  1  0  0  0  0
 12 11  1  0  0  0  0
 13  2  1  0  0  0  0
M  END
>  <CHROM.1>
-76.14891618,37.51914751,-8.82685313,4.29246670,-7.45476159,2.62733942,0.00805317
-2.09212919

>  <Name>
lig.pdb

>  <RI>
2.95488e+07

>  <Rbt.Current_Directory>
/home/itssahil/PROJECTS/Mol_Feturizer/New_Systems/rnas/2miy

>  <Rbt.Executable>
rbdock ($Id: //depot/dev/client3/rdock/2013.1/src/exe/rbdock.cxx#4 $)

>  <Rbt.Library>
libRbt.so (2013.1, Build901 2013/11/27)

>  <Rbt.Parameter_File>
/export/apps/rDock/src/rDock_2013.1_src/data/scripts/dock_solv.prm

>  <Rbt.Receptor>
prm/blind_docking_20.prm

>  <SCORE>
-44.758

>  <SCORE.INTER>
-46.3551

>  <SCORE.INTER.CONST>
1

>  <SCORE.INTER.POLAR>
-5.47225

>  <SCORE.INTER.ROT>
2

>  <SCORE.INTER.SOLV>
19.452

>  <SCORE.INTER.VDW>
-24.0799

>  <SCORE.INTER.norm>
-3.56577

>  <SCORE.INTRA>
1.56931

>  <SCORE.INTRA.DIHEDRAL>
0.0791735

>  <SCORE.INTRA.DIHEDRAL.0>
1.76676

>  <SCORE.INTRA.POLAR>
0.472211

>  <SCORE.INTRA.POLAR.0>
-0.472211

>  <SCORE.INTRA.REPUL>
0

>  <SCORE.INTRA.REPUL.0>
0

>  <SCORE.INTRA.SOLV>
-0.317175

>  <SCORE.INTRA.SOLV.lig_0>
-22.5855

>  <SCORE.INTRA.VDW>
0.0827963

>  <SCORE.INTRA.VDW.0>
-0.733656

>  <SCORE.INTRA.norm>
0.120716

>  <SCORE.RESTR>
0.0277178

>  <SCORE.RESTR.CAVITY>
0.0277178

>  <SCORE.RESTR.norm>
0.00213214

>  <SCORE.SYSTEM>
0

>  <SCORE.SYSTEM.CONST>
0

>  <SCORE.SYSTEM.DIHEDRAL>
0

>  <SCORE.SYSTEM.SOLV>
0

>  <SCORE.SYSTEM.norm>
0

>  <SCORE.heavy>
13

>  <SCORE.norm>
-3.44293

>  <RMSD>
0.638

$$$$
lig.pdb
 OpenBabel11021811453D
libRbt.so/2013.1/901 2013/11/27
 13 14  0  0  0  0  0  0  0  0999 V2000
  -10.8292    4.5041   -7.1190 N   0  0  0  0  0  0  0  0  0  0  0  0
  -10.9604    3.7567   -8.2550 C   0  0  0  0  0  0  0  0  0  0  0  0
   -9.8887    3.3348   -8.9018 N   0  0  0  0  0  0  0  0  0  0  0  0
   -8.6211    3.6219   -8.4749 C   0  0  0  0  0  0  0  0  0  0  0  0
   -8.4272    4.3980   -7.3064 C   0  0  0  0  0  0  0  0  0  0  0  0
   -9.5910    4.8488   -6.6135 C   0  0  0  0  0  0  0  0  0  0  0  0
   -9.4946    5.5220   -5.6023 O   0  0  0  0  0  0  0  0  0  0  0  0
   -6.9763    4.5321   -7.1308 C   0  0  0  0  0  0  0  0  0  0  0  0
   -6.2463    5.2820   -6.0479 C   0  0  0  0  0  0  0  0  0  0  0  0
   -7.0560    6.4271   -5.6110 N   0  0  0  0  0  0  0  0  0  0  0  0
   -6.4169    3.8522   -8.1392 C   0  0  0  0  0  0  0  0  0  0  0  0
   -7.3832    3.3136   -8.9463 N   0  0  0  0  0  0  0  0  0  0  0  0
  -12.2106    3.4451   -8.7238 N   0  0  0  0  0  0  0  0  0  0  0  0
  1  6  1  0  0  0  0
  2  1  1  0  0  0  0
  3  4  1  0  0  0  0
  3  2  2  0  0  0  0
  4  5  2  0  0  0  0
  5  8  1  0  0  0  0
  5  6  1  0  0  0  0
  6  7  2  0  0  0  0
  8  9  1  0  0  0  0
  9 10  1  0  0  0  0
 11  8  2  0  0  0  0
 12  4  1  0  0  0  0
 12 11  1  0  0  0  0
 13  2  1  0  0  0  0
M  END
>  <CHROM.1>
-30.53504928,56.21389165,-8.82463698,4.40512383,-7.42365416,2.62174413,-0.02167232
-2.22999507

>  <Name>
lig.pdb

>  <RI>
4.2128e+07

>  <Rbt.Current_Directory>
/home/itssahil/PROJECTS/Mol_Feturizer/New_Systems/rnas/2miy

>  <Rbt.Executable>
rbdock ($Id: //depot/dev/client3/rdock/2013.1/src/exe/rbdock.cxx#4 $)

>  <Rbt.Library>
libRbt.so (2013.1, Build901 2013/11/27)

>  <Rbt.Parameter_File>
/export/apps/rDock/src/rDock_2013.1_src/data/scripts/dock_solv.prm

>  <Rbt.Receptor>
prm/pocket_docking_5.prm

>  <SCORE>
-49.1652

>  <SCORE.INTER>
-48.7206

>  <SCORE.INTER.CONST>
1

>  <SCORE.INTER.POLAR>
-5.36279

>  <SCORE.INTER.ROT>
2

>  <SCORE.INTER.SOLV>
18.804

>  <SCORE.INTER.VDW>
-25.8058

>  <SCORE.INTER.norm>
-3.74774

>  <SCORE.INTRA>
-0.472144

>  <SCORE.INTRA.DIHEDRAL>
0.737223

>  <SCORE.INTRA.DIHEDRAL.0>
1.76676

>  <SCORE.INTRA.POLAR>
-0.382519

>  <SCORE.INTRA.POLAR.0>
-0.472211

>  <SCORE.INTRA.REPUL>
0

>  <SCORE.INTRA.REPUL.0>
0

>  <SCORE.INTRA.SOLV>
0.131451

>  <SCORE.INTRA.SOLV.lig_0>
-22.5855

>  <SCORE.INTRA.VDW>
0.394084

>  <SCORE.INTRA.VDW.0>
-0.733656

>  <SCORE.INTRA.norm>
-0.0363188

>  <SCORE.RESTR>
0.0275256

>  <SCORE.RESTR.CAVITY>
0.0275256

>  <SCORE.RESTR.norm>
0.00211735

>  <SCORE.SYSTEM>
0

>  <SCORE.SYSTEM.CONST>
0

>  <SCORE.SYSTEM.DIHEDRAL>
0

>  <SCORE.SYSTEM.SOLV>
0

>  <SCORE.SYSTEM.norm>
0

>  <SCORE.heavy>
13

>  <SCORE.norm>
-3.78194

>  <RMSD>
0.638

$$$$
lig.pdb
 OpenBabel11021811453D
libRbt.so/2013.1/901 2013/11/27
 13 14  0  0  0  0  0  0  0  0999 V2000
  -10.8273    4.5013   -7.1164 N   0  0  0  0  0  0  0  0  0  0  0  0
  -10.9629    3.7473   -8.2476 C   0  0  0  0  0  0  0  0  0  0  0  0
   -9.8937    3.3184   -8.8939 N   0  0  0  0  0  0  0  0  0  0  0  0
   -8.6244    3.6047   -8.4713 C   0  0  0  0  0  0  0  0  0  0  0  0
   -8.4261    4.3874   -7.3081 C   0  0  0  0  0  0  0  0  0  0  0  0
   -9.5872    4.8456   -6.6156 C   0  0  0  0  0  0  0  0  0  0  0  0
   -9.4869    5.5248   -5.6088 O   0  0  0  0  0  0  0  0  0  0  0  0
   -6.9744    4.5186   -7.1362 C   0  0  0  0  0  0  0  0  0  0  0  0
   -6.2402    5.2731   -6.0595 C   0  0  0  0  0  0  0  0  0  0  0  0
   -7.0517    6.4153   -5.6185 N   0  0  0  0  0  0  0  0  0  0  0  0
   -6.4189    3.8310   -8.1415 C   0  0  0  0  0  0  0  0  0  0  0  0
   -7.3884    3.2901   -8.9434 N   0  0  0  0  0  0  0  0  0  0  0  0
  -12.2150    3.4362   -8.7118 N   0  0  0  0  0  0  0  0  0  0  0  0
  1  6  1  0  0  0  0
  2  1  1  0  0  0  0
  3  4  1  0  0  0  0
  3  2  2  0  0  0  0
  4  5  2  0  0  0  0
  5  8  1  0  0  0  0
  5  6  1  0  0  0  0
  6  7  2  0  0  0  0
  8  9  1  0  0  0  0
  9 10  1  0  0  0  0
 11  8  2  0  0  0  0
 12  4  1  0  0  0  0
 12 11  1  0  0  0  0
 13  2  1  0  0  0  0
M  END
>  <CHROM.1>
-29.97285749,56.58993201,-8.82424387,4.39415670,-7.42363996,2.62466457,-0.02042701
-2.23499574

>  <Name>
lig.pdb

>  <RI>
9.06885e+06

>  <Rbt.Current_Directory>
/home/itssahil/PROJECTS/Mol_Feturizer/New_Systems/rnas/2miy

>  <Rbt.Executable>
rbdock ($Id: //depot/dev/client3/rdock/2013.1/src/exe/rbdock.cxx#4 $)

>  <Rbt.Library>
libRbt.so (2013.1, Build901 2013/11/27)

>  <Rbt.Parameter_File>
/export/apps/rDock/src/rDock_2013.1_src/data/scripts/dock_solv.prm

>  <Rbt.Receptor>
prm/pocket_docking_6.prm

>  <SCORE>
-49.2525

>  <SCORE.INTER>
-48.8103

>  <SCORE.INTER.CONST>
1

>  <SCORE.INTER.POLAR>
-5.38708

>  <SCORE.INTER.ROT>
2

>  <SCORE.INTER.SOLV>
18.7929

>  <SCORE.INTER.VDW>
-25.7809

>  <SCORE.INTER.norm>
-3.75464

>  <SCORE.INTRA>
-0.442244

>  <SCORE.INTRA.DIHEDRAL>
0.769003

>  <SCORE.INTRA.DIHEDRAL.0>
1.76676

>  <SCORE.INTRA.POLAR>
-0.384876

>  <SCORE.INTRA.POLAR.0>
-0.472211

>  <SCORE.INTRA.REPUL>
0

>  <SCORE.INTRA.REPUL.0>
0

>  <SCORE.INTRA.SOLV>
0.135657

>  <SCORE.INTRA.SOLV.lig_0>
-22.5855

>  <SCORE.INTRA.VDW>
0.414005

>  <SCORE.INTRA.VDW.0>
-0.733656

>  <SCORE.INTRA.norm>
-0.0340188

>  <SCORE.RESTR>
0

>  <SCORE.RESTR.CAVITY>
0

>  <SCORE.RESTR.norm>
0

>  <SCORE.SYSTEM>
0

>  <SCORE.SYSTEM.CONST>
0

>  <SCORE.SYSTEM.DIHEDRAL>
0

>  <SCORE.SYSTEM.SOLV>
0

>  <SCORE.SYSTEM.norm>
0

>  <SCORE.heavy>
13

>  <SCORE.norm>
-3.78865

>  <RMSD>
0.638

$$$$
lig.pdb
 OpenBabel11021811453D
libRbt.so/2013.1/901 2013/11/27
 13 14  0  0  0  0  0  0  0  0999 V2000
  -10.9646    4.3024   -7.2575 N   0  0  0  0  0  0  0  0  0  0  0  0
  -10.9981    3.8217   -8.5358 C   0  0  0  0  0  0  0  0  0  0  0  0
   -9.8777    3.4889   -9.1515 N   0  0  0  0  0  0  0  0  0  0  0  0
   -8.6543    3.6092   -8.5514 C   0  0  0  0  0  0  0  0  0  0  0  0
   -8.5610    4.1076   -7.2292 C   0  0  0  0  0  0  0  0  0  0  0  0
   -9.7769    4.4637   -6.5714 C   0  0  0  0  0  0  0  0  0  0  0  0
   -9.7671    4.9004   -5.4338 O   0  0  0  0  0  0  0  0  0  0  0  0
   -7.1336    4.1220   -6.8886 C   0  0  0  0  0  0  0  0  0  0  0  0
   -6.4993    4.5837   -5.6032 C   0  0  0  0  0  0  0  0  0  0  0  0
   -6.4150    6.0501   -5.5953 N   0  0  0  0  0  0  0  0  0  0  0  0
   -6.4921    3.6423   -7.9613 C   0  0  0  0  0  0  0  0  0  0  0  0
   -7.3839    3.3410   -8.9560 N   0  0  0  0  0  0  0  0  0  0  0  0
  -12.2006    3.6854   -9.1802 N   0  0  0  0  0  0  0  0  0  0  0  0
  1  6  1  0  0  0  0
  2  1  1  0  0  0  0
  3  4  1  0  0  0  0
  3  2  2  0  0  0  0
  4  5  2  0  0  0  0
  5  8  1  0  0  0  0
  5  6  1  0  0  0  0
  6  7  2  0  0  0  0
  8  9  1  0  0  0  0
  9 10  1  0  0  0  0
 11  8  2  0  0  0  0
 12  4  1  0  0  0  0
 12 11  1  0  0  0  0
 13  2  1  0  0  0  0
M  END
>  <CHROM.1>
-79.36387052,-128.58297523,-8.85945538,4.19819772,-7.43469273,2.62205395
0.03220876,-2.05353814

>  <Name>
lig.pdb

>  <RI>
3.47783e+07

>  <Rbt.Current_Directory>
/home/itssahil/PROJECTS/Mol_Feturizer/New_Systems/rnas/2miy

>  <Rbt.Executable>
rbdock ($Id: //depot/dev/client3/rdock/2013.1/src/exe/rbdock.cxx#4 $)

>  <Rbt.Library>
libRbt.so (2013.1, Build901 2013/11/27)

>  <Rbt.Parameter_File>
/export/apps/rDock/src/rDock_2013.1_src/data/scripts/dock_solv.prm

>  <Rbt.Receptor>
prm/pocket_docking_8.prm

>  <SCORE>
-44.7731

>  <SCORE.INTER>
-46.3779

>  <SCORE.INTER.CONST>
1

>  <SCORE.INTER.POLAR>
-5.56876

>  <SCORE.INTER.ROT>
2

>  <SCORE.INTER.SOLV>
19.0582

>  <SCORE.INTER.VDW>
-23.6421

>  <SCORE.INTER.norm>
-3.56753

>  <SCORE.INTRA>
1.60475

>  <SCORE.INTRA.DIHEDRAL>
0.188227

>  <SCORE.INTRA.DIHEDRAL.0>
1.76676

>  <SCORE.INTRA.POLAR>
0.472211

>  <SCORE.INTRA.POLAR.0>
-0.472211

>  <SCORE.INTRA.REPUL>
0

>  <SCORE.INTRA.REPUL.0>
0

>  <SCORE.INTRA.SOLV>
-0.342772

>  <SCORE.INTRA.SOLV.lig_0>
-22.5855

>  <SCORE.INTRA.VDW>
0.0765015

>  <SCORE.INTRA.VDW.0>
-0.733656

>  <SCORE.INTRA.norm>
0.123442

>  <SCORE.RESTR>
0

>  <SCORE.RESTR.CAVITY>
0

>  <SCORE.RESTR.norm>
0

>  <SCORE.SYSTEM>
0

>  <SCORE.SYSTEM.CONST>
0

>  <SCORE.SYSTEM.DIHEDRAL>
0

>  <SCORE.SYSTEM.SOLV>
0

>  <SCORE.SYSTEM.norm>
0

>  <SCORE.heavy>
13

>  <SCORE.norm>
-3.44409

>  <RMSD>
0.638

$$$$
lig.pdb
 OpenBabel11021811453D
libRbt.so/2013.1/901 2013/11/27
 13 14  0  0  0  0  0  0  0  0999 V2000
  -10.9628    4.3127   -7.2632 N   0  0  0  0  0  0  0  0  0  0  0  0
  -10.9959    3.8347   -8.5426 C   0  0  0  0  0  0  0  0  0  0  0  0
   -9.8751    3.5074   -9.1602 N   0  0  0  0  0  0  0  0  0  0  0  0
   -8.6514    3.6306   -8.5611 C   0  0  0  0  0  0  0  0  0  0  0  0
   -8.5586    4.1264   -7.2379 C   0  0  0  0  0  0  0  0  0  0  0  0
   -9.7750    4.4766   -6.5781 C   0  0  0  0  0  0  0  0  0  0  0  0
   -9.7656    4.9109   -5.4395 O   0  0  0  0  0  0  0  0  0  0  0  0
   -7.1308    4.1450   -6.8987 C   0  0  0  0  0  0  0  0  0  0  0  0
   -6.4968    4.6061   -5.6129 C   0  0  0  0  0  0  0  0  0  0  0  0
   -6.4236    6.0731   -5.5989 N   0  0  0  0  0  0  0  0  0  0  0  0
   -6.4888    3.6700   -7.9731 C   0  0  0  0  0  0  0  0  0  0  0  0
   -7.3805    3.3678   -8.9675 N   0  0  0  0  0  0  0  0  0  0  0  0
  -12.1987    3.6957   -9.1860 N   0  0  0  0  0  0  0  0  0  0  0  0
  1  6  1  0  0  0  0
  2  1  1  0  0  0  0
  3  4  1  0  0  0  0
  3  2  2  0  0  0  0
  4  5  2  0  0  0  0
  5  8  1  0  0  0  0
  5  6  1  0  0  0  0
  6  7  2  0  0  0  0
  8  9  1  0  0  0  0
  9 10  1  0  0  0  0
 11  8  2  0  0  0  0
 12  4  1  0  0  0  0
 12 11  1  0  0  0  0
 13  2  1  0  0  0  0
M  END
>  <CHROM.1>
-79.09194118,50.66745698,-8.85802564,4.21639030,-7.44274166,2.62102525,0.02877426
-2.05132754

>  <Name>
lig.pdb

>  <RI>
2.68696e+07

>  <Rbt.Current_Directory>
/home/itssahil/PROJECTS/Mol_Feturizer/New_Systems/rnas/2miy

>  <Rbt.Executable>
rbdock ($Id: //depot/dev/client3/rdock/2013.1/src/exe/rbdock.cxx#4 $)

>  <Rbt.Library>
libRbt.so (2013.1, Build901 2013/11/27)

>  <Rbt.Parameter_File>
/export/apps/rDock/src/rDock_2013.1_src/data/scripts/dock_solv.prm

>  <Rbt.Receptor>
prm/pocket_docking_4.prm

>  <SCORE>
-44.7726

>  <SCORE.INTER>
-46.3844

>  <SCORE.INTER.CONST>
1

>  <SCORE.INTER.POLAR>
-5.54988

>  <SCORE.INTER.ROT>
2

>  <SCORE.INTER.SOLV>
19.101

>  <SCORE.INTER.VDW>
-23.7237

>  <SCORE.INTER.norm>
-3.56803

>  <SCORE.INTRA>
1.61182

>  <SCORE.INTRA.DIHEDRAL>
0.200966

>  <SCORE.INTRA.DIHEDRAL.0>
1.76676

>  <SCORE.INTRA.POLAR>
0.472211

>  <SCORE.INTRA.POLAR.0>
-0.472211

>  <SCORE.INTRA.REPUL>
0

>  <SCORE.INTRA.REPUL.0>
0

>  <SCORE.INTRA.SOLV>
-0.340151

>  <SCORE.INTRA.SOLV.lig_0>
-22.5855

>  <SCORE.INTRA.VDW>
0.0758977

>  <SCORE.INTRA.VDW.0>
-0.733656

>  <SCORE.INTRA.norm>
0.123986

>  <SCORE.RESTR>
0

>  <SCORE.RESTR.CAVITY>
0

>  <SCORE.RESTR.norm>
0

>  <SCORE.SYSTEM>
0

>  <SCORE.SYSTEM.CONST>
0

>  <SCORE.SYSTEM.DIHEDRAL>
0

>  <SCORE.SYSTEM.SOLV>
0

>  <SCORE.SYSTEM.norm>
0

>  <SCORE.heavy>
13

>  <SCORE.norm>
-3.44405

>  <RMSD>
0.639

$$$$
lig.pdb
 OpenBabel11021811453D
libRbt.so/2013.1/901 2013/11/27
 13 14  0  0  0  0  0  0  0  0999 V2000
  -10.8258    4.5106   -7.1275 N   0  0  0  0  0  0  0  0  0  0  0  0
  -10.9602    3.7529   -8.2563 C   0  0  0  0  0  0  0  0  0  0  0  0
   -9.8903    3.3194   -8.8984 N   0  0  0  0  0  0  0  0  0  0  0  0
   -8.6215    3.6042   -8.4735 C   0  0  0  0  0  0  0  0  0  0  0  0
   -8.4243    4.3905   -7.3125 C   0  0  0  0  0  0  0  0  0  0  0  0
   -9.5862    4.8538   -6.6246 C   0  0  0  0  0  0  0  0  0  0  0  0
   -9.4869    5.5363   -5.6199 O   0  0  0  0  0  0  0  0  0  0  0  0
   -6.9728    4.5190   -7.1373 C   0  0  0  0  0  0  0  0  0  0  0  0
   -6.2397    5.2756   -6.0613 C   0  0  0  0  0  0  0  0  0  0  0  0
   -7.0538    6.4158   -5.6198 N   0  0  0  0  0  0  0  0  0  0  0  0
   -6.4163    3.8266   -8.1388 C   0  0  0  0  0  0  0  0  0  0  0  0
   -7.3850    3.2851   -8.9412 N   0  0  0  0  0  0  0  0  0  0  0  0
  -12.2117    3.4431   -8.7227 N   0  0  0  0  0  0  0  0  0  0  0  0
  1  6  1  0  0  0  0
  2  1  1  0  0  0  0
  3  4  1  0  0  0  0
  3  2  2  0  0  0  0
  4  5  2  0  0  0  0
  5  8  1  0  0  0  0
  5  6  1  0  0  0  0
  6  7  2  0  0  0  0
  8  9  1  0  0  0  0
  9 10  1  0  0  0  0
 11  8  2  0  0  0  0
 12  4  1  0  0  0  0
 12 11  1  0  0  0  0
 13  2  1  0  0  0  0
M  END
>  <CHROM.1>
-29.58230783,55.96470667,-8.82256926,4.39727571,-7.42848069,2.62375731,-0.01677483
-2.23777655

>  <Name>
lig.pdb

>  <RI>
9.06885e+06

>  <Rbt.Current_Directory>
/home/itssahil/PROJECTS/Mol_Feturizer/New_Systems/rnas/2miy

>  <Rbt.Executable>
rbdock ($Id: //depot/dev/client3/rdock/2013.1/src/exe/rbdock.cxx#4 $)

>  <Rbt.Library>
libRbt.so (2013.1, Build901 2013/11/27)

>  <Rbt.Parameter_File>
/export/apps/rDock/src/rDock_2013.1_src/data/scripts/dock_solv.prm

>  <Rbt.Receptor>
prm/pocket_docking_6.prm

>  <SCORE>
-49.3056

>  <SCORE.INTER>
-48.888

>  <SCORE.INTER.CONST>
1

>  <SCORE.INTER.POLAR>
-5.40429

>  <SCORE.INTER.ROT>
2

>  <SCORE.INTER.SOLV>
18.8188

>  <SCORE.INTER.VDW>
-25.784

>  <SCORE.INTER.norm>
-3.76062

>  <SCORE.INTRA>
-0.417623

>  <SCORE.INTRA.DIHEDRAL>
0.792475

>  <SCORE.INTRA.DIHEDRAL.0>
1.76676

>  <SCORE.INTRA.POLAR>
-0.389056

>  <SCORE.INTRA.POLAR.0>
-0.472211

>  <SCORE.INTRA.REPUL>
0

>  <SCORE.INTRA.REPUL.0>
0

>  <SCORE.INTRA.SOLV>
0.140268

>  <SCORE.INTRA.SOLV.lig_0>
-22.5855

>  <SCORE.INTRA.VDW>
0.438797

>  <SCORE.INTRA.VDW.0>
-0.733656

>  <SCORE.INTRA.norm>
-0.0321248

>  <SCORE.RESTR>
0

>  <SCORE.RESTR.CAVITY>
0

>  <SCORE.RESTR.norm>
0

>  <SCORE.SYSTEM>
0

>  <SCORE.SYSTEM.CONST>
0

>  <SCORE.SYSTEM.DIHEDRAL>
0

>  <SCORE.SYSTEM.SOLV>
0

>  <SCORE.SYSTEM.norm>
0

>  <SCORE.heavy>
13

>  <SCORE.norm>
-3.79274

>  <RMSD>
0.646

$$$$
lig.pdb
 OpenBabel11021811453D
libRbt.so/2013.1/901 2013/11/27
 13 14  0  0  0  0  0  0  0  0999 V2000
  -10.8275    4.5093   -7.1267 N   0  0  0  0  0  0  0  0  0  0  0  0
  -10.9617    3.7492   -8.2539 C   0  0  0  0  0  0  0  0  0  0  0  0
   -9.8917    3.3161   -8.8961 N   0  0  0  0  0  0  0  0  0  0  0  0
   -8.6230    3.6036   -8.4728 C   0  0  0  0  0  0  0  0  0  0  0  0
   -8.4260    4.3926   -7.3135 C   0  0  0  0  0  0  0  0  0  0  0  0
   -9.5880    4.8554   -6.6256 C   0  0  0  0  0  0  0  0  0  0  0  0
   -9.4889    5.5400   -5.6223 O   0  0  0  0  0  0  0  0  0  0  0  0
   -6.9746    4.5236   -7.1398 C   0  0  0  0  0  0  0  0  0  0  0  0
   -6.2417    5.2833   -6.0659 C   0  0  0  0  0  0  0  0  0  0  0  0
   -7.0529    6.4288   -5.6329 N   0  0  0  0  0  0  0  0  0  0  0  0
   -6.4179    3.8300   -8.1405 C   0  0  0  0  0  0  0  0  0  0  0  0
   -7.3864    3.2855   -8.9410 N   0  0  0  0  0  0  0  0  0  0  0  0
  -12.2132    3.4366   -8.7187 N   0  0  0  0  0  0  0  0  0  0  0  0
  1  6  1  0  0  0  0
  2  1  1  0  0  0  0
  3  4  1  0  0  0  0
  3  2  2  0  0  0  0
  4  5  2  0  0  0  0
  5  8  1  0  0  0  0
  5  6  1  0  0  0  0
  6  7  2  0  0  0  0
  8  9  1  0  0  0  0
  9 10  1  0  0  0  0
 11  8  2  0  0  0  0
 12  4  1  0  0  0  0
 12 11  1  0  0  0  0
 13  2  1  0  0  0  0
M  END
>  <CHROM.1>
-29.99079561,-124.31159907,-8.82395278,4.39898073,-7.42969145,2.62360093
-0.01873416,-2.24040363

>  <Name>
lig.pdb

>  <RI>
2.68696e+07

>  <Rbt.Current_Directory>
/home/itssahil/PROJECTS/Mol_Feturizer/New_Systems/rnas/2miy

>  <Rbt.Executable>
rbdock ($Id: //depot/dev/client3/rdock/2013.1/src/exe/rbdock.cxx#4 $)

>  <Rbt.Library>
libRbt.so (2013.1, Build901 2013/11/27)

>  <Rbt.Parameter_File>
/export/apps/rDock/src/rDock_2013.1_src/data/scripts/dock_solv.prm

>  <Rbt.Receptor>
prm/pocket_docking_4.prm

>  <SCORE>
-49.3138

>  <SCORE.INTER>
-48.8665

>  <SCORE.INTER.CONST>
1

>  <SCORE.INTER.POLAR>
-5.39946

>  <SCORE.INTER.ROT>
2

>  <SCORE.INTER.SOLV>
18.8515

>  <SCORE.INTER.VDW>
-25.7966

>  <SCORE.INTER.norm>
-3.75896

>  <SCORE.INTRA>
-0.449298

>  <SCORE.INTRA.DIHEDRAL>
0.757293

>  <SCORE.INTRA.DIHEDRAL.0>
1.76676

>  <SCORE.INTRA.POLAR>
-0.385198

>  <SCORE.INTRA.POLAR.0>
-0.472211

>  <SCORE.INTRA.REPUL>
0

>  <SCORE.INTRA.REPUL.0>
0

>  <SCORE.INTRA.SOLV>
0.134844

>  <SCORE.INTRA.SOLV.lig_0>
-22.5855

>  <SCORE.INTRA.VDW>
0.414306

>  <SCORE.INTRA.VDW.0>
-0.733656

>  <SCORE.INTRA.norm>
-0.0345614

>  <SCORE.RESTR>
0.00193685

>  <SCORE.RESTR.CAVITY>
0.00193685

>  <SCORE.RESTR.norm>
0.000148988

>  <SCORE.SYSTEM>
0

>  <SCORE.SYSTEM.CONST>
0

>  <SCORE.SYSTEM.DIHEDRAL>
0

>  <SCORE.SYSTEM.SOLV>
0

>  <SCORE.SYSTEM.norm>
0

>  <SCORE.heavy>
13

>  <SCORE.norm>
-3.79337

>  <RMSD>
0.647

$$$$
lig.pdb
 OpenBabel11021811453D
libRbt.so/2013.1/901 2013/11/27
 13 14  0  0  0  0  0  0  0  0999 V2000
  -10.8259    4.5109   -7.1255 N   0  0  0  0  0  0  0  0  0  0  0  0
  -10.9609    3.7528   -8.2540 C   0  0  0  0  0  0  0  0  0  0  0  0
   -9.8913    3.3197   -8.8969 N   0  0  0  0  0  0  0  0  0  0  0  0
   -8.6223    3.6054   -8.4733 C   0  0  0  0  0  0  0  0  0  0  0  0
   -8.4246    4.3923   -7.3127 C   0  0  0  0  0  0  0  0  0  0  0  0
   -9.5861    4.8550   -6.6239 C   0  0  0  0  0  0  0  0  0  0  0  0
   -9.4863    5.5379   -5.6195 O   0  0  0  0  0  0  0  0  0  0  0  0
   -6.9730    4.5217   -7.1388 C   0  0  0  0  0  0  0  0  0  0  0  0
   -6.2393    5.2790   -6.0637 C   0  0  0  0  0  0  0  0  0  0  0  0
   -7.0488    6.4255   -5.6299 N   0  0  0  0  0  0  0  0  0  0  0  0
   -6.4169    3.8293   -8.1406 C   0  0  0  0  0  0  0  0  0  0  0  0
   -7.3860    3.2870   -8.9420 N   0  0  0  0  0  0  0  0  0  0  0  0
  -12.2127    3.4420   -8.7192 N   0  0  0  0  0  0  0  0  0  0  0  0
  1  6  1  0  0  0  0
  2  1  1  0  0  0  0
  3  4  1  0  0  0  0
  3  2  2  0  0  0  0
  4  5  2  0  0  0  0
  5  8  1  0  0  0  0
  5  6  1  0  0  0  0
  6  7  2  0  0  0  0
  8  9  1  0  0  0  0
  9 10  1  0  0  0  0
 11  8  2  0  0  0  0
 12  4  1  0  0  0  0
 12 11  1  0  0  0  0
 13  2  1  0  0  0  0
M  END
>  <CHROM.1>
-30.05895831,55.17998379,-8.82245569,4.39933944,-7.42907055,2.62440419,-0.01809674
-2.23901533

>  <Name>
lig.pdb

>  <RI>
2.68696e+07

>  <Rbt.Current_Directory>
/home/itssahil/PROJECTS/Mol_Feturizer/New_Systems/rnas/2miy

>  <Rbt.Executable>
rbdock ($Id: //depot/dev/client3/rdock/2013.1/src/exe/rbdock.cxx#4 $)

>  <Rbt.Library>
libRbt.so (2013.1, Build901 2013/11/27)

>  <Rbt.Parameter_File>
/export/apps/rDock/src/rDock_2013.1_src/data/scripts/dock_solv.prm

>  <Rbt.Receptor>
prm/pocket_docking_4.prm

>  <SCORE>
-49.3152

>  <SCORE.INTER>
-48.8746

>  <SCORE.INTER.CONST>
1

>  <SCORE.INTER.POLAR>
-5.40541

>  <SCORE.INTER.ROT>
2

>  <SCORE.INTER.SOLV>
18.8466

>  <SCORE.INTER.VDW>
-25.7806

>  <SCORE.INTER.norm>
-3.75959

>  <SCORE.INTRA>
-0.440556

>  <SCORE.INTRA.DIHEDRAL>
0.766244

>  <SCORE.INTRA.DIHEDRAL.0>
1.76676

>  <SCORE.INTRA.POLAR>
-0.388146

>  <SCORE.INTRA.POLAR.0>
-0.472211

>  <SCORE.INTRA.REPUL>
0

>  <SCORE.INTRA.REPUL.0>
0

>  <SCORE.INTRA.SOLV>
0.137647

>  <SCORE.INTRA.SOLV.lig_0>
-22.5855

>  <SCORE.INTRA.VDW>
0.427193

>  <SCORE.INTRA.VDW.0>
-0.733656

>  <SCORE.INTRA.norm>
-0.0338889

>  <SCORE.RESTR>
0

>  <SCORE.RESTR.CAVITY>
0

>  <SCORE.RESTR.norm>
0

>  <SCORE.SYSTEM>
0

>  <SCORE.SYSTEM.CONST>
0

>  <SCORE.SYSTEM.DIHEDRAL>
0

>  <SCORE.SYSTEM.SOLV>
0

>  <SCORE.SYSTEM.norm>
0

>  <SCORE.heavy>
13

>  <SCORE.norm>
-3.79348

>  <RMSD>
0.647

$$$$
lig.pdb
 OpenBabel11021811453D
libRbt.so/2013.1/901 2013/11/27
 13 14  0  0  0  0  0  0  0  0999 V2000
  -10.8241    4.5154   -7.1295 N   0  0  0  0  0  0  0  0  0  0  0  0
  -10.9594    3.7566   -8.2575 C   0  0  0  0  0  0  0  0  0  0  0  0
   -9.8901    3.3211   -8.8991 N   0  0  0  0  0  0  0  0  0  0  0  0
   -8.6209    3.6048   -8.4747 C   0  0  0  0  0  0  0  0  0  0  0  0
   -8.4228    4.3923   -7.3146 C   0  0  0  0  0  0  0  0  0  0  0  0
   -9.5840    4.8577   -6.6271 C   0  0  0  0  0  0  0  0  0  0  0  0
   -9.4839    5.5411   -5.6232 O   0  0  0  0  0  0  0  0  0  0  0  0
   -6.9711    4.5192   -7.1396 C   0  0  0  0  0  0  0  0  0  0  0  0
   -6.2370    5.2761   -6.0645 C   0  0  0  0  0  0  0  0  0  0  0  0
   -7.0506    6.4164   -5.6226 N   0  0  0  0  0  0  0  0  0  0  0  0
   -6.4155    3.8250   -8.1403 C   0  0  0  0  0  0  0  0  0  0  0  0
   -7.3848    3.2838   -8.9421 N   0  0  0  0  0  0  0  0  0  0  0  0
  -12.2114    3.4478   -8.7235 N   0  0  0  0  0  0  0  0  0  0  0  0
  1  6  1  0  0  0  0
  2  1  1  0  0  0  0
  3  4  1  0  0  0  0
  3  2  2  0  0  0  0
  4  5  2  0  0  0  0
  5  8  1  0  0  0  0
  5  6  1  0  0  0  0
  6  7  2  0  0  0  0
  8  9  1  0  0  0  0
  9 10  1  0  0  0  0
 11  8  2  0  0  0  0
 12  4  1  0  0  0  0
 12 11  1  0  0  0  0
 13  2  1  0  0  0  0
M  END
>  <CHROM.1>
-29.48697833,55.28494902,-8.82109581,4.39922843,-7.43038245,2.62447428,-0.01581409
-2.23870693

>  <Name>
lig.pdb

>  <RI>
2.68696e+07

>  <Rbt.Current_Directory>
/home/itssahil/PROJECTS/Mol_Feturizer/New_Systems/rnas/2miy

>  <Rbt.Executable>
rbdock ($Id: //depot/dev/client3/rdock/2013.1/src/exe/rbdock.cxx#4 $)

>  <Rbt.Library>
libRbt.so (2013.1, Build901 2013/11/27)

>  <Rbt.Parameter_File>
/export/apps/rDock/src/rDock_2013.1_src/data/scripts/dock_solv.prm

>  <Rbt.Receptor>
prm/pocket_docking_4.prm

>  <SCORE>
-49.3045

>  <SCORE.INTER>
-48.8953

>  <SCORE.INTER.CONST>
1

>  <SCORE.INTER.POLAR>
-5.41624

>  <SCORE.INTER.ROT>
2

>  <SCORE.INTER.SOLV>
18.8366

>  <SCORE.INTER.VDW>
-25.7549

>  <SCORE.INTER.norm>
-3.76117

>  <SCORE.INTRA>
-0.409247

>  <SCORE.INTRA.DIHEDRAL>
0.799023

>  <SCORE.INTRA.DIHEDRAL.0>
1.76676

>  <SCORE.INTRA.POLAR>
-0.39165

>  <SCORE.INTRA.POLAR.0>
-0.472211

>  <SCORE.INTRA.REPUL>
0

>  <SCORE.INTRA.REPUL.0>
0

>  <SCORE.INTRA.SOLV>
0.142411

>  <SCORE.INTRA.SOLV.lig_0>
-22.5855

>  <SCORE.INTRA.VDW>
0.451646

>  <SCORE.INTRA.VDW.0>
-0.733656

>  <SCORE.INTRA.norm>
-0.0314805

>  <SCORE.RESTR>
0

>  <SCORE.RESTR.CAVITY>
0

>  <SCORE.RESTR.norm>
0

>  <SCORE.SYSTEM>
0

>  <SCORE.SYSTEM.CONST>
0

>  <SCORE.SYSTEM.DIHEDRAL>
0

>  <SCORE.SYSTEM.SOLV>
0

>  <SCORE.SYSTEM.norm>
0

>  <SCORE.heavy>
13

>  <SCORE.norm>
-3.79266

>  <RMSD>
0.649

$$$$
lig.pdb
 OpenBabel11021811453D
libRbt.so/2013.1/901 2013/11/27
 13 14  0  0  0  0  0  0  0  0999 V2000
  -10.8262    4.5144   -7.1270 N   0  0  0  0  0  0  0  0  0  0  0  0
  -10.9620    3.7532   -8.2533 C   0  0  0  0  0  0  0  0  0  0  0  0
   -9.8929    3.3177   -8.8954 N   0  0  0  0  0  0  0  0  0  0  0  0
   -8.6236    3.6039   -8.4731 C   0  0  0  0  0  0  0  0  0  0  0  0
   -8.4250    4.3940   -7.3148 C   0  0  0  0  0  0  0  0  0  0  0  0
   -9.5859    4.8593   -6.6269 C   0  0  0  0  0  0  0  0  0  0  0  0
   -9.4854    5.5449   -5.6245 O   0  0  0  0  0  0  0  0  0  0  0  0
   -6.9733    4.5231   -7.1420 C   0  0  0  0  0  0  0  0  0  0  0  0
   -6.2387    5.2831   -6.0693 C   0  0  0  0  0  0  0  0  0  0  0  0
   -7.0517    6.4254   -5.6314 N   0  0  0  0  0  0  0  0  0  0  0  0
   -6.4180    3.8276   -8.1420 C   0  0  0  0  0  0  0  0  0  0  0  0
   -7.3877    3.2835   -8.9415 N   0  0  0  0  0  0  0  0  0  0  0  0
  -12.2142    3.4418   -8.7171 N   0  0  0  0  0  0  0  0  0  0  0  0
  1  6  1  0  0  0  0
  2  1  1  0  0  0  0
  3  4  1  0  0  0  0
  3  2  2  0  0  0  0
  4  5  2  0  0  0  0
  5  8  1  0  0  0  0
  5  6  1  0  0  0  0
  6  7  2  0  0  0  0
  8  9  1  0  0  0  0
  9 10  1  0  0  0  0
 11  8  2  0  0  0  0
 12  4  1  0  0  0  0
 12 11  1  0  0  0  0
 13  2  1  0  0  0  0
M  END
>  <CHROM.1>
-29.63987546,-126.61297070,-8.82325732,4.40036325,-7.43027444,2.62458622
-0.01763635,-2.24095944

>  <Name>
lig.pdb

>  <RI>
2.68696e+07

>  <Rbt.Current_Directory>
/home/itssahil/PROJECTS/Mol_Feturizer/New_Systems/rnas/2miy

>  <Rbt.Executable>
rbdock ($Id: //depot/dev/client3/rdock/2013.1/src/exe/rbdock.cxx#4 $)

>  <Rbt.Library>
libRbt.so (2013.1, Build901 2013/11/27)

>  <Rbt.Parameter_File>
/export/apps/rDock/src/rDock_2013.1_src/data/scripts/dock_solv.prm

>  <Rbt.Receptor>
prm/pocket_docking_4.prm

>  <SCORE>
-49.3213

>  <SCORE.INTER>
-48.9015

>  <SCORE.INTER.CONST>
1

>  <SCORE.INTER.POLAR>
-5.42004

>  <SCORE.INTER.ROT>
2

>  <SCORE.INTER.SOLV>
18.862

>  <SCORE.INTER.VDW>
-25.7549

>  <SCORE.INTER.norm>
-3.76166

>  <SCORE.INTRA>
-0.419928

>  <SCORE.INTRA.DIHEDRAL>
0.773973

>  <SCORE.INTRA.DIHEDRAL.0>
1.76676

>  <SCORE.INTRA.POLAR>
-0.393146

>  <SCORE.INTRA.POLAR.0>
-0.472211

>  <SCORE.INTRA.REPUL>
0

>  <SCORE.INTRA.REPUL.0>
0

>  <SCORE.INTRA.SOLV>
0.142413

>  <SCORE.INTRA.SOLV.lig_0>
-22.5855

>  <SCORE.INTRA.VDW>
0.458576

>  <SCORE.INTRA.VDW.0>
-0.733656

>  <SCORE.INTRA.norm>
-0.0323022

>  <SCORE.RESTR>
0.000214213

>  <SCORE.RESTR.CAVITY>
0.000214213

>  <SCORE.RESTR.norm>
1.6478e-05

>  <SCORE.SYSTEM>
0

>  <SCORE.SYSTEM.CONST>
0

>  <SCORE.SYSTEM.DIHEDRAL>
0

>  <SCORE.SYSTEM.SOLV>
0

>  <SCORE.SYSTEM.norm>
0

>  <SCORE.heavy>
13

>  <SCORE.norm>
-3.79394

>  <RMSD>
0.649

$$$$
lig.pdb
 OpenBabel11021811453D
libRbt.so/2013.1/901 2013/11/27
 13 14  0  0  0  0  0  0  0  0999 V2000
  -10.8243    4.5176   -7.1292 N   0  0  0  0  0  0  0  0  0  0  0  0
  -10.9601    3.7579   -8.2565 C   0  0  0  0  0  0  0  0  0  0  0  0
   -9.8911    3.3210   -8.8976 N   0  0  0  0  0  0  0  0  0  0  0  0
   -8.6217    3.6041   -8.4732 C   0  0  0  0  0  0  0  0  0  0  0  0
   -8.4231    4.3924   -7.3138 C   0  0  0  0  0  0  0  0  0  0  0  0
   -9.5841    4.8594   -6.6270 C   0  0  0  0  0  0  0  0  0  0  0  0
   -9.4835    5.5437   -5.6236 O   0  0  0  0  0  0  0  0  0  0  0  0
   -6.9714    4.5183   -7.1388 C   0  0  0  0  0  0  0  0  0  0  0  0
   -6.2368    5.2756   -6.0642 C   0  0  0  0  0  0  0  0  0  0  0  0
   -7.0512    6.4148   -5.6209 N   0  0  0  0  0  0  0  0  0  0  0  0
   -6.4161    3.8228   -8.1388 C   0  0  0  0  0  0  0  0  0  0  0  0
   -7.3858    3.2816   -8.9402 N   0  0  0  0  0  0  0  0  0  0  0  0
  -12.2123    3.4497   -8.7224 N   0  0  0  0  0  0  0  0  0  0  0  0
  1  6  1  0  0  0  0
  2  1  1  0  0  0  0
  3  4  1  0  0  0  0
  3  2  2  0  0  0  0
  4  5  2  0  0  0  0
  5  8  1  0  0  0  0
  5  6  1  0  0  0  0
  6  7  2  0  0  0  0
  8  9  1  0  0  0  0
  9 10  1  0  0  0  0
 11  8  2  0  0  0  0
 12  4  1  0  0  0  0
 12 11  1  0  0  0  0
 13  2  1  0  0  0  0
M  END
>  <CHROM.1>
-29.32769623,56.94155758,-8.82156012,4.39936918,-7.42945560,2.62477491,-0.01503473
-2.23926509

>  <Name>
lig.pdb

>  <RI>
9.06885e+06

>  <Rbt.Current_Directory>
/home/itssahil/PROJECTS/Mol_Feturizer/New_Systems/rnas/2miy

>  <Rbt.Executable>
rbdock ($Id: //depot/dev/client3/rdock/2013.1/src/exe/rbdock.cxx#4 $)

>  <Rbt.Library>
libRbt.so (2013.1, Build901 2013/11/27)

>  <Rbt.Parameter_File>
/export/apps/rDock/src/rDock_2013.1_src/data/scripts/dock_solv.prm

>  <Rbt.Receptor>
prm/pocket_docking_6.prm

>  <SCORE>
-49.3026

>  <SCORE.INTER>
-48.9028

>  <SCORE.INTER.CONST>
1

>  <SCORE.INTER.POLAR>
-5.42785

>  <SCORE.INTER.ROT>
2

>  <SCORE.INTER.SOLV>
18.8248

>  <SCORE.INTER.VDW>
-25.7173

>  <SCORE.INTER.norm>
-3.76175

>  <SCORE.INTRA>
-0.400064

>  <SCORE.INTRA.DIHEDRAL>
0.805604

>  <SCORE.INTRA.DIHEDRAL.0>
1.76676

>  <SCORE.INTRA.POLAR>
-0.38574

>  <SCORE.INTRA.POLAR.0>
-0.472211

>  <SCORE.INTRA.REPUL>
0

>  <SCORE.INTRA.REPUL.0>
0

>  <SCORE.INTRA.SOLV>
0.140505

>  <SCORE.INTRA.SOLV.lig_0>
-22.5855

>  <SCORE.INTRA.VDW>
0.438397

>  <SCORE.INTRA.VDW.0>
-0.733656

>  <SCORE.INTRA.norm>
-0.0307742

>  <SCORE.RESTR>
0.000266541

>  <SCORE.RESTR.CAVITY>
0.000266541

>  <SCORE.RESTR.norm>
2.05032e-05

>  <SCORE.SYSTEM>
0

>  <SCORE.SYSTEM.CONST>
0

>  <SCORE.SYSTEM.DIHEDRAL>
0

>  <SCORE.SYSTEM.SOLV>
0

>  <SCORE.SYSTEM.norm>
0

>  <SCORE.heavy>
13

>  <SCORE.norm>
-3.79251

>  <RMSD>
0.649

$$$$
lig.pdb
 OpenBabel11021811453D
libRbt.so/2013.1/901 2013/11/27
 13 14  0  0  0  0  0  0  0  0999 V2000
  -10.8245    4.5179   -7.1292 N   0  0  0  0  0  0  0  0  0  0  0  0
  -10.9600    3.7587   -8.2568 C   0  0  0  0  0  0  0  0  0  0  0  0
   -9.8907    3.3226   -8.8982 N   0  0  0  0  0  0  0  0  0  0  0  0
   -8.6215    3.6062   -8.4737 C   0  0  0  0  0  0  0  0  0  0  0  0
   -8.4232    4.3941   -7.3140 C   0  0  0  0  0  0  0  0  0  0  0  0
   -9.5844    4.8601   -6.6268 C   0  0  0  0  0  0  0  0  0  0  0  0
   -9.4842    5.5440   -5.6232 O   0  0  0  0  0  0  0  0  0  0  0  0
   -6.9716    4.5206   -7.1389 C   0  0  0  0  0  0  0  0  0  0  0  0
   -6.2373    5.2778   -6.0641 C   0  0  0  0  0  0  0  0  0  0  0  0
   -7.0556    6.4119   -5.6148 N   0  0  0  0  0  0  0  0  0  0  0  0
   -6.4160    3.8258   -8.1393 C   0  0  0  0  0  0  0  0  0  0  0  0
   -7.3855    3.2845   -8.9409 N   0  0  0  0  0  0  0  0  0  0  0  0
  -12.2120    3.4500   -8.7228 N   0  0  0  0  0  0  0  0  0  0  0  0
  1  6  1  0  0  0  0
  2  1  1  0  0  0  0
  3  4  1  0  0  0  0
  3  2  2  0  0  0  0
  4  5  2  0  0  0  0
  5  8  1  0  0  0  0
  5  6  1  0  0  0  0
  6  7  2  0  0  0  0
  8  9  1  0  0  0  0
  9 10  1  0  0  0  0
 11  8  2  0  0  0  0
 12  4  1  0  0  0  0
 12 11  1  0  0  0  0
 13  2  1  0  0  0  0
M  END
>  <CHROM.1>
-29.00652298,55.67552433,-8.82201896,4.40044575,-7.42907206,2.62426625,-0.01525492
-2.23822350

>  <Name>
lig.pdb

>  <RI>
9.06885e+06

>  <Rbt.Current_Directory>
/home/itssahil/PROJECTS/Mol_Feturizer/New_Systems/rnas/2miy

>  <Rbt.Executable>
rbdock ($Id: //depot/dev/client3/rdock/2013.1/src/exe/rbdock.cxx#4 $)

>  <Rbt.Library>
libRbt.so (2013.1, Build901 2013/11/27)

>  <Rbt.Parameter_File>
/export/apps/rDock/src/rDock_2013.1_src/data/scripts/dock_solv.prm

>  <Rbt.Receptor>
prm/pocket_docking_6.prm

>  <SCORE>
-49.3037

>  <SCORE.INTER>
-48.9239

>  <SCORE.INTER.CONST>
1

>  <SCORE.INTER.POLAR>
-5.42571

>  <SCORE.INTER.ROT>
2

>  <SCORE.INTER.SOLV>
18.8183

>  <SCORE.INTER.VDW>
-25.7363

>  <SCORE.INTER.norm>
-3.76338

>  <SCORE.INTRA>
-0.379781

>  <SCORE.INTRA.DIHEDRAL>
0.826074

>  <SCORE.INTRA.DIHEDRAL.0>
1.76676

>  <SCORE.INTRA.POLAR>
-0.392474

>  <SCORE.INTRA.POLAR.0>
-0.472211

>  <SCORE.INTRA.REPUL>
0

>  <SCORE.INTRA.REPUL.0>
0

>  <SCORE.INTRA.SOLV>
0.14574

>  <SCORE.INTRA.SOLV.lig_0>
-22.5855

>  <SCORE.INTRA.VDW>
0.468723

>  <SCORE.INTRA.VDW.0>
-0.733656

>  <SCORE.INTRA.norm>
-0.0292139

>  <SCORE.RESTR>
0

>  <SCORE.RESTR.CAVITY>
0

>  <SCORE.RESTR.norm>
0

>  <SCORE.SYSTEM>
0

>  <SCORE.SYSTEM.CONST>
0

>  <SCORE.SYSTEM.DIHEDRAL>
0

>  <SCORE.SYSTEM.SOLV>
0

>  <SCORE.SYSTEM.norm>
0

>  <SCORE.heavy>
13

>  <SCORE.norm>
-3.79259

>  <RMSD>
0.649

$$$$
lig.pdb
 OpenBabel11021811453D
libRbt.so/2013.1/901 2013/11/27
 13 14  0  0  0  0  0  0  0  0999 V2000
  -10.8233    4.5197   -7.1293 N   0  0  0  0  0  0  0  0  0  0  0  0
  -10.9572    3.7685   -8.2625 C   0  0  0  0  0  0  0  0  0  0  0  0
   -9.8870    3.3368   -8.9053 N   0  0  0  0  0  0  0  0  0  0  0  0
   -8.6184    3.6173   -8.4769 C   0  0  0  0  0  0  0  0  0  0  0  0
   -8.4217    4.3969   -7.3113 C   0  0  0  0  0  0  0  0  0  0  0  0
   -9.5839    4.8582   -6.6226 C   0  0  0  0  0  0  0  0  0  0  0  0
   -9.4851    5.5349   -5.6140 O   0  0  0  0  0  0  0  0  0  0  0  0
   -6.9703    4.5221   -7.1332 C   0  0  0  0  0  0  0  0  0  0  0  0
   -6.2376    5.2716   -6.0519 C   0  0  0  0  0  0  0  0  0  0  0  0
   -7.0428    6.4209   -5.6179 N   0  0  0  0  0  0  0  0  0  0  0  0
   -6.4134    3.8344   -8.1376 C   0  0  0  0  0  0  0  0  0  0  0  0
   -7.3817    3.2989   -8.9445 N   0  0  0  0  0  0  0  0  0  0  0  0
  -12.2085    3.4632   -8.7325 N   0  0  0  0  0  0  0  0  0  0  0  0
  1  6  1  0  0  0  0
  2  1  1  0  0  0  0
  3  4  1  0  0  0  0
  3  2  2  0  0  0  0
  4  5  2  0  0  0  0
  5  8  1  0  0  0  0
  5  6  1  0  0  0  0
  6  7  2  0  0  0  0
  8  9  1  0  0  0  0
  9 10  1  0  0  0  0
 11  8  2  0  0  0  0
 12  4  1  0  0  0  0
 12 11  1  0  0  0  0
 13  2  1  0  0  0  0
M  END
>  <CHROM.1>
-30.32624315,-126.14160397,-8.81902888,4.40587229,-7.42886091,2.62384768
-0.01499908,-2.23360445

>  <Name>
lig.pdb

>  <RI>
2.60406e+07

>  <Rbt.Current_Directory>
/home/itssahil/PROJECTS/Mol_Feturizer/New_Systems/rnas/2miy

>  <Rbt.Executable>
rbdock ($Id: //depot/dev/client3/rdock/2013.1/src/exe/rbdock.cxx#4 $)

>  <Rbt.Library>
libRbt.so (2013.1, Build901 2013/11/27)

>  <Rbt.Parameter_File>
/export/apps/rDock/src/rDock_2013.1_src/data/scripts/dock_solv.prm

>  <Rbt.Receptor>
prm/pocket_docking_7.prm

>  <SCORE>
-49.1139

>  <SCORE.INTER>
-48.8367

>  <SCORE.INTER.CONST>
1

>  <SCORE.INTER.POLAR>
-5.41307

>  <SCORE.INTER.ROT>
2

>  <SCORE.INTER.SOLV>
18.8532

>  <SCORE.INTER.VDW>
-25.732

>  <SCORE.INTER.norm>
-3.75667

>  <SCORE.INTRA>
-0.459108

>  <SCORE.INTRA.DIHEDRAL>
0.735159

>  <SCORE.INTRA.DIHEDRAL.0>
1.76676

>  <SCORE.INTRA.POLAR>
-0.387057

>  <SCORE.INTRA.POLAR.0>
-0.472211

>  <SCORE.INTRA.REPUL>
0

>  <SCORE.INTRA.REPUL.0>
0

>  <SCORE.INTRA.SOLV>
0.135513

>  <SCORE.INTRA.SOLV.lig_0>
-22.5855

>  <SCORE.INTRA.VDW>
0.421551

>  <SCORE.INTRA.VDW.0>
-0.733656

>  <SCORE.INTRA.norm>
-0.035316

>  <SCORE.RESTR>
0.181915

>  <SCORE.RESTR.CAVITY>
0.181915

>  <SCORE.RESTR.norm>
0.0139935

>  <SCORE.SYSTEM>
0

>  <SCORE.SYSTEM.CONST>
0

>  <SCORE.SYSTEM.DIHEDRAL>
0

>  <SCORE.SYSTEM.SOLV>
0

>  <SCORE.SYSTEM.norm>
0

>  <SCORE.heavy>
13

>  <SCORE.norm>
-3.77799

>  <RMSD>
0.649

$$$$
lig.pdb
 OpenBabel11021811453D
libRbt.so/2013.1/901 2013/11/27
 13 14  0  0  0  0  0  0  0  0999 V2000
  -10.8243    4.5158   -7.1267 N   0  0  0  0  0  0  0  0  0  0  0  0
  -10.9601    3.7562   -8.2540 C   0  0  0  0  0  0  0  0  0  0  0  0
   -9.8909    3.3212   -8.8964 N   0  0  0  0  0  0  0  0  0  0  0  0
   -8.6216    3.6064   -8.4734 C   0  0  0  0  0  0  0  0  0  0  0  0
   -8.4230    4.3947   -7.3140 C   0  0  0  0  0  0  0  0  0  0  0  0
   -9.5840    4.8595   -6.6257 C   0  0  0  0  0  0  0  0  0  0  0  0
   -9.4835    5.5437   -5.6223 O   0  0  0  0  0  0  0  0  0  0  0  0
   -6.9713    4.5230   -7.1405 C   0  0  0  0  0  0  0  0  0  0  0  0
   -6.2368    5.2813   -6.0666 C   0  0  0  0  0  0  0  0  0  0  0  0
   -7.0491    6.4238   -5.6279 N   0  0  0  0  0  0  0  0  0  0  0  0
   -6.4160    3.8287   -8.1413 C   0  0  0  0  0  0  0  0  0  0  0  0
   -7.3857    3.2861   -8.9418 N   0  0  0  0  0  0  0  0  0  0  0  0
  -12.2122    3.4459   -8.7186 N   0  0  0  0  0  0  0  0  0  0  0  0
  1  6  1  0  0  0  0
  2  1  1  0  0  0  0
  3  4  1  0  0  0  0
  3  2  2  0  0  0  0
  4  5  2  0  0  0  0
  5  8  1  0  0  0  0
  5  6  1  0  0  0  0
  6  7  2  0  0  0  0
  8  9  1  0  0  0  0
  9 10  1  0  0  0  0
 11  8  2  0  0  0  0
 12  4  1  0  0  0  0
 12 11  1  0  0  0  0
 13  2  1  0  0  0  0
M  END
>  <CHROM.1>
-29.67926299,-125.02025404,-8.82124723,4.40146911,-7.42955742,2.62463790
-0.01720757,-2.23961243

>  <Name>
lig.pdb

>  <RI>
2.68696e+07

>  <Rbt.Current_Directory>
/home/itssahil/PROJECTS/Mol_Feturizer/New_Systems/rnas/2miy

>  <Rbt.Executable>
rbdock ($Id: //depot/dev/client3/rdock/2013.1/src/exe/rbdock.cxx#4 $)

>  <Rbt.Library>
libRbt.so (2013.1, Build901 2013/11/27)

>  <Rbt.Parameter_File>
/export/apps/rDock/src/rDock_2013.1_src/data/scripts/dock_solv.prm

>  <Rbt.Receptor>
prm/pocket_docking_4.prm

>  <SCORE>
-49.3246

>  <SCORE.INTER>
-48.894

>  <SCORE.INTER.CONST>
1

>  <SCORE.INTER.POLAR>
-5.41771

>  <SCORE.INTER.ROT>
2

>  <SCORE.INTER.SOLV>
18.8533

>  <SCORE.INTER.VDW>
-25.7547

>  <SCORE.INTER.norm>
-3.76108

>  <SCORE.INTRA>
-0.430593

>  <SCORE.INTRA.DIHEDRAL>
0.774137

>  <SCORE.INTRA.DIHEDRAL.0>
1.76676

>  <SCORE.INTRA.POLAR>
-0.389311

>  <SCORE.INTRA.POLAR.0>
-0.472211

>  <SCORE.INTRA.REPUL>
0

>  <SCORE.INTRA.REPUL.0>
0

>  <SCORE.INTRA.SOLV>
0.138957

>  <SCORE.INTRA.SOLV.lig_0>
-22.5855

>  <SCORE.INTRA.VDW>
0.436516

>  <SCORE.INTRA.VDW.0>
-0.733656

>  <SCORE.INTRA.norm>
-0.0331225

>  <SCORE.RESTR>
0

>  <SCORE.RESTR.CAVITY>
0

>  <SCORE.RESTR.norm>
0

>  <SCORE.SYSTEM>
0

>  <SCORE.SYSTEM.CONST>
0

>  <SCORE.SYSTEM.DIHEDRAL>
0

>  <SCORE.SYSTEM.SOLV>
0

>  <SCORE.SYSTEM.norm>
0

>  <SCORE.heavy>
13

>  <SCORE.norm>
-3.7942

>  <RMSD>
0.650

$$$$
lig.pdb
 OpenBabel11021811453D
libRbt.so/2013.1/901 2013/11/27
 13 14  0  0  0  0  0  0  0  0999 V2000
  -10.8210    4.5228   -7.1299 N   0  0  0  0  0  0  0  0  0  0  0  0
  -10.9527    3.7789   -8.2681 C   0  0  0  0  0  0  0  0  0  0  0  0
   -9.8813    3.3521   -8.9121 N   0  0  0  0  0  0  0  0  0  0  0  0
   -8.6135    3.6307   -8.4802 C   0  0  0  0  0  0  0  0  0  0  0  0
   -8.4191    4.4030   -7.3093 C   0  0  0  0  0  0  0  0  0  0  0  0
   -9.5826    4.8590   -6.6193 C   0  0  0  0  0  0  0  0  0  0  0  0
   -9.4857    5.5293   -5.6063 O   0  0  0  0  0  0  0  0  0  0  0  0
   -6.9680    4.5281   -7.1284 C   0  0  0  0  0  0  0  0  0  0  0  0
   -6.2374    5.2711   -6.0413 C   0  0  0  0  0  0  0  0  0  0  0  0
   -7.0328    6.4312   -5.6181 N   0  0  0  0  0  0  0  0  0  0  0  0
   -6.4091    3.8472   -8.1364 C   0  0  0  0  0  0  0  0  0  0  0  0
   -7.3759    3.3162   -8.9481 N   0  0  0  0  0  0  0  0  0  0  0  0
  -12.2032    3.4757   -8.7418 N   0  0  0  0  0  0  0  0  0  0  0  0
  1  6  1  0  0  0  0
  2  1  1  0  0  0  0
  3  4  1  0  0  0  0
  3  2  2  0  0  0  0
  4  5  2  0  0  0  0
  5  8  1  0  0  0  0
  5  6  1  0  0  0  0
  6  7  2  0  0  0  0
  8  9  1  0  0  0  0
  9 10  1  0  0  0  0
 11  8  2  0  0  0  0
 12  4  1  0  0  0  0
 12 11  1  0  0  0  0
 13  2  1  0  0  0  0
M  END
>  <CHROM.1>
-31.35691397,57.06976420,-8.81522577,4.41374565,-7.42914773,2.62324215,-0.01541468
-2.22917228

>  <Name>
lig.pdb

>  <RI>
4.2128e+07

>  <Rbt.Current_Directory>
/home/itssahil/PROJECTS/Mol_Feturizer/New_Systems/rnas/2miy

>  <Rbt.Executable>
rbdock ($Id: //depot/dev/client3/rdock/2013.1/src/exe/rbdock.cxx#4 $)

>  <Rbt.Library>
libRbt.so (2013.1, Build901 2013/11/27)

>  <Rbt.Parameter_File>
/export/apps/rDock/src/rDock_2013.1_src/data/scripts/dock_solv.prm

>  <Rbt.Receptor>
prm/pocket_docking_5.prm

>  <SCORE>
-49.2157

>  <SCORE.INTER>
-48.7243

>  <SCORE.INTER.CONST>
1

>  <SCORE.INTER.POLAR>
-5.39613

>  <SCORE.INTER.ROT>
2

>  <SCORE.INTER.SOLV>
18.8624

>  <SCORE.INTER.VDW>
-25.7165

>  <SCORE.INTER.norm>
-3.74802

>  <SCORE.INTRA>
-0.515298

>  <SCORE.INTRA.DIHEDRAL>
0.68863

>  <SCORE.INTRA.DIHEDRAL.0>
1.76676

>  <SCORE.INTRA.POLAR>
-0.373942

>  <SCORE.INTRA.POLAR.0>
-0.472211

>  <SCORE.INTRA.REPUL>
0

>  <SCORE.INTRA.REPUL.0>
0

>  <SCORE.INTRA.SOLV>
0.122384

>  <SCORE.INTRA.SOLV.lig_0>
-22.5855

>  <SCORE.INTRA.VDW>
0.350596

>  <SCORE.INTRA.VDW.0>
-0.733656

>  <SCORE.INTRA.norm>
-0.0396383

>  <SCORE.RESTR>
0.0238377

>  <SCORE.RESTR.CAVITY>
0.0238377

>  <SCORE.RESTR.norm>
0.00183367

>  <SCORE.SYSTEM>
0

>  <SCORE.SYSTEM.CONST>
0

>  <SCORE.SYSTEM.DIHEDRAL>
0

>  <SCORE.SYSTEM.SOLV>
0

>  <SCORE.SYSTEM.norm>
0

>  <SCORE.heavy>
13

>  <SCORE.norm>
-3.78582

>  <RMSD>
0.650

$$$$
lig.pdb
 OpenBabel11021811453D
libRbt.so/2013.1/901 2013/11/27
 13 14  0  0  0  0  0  0  0  0999 V2000
  -10.8239    4.5204   -7.1322 N   0  0  0  0  0  0  0  0  0  0  0  0
  -10.9577    3.7674   -8.2642 C   0  0  0  0  0  0  0  0  0  0  0  0
   -9.8875    3.3343   -8.9060 N   0  0  0  0  0  0  0  0  0  0  0  0
   -8.6189    3.6150   -8.4778 C   0  0  0  0  0  0  0  0  0  0  0  0
   -8.4224    4.3964   -7.3133 C   0  0  0  0  0  0  0  0  0  0  0  0
   -9.5845    4.8592   -6.6257 C   0  0  0  0  0  0  0  0  0  0  0  0
   -9.4858    5.5375   -5.6182 O   0  0  0  0  0  0  0  0  0  0  0  0
   -6.9709    4.5213   -7.1350 C   0  0  0  0  0  0  0  0  0  0  0  0
   -6.2382    5.2722   -6.0547 C   0  0  0  0  0  0  0  0  0  0  0  0
   -7.0463    6.4183   -5.6176 N   0  0  0  0  0  0  0  0  0  0  0  0
   -6.4139    3.8317   -8.1382 C   0  0  0  0  0  0  0  0  0  0  0  0
   -7.3822    3.2953   -8.9445 N   0  0  0  0  0  0  0  0  0  0  0  0
  -12.2090    3.4619   -8.7341 N   0  0  0  0  0  0  0  0  0  0  0  0
  1  6  1  0  0  0  0
  2  1  1  0  0  0  0
  3  4  1  0  0  0  0
  3  2  2  0  0  0  0
  4  5  2  0  0  0  0
  5  8  1  0  0  0  0
  5  6  1  0  0  0  0
  6  7  2  0  0  0  0
  8  9  1  0  0  0  0
  9 10  1  0  0  0  0
 11  8  2  0  0  0  0
 12  4  1  0  0  0  0
 12 11  1  0  0  0  0
 13  2  1  0  0  0  0
M  END
>  <CHROM.1>
-30.02092283,55.93502946,-8.81994404,4.40491200,-7.43068426,2.62384135,-0.01437948
-2.23467917

>  <Name>
lig.pdb

>  <RI>
9.06885e+06

>  <Rbt.Current_Directory>
/home/itssahil/PROJECTS/Mol_Feturizer/New_Systems/rnas/2miy

>  <Rbt.Executable>
rbdock ($Id: //depot/dev/client3/rdock/2013.1/src/exe/rbdock.cxx#4 $)

>  <Rbt.Library>
libRbt.so (2013.1, Build901 2013/11/27)

>  <Rbt.Parameter_File>
/export/apps/rDock/src/rDock_2013.1_src/data/scripts/dock_solv.prm

>  <Rbt.Receptor>
prm/pocket_docking_6.prm

>  <SCORE>
-49.2956

>  <SCORE.INTER>
-48.8523

>  <SCORE.INTER.CONST>
1

>  <SCORE.INTER.POLAR>
-5.41764

>  <SCORE.INTER.ROT>
2

>  <SCORE.INTER.SOLV>
18.8413

>  <SCORE.INTER.VDW>
-25.7231

>  <SCORE.INTER.norm>
-3.75787

>  <SCORE.INTRA>
-0.443368

>  <SCORE.INTRA.DIHEDRAL>
0.76726

>  <SCORE.INTRA.DIHEDRAL.0>
1.76676

>  <SCORE.INTRA.POLAR>
-0.386739

>  <SCORE.INTRA.POLAR.0>
-0.472211

>  <SCORE.INTRA.REPUL>
0

>  <SCORE.INTRA.REPUL.0>
0

>  <SCORE.INTRA.SOLV>
0.136524

>  <SCORE.INTRA.SOLV.lig_0>
-22.5855

>  <SCORE.INTRA.VDW>
0.419651

>  <SCORE.INTRA.VDW.0>
-0.733656

>  <SCORE.INTRA.norm>
-0.0341052

>  <SCORE.RESTR>
0

>  <SCORE.RESTR.CAVITY>
0

>  <SCORE.RESTR.norm>
0

>  <SCORE.SYSTEM>
0

>  <SCORE.SYSTEM.CONST>
0

>  <SCORE.SYSTEM.DIHEDRAL>
0

>  <SCORE.SYSTEM.SOLV>
0

>  <SCORE.SYSTEM.norm>
0

>  <SCORE.heavy>
13

>  <SCORE.norm>
-3.79197

>  <RMSD>
0.650

$$$$
lig.pdb
 OpenBabel11021811453D
libRbt.so/2013.1/901 2013/11/27
 13 14  0  0  0  0  0  0  0  0999 V2000
  -10.8262    4.5112   -7.1297 N   0  0  0  0  0  0  0  0  0  0  0  0
  -10.9596    3.7518   -8.2575 C   0  0  0  0  0  0  0  0  0  0  0  0
   -9.8892    3.3191   -8.8993 N   0  0  0  0  0  0  0  0  0  0  0  0
   -8.6208    3.6064   -8.4751 C   0  0  0  0  0  0  0  0  0  0  0  0
   -8.4245    4.3947   -7.3152 C   0  0  0  0  0  0  0  0  0  0  0  0
   -9.5869    4.8570   -6.6277 C   0  0  0  0  0  0  0  0  0  0  0  0
   -9.4885    5.5410   -5.6239 O   0  0  0  0  0  0  0  0  0  0  0  0
   -6.9732    4.5257   -7.1406 C   0  0  0  0  0  0  0  0  0  0  0  0
   -6.2409    5.2848   -6.0658 C   0  0  0  0  0  0  0  0  0  0  0  0
   -7.0496    6.4337   -5.6372 N   0  0  0  0  0  0  0  0  0  0  0  0
   -6.4159    3.8327   -8.1413 C   0  0  0  0  0  0  0  0  0  0  0  0
   -7.3839    3.2887   -8.9427 N   0  0  0  0  0  0  0  0  0  0  0  0
  -12.2108    3.4394   -8.7232 N   0  0  0  0  0  0  0  0  0  0  0  0
  1  6  1  0  0  0  0
  2  1  1  0  0  0  0
  3  4  1  0  0  0  0
  3  2  2  0  0  0  0
  4  5  2  0  0  0  0
  5  8  1  0  0  0  0
  5  6  1  0  0  0  0
  6  7  2  0  0  0  0
  8  9  1  0  0  0  0
  9 10  1  0  0  0  0
 11  8  2  0  0  0  0
 12  4  1  0  0  0  0
 12 11  1  0  0  0  0
 13  2  1  0  0  0  0
M  END
>  <CHROM.1>
-30.26564127,56.57490192,-8.82216740,4.40151062,-7.43219212,2.62347280,-0.01858910
-2.24041820

>  <Name>
lig.pdb

>  <RI>
3.47783e+07

>  <Rbt.Current_Directory>
/home/itssahil/PROJECTS/Mol_Feturizer/New_Systems/rnas/2miy

>  <Rbt.Executable>
rbdock ($Id: //depot/dev/client3/rdock/2013.1/src/exe/rbdock.cxx#4 $)

>  <Rbt.Library>
libRbt.so (2013.1, Build901 2013/11/27)

>  <Rbt.Parameter_File>
/export/apps/rDock/src/rDock_2013.1_src/data/scripts/dock_solv.prm

>  <Rbt.Receptor>
prm/pocket_docking_8.prm

>  <SCORE>
-49.3206

>  <SCORE.INTER>
-48.8615

>  <SCORE.INTER.CONST>
1

>  <SCORE.INTER.POLAR>
-5.39478

>  <SCORE.INTER.ROT>
2

>  <SCORE.INTER.SOLV>
18.8651

>  <SCORE.INTER.VDW>
-25.8135

>  <SCORE.INTER.norm>
-3.75858

>  <SCORE.INTRA>
-0.459115

>  <SCORE.INTRA.DIHEDRAL>
0.752166

>  <SCORE.INTRA.DIHEDRAL.0>
1.76676

>  <SCORE.INTRA.POLAR>
-0.383308

>  <SCORE.INTRA.POLAR.0>
-0.472211

>  <SCORE.INTRA.REPUL>
0

>  <SCORE.INTRA.REPUL.0>
0

>  <SCORE.INTRA.SOLV>
0.133126

>  <SCORE.INTRA.SOLV.lig_0>
-22.5855

>  <SCORE.INTRA.VDW>
0.401488

>  <SCORE.INTRA.VDW.0>
-0.733656

>  <SCORE.INTRA.norm>
-0.0353165

>  <SCORE.RESTR>
0

>  <SCORE.RESTR.CAVITY>
0

>  <SCORE.RESTR.norm>
0

>  <SCORE.SYSTEM>
0

>  <SCORE.SYSTEM.CONST>
0

>  <SCORE.SYSTEM.DIHEDRAL>
0

>  <SCORE.SYSTEM.SOLV>
0

>  <SCORE.SYSTEM.norm>
0

>  <SCORE.heavy>
13

>  <SCORE.norm>
-3.79389

>  <RMSD>
0.650

$$$$
lig.pdb
 OpenBabel11021811453D
libRbt.so/2013.1/901 2013/11/27
 13 14  0  0  0  0  0  0  0  0999 V2000
  -10.8242    4.5121   -7.1299 N   0  0  0  0  0  0  0  0  0  0  0  0
  -10.9579    3.7528   -8.2578 C   0  0  0  0  0  0  0  0  0  0  0  0
   -9.8876    3.3198   -8.8995 N   0  0  0  0  0  0  0  0  0  0  0  0
   -8.6191    3.6068   -8.4753 C   0  0  0  0  0  0  0  0  0  0  0  0
   -8.4226    4.3950   -7.3154 C   0  0  0  0  0  0  0  0  0  0  0  0
   -9.5849    4.8576   -6.6278 C   0  0  0  0  0  0  0  0  0  0  0  0
   -9.4863    5.5415   -5.6240 O   0  0  0  0  0  0  0  0  0  0  0  0
   -6.9713    4.5255   -7.1407 C   0  0  0  0  0  0  0  0  0  0  0  0
   -6.2388    5.2844   -6.0658 C   0  0  0  0  0  0  0  0  0  0  0  0
   -7.0513    6.4281   -5.6305 N   0  0  0  0  0  0  0  0  0  0  0  0
   -6.4141    3.8325   -8.1414 C   0  0  0  0  0  0  0  0  0  0  0  0
   -7.3823    3.2888   -8.9429 N   0  0  0  0  0  0  0  0  0  0  0  0
  -12.2092    3.4408   -8.7235 N   0  0  0  0  0  0  0  0  0  0  0  0
  1  6  1  0  0  0  0
  2  1  1  0  0  0  0
  3  4  1  0  0  0  0
  3  2  2  0  0  0  0
  4  5  2  0  0  0  0
  5  8  1  0  0  0  0
  5  6  1  0  0  0  0
  6  7  2  0  0  0  0
  8  9  1  0  0  0  0
  9 10  1  0  0  0  0
 11  8  2  0  0  0  0
 12  4  1  0  0  0  0
 12 11  1  0  0  0  0
 13  2  1  0  0  0  0
M  END
>  <CHROM.1>
-29.86987963,56.91502643,-8.82064546,4.40139135,-7.43174136,2.62335447,-0.01813370
-2.23960017

>  <Name>
lig.pdb

>  <RI>
2.68696e+07

>  <Rbt.Current_Directory>
/home/itssahil/PROJECTS/Mol_Feturizer/New_Systems/rnas/2miy

>  <Rbt.Executable>
rbdock ($Id: //depot/dev/client3/rdock/2013.1/src/exe/rbdock.cxx#4 $)

>  <Rbt.Library>
libRbt.so (2013.1, Build901 2013/11/27)

>  <Rbt.Parameter_File>
/export/apps/rDock/src/rDock_2013.1_src/data/scripts/dock_solv.prm

>  <Rbt.Receptor>
prm/pocket_docking_4.prm

>  <SCORE>
-49.3064

>  <SCORE.INTER>
-48.8708

>  <SCORE.INTER.CONST>
1

>  <SCORE.INTER.POLAR>
-5.39209

>  <SCORE.INTER.ROT>
2

>  <SCORE.INTER.SOLV>
18.851

>  <SCORE.INTER.VDW>
-25.8239

>  <SCORE.INTER.norm>
-3.75929

>  <SCORE.INTRA>
-0.435849

>  <SCORE.INTRA.DIHEDRAL>
0.774422

>  <SCORE.INTRA.DIHEDRAL.0>
1.76676

>  <SCORE.INTRA.POLAR>
-0.384042

>  <SCORE.INTRA.POLAR.0>
-0.472211

>  <SCORE.INTRA.REPUL>
0

>  <SCORE.INTRA.REPUL.0>
0

>  <SCORE.INTRA.SOLV>
0.135906

>  <SCORE.INTRA.SOLV.lig_0>
-22.5855

>  <SCORE.INTRA.VDW>
0.414728

>  <SCORE.INTRA.VDW.0>
-0.733656

>  <SCORE.INTRA.norm>
-0.0335269

>  <SCORE.RESTR>
0.000281647

>  <SCORE.RESTR.CAVITY>
0.000281647

>  <SCORE.RESTR.norm>
2.16652e-05

>  <SCORE.SYSTEM>
0

>  <SCORE.SYSTEM.CONST>
0

>  <SCORE.SYSTEM.DIHEDRAL>
0

>  <SCORE.SYSTEM.SOLV>
0

>  <SCORE.SYSTEM.norm>
0

>  <SCORE.heavy>
13

>  <SCORE.norm>
-3.7928

>  <RMSD>
0.651

$$$$
lig.pdb
 OpenBabel11021811453D
libRbt.so/2013.1/901 2013/11/27
 13 14  0  0  0  0  0  0  0  0999 V2000
  -10.8243    4.5170   -7.1284 N   0  0  0  0  0  0  0  0  0  0  0  0
  -10.9600    3.7563   -8.2550 C   0  0  0  0  0  0  0  0  0  0  0  0
   -9.8909    3.3205   -8.8969 N   0  0  0  0  0  0  0  0  0  0  0  0
   -8.6216    3.6059   -8.4740 C   0  0  0  0  0  0  0  0  0  0  0  0
   -8.4230    4.3954   -7.3154 C   0  0  0  0  0  0  0  0  0  0  0  0
   -9.5840    4.8611   -6.6277 C   0  0  0  0  0  0  0  0  0  0  0  0
   -9.4835    5.5463   -5.6250 O   0  0  0  0  0  0  0  0  0  0  0  0
   -6.9713    4.5238   -7.1420 C   0  0  0  0  0  0  0  0  0  0  0  0
   -6.2368    5.2830   -6.0688 C   0  0  0  0  0  0  0  0  0  0  0  0
   -7.0492    6.4258   -5.6309 N   0  0  0  0  0  0  0  0  0  0  0  0
   -6.4160    3.8283   -8.1420 C   0  0  0  0  0  0  0  0  0  0  0  0
   -7.3857    3.2850   -8.9421 N   0  0  0  0  0  0  0  0  0  0  0  0
  -12.2122    3.4457   -8.7194 N   0  0  0  0  0  0  0  0  0  0  0  0
  1  6  1  0  0  0  0
  2  1  1  0  0  0  0
  3  4  1  0  0  0  0
  3  2  2  0  0  0  0
  4  5  2  0  0  0  0
  5  8  1  0  0  0  0
  5  6  1  0  0  0  0
  6  7  2  0  0  0  0
  8  9  1  0  0  0  0
  9 10  1  0  0  0  0
 11  8  2  0  0  0  0
 12  4  1  0  0  0  0
 12 11  1  0  0  0  0
 13  2  1  0  0  0  0
M  END
>  <CHROM.1>
-29.65335063,-125.60182664,-8.82123915,4.40208643,-7.43100424,2.62463124
-0.01703986,-2.24059818

>  <Name>
lig.pdb

>  <RI>
2.68696e+07

>  <Rbt.Current_Directory>
/home/itssahil/PROJECTS/Mol_Feturizer/New_Systems/rnas/2miy

>  <Rbt.Executable>
rbdock ($Id: //depot/dev/client3/rdock/2013.1/src/exe/rbdock.cxx#4 $)

>  <Rbt.Library>
libRbt.so (2013.1, Build901 2013/11/27)

>  <Rbt.Parameter_File>
/export/apps/rDock/src/rDock_2013.1_src/data/scripts/dock_solv.prm

>  <Rbt.Receptor>
prm/pocket_docking_4.prm

>  <SCORE>
-49.3249

>  <SCORE.INTER>
-48.8978

>  <SCORE.INTER.CONST>
1

>  <SCORE.INTER.POLAR>
-5.41996

>  <SCORE.INTER.ROT>
2

>  <SCORE.INTER.SOLV>
18.8652

>  <SCORE.INTER.VDW>
-25.7537

>  <SCORE.INTER.norm>
-3.76137

>  <SCORE.INTRA>
-0.42754

>  <SCORE.INTRA.DIHEDRAL>
0.774734

>  <SCORE.INTRA.DIHEDRAL.0>
1.76676

>  <SCORE.INTRA.POLAR>
-0.391171

>  <SCORE.INTRA.POLAR.0>
-0.472211

>  <SCORE.INTRA.REPUL>
0

>  <SCORE.INTRA.REPUL.0>
0

>  <SCORE.INTRA.SOLV>
0.140332

>  <SCORE.INTRA.SOLV.lig_0>
-22.5855

>  <SCORE.INTRA.VDW>
0.444907

>  <SCORE.INTRA.VDW.0>
-0.733656

>  <SCORE.INTRA.norm>
-0.0328877

>  <SCORE.RESTR>
0.000497723

>  <SCORE.RESTR.CAVITY>
0.000497723

>  <SCORE.RESTR.norm>
3.82864e-05

>  <SCORE.SYSTEM>
0

>  <SCORE.SYSTEM.CONST>
0

>  <SCORE.SYSTEM.DIHEDRAL>
0

>  <SCORE.SYSTEM.SOLV>
0

>  <SCORE.SYSTEM.norm>
0

>  <SCORE.heavy>
13

>  <SCORE.norm>
-3.79422

>  <RMSD>
0.651

$$$$
lig.pdb
 OpenBabel11021811453D
libRbt.so/2013.1/901 2013/11/27
 13 14  0  0  0  0  0  0  0  0999 V2000
  -10.8246    4.5095   -7.1247 N   0  0  0  0  0  0  0  0  0  0  0  0
  -10.9607    3.7487   -8.2512 C   0  0  0  0  0  0  0  0  0  0  0  0
   -9.8918    3.3150   -8.8947 N   0  0  0  0  0  0  0  0  0  0  0  0
   -8.6223    3.6027   -8.4738 C   0  0  0  0  0  0  0  0  0  0  0  0
   -8.4234    4.3925   -7.3154 C   0  0  0  0  0  0  0  0  0  0  0  0
   -9.5843    4.8559   -6.6258 C   0  0  0  0  0  0  0  0  0  0  0  0
   -9.4835    5.5412   -5.6232 O   0  0  0  0  0  0  0  0  0  0  0  0
   -6.9717    4.5235   -7.1441 C   0  0  0  0  0  0  0  0  0  0  0  0
   -6.2370    5.2840   -6.0719 C   0  0  0  0  0  0  0  0  0  0  0  0
   -7.0318    6.4497   -5.6632 N   0  0  0  0  0  0  0  0  0  0  0  0
   -6.4167    3.8292   -8.1451 C   0  0  0  0  0  0  0  0  0  0  0  0
   -7.3865    3.2842   -8.9437 N   0  0  0  0  0  0  0  0  0  0  0  0
  -12.2130    3.4358   -8.7137 N   0  0  0  0  0  0  0  0  0  0  0  0
  1  6  1  0  0  0  0
  2  1  1  0  0  0  0
  3  4  1  0  0  0  0
  3  2  2  0  0  0  0
  4  5  2  0  0  0  0
  5  8  1  0  0  0  0
  5  6  1  0  0  0  0
  6  7  2  0  0  0  0
  8  9  1  0  0  0  0
  9 10  1  0  0  0  0
 11  8  2  0  0  0  0
 12  4  1  0  0  0  0
 12 11  1  0  0  0  0
 13  2  1  0  0  0  0
M  END
>  <CHROM.1>
-31.45215289,-124.19072687,-8.82008744,4.40070238,-7.43317861,2.62593857
-0.02057081,-2.24386277

>  <Name>
lig.pdb

>  <RI>
0

>  <Rbt.Current_Directory>
/home/itssahil/PROJECTS/Mol_Feturizer/New_Systems/rnas/2miy

>  <Rbt.Executable>
rbdock ($Id: //depot/dev/client3/rdock/2013.1/src/exe/rbdock.cxx#4 $)

>  <Rbt.Library>
libRbt.so (2013.1, Build901 2013/11/27)

>  <Rbt.Parameter_File>
/export/apps/rDock/src/rDock_2013.1_src/data/scripts/dock_solv.prm

>  <Rbt.Receptor>
prm/pocket_docking_2.prm

>  <SCORE>
-49.3462

>  <SCORE.INTER>
-48.8226

>  <SCORE.INTER.CONST>
1

>  <SCORE.INTER.POLAR>
-5.39953

>  <SCORE.INTER.ROT>
2

>  <SCORE.INTER.SOLV>
18.9234

>  <SCORE.INTER.VDW>
-25.7911

>  <SCORE.INTER.norm>
-3.75558

>  <SCORE.INTRA>
-0.523604

>  <SCORE.INTRA.DIHEDRAL>
0.673431

>  <SCORE.INTRA.DIHEDRAL.0>
1.76676

>  <SCORE.INTRA.POLAR>
-0.374341

>  <SCORE.INTRA.POLAR.0>
-0.472211

>  <SCORE.INTRA.REPUL>
0

>  <SCORE.INTRA.REPUL.0>
0

>  <SCORE.INTRA.SOLV>
0.121598

>  <SCORE.INTRA.SOLV.lig_0>
-22.5855

>  <SCORE.INTRA.VDW>
0.351641

>  <SCORE.INTRA.VDW.0>
-0.733656

>  <SCORE.INTRA.norm>
-0.0402773

>  <SCORE.RESTR>
0

>  <SCORE.RESTR.CAVITY>
0

>  <SCORE.RESTR.norm>
0

>  <SCORE.SYSTEM>
0

>  <SCORE.SYSTEM.CONST>
0

>  <SCORE.SYSTEM.DIHEDRAL>
0

>  <SCORE.SYSTEM.SOLV>
0

>  <SCORE.SYSTEM.norm>
0

>  <SCORE.heavy>
13

>  <SCORE.norm>
-3.79586

>  <RMSD>
0.652

$$$$
lig.pdb
 OpenBabel11021811453D
libRbt.so/2013.1/901 2013/11/27
 13 14  0  0  0  0  0  0  0  0999 V2000
  -10.8273    4.5019   -7.1326 N   0  0  0  0  0  0  0  0  0  0  0  0
  -10.9590    3.7406   -8.2593 C   0  0  0  0  0  0  0  0  0  0  0  0
   -9.8875    3.3090   -8.9001 N   0  0  0  0  0  0  0  0  0  0  0  0
   -8.6197    3.5996   -8.4761 C   0  0  0  0  0  0  0  0  0  0  0  0
   -8.4254    4.3900   -7.3174 C   0  0  0  0  0  0  0  0  0  0  0  0
   -9.5889    4.8510   -6.6308 C   0  0  0  0  0  0  0  0  0  0  0  0
   -9.4920    5.5367   -5.6280 O   0  0  0  0  0  0  0  0  0  0  0  0
   -6.9744    4.5242   -7.1426 C   0  0  0  0  0  0  0  0  0  0  0  0
   -6.2439    5.2864   -6.0688 C   0  0  0  0  0  0  0  0  0  0  0  0
   -7.0416    6.4512   -5.6631 N   0  0  0  0  0  0  0  0  0  0  0  0
   -6.4154    3.8309   -8.1421 C   0  0  0  0  0  0  0  0  0  0  0  0
   -7.3821    3.2836   -8.9430 N   0  0  0  0  0  0  0  0  0  0  0  0
  -12.2094    3.4249   -8.7248 N   0  0  0  0  0  0  0  0  0  0  0  0
  1  6  1  0  0  0  0
  2  1  1  0  0  0  0
  3  4  1  0  0  0  0
  3  2  2  0  0  0  0
  4  5  2  0  0  0  0
  5  8  1  0  0  0  0
  5  6  1  0  0  0  0
  6  7  2  0  0  0  0
  8  9  1  0  0  0  0
  9 10  1  0  0  0  0
 11  8  2  0  0  0  0
 12  4  1  0  0  0  0
 12 11  1  0  0  0  0
 13  2  1  0  0  0  0
M  END
>  <CHROM.1>
-31.50942382,-123.97968113,-8.82169048,4.39739079,-7.43624083,2.62273609
-0.02075909,-2.24419400

>  <Name>
lig.pdb

>  <RI>
0

>  <Rbt.Current_Directory>
/home/itssahil/PROJECTS/Mol_Feturizer/New_Systems/rnas/2miy

>  <Rbt.Executable>
rbdock ($Id: //depot/dev/client3/rdock/2013.1/src/exe/rbdock.cxx#4 $)

>  <Rbt.Library>
libRbt.so (2013.1, Build901 2013/11/27)

>  <Rbt.Parameter_File>
/export/apps/rDock/src/rDock_2013.1_src/data/scripts/dock_solv.prm

>  <Rbt.Receptor>
prm/pocket_docking_2.prm

>  <SCORE>
-49.3311

>  <SCORE.INTER>
-48.8042

>  <SCORE.INTER.CONST>
1

>  <SCORE.INTER.POLAR>
-5.36269

>  <SCORE.INTER.ROT>
2

>  <SCORE.INTER.SOLV>
18.9206

>  <SCORE.INTER.VDW>
-25.9007

>  <SCORE.INTER.norm>
-3.75417

>  <SCORE.INTRA>
-0.526923

>  <SCORE.INTRA.DIHEDRAL>
0.670474

>  <SCORE.INTRA.DIHEDRAL.0>
1.76676

>  <SCORE.INTRA.POLAR>
-0.373419

>  <SCORE.INTRA.POLAR.0>
-0.472211

>  <SCORE.INTRA.REPUL>
0

>  <SCORE.INTRA.REPUL.0>
0

>  <SCORE.INTRA.SOLV>
0.120656

>  <SCORE.INTRA.SOLV.lig_0>
-22.5855

>  <SCORE.INTRA.VDW>
0.347135

>  <SCORE.INTRA.VDW.0>
-0.733656

>  <SCORE.INTRA.norm>
-0.0405326

>  <SCORE.RESTR>
0

>  <SCORE.RESTR.CAVITY>
0

>  <SCORE.RESTR.norm>
0

>  <SCORE.SYSTEM>
0

>  <SCORE.SYSTEM.CONST>
0

>  <SCORE.SYSTEM.DIHEDRAL>
0

>  <SCORE.SYSTEM.SOLV>
0

>  <SCORE.SYSTEM.norm>
0

>  <SCORE.heavy>
13

>  <SCORE.norm>
-3.7947

>  <RMSD>
0.652

$$$$
lig.pdb
 OpenBabel11021811453D
libRbt.so/2013.1/901 2013/11/27
 13 14  0  0  0  0  0  0  0  0999 V2000
  -10.8558    4.4455   -7.1091 N   0  0  0  0  0  0  0  0  0  0  0  0
  -10.9796    3.6951   -8.2440 C   0  0  0  0  0  0  0  0  0  0  0  0
   -9.9038    3.2858   -8.8921 N   0  0  0  0  0  0  0  0  0  0  0  0
   -8.6391    3.5891   -8.4677 C   0  0  0  0  0  0  0  0  0  0  0  0
   -8.4530    4.3691   -7.3005 C   0  0  0  0  0  0  0  0  0  0  0  0
   -9.6211    4.8061   -6.6061 C   0  0  0  0  0  0  0  0  0  0  0  0
   -9.5314    5.4817   -5.5959 O   0  0  0  0  0  0  0  0  0  0  0  0
   -7.0036    4.5214   -7.1274 C   0  0  0  0  0  0  0  0  0  0  0  0
   -6.2812    5.2816   -6.0467 C   0  0  0  0  0  0  0  0  0  0  0  0
   -6.9784    5.0989   -4.7668 N   0  0  0  0  0  0  0  0  0  0  0  0
   -6.4374    3.8473   -8.1360 C   0  0  0  0  0  0  0  0  0  0  0  0
   -7.3984    3.2957   -8.9408 N   0  0  0  0  0  0  0  0  0  0  0  0
  -12.2266    3.3674   -8.7103 N   0  0  0  0  0  0  0  0  0  0  0  0
  1  6  1  0  0  0  0
  2  1  1  0  0  0  0
  3  4  1  0  0  0  0
  3  2  2  0  0  0  0
  4  5  2  0  0  0  0
  5  8  1  0  0  0  0
  5  6  1  0  0  0  0
  6  7  2  0  0  0  0
  8  9  1  0  0  0  0
  9 10  1  0  0  0  0
 11  8  2  0  0  0  0
 12  4  1  0  0  0  0
 12 11  1  0  0  0  0
 13  2  1  0  0  0  0
M  END
>  <CHROM.1>
38.55609661,-61.50254081,-8.83886735,4.24813567,-7.33828869,2.62192719,0.00179097
-2.07969813

>  <Name>
lig.pdb

>  <RI>
2.60406e+07

>  <Rbt.Current_Directory>
/home/itssahil/PROJECTS/Mol_Feturizer/New_Systems/rnas/2miy

>  <Rbt.Executable>
rbdock ($Id: //depot/dev/client3/rdock/2013.1/src/exe/rbdock.cxx#4 $)

>  <Rbt.Library>
libRbt.so (2013.1, Build901 2013/11/27)

>  <Rbt.Parameter_File>
/export/apps/rDock/src/rDock_2013.1_src/data/scripts/dock_solv.prm

>  <Rbt.Receptor>
prm/pocket_docking_7.prm

>  <SCORE>
-48.0533

>  <SCORE.INTER>
-47.4854

>  <SCORE.INTER.CONST>
1

>  <SCORE.INTER.POLAR>
-5.22195

>  <SCORE.INTER.ROT>
2

>  <SCORE.INTER.SOLV>
17.3035

>  <SCORE.INTER.VDW>
-24.9516

>  <SCORE.INTER.norm>
-3.65272

>  <SCORE.INTRA>
-0.706304

>  <SCORE.INTRA.DIHEDRAL>
0.307817

>  <SCORE.INTRA.DIHEDRAL.0>
1.76676

>  <SCORE.INTRA.POLAR>
-0.296927

>  <SCORE.INTRA.POLAR.0>
-0.472211

>  <SCORE.INTRA.REPUL>
0

>  <SCORE.INTRA.REPUL.0>
0

>  <SCORE.INTRA.SOLV>
0.0612598

>  <SCORE.INTRA.SOLV.lig_0>
-22.5855

>  <SCORE.INTRA.VDW>
0.118711

>  <SCORE.INTRA.VDW.0>
-0.733656

>  <SCORE.INTRA.norm>
-0.0543311

>  <SCORE.RESTR>
0.138388

>  <SCORE.RESTR.CAVITY>
0.138388

>  <SCORE.RESTR.norm>
0.0106452

>  <SCORE.SYSTEM>
0

>  <SCORE.SYSTEM.CONST>
0

>  <SCORE.SYSTEM.DIHEDRAL>
0

>  <SCORE.SYSTEM.SOLV>
0

>  <SCORE.SYSTEM.norm>
0

>  <SCORE.heavy>
13

>  <SCORE.norm>
-3.69641

>  <RMSD>
0.652

$$$$
lig.pdb
 OpenBabel11021811453D
libRbt.so/2013.1/901 2013/11/27
 13 14  0  0  0  0  0  0  0  0999 V2000
  -10.8263    4.5108   -7.1298 N   0  0  0  0  0  0  0  0  0  0  0  0
  -10.9612    3.7470   -8.2544 C   0  0  0  0  0  0  0  0  0  0  0  0
   -9.8917    3.3108   -8.8952 N   0  0  0  0  0  0  0  0  0  0  0  0
   -8.6227    3.5987   -8.4731 C   0  0  0  0  0  0  0  0  0  0  0  0
   -8.4249    4.3914   -7.3166 C   0  0  0  0  0  0  0  0  0  0  0  0
   -9.5864    4.8576   -6.6300 C   0  0  0  0  0  0  0  0  0  0  0  0
   -9.4866    5.5455   -5.6291 O   0  0  0  0  0  0  0  0  0  0  0  0
   -6.9733    4.5217   -7.1435 C   0  0  0  0  0  0  0  0  0  0  0  0
   -6.2396    5.2846   -6.0723 C   0  0  0  0  0  0  0  0  0  0  0  0
   -7.0383    6.4468   -5.6613 N   0  0  0  0  0  0  0  0  0  0  0  0
   -6.4173    3.8243   -8.1418 C   0  0  0  0  0  0  0  0  0  0  0  0
   -7.3864    3.2779   -8.9403 N   0  0  0  0  0  0  0  0  0  0  0  0
  -12.2130    3.4339   -8.7180 N   0  0  0  0  0  0  0  0  0  0  0  0
  1  6  1  0  0  0  0
  2  1  1  0  0  0  0
  3  4  1  0  0  0  0
  3  2  2  0  0  0  0
  4  5  2  0  0  0  0
  5  8  1  0  0  0  0
  5  6  1  0  0  0  0
  6  7  2  0  0  0  0
  8  9  1  0  0  0  0
  9 10  1  0  0  0  0
 11  8  2  0  0  0  0
 12  4  1  0  0  0  0
 12 11  1  0  0  0  0
 13  2  1  0  0  0  0
M  END
>  <CHROM.1>
-31.06932827,-123.82676297,-8.82172328,4.39911835,-7.43439084,2.62498926
-0.01878602,-2.24584670

>  <Name>
lig.pdb

>  <RI>
2.95488e+07

>  <Rbt.Current_Directory>
/home/itssahil/PROJECTS/Mol_Feturizer/New_Systems/rnas/2miy

>  <Rbt.Executable>
rbdock ($Id: //depot/dev/client3/rdock/2013.1/src/exe/rbdock.cxx#4 $)

>  <Rbt.Library>
libRbt.so (2013.1, Build901 2013/11/27)

>  <Rbt.Parameter_File>
/export/apps/rDock/src/rDock_2013.1_src/data/scripts/dock_solv.prm

>  <Rbt.Receptor>
prm/blind_docking_20.prm

>  <SCORE>
-49.3553

>  <SCORE.INTER>
-48.848

>  <SCORE.INTER.CONST>
1

>  <SCORE.INTER.POLAR>
-5.40731

>  <SCORE.INTER.ROT>
2

>  <SCORE.INTER.SOLV>
18.9169

>  <SCORE.INTER.VDW>
-25.78

>  <SCORE.INTER.norm>
-3.75754

>  <SCORE.INTRA>
-0.507454

>  <SCORE.INTRA.DIHEDRAL>
0.695984

>  <SCORE.INTRA.DIHEDRAL.0>
1.76676

>  <SCORE.INTRA.POLAR>
-0.376753

>  <SCORE.INTRA.POLAR.0>
-0.472211

>  <SCORE.INTRA.REPUL>
0

>  <SCORE.INTRA.REPUL.0>
0

>  <SCORE.INTRA.SOLV>
0.124337

>  <SCORE.INTRA.SOLV.lig_0>
-22.5855

>  <SCORE.INTRA.VDW>
0.363345

>  <SCORE.INTRA.VDW.0>
-0.733656

>  <SCORE.INTRA.norm>
-0.0390349

>  <SCORE.RESTR>
0.000187337

>  <SCORE.RESTR.CAVITY>
0.000187337

>  <SCORE.RESTR.norm>
1.44106e-05

>  <SCORE.SYSTEM>
0

>  <SCORE.SYSTEM.CONST>
0

>  <SCORE.SYSTEM.DIHEDRAL>
0

>  <SCORE.SYSTEM.SOLV>
0

>  <SCORE.SYSTEM.norm>
0

>  <SCORE.heavy>
13

>  <SCORE.norm>
-3.79656

>  <RMSD>
0.653

$$$$
lig.pdb
 OpenBabel11021811453D
libRbt.so/2013.1/901 2013/11/27
 13 14  0  0  0  0  0  0  0  0999 V2000
  -10.8266    4.5105   -7.1279 N   0  0  0  0  0  0  0  0  0  0  0  0
  -10.9611    3.7483   -8.2537 C   0  0  0  0  0  0  0  0  0  0  0  0
   -9.8912    3.3147   -8.8958 N   0  0  0  0  0  0  0  0  0  0  0  0
   -8.6224    3.6039   -8.4740 C   0  0  0  0  0  0  0  0  0  0  0  0
   -8.4252    4.3951   -7.3163 C   0  0  0  0  0  0  0  0  0  0  0  0
   -9.5870    4.8584   -6.6283 C   0  0  0  0  0  0  0  0  0  0  0  0
   -9.4877    5.5448   -5.6264 O   0  0  0  0  0  0  0  0  0  0  0  0
   -6.9737    4.5274   -7.1438 C   0  0  0  0  0  0  0  0  0  0  0  0
   -6.2405    5.2897   -6.0719 C   0  0  0  0  0  0  0  0  0  0  0  0
   -7.0379    6.4536   -5.6631 N   0  0  0  0  0  0  0  0  0  0  0  0
   -6.4172    3.8324   -8.1436 C   0  0  0  0  0  0  0  0  0  0  0  0
   -7.3859    3.2858   -8.9424 N   0  0  0  0  0  0  0  0  0  0  0  0
  -12.2127    3.4339   -8.7170 N   0  0  0  0  0  0  0  0  0  0  0  0
  1  6  1  0  0  0  0
  2  1  1  0  0  0  0
  3  4  1  0  0  0  0
  3  2  2  0  0  0  0
  4  5  2  0  0  0  0
  5  8  1  0  0  0  0
  5  6  1  0  0  0  0
  6  7  2  0  0  0  0
  8  9  1  0  0  0  0
  9 10  1  0  0  0  0
 11  8  2  0  0  0  0
 12  4  1  0  0  0  0
 12 11  1  0  0  0  0
 13  2  1  0  0  0  0
M  END
>  <CHROM.1>
-31.33319114,57.38923291,-8.82187049,4.40271434,-7.43443869,2.62485156,-0.02056980
-2.24483932

>  <Name>
lig.pdb

>  <RI>
0

>  <Rbt.Current_Directory>
/home/itssahil/PROJECTS/Mol_Feturizer/New_Systems/rnas/2miy

>  <Rbt.Executable>
rbdock ($Id: //depot/dev/client3/rdock/2013.1/src/exe/rbdock.cxx#4 $)

>  <Rbt.Library>
libRbt.so (2013.1, Build901 2013/11/27)

>  <Rbt.Parameter_File>
/export/apps/rDock/src/rDock_2013.1_src/data/scripts/dock_solv.prm

>  <Rbt.Receptor>
prm/pocket_docking_2.prm

>  <SCORE>
-49.35

>  <SCORE.INTER>
-48.8347

>  <SCORE.INTER.CONST>
1

>  <SCORE.INTER.POLAR>
-5.39796

>  <SCORE.INTER.ROT>
2

>  <SCORE.INTER.SOLV>
18.9186

>  <SCORE.INTER.VDW>
-25.8028

>  <SCORE.INTER.norm>
-3.75651

>  <SCORE.INTRA>
-0.515359

>  <SCORE.INTRA.DIHEDRAL>
0.689488

>  <SCORE.INTRA.DIHEDRAL.0>
1.76676

>  <SCORE.INTRA.POLAR>
-0.37333

>  <SCORE.INTRA.POLAR.0>
-0.472211

>  <SCORE.INTRA.REPUL>
0

>  <SCORE.INTRA.REPUL.0>
0

>  <SCORE.INTRA.SOLV>
0.12197

>  <SCORE.INTRA.SOLV.lig_0>
-22.5855

>  <SCORE.INTRA.VDW>
0.348234

>  <SCORE.INTRA.VDW.0>
-0.733656

>  <SCORE.INTRA.norm>
-0.039643

>  <SCORE.RESTR>
0

>  <SCORE.RESTR.CAVITY>
0

>  <SCORE.RESTR.norm>
0

>  <SCORE.SYSTEM>
0

>  <SCORE.SYSTEM.CONST>
0

>  <SCORE.SYSTEM.DIHEDRAL>
0

>  <SCORE.SYSTEM.SOLV>
0

>  <SCORE.SYSTEM.norm>
0

>  <SCORE.heavy>
13

>  <SCORE.norm>
-3.79616

>  <RMSD>
0.653

$$$$
lig.pdb
 OpenBabel11021811453D
libRbt.so/2013.1/901 2013/11/27
 13 14  0  0  0  0  0  0  0  0999 V2000
  -10.8219    4.5250   -7.1347 N   0  0  0  0  0  0  0  0  0  0  0  0
  -10.9549    3.7743   -8.2683 C   0  0  0  0  0  0  0  0  0  0  0  0
   -9.8842    3.3417   -8.9097 N   0  0  0  0  0  0  0  0  0  0  0  0
   -8.6159    3.6207   -8.4794 C   0  0  0  0  0  0  0  0  0  0  0  0
   -8.4202    4.3998   -7.3132 C   0  0  0  0  0  0  0  0  0  0  0  0
   -9.5829    4.8620   -6.6261 C   0  0  0  0  0  0  0  0  0  0  0  0
   -9.4849    5.5383   -5.6172 O   0  0  0  0  0  0  0  0  0  0  0  0
   -6.9689    4.5234   -7.1329 C   0  0  0  0  0  0  0  0  0  0  0  0
   -6.2370    5.2718   -6.0503 C   0  0  0  0  0  0  0  0  0  0  0  0
   -7.0389    6.4254   -5.6214 N   0  0  0  0  0  0  0  0  0  0  0  0
   -6.4112    3.8354   -8.1368 C   0  0  0  0  0  0  0  0  0  0  0  0
   -7.3788    3.3011   -8.9452 N   0  0  0  0  0  0  0  0  0  0  0  0
  -12.2058    3.4704   -8.7403 N   0  0  0  0  0  0  0  0  0  0  0  0
  1  6  1  0  0  0  0
  2  1  1  0  0  0  0
  3  4  1  0  0  0  0
  3  2  2  0  0  0  0
  4  5  2  0  0  0  0
  5  8  1  0  0  0  0
  5  6  1  0  0  0  0
  6  7  2  0  0  0  0
  8  9  1  0  0  0  0
  9 10  1  0  0  0  0
 11  8  2  0  0  0  0
 12  4  1  0  0  0  0
 12 11  1  0  0  0  0
 13  2  1  0  0  0  0
M  END
>  <CHROM.1>
-30.58514466,56.67606862,-8.81709667,4.40950118,-7.43191899,2.62371097,-0.01349082
-2.23383394

>  <Name>
lig.pdb

>  <RI>
2.68696e+07

>  <Rbt.Current_Directory>
/home/itssahil/PROJECTS/Mol_Feturizer/New_Systems/rnas/2miy

>  <Rbt.Executable>
rbdock ($Id: //depot/dev/client3/rdock/2013.1/src/exe/rbdock.cxx#4 $)

>  <Rbt.Library>
libRbt.so (2013.1, Build901 2013/11/27)

>  <Rbt.Parameter_File>
/export/apps/rDock/src/rDock_2013.1_src/data/scripts/dock_solv.prm

>  <Rbt.Receptor>
prm/pocket_docking_4.prm

>  <SCORE>
-49.3034

>  <SCORE.INTER>
-48.8268

>  <SCORE.INTER.CONST>
1

>  <SCORE.INTER.POLAR>
-5.41712

>  <SCORE.INTER.ROT>
2

>  <SCORE.INTER.SOLV>
18.8639

>  <SCORE.INTER.VDW>
-25.7155

>  <SCORE.INTER.norm>
-3.75591

>  <SCORE.INTRA>
-0.476623

>  <SCORE.INTRA.DIHEDRAL>
0.733615

>  <SCORE.INTRA.DIHEDRAL.0>
1.76676

>  <SCORE.INTRA.POLAR>
-0.38094

>  <SCORE.INTRA.POLAR.0>
-0.472211

>  <SCORE.INTRA.REPUL>
0

>  <SCORE.INTRA.REPUL.0>
0

>  <SCORE.INTRA.SOLV>
0.130102

>  <SCORE.INTRA.SOLV.lig_0>
-22.5855

>  <SCORE.INTRA.VDW>
0.386715

>  <SCORE.INTRA.VDW.0>
-0.733656

>  <SCORE.INTRA.norm>
-0.0366633

>  <SCORE.RESTR>
0

>  <SCORE.RESTR.CAVITY>
0

>  <SCORE.RESTR.norm>
0

>  <SCORE.SYSTEM>
0

>  <SCORE.SYSTEM.CONST>
0

>  <SCORE.SYSTEM.DIHEDRAL>
0

>  <SCORE.SYSTEM.SOLV>
0

>  <SCORE.SYSTEM.norm>
0

>  <SCORE.heavy>
13

>  <SCORE.norm>
-3.79257

>  <RMSD>
0.653

$$$$
lig.pdb
 OpenBabel11021811453D
libRbt.so/2013.1/901 2013/11/27
 13 14  0  0  0  0  0  0  0  0999 V2000
  -10.8248    4.5097   -7.1310 N   0  0  0  0  0  0  0  0  0  0  0  0
  -10.9590    3.7475   -8.2568 C   0  0  0  0  0  0  0  0  0  0  0  0
   -9.8889    3.3125   -8.8977 N   0  0  0  0  0  0  0  0  0  0  0  0
   -8.6202    3.6002   -8.4745 C   0  0  0  0  0  0  0  0  0  0  0  0
   -8.4233    4.3913   -7.3166 C   0  0  0  0  0  0  0  0  0  0  0  0
   -9.5853    4.8561   -6.6300 C   0  0  0  0  0  0  0  0  0  0  0  0
   -9.4863    5.5425   -5.6280 O   0  0  0  0  0  0  0  0  0  0  0  0
   -6.9719    4.5219   -7.1425 C   0  0  0  0  0  0  0  0  0  0  0  0
   -6.2390    5.2833   -6.0698 C   0  0  0  0  0  0  0  0  0  0  0  0
   -7.0352    6.4485   -5.6623 N   0  0  0  0  0  0  0  0  0  0  0  0
   -6.4151    3.8261   -8.1416 C   0  0  0  0  0  0  0  0  0  0  0  0
   -7.3836    3.2806   -8.9415 N   0  0  0  0  0  0  0  0  0  0  0  0
  -12.2104    3.4347   -8.7215 N   0  0  0  0  0  0  0  0  0  0  0  0
  1  6  1  0  0  0  0
  2  1  1  0  0  0  0
  3  4  1  0  0  0  0
  3  2  2  0  0  0  0
  4  5  2  0  0  0  0
  5  8  1  0  0  0  0
  5  6  1  0  0  0  0
  6  7  2  0  0  0  0
  8  9  1  0  0  0  0
  9 10  1  0  0  0  0
 11  8  2  0  0  0  0
 12  4  1  0  0  0  0
 12 11  1  0  0  0  0
 13  2  1  0  0  0  0
M  END
>  <CHROM.1>
-31.35085763,57.49282748,-8.81989041,4.39943014,-7.43523462,2.62475870,-0.01891973
-2.24495453

>  <Name>
lig.pdb

>  <RI>
0

>  <Rbt.Current_Directory>
/home/itssahil/PROJECTS/Mol_Feturizer/New_Systems/rnas/2miy

>  <Rbt.Executable>
rbdock ($Id: //depot/dev/client3/rdock/2013.1/src/exe/rbdock.cxx#4 $)

>  <Rbt.Library>
libRbt.so (2013.1, Build901 2013/11/27)

>  <Rbt.Parameter_File>
/export/apps/rDock/src/rDock_2013.1_src/data/scripts/dock_solv.prm

>  <Rbt.Receptor>
prm/pocket_docking_2.prm

>  <SCORE>
-49.3412

>  <SCORE.INTER>
-48.8248

>  <SCORE.INTER.CONST>
1

>  <SCORE.INTER.POLAR>
-5.39403

>  <SCORE.INTER.ROT>
2

>  <SCORE.INTER.SOLV>
18.9159

>  <SCORE.INTER.VDW>
-25.8084

>  <SCORE.INTER.norm>
-3.75575

>  <SCORE.INTRA>
-0.516424

>  <SCORE.INTRA.DIHEDRAL>
0.68831

>  <SCORE.INTRA.DIHEDRAL.0>
1.76676

>  <SCORE.INTRA.POLAR>
-0.372895

>  <SCORE.INTRA.POLAR.0>
-0.472211

>  <SCORE.INTRA.REPUL>
0

>  <SCORE.INTRA.REPUL.0>
0

>  <SCORE.INTRA.SOLV>
0.121604

>  <SCORE.INTRA.SOLV.lig_0>
-22.5855

>  <SCORE.INTRA.VDW>
0.346463

>  <SCORE.INTRA.VDW.0>
-0.733656

>  <SCORE.INTRA.norm>
-0.0397249

>  <SCORE.RESTR>
0

>  <SCORE.RESTR.CAVITY>
0

>  <SCORE.RESTR.norm>
0

>  <SCORE.SYSTEM>
0

>  <SCORE.SYSTEM.CONST>
0

>  <SCORE.SYSTEM.DIHEDRAL>
0

>  <SCORE.SYSTEM.SOLV>
0

>  <SCORE.SYSTEM.norm>
0

>  <SCORE.heavy>
13

>  <SCORE.norm>
-3.79548

>  <RMSD>
0.654

$$$$
lig.pdb
 OpenBabel11021811453D
libRbt.so/2013.1/901 2013/11/27
 13 14  0  0  0  0  0  0  0  0999 V2000
  -10.8217    4.5231   -7.1363 N   0  0  0  0  0  0  0  0  0  0  0  0
  -10.9540    3.7732   -8.2705 C   0  0  0  0  0  0  0  0  0  0  0  0
   -9.8829    3.3422   -8.9123 N   0  0  0  0  0  0  0  0  0  0  0  0
   -8.6149    3.6221   -8.4818 C   0  0  0  0  0  0  0  0  0  0  0  0
   -8.4199    4.4004   -7.3151 C   0  0  0  0  0  0  0  0  0  0  0  0
   -9.5830    4.8610   -6.6275 C   0  0  0  0  0  0  0  0  0  0  0  0
   -9.4856    5.5366   -5.6180 O   0  0  0  0  0  0  0  0  0  0  0  0
   -6.9687    4.5253   -7.1348 C   0  0  0  0  0  0  0  0  0  0  0  0
   -6.2375    5.2735   -6.0516 C   0  0  0  0  0  0  0  0  0  0  0  0
   -7.0383    6.4287   -5.6251 N   0  0  0  0  0  0  0  0  0  0  0  0
   -6.4104    3.8386   -8.1392 C   0  0  0  0  0  0  0  0  0  0  0  0
   -7.3776    3.3041   -8.9481 N   0  0  0  0  0  0  0  0  0  0  0  0
  -12.2047    3.4685   -8.7426 N   0  0  0  0  0  0  0  0  0  0  0  0
  1  6  1  0  0  0  0
  2  1  1  0  0  0  0
  3  4  1  0  0  0  0
  3  2  2  0  0  0  0
  4  5  2  0  0  0  0
  5  8  1  0  0  0  0
  5  6  1  0  0  0  0
  6  7  2  0  0  0  0
  8  9  1  0  0  0  0
  9 10  1  0  0  0  0
 11  8  2  0  0  0  0
 12  4  1  0  0  0  0
 12 11  1  0  0  0  0
 13  2  1  0  0  0  0
M  END
>  <CHROM.1>
-30.78228414,57.14991296,-8.81659744,4.41008074,-7.43403950,2.62332084,-0.01443190
-2.23339908

>  <Name>
lig.pdb

>  <RI>
1.51961e+07

>  <Rbt.Current_Directory>
/home/itssahil/PROJECTS/Mol_Feturizer/New_Systems/rnas/2miy

>  <Rbt.Executable>
rbdock ($Id: //depot/dev/client3/rdock/2013.1/src/exe/rbdock.cxx#4 $)

>  <Rbt.Library>
libRbt.so (2013.1, Build901 2013/11/27)

>  <Rbt.Parameter_File>
/export/apps/rDock/src/rDock_2013.1_src/data/scripts/dock_solv.prm

>  <Rbt.Receptor>
prm/pocket_docking_3.prm

>  <SCORE>
-49.2568

>  <SCORE.INTER>
-48.8015

>  <SCORE.INTER.CONST>
1

>  <SCORE.INTER.POLAR>
-5.4027

>  <SCORE.INTER.ROT>
2

>  <SCORE.INTER.SOLV>
18.8738

>  <SCORE.INTER.VDW>
-25.7499

>  <SCORE.INTER.norm>
-3.75396

>  <SCORE.INTRA>
-0.487927

>  <SCORE.INTRA.DIHEDRAL>
0.721527

>  <SCORE.INTRA.DIHEDRAL.0>
1.76676

>  <SCORE.INTRA.POLAR>
-0.37813

>  <SCORE.INTRA.POLAR.0>
-0.472211

>  <SCORE.INTRA.REPUL>
0

>  <SCORE.INTRA.REPUL.0>
0

>  <SCORE.INTRA.SOLV>
0.127409

>  <SCORE.INTRA.SOLV.lig_0>
-22.5855

>  <SCORE.INTRA.VDW>
0.373248

>  <SCORE.INTRA.VDW.0>
-0.733656

>  <SCORE.INTRA.norm>
-0.0375329

>  <SCORE.RESTR>
0.03259

>  <SCORE.RESTR.CAVITY>
0.03259

>  <SCORE.RESTR.norm>
0.00250692

>  <SCORE.SYSTEM>
0

>  <SCORE.SYSTEM.CONST>
0

>  <SCORE.SYSTEM.DIHEDRAL>
0

>  <SCORE.SYSTEM.SOLV>
0

>  <SCORE.SYSTEM.norm>
0

>  <SCORE.heavy>
13

>  <SCORE.norm>
-3.78899

>  <RMSD>
0.654

$$$$
lig.pdb
 OpenBabel11021811453D
libRbt.so/2013.1/901 2013/11/27
 13 14  0  0  0  0  0  0  0  0999 V2000
  -10.8207    4.5273   -7.1369 N   0  0  0  0  0  0  0  0  0  0  0  0
  -10.9535    3.7764   -8.2704 C   0  0  0  0  0  0  0  0  0  0  0  0
   -9.8828    3.3429   -8.9111 N   0  0  0  0  0  0  0  0  0  0  0  0
   -8.6146    3.6213   -8.4802 C   0  0  0  0  0  0  0  0  0  0  0  0
   -8.4190    4.4005   -7.3142 C   0  0  0  0  0  0  0  0  0  0  0  0
   -9.5817    4.8637   -6.6278 C   0  0  0  0  0  0  0  0  0  0  0  0
   -9.4838    5.5402   -5.6190 O   0  0  0  0  0  0  0  0  0  0  0  0
   -6.9677    4.5233   -7.1332 C   0  0  0  0  0  0  0  0  0  0  0  0
   -6.2359    5.2715   -6.0504 C   0  0  0  0  0  0  0  0  0  0  0  0
   -7.0411    6.4207   -5.6161 N   0  0  0  0  0  0  0  0  0  0  0  0
   -6.4099    3.8346   -8.1366 C   0  0  0  0  0  0  0  0  0  0  0  0
   -7.3775    3.3008   -8.9454 N   0  0  0  0  0  0  0  0  0  0  0  0
  -12.2044    3.4732   -8.7429 N   0  0  0  0  0  0  0  0  0  0  0  0
  1  6  1  0  0  0  0
  2  1  1  0  0  0  0
  3  4  1  0  0  0  0
  3  2  2  0  0  0  0
  4  5  2  0  0  0  0
  5  8  1  0  0  0  0
  5  6  1  0  0  0  0
  6  7  2  0  0  0  0
  8  9  1  0  0  0  0
  9 10  1  0  0  0  0
 11  8  2  0  0  0  0
 12  4  1  0  0  0  0
 12 11  1  0  0  0  0
 13  2  1  0  0  0  0
M  END
>  <CHROM.1>
-30.21931979,56.10148950,-8.81615080,4.41001690,-7.43251375,2.62343783,-0.01245315
-2.23343235

>  <Name>
lig.pdb

>  <RI>
9.06885e+06

>  <Rbt.Current_Directory>
/home/itssahil/PROJECTS/Mol_Feturizer/New_Systems/rnas/2miy

>  <Rbt.Executable>
rbdock ($Id: //depot/dev/client3/rdock/2013.1/src/exe/rbdock.cxx#4 $)

>  <Rbt.Library>
libRbt.so (2013.1, Build901 2013/11/27)

>  <Rbt.Parameter_File>
/export/apps/rDock/src/rDock_2013.1_src/data/scripts/dock_solv.prm

>  <Rbt.Receptor>
prm/pocket_docking_6.prm

>  <SCORE>
-49.295

>  <SCORE.INTER>
-48.84

>  <SCORE.INTER.CONST>
1

>  <SCORE.INTER.POLAR>
-5.41876

>  <SCORE.INTER.ROT>
2

>  <SCORE.INTER.SOLV>
18.8593

>  <SCORE.INTER.VDW>
-25.7172

>  <SCORE.INTER.norm>
-3.75692

>  <SCORE.INTRA>
-0.455034

>  <SCORE.INTRA.DIHEDRAL>
0.755575

>  <SCORE.INTRA.DIHEDRAL.0>
1.76676

>  <SCORE.INTRA.POLAR>
-0.385013

>  <SCORE.INTRA.POLAR.0>
-0.472211

>  <SCORE.INTRA.REPUL>
0

>  <SCORE.INTRA.REPUL.0>
0

>  <SCORE.INTRA.SOLV>
0.134461

>  <SCORE.INTRA.SOLV.lig_0>
-22.5855

>  <SCORE.INTRA.VDW>
0.408994

>  <SCORE.INTRA.VDW.0>
-0.733656

>  <SCORE.INTRA.norm>
-0.0350026

>  <SCORE.RESTR>
0

>  <SCORE.RESTR.CAVITY>
0

>  <SCORE.RESTR.norm>
0

>  <SCORE.SYSTEM>
0

>  <SCORE.SYSTEM.CONST>
0

>  <SCORE.SYSTEM.DIHEDRAL>
0

>  <SCORE.SYSTEM.SOLV>
0

>  <SCORE.SYSTEM.norm>
0

>  <SCORE.heavy>
13

>  <SCORE.norm>
-3.79192

>  <RMSD>
0.654

$$$$
lig.pdb
 OpenBabel11021811453D
libRbt.so/2013.1/901 2013/11/27
 13 14  0  0  0  0  0  0  0  0999 V2000
  -10.8242    4.5159   -7.1268 N   0  0  0  0  0  0  0  0  0  0  0  0
  -10.9599    3.7545   -8.2530 C   0  0  0  0  0  0  0  0  0  0  0  0
   -9.8908    3.3195   -8.8954 N   0  0  0  0  0  0  0  0  0  0  0  0
   -8.6215    3.6063   -8.4734 C   0  0  0  0  0  0  0  0  0  0  0  0
   -8.4229    4.3965   -7.3152 C   0  0  0  0  0  0  0  0  0  0  0  0
   -9.5839    4.8613   -6.6270 C   0  0  0  0  0  0  0  0  0  0  0  0
   -9.4835    5.5470   -5.6246 O   0  0  0  0  0  0  0  0  0  0  0  0
   -6.9712    4.5263   -7.1427 C   0  0  0  0  0  0  0  0  0  0  0  0
   -6.2368    5.2866   -6.0703 C   0  0  0  0  0  0  0  0  0  0  0  0
   -7.0300    6.4543   -5.6642 N   0  0  0  0  0  0  0  0  0  0  0  0
   -6.4159    3.8310   -8.1429 C   0  0  0  0  0  0  0  0  0  0  0  0
   -7.3856    3.2864   -8.9420 N   0  0  0  0  0  0  0  0  0  0  0  0
  -12.2121    3.4426   -8.7165 N   0  0  0  0  0  0  0  0  0  0  0  0
  1  6  1  0  0  0  0
  2  1  1  0  0  0  0
  3  4  1  0  0  0  0
  3  2  2  0  0  0  0
  4  5  2  0  0  0  0
  5  8  1  0  0  0  0
  5  6  1  0  0  0  0
  6  7  2  0  0  0  0
  8  9  1  0  0  0  0
  9 10  1  0  0  0  0
 11  8  2  0  0  0  0
 12  4  1  0  0  0  0
 12 11  1  0  0  0  0
 13  2  1  0  0  0  0
M  END
>  <CHROM.1>
-31.53203703,57.24065833,-8.81941791,4.40513014,-7.43368160,2.62605554,-0.01936894
-2.24459089

>  <Name>
lig.pdb

>  <RI>
1.82164e+07

>  <Rbt.Current_Directory>
/home/itssahil/PROJECTS/Mol_Feturizer/New_Systems/rnas/2miy

>  <Rbt.Executable>
rbdock ($Id: //depot/dev/client3/rdock/2013.1/src/exe/rbdock.cxx#4 $)

>  <Rbt.Library>
libRbt.so (2013.1, Build901 2013/11/27)

>  <Rbt.Parameter_File>
/export/apps/rDock/src/rDock_2013.1_src/data/scripts/dock_solv.prm

>  <Rbt.Receptor>
prm/blind_docking_80.prm

>  <SCORE>
-49.3133

>  <SCORE.INTER>
-48.8352

>  <SCORE.INTER.CONST>
1

>  <SCORE.INTER.POLAR>
-5.41432

>  <SCORE.INTER.ROT>
2

>  <SCORE.INTER.SOLV>
18.9292

>  <SCORE.INTER.VDW>
-25.7521

>  <SCORE.INTER.norm>
-3.75655

>  <SCORE.INTRA>
-0.523676

>  <SCORE.INTRA.DIHEDRAL>
0.678311

>  <SCORE.INTRA.DIHEDRAL.0>
1.76676

>  <SCORE.INTRA.POLAR>
-0.372021

>  <SCORE.INTRA.POLAR.0>
-0.472211

>  <SCORE.INTRA.REPUL>
0

>  <SCORE.INTRA.REPUL.0>
0

>  <SCORE.INTRA.SOLV>
0.120448

>  <SCORE.INTRA.SOLV.lig_0>
-22.5855

>  <SCORE.INTRA.VDW>
0.341815

>  <SCORE.INTRA.VDW.0>
-0.733656

>  <SCORE.INTRA.norm>
-0.0402827

>  <SCORE.RESTR>
0.0456087

>  <SCORE.RESTR.CAVITY>
0.0456087

>  <SCORE.RESTR.norm>
0.00350836

>  <SCORE.SYSTEM>
0

>  <SCORE.SYSTEM.CONST>
0

>  <SCORE.SYSTEM.DIHEDRAL>
0

>  <SCORE.SYSTEM.SOLV>
0

>  <SCORE.SYSTEM.norm>
0

>  <SCORE.heavy>
13

>  <SCORE.norm>
-3.79333

>  <RMSD>
0.655

$$$$
lig.pdb
 OpenBabel11021811453D
libRbt.so/2013.1/901 2013/11/27
 13 14  0  0  0  0  0  0  0  0999 V2000
  -10.8250    4.5158   -7.1295 N   0  0  0  0  0  0  0  0  0  0  0  0
  -10.9608    3.7537   -8.2552 C   0  0  0  0  0  0  0  0  0  0  0  0
   -9.8917    3.3169   -8.8963 N   0  0  0  0  0  0  0  0  0  0  0  0
   -8.6224    3.6025   -8.4736 C   0  0  0  0  0  0  0  0  0  0  0  0
   -8.4238    4.3934   -7.3160 C   0  0  0  0  0  0  0  0  0  0  0  0
   -9.5847    4.8602   -6.6290 C   0  0  0  0  0  0  0  0  0  0  0  0
   -9.4842    5.5466   -5.6272 O   0  0  0  0  0  0  0  0  0  0  0  0
   -6.9721    4.5216   -7.1425 C   0  0  0  0  0  0  0  0  0  0  0  0
   -6.2375    5.2820   -6.0701 C   0  0  0  0  0  0  0  0  0  0  0  0
   -7.0311    6.4491   -5.6633 N   0  0  0  0  0  0  0  0  0  0  0  0
   -6.4168    3.8247   -8.1416 C   0  0  0  0  0  0  0  0  0  0  0  0
   -7.3865    3.2807   -8.9411 N   0  0  0  0  0  0  0  0  0  0  0  0
  -12.2130    3.4429   -8.7193 N   0  0  0  0  0  0  0  0  0  0  0  0
  1  6  1  0  0  0  0
  2  1  1  0  0  0  0
  3  4  1  0  0  0  0
  3  2  2  0  0  0  0
  4  5  2  0  0  0  0
  5  8  1  0  0  0  0
  5  6  1  0  0  0  0
  6  7  2  0  0  0  0
  8  9  1  0  0  0  0
  9 10  1  0  0  0  0
 11  8  2  0  0  0  0
 12  4  1  0  0  0  0
 12 11  1  0  0  0  0
 13  2  1  0  0  0  0
M  END
>  <CHROM.1>
-31.39870642,-124.37334769,-8.82025146,4.40222031,-7.43437825,2.62591978
-0.01782377,-2.24511114

>  <Name>
lig.pdb

>  <RI>
0

>  <Rbt.Current_Directory>
/home/itssahil/PROJECTS/Mol_Feturizer/New_Systems/rnas/2miy

>  <Rbt.Executable>
rbdock ($Id: //depot/dev/client3/rdock/2013.1/src/exe/rbdock.cxx#4 $)

>  <Rbt.Library>
libRbt.so (2013.1, Build901 2013/11/27)

>  <Rbt.Parameter_File>
/export/apps/rDock/src/rDock_2013.1_src/data/scripts/dock_solv.prm

>  <Rbt.Receptor>
prm/pocket_docking_2.prm

>  <SCORE>
-49.3693

>  <SCORE.INTER>
-48.8488

>  <SCORE.INTER.CONST>
1

>  <SCORE.INTER.POLAR>
-5.42184

>  <SCORE.INTER.ROT>
2

>  <SCORE.INTER.SOLV>
18.9332

>  <SCORE.INTER.VDW>
-25.7375

>  <SCORE.INTER.norm>
-3.7576

>  <SCORE.INTRA>
-0.520435

>  <SCORE.INTRA.DIHEDRAL>
0.676213

>  <SCORE.INTRA.DIHEDRAL.0>
1.76676

>  <SCORE.INTRA.POLAR>
-0.375147

>  <SCORE.INTRA.POLAR.0>
-0.472211

>  <SCORE.INTRA.REPUL>
0

>  <SCORE.INTRA.REPUL.0>
0

>  <SCORE.INTRA.SOLV>
0.122447

>  <SCORE.INTRA.SOLV.lig_0>
-22.5855

>  <SCORE.INTRA.VDW>
0.355736

>  <SCORE.INTRA.VDW.0>
-0.733656

>  <SCORE.INTRA.norm>
-0.0400335

>  <SCORE.RESTR>
0

>  <SCORE.RESTR.CAVITY>
0

>  <SCORE.RESTR.norm>
0

>  <SCORE.SYSTEM>
0

>  <SCORE.SYSTEM.CONST>
0

>  <SCORE.SYSTEM.DIHEDRAL>
0

>  <SCORE.SYSTEM.SOLV>
0

>  <SCORE.SYSTEM.norm>
0

>  <SCORE.heavy>
13

>  <SCORE.norm>
-3.79764

>  <RMSD>
0.655

$$$$
lig.pdb
 OpenBabel11021811453D
libRbt.so/2013.1/901 2013/11/27
 13 14  0  0  0  0  0  0  0  0999 V2000
  -10.8217    4.5260   -7.1354 N   0  0  0  0  0  0  0  0  0  0  0  0
  -10.9551    3.7720   -8.2668 C   0  0  0  0  0  0  0  0  0  0  0  0
   -9.8846    3.3391   -8.9083 N   0  0  0  0  0  0  0  0  0  0  0  0
   -8.6162    3.6210   -8.4804 C   0  0  0  0  0  0  0  0  0  0  0  0
   -8.4201    4.4035   -7.3166 C   0  0  0  0  0  0  0  0  0  0  0  0
   -9.5825    4.8661   -6.6293 C   0  0  0  0  0  0  0  0  0  0  0  0
   -9.4842    5.5453   -5.6223 O   0  0  0  0  0  0  0  0  0  0  0  0
   -6.9687    4.5296   -7.1385 C   0  0  0  0  0  0  0  0  0  0  0  0
   -6.2365    5.2819   -6.0589 C   0  0  0  0  0  0  0  0  0  0  0  0
   -7.0455    6.4276   -5.6224 N   0  0  0  0  0  0  0  0  0  0  0  0
   -6.4114    3.8396   -8.1412 C   0  0  0  0  0  0  0  0  0  0  0  0
   -7.3793    3.3018   -8.9469 N   0  0  0  0  0  0  0  0  0  0  0  0
  -12.2062    3.4653   -8.7363 N   0  0  0  0  0  0  0  0  0  0  0  0
  1  6  1  0  0  0  0
  2  1  1  0  0  0  0
  3  4  1  0  0  0  0
  3  2  2  0  0  0  0
  4  5  2  0  0  0  0
  5  8  1  0  0  0  0
  5  6  1  0  0  0  0
  6  7  2  0  0  0  0
  8  9  1  0  0  0  0
  9 10  1  0  0  0  0
 11  8  2  0  0  0  0
 12  4  1  0  0  0  0
 12 11  1  0  0  0  0
 13  2  1  0  0  0  0
M  END
>  <CHROM.1>
-30.00294743,-125.54781870,-8.81765525,4.41164945,-7.43376579,2.62328251
-0.01492396,-2.23541425

>  <Name>
lig.pdb

>  <RI>
2.68696e+07

>  <Rbt.Current_Directory>
/home/itssahil/PROJECTS/Mol_Feturizer/New_Systems/rnas/2miy

>  <Rbt.Executable>
rbdock ($Id: //depot/dev/client3/rdock/2013.1/src/exe/rbdock.cxx#4 $)

>  <Rbt.Library>
libRbt.so (2013.1, Build901 2013/11/27)

>  <Rbt.Parameter_File>
/export/apps/rDock/src/rDock_2013.1_src/data/scripts/dock_solv.prm

>  <Rbt.Receptor>
prm/pocket_docking_4.prm

>  <SCORE>
-49.3015

>  <SCORE.INTER>
-48.8541

>  <SCORE.INTER.CONST>
1

>  <SCORE.INTER.POLAR>
-5.41432

>  <SCORE.INTER.ROT>
2

>  <SCORE.INTER.SOLV>
18.8813

>  <SCORE.INTER.VDW>
-25.7488

>  <SCORE.INTER.norm>
-3.75801

>  <SCORE.INTRA>
-0.4474

>  <SCORE.INTRA.DIHEDRAL>
0.754682

>  <SCORE.INTRA.DIHEDRAL.0>
1.76676

>  <SCORE.INTRA.POLAR>
-0.388791

>  <SCORE.INTRA.POLAR.0>
-0.472211

>  <SCORE.INTRA.REPUL>
0

>  <SCORE.INTRA.REPUL.0>
0

>  <SCORE.INTRA.SOLV>
0.137197

>  <SCORE.INTRA.SOLV.lig_0>
-22.5855

>  <SCORE.INTRA.VDW>
0.42855

>  <SCORE.INTRA.VDW.0>
-0.733656

>  <SCORE.INTRA.norm>
-0.0344153

>  <SCORE.RESTR>
0

>  <SCORE.RESTR.CAVITY>
0

>  <SCORE.RESTR.norm>
0

>  <SCORE.SYSTEM>
0

>  <SCORE.SYSTEM.CONST>
0

>  <SCORE.SYSTEM.DIHEDRAL>
0

>  <SCORE.SYSTEM.SOLV>
0

>  <SCORE.SYSTEM.norm>
0

>  <SCORE.heavy>
13

>  <SCORE.norm>
-3.79242

>  <RMSD>
0.655

$$$$
lig.pdb
 OpenBabel11021811453D
libRbt.so/2013.1/901 2013/11/27
 13 14  0  0  0  0  0  0  0  0999 V2000
  -10.8255    4.5171   -7.1277 N   0  0  0  0  0  0  0  0  0  0  0  0
  -10.9621    3.7525   -8.2517 C   0  0  0  0  0  0  0  0  0  0  0  0
   -9.8934    3.3152   -8.8932 N   0  0  0  0  0  0  0  0  0  0  0  0
   -8.6238    3.6027   -8.4727 C   0  0  0  0  0  0  0  0  0  0  0  0
   -8.4244    4.3961   -7.3169 C   0  0  0  0  0  0  0  0  0  0  0  0
   -9.5849    4.8635   -6.6295 C   0  0  0  0  0  0  0  0  0  0  0  0
   -9.4836    5.5520   -5.6292 O   0  0  0  0  0  0  0  0  0  0  0  0
   -6.9725    4.5258   -7.1454 C   0  0  0  0  0  0  0  0  0  0  0  0
   -6.2373    5.2889   -6.0755 C   0  0  0  0  0  0  0  0  0  0  0  0
   -7.0358    6.4507   -5.6631 N   0  0  0  0  0  0  0  0  0  0  0  0
   -6.4180    3.8273   -8.1438 C   0  0  0  0  0  0  0  0  0  0  0  0
   -7.3882    3.2809   -8.9410 N   0  0  0  0  0  0  0  0  0  0  0  0
  -12.2145    3.4398   -8.7137 N   0  0  0  0  0  0  0  0  0  0  0  0
  1  6  1  0  0  0  0
  2  1  1  0  0  0  0
  3  4  1  0  0  0  0
  3  2  2  0  0  0  0
  4  5  2  0  0  0  0
  5  8  1  0  0  0  0
  5  6  1  0  0  0  0
  6  7  2  0  0  0  0
  8  9  1  0  0  0  0
  9 10  1  0  0  0  0
 11  8  2  0  0  0  0
 12  4  1  0  0  0  0
 12 11  1  0  0  0  0
 13  2  1  0  0  0  0
M  END
>  <CHROM.1>
-30.97970414,56.54986963,-8.82146990,4.40388961,-7.43432844,2.62627096,-0.01896034
-2.24647041

>  <Name>
lig.pdb

>  <RI>
3.47783e+07

>  <Rbt.Current_Directory>
/home/itssahil/PROJECTS/Mol_Feturizer/New_Systems/rnas/2miy

>  <Rbt.Executable>
rbdock ($Id: //depot/dev/client3/rdock/2013.1/src/exe/rbdock.cxx#4 $)

>  <Rbt.Library>
libRbt.so (2013.1, Build901 2013/11/27)

>  <Rbt.Parameter_File>
/export/apps/rDock/src/rDock_2013.1_src/data/scripts/dock_solv.prm

>  <Rbt.Receptor>
prm/pocket_docking_8.prm

>  <SCORE>
-49.3622

>  <SCORE.INTER>
-48.8667

>  <SCORE.INTER.CONST>
1

>  <SCORE.INTER.POLAR>
-5.42756

>  <SCORE.INTER.ROT>
2

>  <SCORE.INTER.SOLV>
18.9244

>  <SCORE.INTER.VDW>
-25.7274

>  <SCORE.INTER.norm>
-3.75897

>  <SCORE.INTRA>
-0.495583

>  <SCORE.INTRA.DIHEDRAL>
0.711118

>  <SCORE.INTRA.DIHEDRAL.0>
1.76676

>  <SCORE.INTRA.POLAR>
-0.378277

>  <SCORE.INTRA.POLAR.0>
-0.472211

>  <SCORE.INTRA.REPUL>
0

>  <SCORE.INTRA.REPUL.0>
0

>  <SCORE.INTRA.SOLV>
0.126818

>  <SCORE.INTRA.SOLV.lig_0>
-22.5855

>  <SCORE.INTRA.VDW>
0.371592

>  <SCORE.INTRA.VDW.0>
-0.733656

>  <SCORE.INTRA.norm>
-0.0381217

>  <SCORE.RESTR>
0

>  <SCORE.RESTR.CAVITY>
0

>  <SCORE.RESTR.norm>
0

>  <SCORE.SYSTEM>
0

>  <SCORE.SYSTEM.CONST>
0

>  <SCORE.SYSTEM.DIHEDRAL>
0

>  <SCORE.SYSTEM.SOLV>
0

>  <SCORE.SYSTEM.norm>
0

>  <SCORE.heavy>
13

>  <SCORE.norm>
-3.7971

>  <RMSD>
0.655

$$$$
lig.pdb
 OpenBabel11021811453D
libRbt.so/2013.1/901 2013/11/27
 13 14  0  0  0  0  0  0  0  0999 V2000
  -10.8209    4.5284   -7.1389 N   0  0  0  0  0  0  0  0  0  0  0  0
  -10.9533    3.7773   -8.2723 C   0  0  0  0  0  0  0  0  0  0  0  0
   -9.8823    3.3439   -8.9126 N   0  0  0  0  0  0  0  0  0  0  0  0
   -8.6143    3.6223   -8.4813 C   0  0  0  0  0  0  0  0  0  0  0  0
   -8.4191    4.4017   -7.3152 C   0  0  0  0  0  0  0  0  0  0  0  0
   -9.5822    4.8649   -6.6294 C   0  0  0  0  0  0  0  0  0  0  0  0
   -9.4847    5.5416   -5.6206 O   0  0  0  0  0  0  0  0  0  0  0  0
   -6.9679    4.5246   -7.1337 C   0  0  0  0  0  0  0  0  0  0  0  0
   -6.2365    5.2729   -6.0508 C   0  0  0  0  0  0  0  0  0  0  0  0
   -7.0378    6.4275   -5.6234 N   0  0  0  0  0  0  0  0  0  0  0  0
   -6.4097    3.8358   -8.1368 C   0  0  0  0  0  0  0  0  0  0  0  0
   -7.3770    3.3018   -8.9459 N   0  0  0  0  0  0  0  0  0  0  0  0
  -12.2040    3.4741   -8.7453 N   0  0  0  0  0  0  0  0  0  0  0  0
  1  6  1  0  0  0  0
  2  1  1  0  0  0  0
  3  4  1  0  0  0  0
  3  2  2  0  0  0  0
  4  5  2  0  0  0  0
  5  8  1  0  0  0  0
  5  6  1  0  0  0  0
  6  7  2  0  0  0  0
  8  9  1  0  0  0  0
  9 10  1  0  0  0  0
 11  8  2  0  0  0  0
 12  4  1  0  0  0  0
 12 11  1  0  0  0  0
 13  2  1  0  0  0  0
M  END
>  <CHROM.1>
-30.60752986,-125.16510842,-8.81583200,4.41165502,-7.43418105,2.62320537
-0.01245689,-2.23421707

>  <Name>
lig.pdb

>  <RI>
2.68696e+07

>  <Rbt.Current_Directory>
/home/itssahil/PROJECTS/Mol_Feturizer/New_Systems/rnas/2miy

>  <Rbt.Executable>
rbdock ($Id: //depot/dev/client3/rdock/2013.1/src/exe/rbdock.cxx#4 $)

>  <Rbt.Library>
libRbt.so (2013.1, Build901 2013/11/27)

>  <Rbt.Parameter_File>
/export/apps/rDock/src/rDock_2013.1_src/data/scripts/dock_solv.prm

>  <Rbt.Receptor>
prm/pocket_docking_4.prm

>  <SCORE>
-49.3088

>  <SCORE.INTER>
-48.8284

>  <SCORE.INTER.CONST>
1

>  <SCORE.INTER.POLAR>
-5.41797

>  <SCORE.INTER.ROT>
2

>  <SCORE.INTER.SOLV>
18.8898

>  <SCORE.INTER.VDW>
-25.7223

>  <SCORE.INTER.norm>
-3.75603

>  <SCORE.INTRA>
-0.480404

>  <SCORE.INTRA.DIHEDRAL>
0.720463

>  <SCORE.INTRA.DIHEDRAL.0>
1.76676

>  <SCORE.INTRA.POLAR>
-0.383459

>  <SCORE.INTRA.POLAR.0>
-0.472211

>  <SCORE.INTRA.REPUL>
0

>  <SCORE.INTRA.REPUL.0>
0

>  <SCORE.INTRA.SOLV>
0.131125

>  <SCORE.INTRA.SOLV.lig_0>
-22.5855

>  <SCORE.INTRA.VDW>
0.397564

>  <SCORE.INTRA.VDW.0>
-0.733656

>  <SCORE.INTRA.norm>
-0.0369541

>  <SCORE.RESTR>
0

>  <SCORE.RESTR.CAVITY>
0

>  <SCORE.RESTR.norm>
0

>  <SCORE.SYSTEM>
0

>  <SCORE.SYSTEM.CONST>
0

>  <SCORE.SYSTEM.DIHEDRAL>
0

>  <SCORE.SYSTEM.SOLV>
0

>  <SCORE.SYSTEM.norm>
0

>  <SCORE.heavy>
13

>  <SCORE.norm>
-3.79298

>  <RMSD>
0.656

$$$$
lig.pdb
 OpenBabel11021811453D
libRbt.so/2013.1/901 2013/11/27
 13 14  0  0  0  0  0  0  0  0999 V2000
  -10.8211    4.5294   -7.1390 N   0  0  0  0  0  0  0  0  0  0  0  0
  -10.9541    3.7765   -8.2712 C   0  0  0  0  0  0  0  0  0  0  0  0
   -9.8835    3.3427   -8.9118 N   0  0  0  0  0  0  0  0  0  0  0  0
   -8.6152    3.6226   -8.4821 C   0  0  0  0  0  0  0  0  0  0  0  0
   -8.4194    4.4039   -7.3175 C   0  0  0  0  0  0  0  0  0  0  0  0
   -9.5821    4.8675   -6.6312 C   0  0  0  0  0  0  0  0  0  0  0  0
   -9.4841    5.5457   -5.6235 O   0  0  0  0  0  0  0  0  0  0  0  0
   -6.9682    4.5280   -7.1375 C   0  0  0  0  0  0  0  0  0  0  0  0
   -6.2362    5.2785   -6.0564 C   0  0  0  0  0  0  0  0  0  0  0  0
   -7.0468    6.4215   -5.6159 N   0  0  0  0  0  0  0  0  0  0  0  0
   -6.4105    3.8381   -8.1401 C   0  0  0  0  0  0  0  0  0  0  0  0
   -7.3781    3.3022   -8.9475 N   0  0  0  0  0  0  0  0  0  0  0  0
  -12.2051    3.4717   -8.7425 N   0  0  0  0  0  0  0  0  0  0  0  0
  1  6  1  0  0  0  0
  2  1  1  0  0  0  0
  3  4  1  0  0  0  0
  3  2  2  0  0  0  0
  4  5  2  0  0  0  0
  5  8  1  0  0  0  0
  5  6  1  0  0  0  0
  6  7  2  0  0  0  0
  8  9  1  0  0  0  0
  9 10  1  0  0  0  0
 11  8  2  0  0  0  0
 12  4  1  0  0  0  0
 12 11  1  0  0  0  0
 13  2  1  0  0  0  0
M  END
>  <CHROM.1>
-29.76253112,-125.89624366,-8.81710602,4.41235110,-7.43473114,2.62294931
-0.01302399,-2.23415156

>  <Name>
lig.pdb

>  <RI>
9.06885e+06

>  <Rbt.Current_Directory>
/home/itssahil/PROJECTS/Mol_Feturizer/New_Systems/rnas/2miy

>  <Rbt.Executable>
rbdock ($Id: //depot/dev/client3/rdock/2013.1/src/exe/rbdock.cxx#4 $)

>  <Rbt.Library>
libRbt.so (2013.1, Build901 2013/11/27)

>  <Rbt.Parameter_File>
/export/apps/rDock/src/rDock_2013.1_src/data/scripts/dock_solv.prm

>  <Rbt.Receptor>
prm/pocket_docking_6.prm

>  <SCORE>
-49.2922

>  <SCORE.INTER>
-48.8599

>  <SCORE.INTER.CONST>
1

>  <SCORE.INTER.POLAR>
-5.4193

>  <SCORE.INTER.ROT>
2

>  <SCORE.INTER.SOLV>
18.8757

>  <SCORE.INTER.VDW>
-25.7342

>  <SCORE.INTER.norm>
-3.75846

>  <SCORE.INTRA>
-0.432234

>  <SCORE.INTRA.DIHEDRAL>
0.767996

>  <SCORE.INTRA.DIHEDRAL.0>
1.76676

>  <SCORE.INTRA.POLAR>
-0.391149

>  <SCORE.INTRA.POLAR.0>
-0.472211

>  <SCORE.INTRA.REPUL>
0

>  <SCORE.INTRA.REPUL.0>
0

>  <SCORE.INTRA.SOLV>
0.139966

>  <SCORE.INTRA.SOLV.lig_0>
-22.5855

>  <SCORE.INTRA.VDW>
0.443691

>  <SCORE.INTRA.VDW.0>
-0.733656

>  <SCORE.INTRA.norm>
-0.0332488

>  <SCORE.RESTR>
0

>  <SCORE.RESTR.CAVITY>
0

>  <SCORE.RESTR.norm>
0

>  <SCORE.SYSTEM>
0

>  <SCORE.SYSTEM.CONST>
0

>  <SCORE.SYSTEM.DIHEDRAL>
0

>  <SCORE.SYSTEM.SOLV>
0

>  <SCORE.SYSTEM.norm>
0

>  <SCORE.heavy>
13

>  <SCORE.norm>
-3.7917

>  <RMSD>
0.656

$$$$
lig.pdb
 OpenBabel11021811453D
libRbt.so/2013.1/901 2013/11/27
 13 14  0  0  0  0  0  0  0  0999 V2000
  -10.8236    4.5157   -7.1267 N   0  0  0  0  0  0  0  0  0  0  0  0
  -10.9605    3.7517   -8.2509 C   0  0  0  0  0  0  0  0  0  0  0  0
   -9.8920    3.3160   -8.8939 N   0  0  0  0  0  0  0  0  0  0  0  0
   -8.6223    3.6048   -8.4745 C   0  0  0  0  0  0  0  0  0  0  0  0
   -8.4225    4.3978   -7.3185 C   0  0  0  0  0  0  0  0  0  0  0  0
   -9.5828    4.8633   -6.6296 C   0  0  0  0  0  0  0  0  0  0  0  0
   -9.4814    5.5514   -5.6290 O   0  0  0  0  0  0  0  0  0  0  0  0
   -6.9707    4.5291   -7.1485 C   0  0  0  0  0  0  0  0  0  0  0  0
   -6.2351    5.2925   -6.0790 C   0  0  0  0  0  0  0  0  0  0  0  0
   -7.0354    6.4522   -5.6639 N   0  0  0  0  0  0  0  0  0  0  0  0
   -6.4163    3.8318   -8.1479 C   0  0  0  0  0  0  0  0  0  0  0  0
   -7.3868    3.2847   -8.9443 N   0  0  0  0  0  0  0  0  0  0  0  0
  -12.2131    3.4377   -8.7117 N   0  0  0  0  0  0  0  0  0  0  0  0
  1  6  1  0  0  0  0
  2  1  1  0  0  0  0
  3  4  1  0  0  0  0
  3  2  2  0  0  0  0
  4  5  2  0  0  0  0
  5  8  1  0  0  0  0
  5  6  1  0  0  0  0
  6  7  2  0  0  0  0
  8  9  1  0  0  0  0
  9 10  1  0  0  0  0
 11  8  2  0  0  0  0
 12  4  1  0  0  0  0
 12 11  1  0  0  0  0
 13  2  1  0  0  0  0
M  END
>  <CHROM.1>
-30.91368556,57.61453829,-8.81983304,4.40504561,-7.43540556,2.62633681,-0.02055201
-2.24573565

>  <Name>
lig.pdb

>  <RI>
3.47783e+07

>  <Rbt.Current_Directory>
/home/itssahil/PROJECTS/Mol_Feturizer/New_Systems/rnas/2miy

>  <Rbt.Executable>
rbdock ($Id: //depot/dev/client3/rdock/2013.1/src/exe/rbdock.cxx#4 $)

>  <Rbt.Library>
libRbt.so (2013.1, Build901 2013/11/27)

>  <Rbt.Parameter_File>
/export/apps/rDock/src/rDock_2013.1_src/data/scripts/dock_solv.prm

>  <Rbt.Receptor>
prm/pocket_docking_8.prm

>  <SCORE>
-49.3402

>  <SCORE.INTER>
-48.8452

>  <SCORE.INTER.CONST>
1

>  <SCORE.INTER.POLAR>
-5.4126

>  <SCORE.INTER.ROT>
2

>  <SCORE.INTER.SOLV>
18.9258

>  <SCORE.INTER.VDW>
-25.7634

>  <SCORE.INTER.norm>
-3.75732

>  <SCORE.INTRA>
-0.495005

>  <SCORE.INTRA.DIHEDRAL>
0.713236

>  <SCORE.INTRA.DIHEDRAL.0>
1.76676

>  <SCORE.INTRA.POLAR>
-0.375639

>  <SCORE.INTRA.POLAR.0>
-0.472211

>  <SCORE.INTRA.REPUL>
0

>  <SCORE.INTRA.REPUL.0>
0

>  <SCORE.INTRA.SOLV>
0.125308

>  <SCORE.INTRA.SOLV.lig_0>
-22.5855

>  <SCORE.INTRA.VDW>
0.362896

>  <SCORE.INTRA.VDW.0>
-0.733656

>  <SCORE.INTRA.norm>
-0.0380773

>  <SCORE.RESTR>
0

>  <SCORE.RESTR.CAVITY>
0

>  <SCORE.RESTR.norm>
0

>  <SCORE.SYSTEM>
0

>  <SCORE.SYSTEM.CONST>
0

>  <SCORE.SYSTEM.DIHEDRAL>
0

>  <SCORE.SYSTEM.SOLV>
0

>  <SCORE.SYSTEM.norm>
0

>  <SCORE.heavy>
13

>  <SCORE.norm>
-3.7954

>  <RMSD>
0.656

$$$$
lig.pdb
 OpenBabel11021811453D
libRbt.so/2013.1/901 2013/11/27
 13 14  0  0  0  0  0  0  0  0999 V2000
  -10.8210    4.5274   -7.1379 N   0  0  0  0  0  0  0  0  0  0  0  0
  -10.9532    3.7782   -8.2725 C   0  0  0  0  0  0  0  0  0  0  0  0
   -9.8820    3.3461   -8.9135 N   0  0  0  0  0  0  0  0  0  0  0  0
   -8.6141    3.6242   -8.4816 C   0  0  0  0  0  0  0  0  0  0  0  0
   -8.4192    4.4018   -7.3144 C   0  0  0  0  0  0  0  0  0  0  0  0
   -9.5824    4.8636   -6.6278 C   0  0  0  0  0  0  0  0  0  0  0  0
   -9.4852    5.5386   -5.6179 O   0  0  0  0  0  0  0  0  0  0  0  0
   -6.9681    4.5249   -7.1326 C   0  0  0  0  0  0  0  0  0  0  0  0
   -6.2370    5.2717   -6.0484 C   0  0  0  0  0  0  0  0  0  0  0  0
   -7.0276    6.4390   -5.6362 N   0  0  0  0  0  0  0  0  0  0  0  0
   -6.4096    3.8379   -8.1368 C   0  0  0  0  0  0  0  0  0  0  0  0
   -7.3766    3.3049   -8.9468 N   0  0  0  0  0  0  0  0  0  0  0  0
  -12.2038    3.4753   -8.7460 N   0  0  0  0  0  0  0  0  0  0  0  0
  1  6  1  0  0  0  0
  2  1  1  0  0  0  0
  3  4  1  0  0  0  0
  3  2  2  0  0  0  0
  4  5  2  0  0  0  0
  5  8  1  0  0  0  0
  5  6  1  0  0  0  0
  6  7  2  0  0  0  0
  8  9  1  0  0  0  0
  9 10  1  0  0  0  0
 11  8  2  0  0  0  0
 12  4  1  0  0  0  0
 12 11  1  0  0  0  0
 13  2  1  0  0  0  0
M  END
>  <CHROM.1>
-31.62042773,57.63297043,-8.81493136,4.41312999,-7.43503543,2.62392143,-0.01337092
-2.23453659

>  <Name>
lig.pdb

>  <RI>
1.82164e+07

>  <Rbt.Current_Directory>
/home/itssahil/PROJECTS/Mol_Feturizer/New_Systems/rnas/2miy

>  <Rbt.Executable>
rbdock ($Id: //depot/dev/client3/rdock/2013.1/src/exe/rbdock.cxx#4 $)

>  <Rbt.Library>
libRbt.so (2013.1, Build901 2013/11/27)

>  <Rbt.Parameter_File>
/export/apps/rDock/src/rDock_2013.1_src/data/scripts/dock_solv.prm

>  <Rbt.Receptor>
prm/blind_docking_80.prm

>  <SCORE>
-49.27

>  <SCORE.INTER>
-48.7724

>  <SCORE.INTER.CONST>
1

>  <SCORE.INTER.POLAR>
-5.41354

>  <SCORE.INTER.ROT>
2

>  <SCORE.INTER.SOLV>
18.9074

>  <SCORE.INTER.VDW>
-25.7056

>  <SCORE.INTER.norm>
-3.75172

>  <SCORE.INTRA>
-0.528865

>  <SCORE.INTRA.DIHEDRAL>
0.672622

>  <SCORE.INTRA.DIHEDRAL.0>
1.76676

>  <SCORE.INTRA.POLAR>
-0.370281

>  <SCORE.INTRA.POLAR.0>
-0.472211

>  <SCORE.INTRA.REPUL>
0

>  <SCORE.INTRA.REPUL.0>
0

>  <SCORE.INTRA.SOLV>
0.118863

>  <SCORE.INTRA.SOLV.lig_0>
-22.5855

>  <SCORE.INTRA.VDW>
0.334349

>  <SCORE.INTRA.VDW.0>
-0.733656

>  <SCORE.INTRA.norm>
-0.0406819

>  <SCORE.RESTR>
0.0313224

>  <SCORE.RESTR.CAVITY>
0.0313224

>  <SCORE.RESTR.norm>
0.00240942

>  <SCORE.SYSTEM>
0

>  <SCORE.SYSTEM.CONST>
0

>  <SCORE.SYSTEM.DIHEDRAL>
0

>  <SCORE.SYSTEM.SOLV>
0

>  <SCORE.SYSTEM.norm>
0

>  <SCORE.heavy>
13

>  <SCORE.norm>
-3.79

>  <RMSD>
0.657

$$$$
lig.pdb
 OpenBabel11021811453D
libRbt.so/2013.1/901 2013/11/27
 13 14  0  0  0  0  0  0  0  0999 V2000
  -10.8249    4.5171   -7.1293 N   0  0  0  0  0  0  0  0  0  0  0  0
  -10.9610    3.7527   -8.2534 C   0  0  0  0  0  0  0  0  0  0  0  0
   -9.8920    3.3154   -8.8945 N   0  0  0  0  0  0  0  0  0  0  0  0
   -8.6226    3.6028   -8.4733 C   0  0  0  0  0  0  0  0  0  0  0  0
   -8.4237    4.3962   -7.3174 C   0  0  0  0  0  0  0  0  0  0  0  0
   -9.5845    4.8635   -6.6305 C   0  0  0  0  0  0  0  0  0  0  0  0
   -9.4838    5.5519   -5.6300 O   0  0  0  0  0  0  0  0  0  0  0  0
   -6.9720    4.5258   -7.1452 C   0  0  0  0  0  0  0  0  0  0  0  0
   -6.2372    5.2889   -6.0749 C   0  0  0  0  0  0  0  0  0  0  0  0
   -7.0325    6.4549   -5.6681 N   0  0  0  0  0  0  0  0  0  0  0  0
   -6.4169    3.8275   -8.1434 C   0  0  0  0  0  0  0  0  0  0  0  0
   -7.3868    3.2811   -8.9411 N   0  0  0  0  0  0  0  0  0  0  0  0
  -12.2132    3.4399   -8.7160 N   0  0  0  0  0  0  0  0  0  0  0  0
  1  6  1  0  0  0  0
  2  1  1  0  0  0  0
  3  4  1  0  0  0  0
  3  2  2  0  0  0  0
  4  5  2  0  0  0  0
  5  8  1  0  0  0  0
  5  6  1  0  0  0  0
  6  7  2  0  0  0  0
  8  9  1  0  0  0  0
  9 10  1  0  0  0  0
 11  8  2  0  0  0  0
 12  4  1  0  0  0  0
 12 11  1  0  0  0  0
 13  2  1  0  0  0  0
M  END
>  <CHROM.1>
-31.29663624,56.46771335,-8.82042412,4.40436028,-7.43548318,2.62612848,-0.01886873
-2.24697929

>  <Name>
lig.pdb

>  <RI>
0

>  <Rbt.Current_Directory>
/home/itssahil/PROJECTS/Mol_Feturizer/New_Systems/rnas/2miy

>  <Rbt.Executable>
rbdock ($Id: //depot/dev/client3/rdock/2013.1/src/exe/rbdock.cxx#4 $)

>  <Rbt.Library>
libRbt.so (2013.1, Build901 2013/11/27)

>  <Rbt.Parameter_File>
/export/apps/rDock/src/rDock_2013.1_src/data/scripts/dock_solv.prm

>  <Rbt.Receptor>
prm/pocket_docking_2.prm

>  <SCORE>
-49.3559

>  <SCORE.INTER>
-48.8467

>  <SCORE.INTER.CONST>
1

>  <SCORE.INTER.POLAR>
-5.42263

>  <SCORE.INTER.ROT>
2

>  <SCORE.INTER.SOLV>
18.9401

>  <SCORE.INTER.VDW>
-25.7357

>  <SCORE.INTER.norm>
-3.75744

>  <SCORE.INTRA>
-0.509144

>  <SCORE.INTRA.DIHEDRAL>
0.693037

>  <SCORE.INTRA.DIHEDRAL.0>
1.76676

>  <SCORE.INTRA.POLAR>
-0.375635

>  <SCORE.INTRA.POLAR.0>
-0.472211

>  <SCORE.INTRA.REPUL>
0

>  <SCORE.INTRA.REPUL.0>
0

>  <SCORE.INTRA.SOLV>
0.124107

>  <SCORE.INTRA.SOLV.lig_0>
-22.5855

>  <SCORE.INTRA.VDW>
0.359443

>  <SCORE.INTRA.VDW.0>
-0.733656

>  <SCORE.INTRA.norm>
-0.039165

>  <SCORE.RESTR>
0

>  <SCORE.RESTR.CAVITY>
0

>  <SCORE.RESTR.norm>
0

>  <SCORE.SYSTEM>
0

>  <SCORE.SYSTEM.CONST>
0

>  <SCORE.SYSTEM.DIHEDRAL>
0

>  <SCORE.SYSTEM.SOLV>
0

>  <SCORE.SYSTEM.norm>
0

>  <SCORE.heavy>
13

>  <SCORE.norm>
-3.79661

>  <RMSD>
0.657

$$$$
lig.pdb
 OpenBabel11021811453D
libRbt.so/2013.1/901 2013/11/27
 13 14  0  0  0  0  0  0  0  0999 V2000
  -10.8201    4.5271   -7.1383 N   0  0  0  0  0  0  0  0  0  0  0  0
  -10.9523    3.7770   -8.2724 C   0  0  0  0  0  0  0  0  0  0  0  0
   -9.8811    3.3452   -8.9135 N   0  0  0  0  0  0  0  0  0  0  0  0
   -8.6132    3.6243   -8.4824 C   0  0  0  0  0  0  0  0  0  0  0  0
   -8.4183    4.4027   -7.3156 C   0  0  0  0  0  0  0  0  0  0  0  0
   -9.5815    4.8642   -6.6289 C   0  0  0  0  0  0  0  0  0  0  0  0
   -9.4842    5.5399   -5.6195 O   0  0  0  0  0  0  0  0  0  0  0  0
   -6.9672    4.5266   -7.1345 C   0  0  0  0  0  0  0  0  0  0  0  0
   -6.2360    5.2745   -6.0511 C   0  0  0  0  0  0  0  0  0  0  0  0
   -7.0319    6.4359   -5.6320 N   0  0  0  0  0  0  0  0  0  0  0  0
   -6.4087    3.8394   -8.1385 C   0  0  0  0  0  0  0  0  0  0  0  0
   -7.3758    3.3053   -8.9478 N   0  0  0  0  0  0  0  0  0  0  0  0
  -12.2029    3.4731   -8.7452 N   0  0  0  0  0  0  0  0  0  0  0  0
  1  6  1  0  0  0  0
  2  1  1  0  0  0  0
  3  4  1  0  0  0  0
  3  2  2  0  0  0  0
  4  5  2  0  0  0  0
  5  8  1  0  0  0  0
  5  6  1  0  0  0  0
  6  7  2  0  0  0  0
  8  9  1  0  0  0  0
  9 10  1  0  0  0  0
 11  8  2  0  0  0  0
 12  4  1  0  0  0  0
 12 11  1  0  0  0  0
 13  2  1  0  0  0  0
M  END
>  <CHROM.1>
-31.18796534,-125.84259420,-8.81447973,4.41312638,-7.43534247,2.62335843
-0.01370100,-2.23432706

>  <Name>
lig.pdb

>  <RI>
1.51961e+07

>  <Rbt.Current_Directory>
/home/itssahil/PROJECTS/Mol_Feturizer/New_Systems/rnas/2miy

>  <Rbt.Executable>
rbdock ($Id: //depot/dev/client3/rdock/2013.1/src/exe/rbdock.cxx#4 $)

>  <Rbt.Library>
libRbt.so (2013.1, Build901 2013/11/27)

>  <Rbt.Parameter_File>
/export/apps/rDock/src/rDock_2013.1_src/data/scripts/dock_solv.prm

>  <Rbt.Receptor>
prm/pocket_docking_3.prm

>  <SCORE>
-49.2636

>  <SCORE.INTER>
-48.7958

>  <SCORE.INTER.CONST>
1

>  <SCORE.INTER.POLAR>
-5.40709

>  <SCORE.INTER.ROT>
2

>  <SCORE.INTER.SOLV>
18.9157

>  <SCORE.INTER.VDW>
-25.7454

>  <SCORE.INTER.norm>
-3.75352

>  <SCORE.INTRA>
-0.498866

>  <SCORE.INTRA.DIHEDRAL>
0.686049

>  <SCORE.INTRA.DIHEDRAL.0>
1.76676

>  <SCORE.INTRA.POLAR>
-0.378316

>  <SCORE.INTRA.POLAR.0>
-0.472211

>  <SCORE.INTRA.REPUL>
0

>  <SCORE.INTRA.REPUL.0>
0

>  <SCORE.INTRA.SOLV>
0.127221

>  <SCORE.INTRA.SOLV.lig_0>
-22.5855

>  <SCORE.INTRA.VDW>
0.380772

>  <SCORE.INTRA.VDW.0>
-0.733656

>  <SCORE.INTRA.norm>
-0.0383743

>  <SCORE.RESTR>
0.0310443

>  <SCORE.RESTR.CAVITY>
0.0310443

>  <SCORE.RESTR.norm>
0.00238802

>  <SCORE.SYSTEM>
0

>  <SCORE.SYSTEM.CONST>
0

>  <SCORE.SYSTEM.DIHEDRAL>
0

>  <SCORE.SYSTEM.SOLV>
0

>  <SCORE.SYSTEM.norm>
0

>  <SCORE.heavy>
13

>  <SCORE.norm>
-3.78951

>  <RMSD>
0.657

$$$$
lig.pdb
 OpenBabel11021811453D
libRbt.so/2013.1/901 2013/11/27
 13 14  0  0  0  0  0  0  0  0999 V2000
  -10.8204    4.5222   -7.1436 N   0  0  0  0  0  0  0  0  0  0  0  0
  -10.9499    3.7729   -8.2785 C   0  0  0  0  0  0  0  0  0  0  0  0
   -9.8773    3.3430   -8.9184 N   0  0  0  0  0  0  0  0  0  0  0  0
   -8.6103    3.6235   -8.4853 C   0  0  0  0  0  0  0  0  0  0  0  0
   -8.4181    4.4013   -7.3177 C   0  0  0  0  0  0  0  0  0  0  0  0
   -9.5829    4.8606   -6.6322 C   0  0  0  0  0  0  0  0  0  0  0  0
   -9.4879    5.5357   -5.6221 O   0  0  0  0  0  0  0  0  0  0  0  0
   -6.9674    4.5271   -7.1345 C   0  0  0  0  0  0  0  0  0  0  0  0
   -6.2388    5.2751   -6.0495 C   0  0  0  0  0  0  0  0  0  0  0  0
   -7.0401    6.4309   -5.6255 N   0  0  0  0  0  0  0  0  0  0  0  0
   -6.4066    3.8414   -8.1383 C   0  0  0  0  0  0  0  0  0  0  0  0
   -7.3718    3.3067   -8.9493 N   0  0  0  0  0  0  0  0  0  0  0  0
  -12.1995    3.4676   -8.7533 N   0  0  0  0  0  0  0  0  0  0  0  0
  1  6  1  0  0  0  0
  2  1  1  0  0  0  0
  3  4  1  0  0  0  0
  3  2  2  0  0  0  0
  4  5  2  0  0  0  0
  5  8  1  0  0  0  0
  5  6  1  0  0  0  0
  6  7  2  0  0  0  0
  8  9  1  0  0  0  0
  9 10  1  0  0  0  0
 11  8  2  0  0  0  0
 12  4  1  0  0  0  0
 12 11  1  0  0  0  0
 13  2  1  0  0  0  0
M  END
>  <CHROM.1>
-30.88386718,57.74683513,-8.81449649,4.41089541,-7.43763306,2.62142351,-0.01384787
-2.23300485

>  <Name>
lig.pdb

>  <RI>
4.2128e+07

>  <Rbt.Current_Directory>
/home/itssahil/PROJECTS/Mol_Feturizer/New_Systems/rnas/2miy

>  <Rbt.Executable>
rbdock ($Id: //depot/dev/client3/rdock/2013.1/src/exe/rbdock.cxx#4 $)

>  <Rbt.Library>
libRbt.so (2013.1, Build901 2013/11/27)

>  <Rbt.Parameter_File>
/export/apps/rDock/src/rDock_2013.1_src/data/scripts/dock_solv.prm

>  <Rbt.Receptor>
prm/pocket_docking_5.prm

>  <SCORE>
-49.239

>  <SCORE.INTER>
-48.7749

>  <SCORE.INTER.CONST>
1

>  <SCORE.INTER.POLAR>
-5.37696

>  <SCORE.INTER.ROT>
2

>  <SCORE.INTER.SOLV>
18.8839

>  <SCORE.INTER.VDW>
-25.8214

>  <SCORE.INTER.norm>
-3.75191

>  <SCORE.INTRA>
-0.493327

>  <SCORE.INTRA.DIHEDRAL>
0.714741

>  <SCORE.INTRA.DIHEDRAL.0>
1.76676

>  <SCORE.INTRA.POLAR>
-0.37532

>  <SCORE.INTRA.POLAR.0>
-0.472211

>  <SCORE.INTRA.REPUL>
0

>  <SCORE.INTRA.REPUL.0>
0

>  <SCORE.INTRA.SOLV>
0.12531

>  <SCORE.INTRA.SOLV.lig_0>
-22.5855

>  <SCORE.INTRA.VDW>
0.362737

>  <SCORE.INTRA.VDW.0>
-0.733656

>  <SCORE.INTRA.norm>
-0.0379482

>  <SCORE.RESTR>
0.0292082

>  <SCORE.RESTR.CAVITY>
0.0292082

>  <SCORE.RESTR.norm>
0.00224679

>  <SCORE.SYSTEM>
0

>  <SCORE.SYSTEM.CONST>
0

>  <SCORE.SYSTEM.DIHEDRAL>
0

>  <SCORE.SYSTEM.SOLV>
0

>  <SCORE.SYSTEM.norm>
0

>  <SCORE.heavy>
13

>  <SCORE.norm>
-3.78762

>  <RMSD>
0.657

$$$$
lig.pdb
 OpenBabel11021811453D
libRbt.so/2013.1/901 2013/11/27
 13 14  0  0  0  0  0  0  0  0999 V2000
  -10.8202    4.5278   -7.1402 N   0  0  0  0  0  0  0  0  0  0  0  0
  -10.9518    3.7763   -8.2734 C   0  0  0  0  0  0  0  0  0  0  0  0
   -9.8803    3.3442   -8.9138 N   0  0  0  0  0  0  0  0  0  0  0  0
   -8.6126    3.6245   -8.4828 C   0  0  0  0  0  0  0  0  0  0  0  0
   -8.4183    4.4044   -7.3170 C   0  0  0  0  0  0  0  0  0  0  0  0
   -9.5818    4.8662   -6.6310 C   0  0  0  0  0  0  0  0  0  0  0  0
   -9.4851    5.5432   -5.6224 O   0  0  0  0  0  0  0  0  0  0  0  0
   -6.9672    4.5294   -7.1358 C   0  0  0  0  0  0  0  0  0  0  0  0
   -6.2367    5.2790   -6.0532 C   0  0  0  0  0  0  0  0  0  0  0  0
   -7.0388    6.4334   -5.6271 N   0  0  0  0  0  0  0  0  0  0  0  0
   -6.4082    3.8412   -8.1389 C   0  0  0  0  0  0  0  0  0  0  0  0
   -7.3749    3.3057   -8.9477 N   0  0  0  0  0  0  0  0  0  0  0  0
  -12.2022    3.4711   -8.7461 N   0  0  0  0  0  0  0  0  0  0  0  0
  1  6  1  0  0  0  0
  2  1  1  0  0  0  0
  3  4  1  0  0  0  0
  3  2  2  0  0  0  0
  4  5  2  0  0  0  0
  5  8  1  0  0  0  0
  5  6  1  0  0  0  0
  6  7  2  0  0  0  0
  8  9  1  0  0  0  0
  9 10  1  0  0  0  0
 11  8  2  0  0  0  0
 12  4  1  0  0  0  0
 12 11  1  0  0  0  0
 13  2  1  0  0  0  0
M  END
>  <CHROM.1>
-30.67400816,-124.16558998,-8.81495221,4.41386563,-7.43598545,2.62256296
-0.01375713,-2.23454200

>  <Name>
lig.pdb

>  <RI>
1.82164e+07

>  <Rbt.Current_Directory>
/home/itssahil/PROJECTS/Mol_Feturizer/New_Systems/rnas/2miy

>  <Rbt.Executable>
rbdock ($Id: //depot/dev/client3/rdock/2013.1/src/exe/rbdock.cxx#4 $)

>  <Rbt.Library>
libRbt.so (2013.1, Build901 2013/11/27)

>  <Rbt.Parameter_File>
/export/apps/rDock/src/rDock_2013.1_src/data/scripts/dock_solv.prm

>  <Rbt.Receptor>
prm/blind_docking_80.prm

>  <SCORE>
-49.2698

>  <SCORE.INTER>
-48.8129

>  <SCORE.INTER.CONST>
1

>  <SCORE.INTER.POLAR>
-5.40351

>  <SCORE.INTER.ROT>
2

>  <SCORE.INTER.SOLV>
18.9003

>  <SCORE.INTER.VDW>
-25.7637

>  <SCORE.INTER.norm>
-3.75484

>  <SCORE.INTRA>
-0.487333

>  <SCORE.INTRA.DIHEDRAL>
0.718188

>  <SCORE.INTRA.DIHEDRAL.0>
1.76676

>  <SCORE.INTRA.POLAR>
-0.380619

>  <SCORE.INTRA.POLAR.0>
-0.472211

>  <SCORE.INTRA.REPUL>
0

>  <SCORE.INTRA.REPUL.0>
0

>  <SCORE.INTRA.SOLV>
0.128551

>  <SCORE.INTRA.SOLV.lig_0>
-22.5855

>  <SCORE.INTRA.VDW>
0.383403

>  <SCORE.INTRA.VDW.0>
-0.733656

>  <SCORE.INTRA.norm>
-0.0374871

>  <SCORE.RESTR>
0.0304868

>  <SCORE.RESTR.CAVITY>
0.0304868

>  <SCORE.RESTR.norm>
0.00234514

>  <SCORE.SYSTEM>
0

>  <SCORE.SYSTEM.CONST>
0

>  <SCORE.SYSTEM.DIHEDRAL>
0

>  <SCORE.SYSTEM.SOLV>
0

>  <SCORE.SYSTEM.norm>
0

>  <SCORE.heavy>
13

>  <SCORE.norm>
-3.78998

>  <RMSD>
0.658

$$$$
lig.pdb
 OpenBabel11021811453D
libRbt.so/2013.1/901 2013/11/27
 13 14  0  0  0  0  0  0  0  0999 V2000
  -10.8197    4.5267   -7.1346 N   0  0  0  0  0  0  0  0  0  0  0  0
  -10.9525    3.7763   -8.2685 C   0  0  0  0  0  0  0  0  0  0  0  0
   -9.8818    3.3446   -8.9103 N   0  0  0  0  0  0  0  0  0  0  0  0
   -8.6136    3.6241   -8.4803 C   0  0  0  0  0  0  0  0  0  0  0  0
   -8.4179    4.4029   -7.3139 C   0  0  0  0  0  0  0  0  0  0  0  0
   -9.5807    4.8643   -6.6263 C   0  0  0  0  0  0  0  0  0  0  0  0
   -9.4828    5.5404   -5.6172 O   0  0  0  0  0  0  0  0  0  0  0  0
   -6.9667    4.5273   -7.1340 C   0  0  0  0  0  0  0  0  0  0  0  0
   -6.2349    5.2757   -6.0514 C   0  0  0  0  0  0  0  0  0  0  0  0
   -7.0225    6.4469   -5.6444 N   0  0  0  0  0  0  0  0  0  0  0  0
   -6.4088    3.8399   -8.1383 C   0  0  0  0  0  0  0  0  0  0  0  0
   -7.3765    3.3054   -8.9467 N   0  0  0  0  0  0  0  0  0  0  0  0
  -12.2035    3.4719   -8.7401 N   0  0  0  0  0  0  0  0  0  0  0  0
  1  6  1  0  0  0  0
  2  1  1  0  0  0  0
  3  4  1  0  0  0  0
  3  2  2  0  0  0  0
  4  5  2  0  0  0  0
  5  8  1  0  0  0  0
  5  6  1  0  0  0  0
  6  7  2  0  0  0  0
  8  9  1  0  0  0  0
  9 10  1  0  0  0  0
 11  8  2  0  0  0  0
 12  4  1  0  0  0  0
 12 11  1  0  0  0  0
 13  2  1  0  0  0  0
M  END
>  <CHROM.1>
-31.92943139,-123.86897483,-8.81343716,4.41415918,-7.43446073,2.62440815
-0.01492373,-2.23592384

>  <Name>
lig.pdb

>  <RI>
1.51961e+07

>  <Rbt.Current_Directory>
/home/itssahil/PROJECTS/Mol_Feturizer/New_Systems/rnas/2miy

>  <Rbt.Executable>
rbdock ($Id: //depot/dev/client3/rdock/2013.1/src/exe/rbdock.cxx#4 $)

>  <Rbt.Library>
libRbt.so (2013.1, Build901 2013/11/27)

>  <Rbt.Parameter_File>
/export/apps/rDock/src/rDock_2013.1_src/data/scripts/dock_solv.prm

>  <Rbt.Receptor>
prm/pocket_docking_3.prm

>  <SCORE>
-49.2714

>  <SCORE.INTER>
-48.7581

>  <SCORE.INTER.CONST>
1

>  <SCORE.INTER.POLAR>
-5.40982

>  <SCORE.INTER.ROT>
2

>  <SCORE.INTER.SOLV>
18.9346

>  <SCORE.INTER.VDW>
-25.7175

>  <SCORE.INTER.norm>
-3.75063

>  <SCORE.INTRA>
-0.544095

>  <SCORE.INTRA.DIHEDRAL>
0.646577

>  <SCORE.INTRA.DIHEDRAL.0>
1.76676

>  <SCORE.INTRA.POLAR>
-0.369139

>  <SCORE.INTRA.POLAR.0>
-0.472211

>  <SCORE.INTRA.REPUL>
0

>  <SCORE.INTRA.REPUL.0>
0

>  <SCORE.INTRA.SOLV>
0.116576

>  <SCORE.INTRA.SOLV.lig_0>
-22.5855

>  <SCORE.INTRA.VDW>
0.329401

>  <SCORE.INTRA.VDW.0>
-0.733656

>  <SCORE.INTRA.norm>
-0.0418535

>  <SCORE.RESTR>
0.0308755

>  <SCORE.RESTR.CAVITY>
0.0308755

>  <SCORE.RESTR.norm>
0.00237504

>  <SCORE.SYSTEM>
0

>  <SCORE.SYSTEM.CONST>
0

>  <SCORE.SYSTEM.DIHEDRAL>
0

>  <SCORE.SYSTEM.SOLV>
0

>  <SCORE.SYSTEM.norm>
0

>  <SCORE.heavy>
13

>  <SCORE.norm>
-3.7901

>  <RMSD>
0.658

$$$$
lig.pdb
 OpenBabel11021811453D
libRbt.so/2013.1/901 2013/11/27
 13 14  0  0  0  0  0  0  0  0999 V2000
  -10.8235    4.5205   -7.1314 N   0  0  0  0  0  0  0  0  0  0  0  0
  -10.9599    3.7548   -8.2546 C   0  0  0  0  0  0  0  0  0  0  0  0
   -9.8912    3.3162   -8.8951 N   0  0  0  0  0  0  0  0  0  0  0  0
   -8.6216    3.6035   -8.4743 C   0  0  0  0  0  0  0  0  0  0  0  0
   -8.4223    4.3982   -7.3193 C   0  0  0  0  0  0  0  0  0  0  0  0
   -9.5829    4.8668   -6.6330 C   0  0  0  0  0  0  0  0  0  0  0  0
   -9.4818    5.5565   -5.6334 O   0  0  0  0  0  0  0  0  0  0  0  0
   -6.9705    4.5273   -7.1473 C   0  0  0  0  0  0  0  0  0  0  0  0
   -6.2354    5.2913   -6.0779 C   0  0  0  0  0  0  0  0  0  0  0  0
   -7.0349    6.4523   -5.6651 N   0  0  0  0  0  0  0  0  0  0  0  0
   -6.4158    3.8274   -8.1446 C   0  0  0  0  0  0  0  0  0  0  0  0
   -7.3860    3.2806   -8.9416 N   0  0  0  0  0  0  0  0  0  0  0  0
  -12.2123    3.4421   -8.7168 N   0  0  0  0  0  0  0  0  0  0  0  0
  1  6  1  0  0  0  0
  2  1  1  0  0  0  0
  3  4  1  0  0  0  0
  3  2  2  0  0  0  0
  4  5  2  0  0  0  0
  5  8  1  0  0  0  0
  5  6  1  0  0  0  0
  6  7  2  0  0  0  0
  8  9  1  0  0  0  0
  9 10  1  0  0  0  0
 11  8  2  0  0  0  0
 12  4  1  0  0  0  0
 12 11  1  0  0  0  0
 13  2  1  0  0  0  0
M  END
>  <CHROM.1>
-30.85961391,56.89953253,-8.81949857,4.40583400,-7.43673134,2.62612904,-0.01821484
-2.24735011

>  <Name>
lig.pdb

>  <RI>
0

>  <Rbt.Current_Directory>
/home/itssahil/PROJECTS/Mol_Feturizer/New_Systems/rnas/2miy

>  <Rbt.Executable>
rbdock ($Id: //depot/dev/client3/rdock/2013.1/src/exe/rbdock.cxx#4 $)

>  <Rbt.Library>
libRbt.so (2013.1, Build901 2013/11/27)

>  <Rbt.Parameter_File>
/export/apps/rDock/src/rDock_2013.1_src/data/scripts/dock_solv.prm

>  <Rbt.Receptor>
prm/pocket_docking_2.prm

>  <SCORE>
-49.3583

>  <SCORE.INTER>
-48.867

>  <SCORE.INTER.CONST>
1

>  <SCORE.INTER.POLAR>
-5.42785

>  <SCORE.INTER.ROT>
2

>  <SCORE.INTER.SOLV>
18.9378

>  <SCORE.INTER.VDW>
-25.7311

>  <SCORE.INTER.norm>
-3.759

>  <SCORE.INTRA>
-0.49129

>  <SCORE.INTRA.DIHEDRAL>
0.717473

>  <SCORE.INTRA.DIHEDRAL.0>
1.76676

>  <SCORE.INTRA.POLAR>
-0.378349

>  <SCORE.INTRA.POLAR.0>
-0.472211

>  <SCORE.INTRA.REPUL>
0

>  <SCORE.INTRA.REPUL.0>
0

>  <SCORE.INTRA.SOLV>
0.127212

>  <SCORE.INTRA.SOLV.lig_0>
-22.5855

>  <SCORE.INTRA.VDW>
0.372752

>  <SCORE.INTRA.VDW.0>
-0.733656

>  <SCORE.INTRA.norm>
-0.0377915

>  <SCORE.RESTR>
0

>  <SCORE.RESTR.CAVITY>
0

>  <SCORE.RESTR.norm>
0

>  <SCORE.SYSTEM>
0

>  <SCORE.SYSTEM.CONST>
0

>  <SCORE.SYSTEM.DIHEDRAL>
0

>  <SCORE.SYSTEM.SOLV>
0

>  <SCORE.SYSTEM.norm>
0

>  <SCORE.heavy>
13

>  <SCORE.norm>
-3.79679

>  <RMSD>
0.659

$$$$
lig.pdb
 OpenBabel11021811453D
libRbt.so/2013.1/901 2013/11/27
 13 14  0  0  0  0  0  0  0  0999 V2000
  -10.8192    4.5307   -7.1395 N   0  0  0  0  0  0  0  0  0  0  0  0
  -10.9513    3.7807   -8.2737 C   0  0  0  0  0  0  0  0  0  0  0  0
   -9.8801    3.3485   -8.9145 N   0  0  0  0  0  0  0  0  0  0  0  0
   -8.6122    3.6271   -8.4830 C   0  0  0  0  0  0  0  0  0  0  0  0
   -8.4174    4.4055   -7.3162 C   0  0  0  0  0  0  0  0  0  0  0  0
   -9.5806    4.8674   -6.6297 C   0  0  0  0  0  0  0  0  0  0  0  0
   -9.4833    5.5431   -5.6203 O   0  0  0  0  0  0  0  0  0  0  0  0
   -6.9662    4.5289   -7.1347 C   0  0  0  0  0  0  0  0  0  0  0  0
   -6.2351    5.2765   -6.0511 C   0  0  0  0  0  0  0  0  0  0  0  0
   -7.0338    6.4342   -5.6273 N   0  0  0  0  0  0  0  0  0  0  0  0
   -6.4077    3.8415   -8.1385 C   0  0  0  0  0  0  0  0  0  0  0  0
   -7.3748    3.3078   -8.9481 N   0  0  0  0  0  0  0  0  0  0  0  0
  -12.2019    3.4773   -8.7468 N   0  0  0  0  0  0  0  0  0  0  0  0
  1  6  1  0  0  0  0
  2  1  1  0  0  0  0
  3  4  1  0  0  0  0
  3  2  2  0  0  0  0
  4  5  2  0  0  0  0
  5  8  1  0  0  0  0
  5  6  1  0  0  0  0
  6  7  2  0  0  0  0
  8  9  1  0  0  0  0
  9 10  1  0  0  0  0
 11  8  2  0  0  0  0
 12  4  1  0  0  0  0
 12 11  1  0  0  0  0
 13  2  1  0  0  0  0
M  END
>  <CHROM.1>
-30.89611593,-123.32017998,-8.81378321,4.41568464,-7.43556235,2.62319278
-0.01313294,-2.23369712

>  <Name>
lig.pdb

>  <RI>
1.51961e+07

>  <Rbt.Current_Directory>
/home/itssahil/PROJECTS/Mol_Feturizer/New_Systems/rnas/2miy

>  <Rbt.Executable>
rbdock ($Id: //depot/dev/client3/rdock/2013.1/src/exe/rbdock.cxx#4 $)

>  <Rbt.Library>
libRbt.so (2013.1, Build901 2013/11/27)

>  <Rbt.Parameter_File>
/export/apps/rDock/src/rDock_2013.1_src/data/scripts/dock_solv.prm

>  <Rbt.Receptor>
prm/pocket_docking_3.prm

>  <SCORE>
-49.2684

>  <SCORE.INTER>
-48.7992

>  <SCORE.INTER.CONST>
1

>  <SCORE.INTER.POLAR>
-5.41174

>  <SCORE.INTER.ROT>
2

>  <SCORE.INTER.SOLV>
18.9037

>  <SCORE.INTER.VDW>
-25.7282

>  <SCORE.INTER.norm>
-3.75378

>  <SCORE.INTRA>
-0.498422

>  <SCORE.INTRA.DIHEDRAL>
0.706736

>  <SCORE.INTRA.DIHEDRAL.0>
1.76676

>  <SCORE.INTRA.POLAR>
-0.376275

>  <SCORE.INTRA.POLAR.0>
-0.472211

>  <SCORE.INTRA.REPUL>
0

>  <SCORE.INTRA.REPUL.0>
0

>  <SCORE.INTRA.SOLV>
0.124863

>  <SCORE.INTRA.SOLV.lig_0>
-22.5855

>  <SCORE.INTRA.VDW>
0.365112

>  <SCORE.INTRA.VDW.0>
-0.733656

>  <SCORE.INTRA.norm>
-0.0383402

>  <SCORE.RESTR>
0.0291454

>  <SCORE.RESTR.CAVITY>
0.0291454

>  <SCORE.RESTR.norm>
0.00224195

>  <SCORE.SYSTEM>
0

>  <SCORE.SYSTEM.CONST>
0

>  <SCORE.SYSTEM.DIHEDRAL>
0

>  <SCORE.SYSTEM.SOLV>
0

>  <SCORE.SYSTEM.norm>
0

>  <SCORE.heavy>
13

>  <SCORE.norm>
-3.78988

>  <RMSD>
0.659

$$$$
lig.pdb
 OpenBabel11021811453D
libRbt.so/2013.1/901 2013/11/27
 13 14  0  0  0  0  0  0  0  0999 V2000
  -10.8249    4.5189   -7.1344 N   0  0  0  0  0  0  0  0  0  0  0  0
  -10.9620    3.7487   -8.2544 C   0  0  0  0  0  0  0  0  0  0  0  0
   -9.8936    3.3092   -8.8949 N   0  0  0  0  0  0  0  0  0  0  0  0
   -8.6238    3.6001   -8.4772 C   0  0  0  0  0  0  0  0  0  0  0  0
   -8.4239    4.3994   -7.3256 C   0  0  0  0  0  0  0  0  0  0  0  0
   -9.5841    4.8690   -6.6393 C   0  0  0  0  0  0  0  0  0  0  0  0
   -9.4825    5.5626   -5.6425 O   0  0  0  0  0  0  0  0  0  0  0  0
   -6.9721    4.5314   -7.1564 C   0  0  0  0  0  0  0  0  0  0  0  0
   -6.2364    5.3006   -6.0911 C   0  0  0  0  0  0  0  0  0  0  0  0
   -7.0519    6.4426   -5.6571 N   0  0  0  0  0  0  0  0  0  0  0  0
   -6.4179    3.8285   -8.1519 C   0  0  0  0  0  0  0  0  0  0  0  0
   -7.3884    3.2772   -8.9453 N   0  0  0  0  0  0  0  0  0  0  0  0
  -12.2147    3.4324   -8.7134 N   0  0  0  0  0  0  0  0  0  0  0  0
  1  6  1  0  0  0  0
  2  1  1  0  0  0  0
  3  4  1  0  0  0  0
  3  2  2  0  0  0  0
  4  5  2  0  0  0  0
  5  8  1  0  0  0  0
  5  6  1  0  0  0  0
  6  7  2  0  0  0  0
  8  9  1  0  0  0  0
  9 10  1  0  0  0  0
 11  8  2  0  0  0  0
 12  4  1  0  0  0  0
 12 11  1  0  0  0  0
 13  2  1  0  0  0  0
M  END
>  <CHROM.1>
-29.42713131,57.19035105,-8.82269341,4.40425772,-7.44018118,2.62543430,-0.01951385
-2.24846712

>  <Name>
lig.pdb

>  <RI>
0

>  <Rbt.Current_Directory>
/home/itssahil/PROJECTS/Mol_Feturizer/New_Systems/rnas/2miy

>  <Rbt.Executable>
rbdock ($Id: //depot/dev/client3/rdock/2013.1/src/exe/rbdock.cxx#4 $)

>  <Rbt.Library>
libRbt.so (2013.1, Build901 2013/11/27)

>  <Rbt.Parameter_File>
/export/apps/rDock/src/rDock_2013.1_src/data/scripts/dock_solv.prm

>  <Rbt.Receptor>
prm/pocket_docking_2.prm

>  <SCORE>
-49.3307

>  <SCORE.INTER>
-48.9248

>  <SCORE.INTER.CONST>
1

>  <SCORE.INTER.POLAR>
-5.42123

>  <SCORE.INTER.ROT>
2

>  <SCORE.INTER.SOLV>
18.9151

>  <SCORE.INTER.VDW>
-25.7841

>  <SCORE.INTER.norm>
-3.76345

>  <SCORE.INTRA>
-0.405876

>  <SCORE.INTRA.DIHEDRAL>
0.799487

>  <SCORE.INTRA.DIHEDRAL.0>
1.76676

>  <SCORE.INTRA.POLAR>
-0.384185

>  <SCORE.INTRA.POLAR.0>
-0.472211

>  <SCORE.INTRA.REPUL>
0

>  <SCORE.INTRA.REPUL.0>
0

>  <SCORE.INTRA.SOLV>
0.139157

>  <SCORE.INTRA.SOLV.lig_0>
-22.5855

>  <SCORE.INTRA.VDW>
0.431031

>  <SCORE.INTRA.VDW.0>
-0.733656

>  <SCORE.INTRA.norm>
-0.0312212

>  <SCORE.RESTR>
0

>  <SCORE.RESTR.CAVITY>
0

>  <SCORE.RESTR.norm>
0

>  <SCORE.SYSTEM>
0

>  <SCORE.SYSTEM.CONST>
0

>  <SCORE.SYSTEM.DIHEDRAL>
0

>  <SCORE.SYSTEM.SOLV>
0

>  <SCORE.SYSTEM.norm>
0

>  <SCORE.heavy>
13

>  <SCORE.norm>
-3.79467

>  <RMSD>
0.660

$$$$
lig.pdb
 OpenBabel11021811453D
libRbt.so/2013.1/901 2013/11/27
 13 14  0  0  0  0  0  0  0  0999 V2000
  -10.8441    4.4535   -7.1147 N   0  0  0  0  0  0  0  0  0  0  0  0
  -10.9675    3.7058   -8.2514 C   0  0  0  0  0  0  0  0  0  0  0  0
   -9.8915    3.2959   -8.8987 N   0  0  0  0  0  0  0  0  0  0  0  0
   -8.6270    3.5960   -8.4717 C   0  0  0  0  0  0  0  0  0  0  0  0
   -8.4412    4.3731   -7.3026 C   0  0  0  0  0  0  0  0  0  0  0  0
   -9.6096    4.8108   -6.6091 C   0  0  0  0  0  0  0  0  0  0  0  0
   -9.5202    5.4841   -5.5973 O   0  0  0  0  0  0  0  0  0  0  0  0
   -6.9918    4.5225   -7.1271 C   0  0  0  0  0  0  0  0  0  0  0  0
   -6.2696    5.2791   -6.0437 C   0  0  0  0  0  0  0  0  0  0  0  0
   -6.9744    5.1028   -4.7670 N   0  0  0  0  0  0  0  0  0  0  0  0
   -6.4253    3.8495   -8.1362 C   0  0  0  0  0  0  0  0  0  0  0  0
   -7.3860    3.3014   -8.9437 N   0  0  0  0  0  0  0  0  0  0  0  0
  -12.2145    3.3813   -8.7202 N   0  0  0  0  0  0  0  0  0  0  0  0
  1  6  1  0  0  0  0
  2  1  1  0  0  0  0
  3  4  1  0  0  0  0
  3  2  2  0  0  0  0
  4  5  2  0  0  0  0
  5  8  1  0  0  0  0
  5  6  1  0  0  0  0
  6  7  2  0  0  0  0
  8  9  1  0  0  0  0
  9 10  1  0  0  0  0
 11  8  2  0  0  0  0
 12  4  1  0  0  0  0
 12 11  1  0  0  0  0
 13  2  1  0  0  0  0
M  END
>  <CHROM.1>
38.15550126,116.51106711,-8.82778773,4.25358899,-7.34149728,2.62134963,0.00388711
-2.07821341

>  <Name>
lig.pdb

>  <RI>
2.60406e+07

>  <Rbt.Current_Directory>
/home/itssahil/PROJECTS/Mol_Feturizer/New_Systems/rnas/2miy

>  <Rbt.Executable>
rbdock ($Id: //depot/dev/client3/rdock/2013.1/src/exe/rbdock.cxx#4 $)

>  <Rbt.Library>
libRbt.so (2013.1, Build901 2013/11/27)

>  <Rbt.Parameter_File>
/export/apps/rDock/src/rDock_2013.1_src/data/scripts/dock_solv.prm

>  <Rbt.Receptor>
prm/pocket_docking_7.prm

>  <SCORE>
-48.1337

>  <SCORE.INTER>
-47.5698

>  <SCORE.INTER.CONST>
1

>  <SCORE.INTER.POLAR>
-5.22567

>  <SCORE.INTER.ROT>
2

>  <SCORE.INTER.SOLV>
17.3189

>  <SCORE.INTER.VDW>
-25.0006

>  <SCORE.INTER.norm>
-3.65921

>  <SCORE.INTRA>
-0.713477

>  <SCORE.INTRA.DIHEDRAL>
0.322431

>  <SCORE.INTRA.DIHEDRAL.0>
1.76676

>  <SCORE.INTRA.POLAR>
-0.302708

>  <SCORE.INTRA.POLAR.0>
-0.472211

>  <SCORE.INTRA.REPUL>
0

>  <SCORE.INTRA.REPUL.0>
0

>  <SCORE.INTRA.SOLV>
0.0656439

>  <SCORE.INTRA.SOLV.lig_0>
-22.5855

>  <SCORE.INTRA.VDW>
0.121691

>  <SCORE.INTRA.VDW.0>
-0.733656

>  <SCORE.INTRA.norm>
-0.0548829

>  <SCORE.RESTR>
0.149526

>  <SCORE.RESTR.CAVITY>
0.149526

>  <SCORE.RESTR.norm>
0.011502

>  <SCORE.SYSTEM>
0

>  <SCORE.SYSTEM.CONST>
0

>  <SCORE.SYSTEM.DIHEDRAL>
0

>  <SCORE.SYSTEM.SOLV>
0

>  <SCORE.SYSTEM.norm>
0

>  <SCORE.heavy>
13

>  <SCORE.norm>
-3.70259

>  <RMSD>
0.660

$$$$
lig.pdb
 OpenBabel11021811453D
libRbt.so/2013.1/901 2013/11/27
 13 14  0  0  0  0  0  0  0  0999 V2000
  -10.8236    4.5169   -7.1404 N   0  0  0  0  0  0  0  0  0  0  0  0
  -10.9596    3.7484   -8.2616 C   0  0  0  0  0  0  0  0  0  0  0  0
   -9.8907    3.3065   -8.8996 N   0  0  0  0  0  0  0  0  0  0  0  0
   -8.6213    3.5931   -8.4778 C   0  0  0  0  0  0  0  0  0  0  0  0
   -8.4224    4.3905   -7.3247 C   0  0  0  0  0  0  0  0  0  0  0  0
   -9.5832    4.8627   -6.6412 C   0  0  0  0  0  0  0  0  0  0  0  0
   -9.4824    5.5549   -5.6433 O   0  0  0  0  0  0  0  0  0  0  0  0
   -6.9706    4.5180   -7.1511 C   0  0  0  0  0  0  0  0  0  0  0  0
   -6.2357    5.2837   -6.0828 C   0  0  0  0  0  0  0  0  0  0  0  0
   -7.0401    6.4395   -5.6645 N   0  0  0  0  0  0  0  0  0  0  0  0
   -6.4156    3.8146   -8.1458 C   0  0  0  0  0  0  0  0  0  0  0  0
   -7.3855    3.2670   -8.9426 N   0  0  0  0  0  0  0  0  0  0  0  0
  -12.2119    3.4363   -8.7247 N   0  0  0  0  0  0  0  0  0  0  0  0
  1  6  1  0  0  0  0
  2  1  1  0  0  0  0
  3  4  1  0  0  0  0
  3  2  2  0  0  0  0
  4  5  2  0  0  0  0
  5  8  1  0  0  0  0
  5  6  1  0  0  0  0
  6  7  2  0  0  0  0
  8  9  1  0  0  0  0
  9 10  1  0  0  0  0
 11  8  2  0  0  0  0
 12  4  1  0  0  0  0
 12 11  1  0  0  0  0
 13  2  1  0  0  0  0
M  END
>  <CHROM.1>
-30.29283726,55.33245093,-8.81991656,4.39775426,-7.44178966,2.62559418,-0.01585501
-2.24901760

>  <Name>
lig.pdb

>  <RI>
0

>  <Rbt.Current_Directory>
/home/itssahil/PROJECTS/Mol_Feturizer/New_Systems/rnas/2miy

>  <Rbt.Executable>
rbdock ($Id: //depot/dev/client3/rdock/2013.1/src/exe/rbdock.cxx#4 $)

>  <Rbt.Library>
libRbt.so (2013.1, Build901 2013/11/27)

>  <Rbt.Parameter_File>
/export/apps/rDock/src/rDock_2013.1_src/data/scripts/dock_solv.prm

>  <Rbt.Receptor>
prm/pocket_docking_2.prm

>  <SCORE>
-49.3421

>  <SCORE.INTER>
-48.8883

>  <SCORE.INTER.CONST>
1

>  <SCORE.INTER.POLAR>
-5.42037

>  <SCORE.INTER.ROT>
2

>  <SCORE.INTER.SOLV>
18.9361

>  <SCORE.INTER.VDW>
-25.7697

>  <SCORE.INTER.norm>
-3.76064

>  <SCORE.INTRA>
-0.45379

>  <SCORE.INTRA.DIHEDRAL>
0.75254

>  <SCORE.INTRA.DIHEDRAL.0>
1.76676

>  <SCORE.INTRA.POLAR>
-0.386087

>  <SCORE.INTRA.POLAR.0>
-0.472211

>  <SCORE.INTRA.REPUL>
0

>  <SCORE.INTRA.REPUL.0>
0

>  <SCORE.INTRA.SOLV>
0.135297

>  <SCORE.INTRA.SOLV.lig_0>
-22.5855

>  <SCORE.INTRA.VDW>
0.414986

>  <SCORE.INTRA.VDW.0>
-0.733656

>  <SCORE.INTRA.norm>
-0.0349069

>  <SCORE.RESTR>
0

>  <SCORE.RESTR.CAVITY>
0

>  <SCORE.RESTR.norm>
0

>  <SCORE.SYSTEM>
0

>  <SCORE.SYSTEM.CONST>
0

>  <SCORE.SYSTEM.DIHEDRAL>
0

>  <SCORE.SYSTEM.SOLV>
0

>  <SCORE.SYSTEM.norm>
0

>  <SCORE.heavy>
13

>  <SCORE.norm>
-3.79555

>  <RMSD>
0.661

$$$$
lig.pdb
 OpenBabel11021811453D
libRbt.so/2013.1/901 2013/11/27
 13 14  0  0  0  0  0  0  0  0999 V2000
  -10.8197    4.5261   -7.1440 N   0  0  0  0  0  0  0  0  0  0  0  0
  -10.9500    3.7751   -8.2777 C   0  0  0  0  0  0  0  0  0  0  0  0
   -9.8778    3.3434   -8.9172 N   0  0  0  0  0  0  0  0  0  0  0  0
   -8.6106    3.6238   -8.4848 C   0  0  0  0  0  0  0  0  0  0  0  0
   -8.4176    4.4033   -7.3185 C   0  0  0  0  0  0  0  0  0  0  0  0
   -9.5819    4.8646   -6.6334 C   0  0  0  0  0  0  0  0  0  0  0  0
   -9.4863    5.5412   -5.6245 O   0  0  0  0  0  0  0  0  0  0  0  0
   -6.9668    4.5284   -7.1358 C   0  0  0  0  0  0  0  0  0  0  0  0
   -6.2374    5.2777   -6.0521 C   0  0  0  0  0  0  0  0  0  0  0  0
   -7.0296    6.4449   -5.6424 N   0  0  0  0  0  0  0  0  0  0  0  0
   -6.4066    3.8407   -8.1385 C   0  0  0  0  0  0  0  0  0  0  0  0
   -7.3724    3.3053   -8.9485 N   0  0  0  0  0  0  0  0  0  0  0  0
  -12.1999    3.4699   -8.7517 N   0  0  0  0  0  0  0  0  0  0  0  0
  1  6  1  0  0  0  0
  2  1  1  0  0  0  0
  3  4  1  0  0  0  0
  3  2  2  0  0  0  0
  4  5  2  0  0  0  0
  5  8  1  0  0  0  0
  5  6  1  0  0  0  0
  6  7  2  0  0  0  0
  8  9  1  0  0  0  0
  9 10  1  0  0  0  0
 11  8  2  0  0  0  0
 12  4  1  0  0  0  0
 12 11  1  0  0  0  0
 13  2  1  0  0  0  0
M  END
>  <CHROM.1>
-31.63716867,-124.72925659,-8.81316845,4.41392609,-7.43934870,2.62234722
-0.01383832,-2.23597902

>  <Name>
lig.pdb

>  <RI>
1.51961e+07

>  <Rbt.Current_Directory>
/home/itssahil/PROJECTS/Mol_Feturizer/New_Systems/rnas/2miy

>  <Rbt.Executable>
rbdock ($Id: //depot/dev/client3/rdock/2013.1/src/exe/rbdock.cxx#4 $)

>  <Rbt.Library>
libRbt.so (2013.1, Build901 2013/11/27)

>  <Rbt.Parameter_File>
/export/apps/rDock/src/rDock_2013.1_src/data/scripts/dock_solv.prm

>  <Rbt.Receptor>
prm/pocket_docking_3.prm

>  <SCORE>
-49.2578

>  <SCORE.INTER>
-48.7606

>  <SCORE.INTER.CONST>
1

>  <SCORE.INTER.POLAR>
-5.38959

>  <SCORE.INTER.ROT>
2

>  <SCORE.INTER.SOLV>
18.9432

>  <SCORE.INTER.VDW>
-25.7895

>  <SCORE.INTER.norm>
-3.75081

>  <SCORE.INTRA>
-0.527308

>  <SCORE.INTRA.DIHEDRAL>
0.661981

>  <SCORE.INTRA.DIHEDRAL.0>
1.76676

>  <SCORE.INTRA.POLAR>
-0.37314

>  <SCORE.INTRA.POLAR.0>
-0.472211

>  <SCORE.INTRA.REPUL>
0

>  <SCORE.INTRA.REPUL.0>
0

>  <SCORE.INTRA.SOLV>
0.120965

>  <SCORE.INTRA.SOLV.lig_0>
-22.5855

>  <SCORE.INTRA.VDW>
0.349895

>  <SCORE.INTRA.VDW.0>
-0.733656

>  <SCORE.INTRA.norm>
-0.0405622

>  <SCORE.RESTR>
0.0300573

>  <SCORE.RESTR.CAVITY>
0.0300573

>  <SCORE.RESTR.norm>
0.0023121

>  <SCORE.SYSTEM>
0

>  <SCORE.SYSTEM.CONST>
0

>  <SCORE.SYSTEM.DIHEDRAL>
0

>  <SCORE.SYSTEM.SOLV>
0

>  <SCORE.SYSTEM.norm>
0

>  <SCORE.heavy>
13

>  <SCORE.norm>
-3.78906

>  <RMSD>
0.661

$$$$
lig.pdb
 OpenBabel11021811453D
libRbt.so/2013.1/901 2013/11/27
 13 14  0  0  0  0  0  0  0  0999 V2000
  -10.8190    4.5340   -7.1404 N   0  0  0  0  0  0  0  0  0  0  0  0
  -10.9515    3.7826   -8.2737 C   0  0  0  0  0  0  0  0  0  0  0  0
   -9.8805    3.3492   -8.9141 N   0  0  0  0  0  0  0  0  0  0  0  0
   -8.6125    3.6280   -8.4830 C   0  0  0  0  0  0  0  0  0  0  0  0
   -8.4173    4.4077   -7.3172 C   0  0  0  0  0  0  0  0  0  0  0  0
   -9.5803    4.8708   -6.6312 C   0  0  0  0  0  0  0  0  0  0  0  0
   -9.4827    5.5477   -5.6226 O   0  0  0  0  0  0  0  0  0  0  0  0
   -6.9661    4.5308   -7.1360 C   0  0  0  0  0  0  0  0  0  0  0  0
   -6.2346    5.2796   -6.0534 C   0  0  0  0  0  0  0  0  0  0  0  0
   -7.0279    6.4442   -5.6386 N   0  0  0  0  0  0  0  0  0  0  0  0
   -6.4079    3.8420   -8.1390 C   0  0  0  0  0  0  0  0  0  0  0  0
   -7.3752    3.3076   -8.9479 N   0  0  0  0  0  0  0  0  0  0  0  0
  -12.2022    3.4790   -8.7463 N   0  0  0  0  0  0  0  0  0  0  0  0
  1  6  1  0  0  0  0
  2  1  1  0  0  0  0
  3  4  1  0  0  0  0
  3  2  2  0  0  0  0
  4  5  2  0  0  0  0
  5  8  1  0  0  0  0
  5  6  1  0  0  0  0
  6  7  2  0  0  0  0
  8  9  1  0  0  0  0
  9 10  1  0  0  0  0
 11  8  2  0  0  0  0
 12  4  1  0  0  0  0
 12 11  1  0  0  0  0
 13  2  1  0  0  0  0
M  END
>  <CHROM.1>
-31.35058828,58.14473984,-8.81327676,4.41847020,-7.43740992,2.62399107,-0.01323347
-2.23585989

>  <Name>
lig.pdb

>  <RI>
1.82164e+07

>  <Rbt.Current_Directory>
/home/itssahil/PROJECTS/Mol_Feturizer/New_Systems/rnas/2miy

>  <Rbt.Executable>
rbdock ($Id: //depot/dev/client3/rdock/2013.1/src/exe/rbdock.cxx#4 $)

>  <Rbt.Library>
libRbt.so (2013.1, Build901 2013/11/27)

>  <Rbt.Parameter_File>
/export/apps/rDock/src/rDock_2013.1_src/data/scripts/dock_solv.prm

>  <Rbt.Receptor>
prm/blind_docking_80.prm

>  <SCORE>
-49.2692

>  <SCORE.INTER>
-48.7818

>  <SCORE.INTER.CONST>
1

>  <SCORE.INTER.POLAR>
-5.42039

>  <SCORE.INTER.ROT>
2

>  <SCORE.INTER.SOLV>
18.9269

>  <SCORE.INTER.VDW>
-25.6956

>  <SCORE.INTER.norm>
-3.75245

>  <SCORE.INTRA>
-0.516738

>  <SCORE.INTRA.DIHEDRAL>
0.687293

>  <SCORE.INTRA.DIHEDRAL.0>
1.76676

>  <SCORE.INTRA.POLAR>
-0.37072

>  <SCORE.INTRA.POLAR.0>
-0.472211

>  <SCORE.INTRA.REPUL>
0

>  <SCORE.INTRA.REPUL.0>
0

>  <SCORE.INTRA.SOLV>
0.120303

>  <SCORE.INTRA.SOLV.lig_0>
-22.5855

>  <SCORE.INTRA.VDW>
0.339913

>  <SCORE.INTRA.VDW.0>
-0.733656

>  <SCORE.INTRA.norm>
-0.039749

>  <SCORE.RESTR>
0.0293272

>  <SCORE.RESTR.CAVITY>
0.0293272

>  <SCORE.RESTR.norm>
0.00225594

>  <SCORE.SYSTEM>
0

>  <SCORE.SYSTEM.CONST>
0

>  <SCORE.SYSTEM.DIHEDRAL>
0

>  <SCORE.SYSTEM.SOLV>
0

>  <SCORE.SYSTEM.norm>
0

>  <SCORE.heavy>
13

>  <SCORE.norm>
-3.78994

>  <RMSD>
0.662

$$$$
lig.pdb
 OpenBabel11021811453D
libRbt.so/2013.1/901 2013/11/27
 13 14  0  0  0  0  0  0  0  0999 V2000
  -10.8191    4.5334   -7.1411 N   0  0  0  0  0  0  0  0  0  0  0  0
  -10.9514    3.7834   -8.2752 C   0  0  0  0  0  0  0  0  0  0  0  0
   -9.8804    3.3506   -8.9159 N   0  0  0  0  0  0  0  0  0  0  0  0
   -8.6124    3.6286   -8.4842 C   0  0  0  0  0  0  0  0  0  0  0  0
   -8.4173    4.4070   -7.3175 C   0  0  0  0  0  0  0  0  0  0  0  0
   -9.5804    4.8695   -6.6312 C   0  0  0  0  0  0  0  0  0  0  0  0
   -9.4829    5.5452   -5.6218 O   0  0  0  0  0  0  0  0  0  0  0  0
   -6.9661    4.5298   -7.1358 C   0  0  0  0  0  0  0  0  0  0  0  0
   -6.2348    5.2772   -6.0522 C   0  0  0  0  0  0  0  0  0  0  0  0
   -7.0258    6.4442   -5.6397 N   0  0  0  0  0  0  0  0  0  0  0  0
   -6.4078    3.8420   -8.1395 C   0  0  0  0  0  0  0  0  0  0  0  0
   -7.3750    3.3087   -8.9492 N   0  0  0  0  0  0  0  0  0  0  0  0
  -12.2021    3.4804   -8.7485 N   0  0  0  0  0  0  0  0  0  0  0  0
  1  6  1  0  0  0  0
  2  1  1  0  0  0  0
  3  4  1  0  0  0  0
  3  2  2  0  0  0  0
  4  5  2  0  0  0  0
  5  8  1  0  0  0  0
  5  6  1  0  0  0  0
  6  7  2  0  0  0  0
  8  9  1  0  0  0  0
  9 10  1  0  0  0  0
 11  8  2  0  0  0  0
 12  4  1  0  0  0  0
 12 11  1  0  0  0  0
 13  2  1  0  0  0  0
M  END
>  <CHROM.1>
-31.56029149,56.13878877,-8.81306947,4.41824652,-7.43808428,2.62402364,-0.01309599
-2.23514848

>  <Name>
lig.pdb

>  <RI>
1.82164e+07

>  <Rbt.Current_Directory>
/home/itssahil/PROJECTS/Mol_Feturizer/New_Systems/rnas/2miy

>  <Rbt.Executable>
rbdock ($Id: //depot/dev/client3/rdock/2013.1/src/exe/rbdock.cxx#4 $)

>  <Rbt.Library>
libRbt.so (2013.1, Build901 2013/11/27)

>  <Rbt.Parameter_File>
/export/apps/rDock/src/rDock_2013.1_src/data/scripts/dock_solv.prm

>  <Rbt.Receptor>
prm/blind_docking_80.prm

>  <SCORE>
-49.2604

>  <SCORE.INTER>
-48.7725

>  <SCORE.INTER.CONST>
1

>  <SCORE.INTER.POLAR>
-5.41766

>  <SCORE.INTER.ROT>
2

>  <SCORE.INTER.SOLV>
18.9394

>  <SCORE.INTER.VDW>
-25.7026

>  <SCORE.INTER.norm>
-3.75173

>  <SCORE.INTRA>
-0.516751

>  <SCORE.INTRA.DIHEDRAL>
0.678422

>  <SCORE.INTRA.DIHEDRAL.0>
1.76676

>  <SCORE.INTRA.POLAR>
-0.373354

>  <SCORE.INTRA.POLAR.0>
-0.472211

>  <SCORE.INTRA.REPUL>
0

>  <SCORE.INTRA.REPUL.0>
0

>  <SCORE.INTRA.SOLV>
0.122328

>  <SCORE.INTRA.SOLV.lig_0>
-22.5855

>  <SCORE.INTRA.VDW>
0.352277

>  <SCORE.INTRA.VDW.0>
-0.733656

>  <SCORE.INTRA.norm>
-0.0397501

>  <SCORE.RESTR>
0.0289153

>  <SCORE.RESTR.CAVITY>
0.0289153

>  <SCORE.RESTR.norm>
0.00222425

>  <SCORE.SYSTEM>
0

>  <SCORE.SYSTEM.CONST>
0

>  <SCORE.SYSTEM.DIHEDRAL>
0

>  <SCORE.SYSTEM.SOLV>
0

>  <SCORE.SYSTEM.norm>
0

>  <SCORE.heavy>
13

>  <SCORE.norm>
-3.78926

>  <RMSD>
0.662

$$$$
lig.pdb
 OpenBabel11021811453D
libRbt.so/2013.1/901 2013/11/27
 13 14  0  0  0  0  0  0  0  0999 V2000
  -10.8191    4.5315   -7.1460 N   0  0  0  0  0  0  0  0  0  0  0  0
  -10.9497    3.7804   -8.2796 C   0  0  0  0  0  0  0  0  0  0  0  0
   -9.8777    3.3478   -8.9189 N   0  0  0  0  0  0  0  0  0  0  0  0
   -8.6104    3.6273   -8.4863 C   0  0  0  0  0  0  0  0  0  0  0  0
   -8.4170    4.4069   -7.3201 C   0  0  0  0  0  0  0  0  0  0  0  0
   -9.5811    4.8691   -6.6353 C   0  0  0  0  0  0  0  0  0  0  0  0
   -9.4852    5.5459   -5.6264 O   0  0  0  0  0  0  0  0  0  0  0  0
   -6.9661    4.5310   -7.1372 C   0  0  0  0  0  0  0  0  0  0  0  0
   -6.2364    5.2800   -6.0535 C   0  0  0  0  0  0  0  0  0  0  0  0
   -7.0404    6.4321   -5.6249 N   0  0  0  0  0  0  0  0  0  0  0  0
   -6.4063    3.8428   -8.1397 C   0  0  0  0  0  0  0  0  0  0  0  0
   -7.3723    3.3079   -8.9498 N   0  0  0  0  0  0  0  0  0  0  0  0
  -12.1997    3.4760   -8.7538 N   0  0  0  0  0  0  0  0  0  0  0  0
  1  6  1  0  0  0  0
  2  1  1  0  0  0  0
  3  4  1  0  0  0  0
  3  2  2  0  0  0  0
  4  5  2  0  0  0  0
  5  8  1  0  0  0  0
  5  6  1  0  0  0  0
  6  7  2  0  0  0  0
  8  9  1  0  0  0  0
  9 10  1  0  0  0  0
 11  8  2  0  0  0  0
 12  4  1  0  0  0  0
 12 11  1  0  0  0  0
 13  2  1  0  0  0  0
M  END
>  <CHROM.1>
-30.48463041,-126.03654867,-8.81373813,4.41635335,-7.43922208,2.62181491
-0.01244378,-2.23399971

>  <Name>
lig.pdb

>  <RI>
4.2128e+07

>  <Rbt.Current_Directory>
/home/itssahil/PROJECTS/Mol_Feturizer/New_Systems/rnas/2miy

>  <Rbt.Executable>
rbdock ($Id: //depot/dev/client3/rdock/2013.1/src/exe/rbdock.cxx#4 $)

>  <Rbt.Library>
libRbt.so (2013.1, Build901 2013/11/27)

>  <Rbt.Parameter_File>
/export/apps/rDock/src/rDock_2013.1_src/data/scripts/dock_solv.prm

>  <Rbt.Receptor>
prm/pocket_docking_5.prm

>  <SCORE>
-49.2522

>  <SCORE.INTER>
-48.8133

>  <SCORE.INTER.CONST>
1

>  <SCORE.INTER.POLAR>
-5.4002

>  <SCORE.INTER.ROT>
2

>  <SCORE.INTER.SOLV>
18.9168

>  <SCORE.INTER.VDW>
-25.7805

>  <SCORE.INTER.norm>
-3.75487

>  <SCORE.INTRA>
-0.467505

>  <SCORE.INTRA.DIHEDRAL>
0.726201

>  <SCORE.INTRA.DIHEDRAL.0>
1.76676

>  <SCORE.INTRA.POLAR>
-0.385543

>  <SCORE.INTRA.POLAR.0>
-0.472211

>  <SCORE.INTRA.REPUL>
0

>  <SCORE.INTRA.REPUL.0>
0

>  <SCORE.INTRA.SOLV>
0.133909

>  <SCORE.INTRA.SOLV.lig_0>
-22.5855

>  <SCORE.INTRA.VDW>
0.413287

>  <SCORE.INTRA.VDW.0>
-0.733656

>  <SCORE.INTRA.norm>
-0.0359619

>  <SCORE.RESTR>
0.0286652

>  <SCORE.RESTR.CAVITY>
0.0286652

>  <SCORE.RESTR.norm>
0.00220501

>  <SCORE.SYSTEM>
0

>  <SCORE.SYSTEM.CONST>
0

>  <SCORE.SYSTEM.DIHEDRAL>
0

>  <SCORE.SYSTEM.SOLV>
0

>  <SCORE.SYSTEM.norm>
0

>  <SCORE.heavy>
13

>  <SCORE.norm>
-3.78863

>  <RMSD>
0.662

$$$$
lig.pdb
 OpenBabel11021811453D
libRbt.so/2013.1/901 2013/11/27
 13 14  0  0  0  0  0  0  0  0999 V2000
  -10.8227    4.5237   -7.1382 N   0  0  0  0  0  0  0  0  0  0  0  0
  -10.9601    3.7532   -8.2580 C   0  0  0  0  0  0  0  0  0  0  0  0
   -9.8919    3.3089   -8.8955 N   0  0  0  0  0  0  0  0  0  0  0  0
   -8.6220    3.5947   -8.4748 C   0  0  0  0  0  0  0  0  0  0  0  0
   -8.4217    4.3941   -7.3232 C   0  0  0  0  0  0  0  0  0  0  0  0
   -9.5817    4.8690   -6.6402 C   0  0  0  0  0  0  0  0  0  0  0  0
   -9.4797    5.5629   -5.6436 O   0  0  0  0  0  0  0  0  0  0  0  0
   -6.9697    4.5201   -7.1504 C   0  0  0  0  0  0  0  0  0  0  0  0
   -6.2335    5.2870   -6.0838 C   0  0  0  0  0  0  0  0  0  0  0  0
   -7.0349    6.4463   -5.6697 N   0  0  0  0  0  0  0  0  0  0  0  0
   -6.4159    3.8143   -8.1441 C   0  0  0  0  0  0  0  0  0  0  0  0
   -7.3868    3.2664   -8.9395 N   0  0  0  0  0  0  0  0  0  0  0  0
  -12.2129    3.4418   -8.7200 N   0  0  0  0  0  0  0  0  0  0  0  0
  1  6  1  0  0  0  0
  2  1  1  0  0  0  0
  3  4  1  0  0  0  0
  3  2  2  0  0  0  0
  4  5  2  0  0  0  0
  5  8  1  0  0  0  0
  5  6  1  0  0  0  0
  6  7  2  0  0  0  0
  8  9  1  0  0  0  0
  9 10  1  0  0  0  0
 11  8  2  0  0  0  0
 12  4  1  0  0  0  0
 12 11  1  0  0  0  0
 13  2  1  0  0  0  0
M  END
>  <CHROM.1>
-30.42924777,56.03335694,-8.81914230,4.40175974,-7.44041727,2.62675190,-0.01527069
-2.25109737

>  <Name>
lig.pdb

>  <RI>
2.95488e+07

>  <Rbt.Current_Directory>
/home/itssahil/PROJECTS/Mol_Feturizer/New_Systems/rnas/2miy

>  <Rbt.Executable>
rbdock ($Id: //depot/dev/client3/rdock/2013.1/src/exe/rbdock.cxx#4 $)

>  <Rbt.Library>
libRbt.so (2013.1, Build901 2013/11/27)

>  <Rbt.Parameter_File>
/export/apps/rDock/src/rDock_2013.1_src/data/scripts/dock_solv.prm

>  <Rbt.Receptor>
prm/blind_docking_20.prm

>  <SCORE>
-49.3633

>  <SCORE.INTER>
-48.8976

>  <SCORE.INTER.CONST>
1

>  <SCORE.INTER.POLAR>
-5.44564

>  <SCORE.INTER.ROT>
2

>  <SCORE.INTER.SOLV>
18.9508

>  <SCORE.INTER.VDW>
-25.6965

>  <SCORE.INTER.norm>
-3.76135

>  <SCORE.INTRA>
-0.465764

>  <SCORE.INTRA.DIHEDRAL>
0.743595

>  <SCORE.INTRA.DIHEDRAL.0>
1.76676

>  <SCORE.INTRA.POLAR>
-0.383718

>  <SCORE.INTRA.POLAR.0>
-0.472211

>  <SCORE.INTRA.REPUL>
0

>  <SCORE.INTRA.REPUL.0>
0

>  <SCORE.INTRA.SOLV>
0.132741

>  <SCORE.INTRA.SOLV.lig_0>
-22.5855

>  <SCORE.INTRA.VDW>
0.40071

>  <SCORE.INTRA.VDW.0>
-0.733656

>  <SCORE.INTRA.norm>
-0.035828

>  <SCORE.RESTR>
0

>  <SCORE.RESTR.CAVITY>
0

>  <SCORE.RESTR.norm>
0

>  <SCORE.SYSTEM>
0

>  <SCORE.SYSTEM.CONST>
0

>  <SCORE.SYSTEM.DIHEDRAL>
0

>  <SCORE.SYSTEM.SOLV>
0

>  <SCORE.SYSTEM.norm>
0

>  <SCORE.heavy>
13

>  <SCORE.norm>
-3.79718

>  <RMSD>
0.663

$$$$
lig.pdb
 OpenBabel11021811453D
libRbt.so/2013.1/901 2013/11/27
 13 14  0  0  0  0  0  0  0  0999 V2000
  -10.8434    4.4632   -7.1158 N   0  0  0  0  0  0  0  0  0  0  0  0
  -10.9685    3.7157   -8.2525 C   0  0  0  0  0  0  0  0  0  0  0  0
   -9.8933    3.3026   -8.8992 N   0  0  0  0  0  0  0  0  0  0  0  0
   -8.6281    3.5991   -8.4716 C   0  0  0  0  0  0  0  0  0  0  0  0
   -8.4407    4.3757   -7.3024 C   0  0  0  0  0  0  0  0  0  0  0  0
   -9.6081    4.8169   -6.6096 C   0  0  0  0  0  0  0  0  0  0  0  0
   -9.5173    5.4900   -5.5978 O   0  0  0  0  0  0  0  0  0  0  0  0
   -6.9909    4.5208   -7.1261 C   0  0  0  0  0  0  0  0  0  0  0  0
   -6.2671    5.2753   -6.0424 C   0  0  0  0  0  0  0  0  0  0  0  0
   -6.9673    5.0927   -4.7641 N   0  0  0  0  0  0  0  0  0  0  0  0
   -6.4259    3.8460   -8.1349 C   0  0  0  0  0  0  0  0  0  0  0  0
   -7.3878    3.3007   -8.9428 N   0  0  0  0  0  0  0  0  0  0  0  0
  -12.2161    3.3949   -8.7220 N   0  0  0  0  0  0  0  0  0  0  0  0
  1  6  1  0  0  0  0
  2  1  1  0  0  0  0
  3  4  1  0  0  0  0
  3  2  2  0  0  0  0
  4  5  2  0  0  0  0
  5  8  1  0  0  0  0
  5  6  1  0  0  0  0
  6  7  2  0  0  0  0
  8  9  1  0  0  0  0
  9 10  1  0  0  0  0
 11  8  2  0  0  0  0
 12  4  1  0  0  0  0
 12 11  1  0  0  0  0
 13  2  1  0  0  0  0
M  END
>  <CHROM.1>
38.59035387,-63.23252645,-8.82696499,4.25663311,-7.34125478,2.62250394,0.00701224
-2.07765861

>  <Name>
lig.pdb

>  <RI>
2.60406e+07

>  <Rbt.Current_Directory>
/home/itssahil/PROJECTS/Mol_Feturizer/New_Systems/rnas/2miy

>  <Rbt.Executable>
rbdock ($Id: //depot/dev/client3/rdock/2013.1/src/exe/rbdock.cxx#4 $)

>  <Rbt.Library>
libRbt.so (2013.1, Build901 2013/11/27)

>  <Rbt.Parameter_File>
/export/apps/rDock/src/rDock_2013.1_src/data/scripts/dock_solv.prm

>  <Rbt.Receptor>
prm/pocket_docking_7.prm

>  <SCORE>
-48.1355

>  <SCORE.INTER>
-47.5804

>  <SCORE.INTER.CONST>
1

>  <SCORE.INTER.POLAR>
-5.25843

>  <SCORE.INTER.ROT>
2

>  <SCORE.INTER.SOLV>
17.3241

>  <SCORE.INTER.VDW>
-24.9002

>  <SCORE.INTER.norm>
-3.66003

>  <SCORE.INTRA>
-0.705007

>  <SCORE.INTRA.DIHEDRAL>
0.308766

>  <SCORE.INTRA.DIHEDRAL.0>
1.76676

>  <SCORE.INTRA.POLAR>
-0.293981

>  <SCORE.INTRA.POLAR.0>
-0.472211

>  <SCORE.INTRA.REPUL>
0

>  <SCORE.INTRA.REPUL.0>
0

>  <SCORE.INTRA.SOLV>
0.0605519

>  <SCORE.INTRA.SOLV.lig_0>
-22.5855

>  <SCORE.INTRA.VDW>
0.10987

>  <SCORE.INTRA.VDW.0>
-0.733656

>  <SCORE.INTRA.norm>
-0.0542313

>  <SCORE.RESTR>
0.149886

>  <SCORE.RESTR.CAVITY>
0.149886

>  <SCORE.RESTR.norm>
0.0115297

>  <SCORE.SYSTEM>
0

>  <SCORE.SYSTEM.CONST>
0

>  <SCORE.SYSTEM.DIHEDRAL>
0

>  <SCORE.SYSTEM.SOLV>
0

>  <SCORE.SYSTEM.norm>
0

>  <SCORE.heavy>
13

>  <SCORE.norm>
-3.70273

>  <RMSD>
0.663

$$$$
lig.pdb
 OpenBabel11021811453D
libRbt.so/2013.1/901 2013/11/27
 13 14  0  0  0  0  0  0  0  0999 V2000
  -10.8447    4.4633   -7.1177 N   0  0  0  0  0  0  0  0  0  0  0  0
  -10.9694    3.7158   -8.2544 C   0  0  0  0  0  0  0  0  0  0  0  0
   -9.8940    3.3026   -8.9007 N   0  0  0  0  0  0  0  0  0  0  0  0
   -8.6290    3.5991   -8.4727 C   0  0  0  0  0  0  0  0  0  0  0  0
   -8.4419    4.3758   -7.3035 C   0  0  0  0  0  0  0  0  0  0  0  0
   -9.6096    4.8170   -6.6111 C   0  0  0  0  0  0  0  0  0  0  0  0
   -9.5191    5.4902   -5.5993 O   0  0  0  0  0  0  0  0  0  0  0  0
   -6.9922    4.5210   -7.1268 C   0  0  0  0  0  0  0  0  0  0  0  0
   -6.2688    5.2756   -6.0428 C   0  0  0  0  0  0  0  0  0  0  0  0
   -6.9647    5.0863   -4.7632 N   0  0  0  0  0  0  0  0  0  0  0  0
   -6.4268    3.8462   -8.1353 C   0  0  0  0  0  0  0  0  0  0  0  0
   -7.3885    3.3008   -8.9435 N   0  0  0  0  0  0  0  0  0  0  0  0
  -12.2169    3.3949   -8.7242 N   0  0  0  0  0  0  0  0  0  0  0  0
  1  6  1  0  0  0  0
  2  1  1  0  0  0  0
  3  4  1  0  0  0  0
  3  2  2  0  0  0  0
  4  5  2  0  0  0  0
  5  8  1  0  0  0  0
  5  6  1  0  0  0  0
  6  7  2  0  0  0  0
  8  9  1  0  0  0  0
  9 10  1  0  0  0  0
 11  8  2  0  0  0  0
 12  4  1  0  0  0  0
 12 11  1  0  0  0  0
 13  2  1  0  0  0  0
M  END
>  <CHROM.1>
38.93293301,115.76483640,-8.82783922,4.25599845,-7.34238199,2.62271187,0.00739336
-2.07708554

>  <Name>
lig.pdb

>  <RI>
2.60406e+07

>  <Rbt.Current_Directory>
/home/itssahil/PROJECTS/Mol_Feturizer/New_Systems/rnas/2miy

>  <Rbt.Executable>
rbdock ($Id: //depot/dev/client3/rdock/2013.1/src/exe/rbdock.cxx#4 $)

>  <Rbt.Library>
libRbt.so (2013.1, Build901 2013/11/27)

>  <Rbt.Parameter_File>
/export/apps/rDock/src/rDock_2013.1_src/data/scripts/dock_solv.prm

>  <Rbt.Receptor>
prm/pocket_docking_7.prm

>  <SCORE>
-48.1342

>  <SCORE.INTER>
-47.5691

>  <SCORE.INTER.CONST>
1

>  <SCORE.INTER.POLAR>
-5.25643

>  <SCORE.INTER.ROT>
2

>  <SCORE.INTER.SOLV>
17.3275

>  <SCORE.INTER.VDW>
-24.9004

>  <SCORE.INTER.norm>
-3.65916

>  <SCORE.INTRA>
-0.713652

>  <SCORE.INTRA.DIHEDRAL>
0.280716

>  <SCORE.INTRA.DIHEDRAL.0>
1.76676

>  <SCORE.INTRA.POLAR>
-0.289168

>  <SCORE.INTRA.POLAR.0>
-0.472211

>  <SCORE.INTRA.REPUL>
0

>  <SCORE.INTRA.REPUL.0>
0

>  <SCORE.INTRA.SOLV>
0.0582829

>  <SCORE.INTRA.SOLV.lig_0>
-22.5855

>  <SCORE.INTRA.VDW>
0.100019

>  <SCORE.INTRA.VDW.0>
-0.733656

>  <SCORE.INTRA.norm>
-0.0548963

>  <SCORE.RESTR>
0.148467

>  <SCORE.RESTR.CAVITY>
0.148467

>  <SCORE.RESTR.norm>
0.0114205

>  <SCORE.SYSTEM>
0

>  <SCORE.SYSTEM.CONST>
0

>  <SCORE.SYSTEM.DIHEDRAL>
0

>  <SCORE.SYSTEM.SOLV>
0

>  <SCORE.SYSTEM.norm>
0

>  <SCORE.heavy>
13

>  <SCORE.norm>
-3.70263

>  <RMSD>
0.664

$$$$
lig.pdb
 OpenBabel11021811453D
libRbt.so/2013.1/901 2013/11/27
 13 14  0  0  0  0  0  0  0  0999 V2000
  -10.8224    4.5211   -7.1404 N   0  0  0  0  0  0  0  0  0  0  0  0
  -10.9574    3.7531   -8.2621 C   0  0  0  0  0  0  0  0  0  0  0  0
   -9.8879    3.3135   -8.9008 N   0  0  0  0  0  0  0  0  0  0  0  0
   -8.6189    3.6021   -8.4792 C   0  0  0  0  0  0  0  0  0  0  0  0
   -8.4210    4.3991   -7.3256 C   0  0  0  0  0  0  0  0  0  0  0  0
   -9.5824    4.8688   -6.6414 C   0  0  0  0  0  0  0  0  0  0  0  0
   -9.4826    5.5605   -5.6431 O   0  0  0  0  0  0  0  0  0  0  0  0
   -6.9694    4.5290   -7.1524 C   0  0  0  0  0  0  0  0  0  0  0  0
   -6.2356    5.2954   -6.0838 C   0  0  0  0  0  0  0  0  0  0  0  0
   -7.0387    6.4535   -5.6696 N   0  0  0  0  0  0  0  0  0  0  0  0
   -6.4135    3.8274   -8.1478 C   0  0  0  0  0  0  0  0  0  0  0  0
   -7.3827    3.2786   -8.9447 N   0  0  0  0  0  0  0  0  0  0  0  0
  -12.2093    3.4391   -8.7250 N   0  0  0  0  0  0  0  0  0  0  0  0
  1  6  1  0  0  0  0
  2  1  1  0  0  0  0
  3  4  1  0  0  0  0
  3  2  2  0  0  0  0
  4  5  2  0  0  0  0
  5  8  1  0  0  0  0
  5  6  1  0  0  0  0
  6  7  2  0  0  0  0
  8  9  1  0  0  0  0
  9 10  1  0  0  0  0
 11  8  2  0  0  0  0
 12  4  1  0  0  0  0
 12 11  1  0  0  0  0
 13  2  1  0  0  0  0
M  END
>  <CHROM.1>
-30.59591605,57.39794020,-8.81831959,4.40609274,-7.44305971,2.62497244,-0.01768220
-2.24886544

>  <Name>
lig.pdb

>  <RI>
3.47783e+07

>  <Rbt.Current_Directory>
/home/itssahil/PROJECTS/Mol_Feturizer/New_Systems/rnas/2miy

>  <Rbt.Executable>
rbdock ($Id: //depot/dev/client3/rdock/2013.1/src/exe/rbdock.cxx#4 $)

>  <Rbt.Library>
libRbt.so (2013.1, Build901 2013/11/27)

>  <Rbt.Parameter_File>
/export/apps/rDock/src/rDock_2013.1_src/data/scripts/dock_solv.prm

>  <Rbt.Receptor>
prm/pocket_docking_8.prm

>  <SCORE>
-49.3581

>  <SCORE.INTER>
-48.8801

>  <SCORE.INTER.CONST>
1

>  <SCORE.INTER.POLAR>
-5.41246

>  <SCORE.INTER.ROT>
2

>  <SCORE.INTER.SOLV>
18.9576

>  <SCORE.INTER.VDW>
-25.7977

>  <SCORE.INTER.norm>
-3.76001

>  <SCORE.INTRA>
-0.478037

>  <SCORE.INTRA.DIHEDRAL>
0.731858

>  <SCORE.INTRA.DIHEDRAL.0>
1.76676

>  <SCORE.INTRA.POLAR>
-0.378407

>  <SCORE.INTRA.POLAR.0>
-0.472211

>  <SCORE.INTRA.REPUL>
0

>  <SCORE.INTRA.REPUL.0>
0

>  <SCORE.INTRA.SOLV>
0.128575

>  <SCORE.INTRA.SOLV.lig_0>
-22.5855

>  <SCORE.INTRA.VDW>
0.378332

>  <SCORE.INTRA.VDW.0>
-0.733656

>  <SCORE.INTRA.norm>
-0.0367721

>  <SCORE.RESTR>
0

>  <SCORE.RESTR.CAVITY>
0

>  <SCORE.RESTR.norm>
0

>  <SCORE.SYSTEM>
0

>  <SCORE.SYSTEM.CONST>
0

>  <SCORE.SYSTEM.DIHEDRAL>
0

>  <SCORE.SYSTEM.SOLV>
0

>  <SCORE.SYSTEM.norm>
0

>  <SCORE.heavy>
13

>  <SCORE.norm>
-3.79678

>  <RMSD>
0.664

$$$$
lig.pdb
 OpenBabel11021811453D
libRbt.so/2013.1/901 2013/11/27
 13 14  0  0  0  0  0  0  0  0999 V2000
  -10.8218    4.5267   -7.1387 N   0  0  0  0  0  0  0  0  0  0  0  0
  -10.9589    3.7585   -8.2601 C   0  0  0  0  0  0  0  0  0  0  0  0
   -9.8906    3.3155   -8.8983 N   0  0  0  0  0  0  0  0  0  0  0  0
   -8.6208    3.6007   -8.4768 C   0  0  0  0  0  0  0  0  0  0  0  0
   -8.4208    4.3977   -7.3235 C   0  0  0  0  0  0  0  0  0  0  0  0
   -9.5810    4.8711   -6.6397 C   0  0  0  0  0  0  0  0  0  0  0  0
   -9.4792    5.5630   -5.6418 O   0  0  0  0  0  0  0  0  0  0  0  0
   -6.9689    4.5236   -7.1502 C   0  0  0  0  0  0  0  0  0  0  0  0
   -6.2329    5.2884   -6.0819 C   0  0  0  0  0  0  0  0  0  0  0  0
   -7.0343    6.4471   -5.6661 N   0  0  0  0  0  0  0  0  0  0  0  0
   -6.4148    3.8198   -8.1451 C   0  0  0  0  0  0  0  0  0  0  0  0
   -7.3854    3.2734   -8.9419 N   0  0  0  0  0  0  0  0  0  0  0  0
  -12.2116    3.4478   -8.7229 N   0  0  0  0  0  0  0  0  0  0  0  0
  1  6  1  0  0  0  0
  2  1  1  0  0  0  0
  3  4  1  0  0  0  0
  3  2  2  0  0  0  0
  4  5  2  0  0  0  0
  5  8  1  0  0  0  0
  5  6  1  0  0  0  0
  6  7  2  0  0  0  0
  8  9  1  0  0  0  0
  9 10  1  0  0  0  0
 11  8  2  0  0  0  0
 12  4  1  0  0  0  0
 12 11  1  0  0  0  0
 13  2  1  0  0  0  0
M  END
>  <CHROM.1>
-30.45436357,-124.65343737,-8.81815071,4.40560949,-7.44066731,2.62637153
-0.01522776,-2.24904675

>  <Name>
lig.pdb

>  <RI>
3.47783e+07

>  <Rbt.Current_Directory>
/home/itssahil/PROJECTS/Mol_Feturizer/New_Systems/rnas/2miy

>  <Rbt.Executable>
rbdock ($Id: //depot/dev/client3/rdock/2013.1/src/exe/rbdock.cxx#4 $)

>  <Rbt.Library>
libRbt.so (2013.1, Build901 2013/11/27)

>  <Rbt.Parameter_File>
/export/apps/rDock/src/rDock_2013.1_src/data/scripts/dock_solv.prm

>  <Rbt.Receptor>
prm/pocket_docking_8.prm

>  <SCORE>
-49.3889

>  <SCORE.INTER>
-48.9139

>  <SCORE.INTER.CONST>
1

>  <SCORE.INTER.POLAR>
-5.44488

>  <SCORE.INTER.ROT>
2

>  <SCORE.INTER.SOLV>
18.959

>  <SCORE.INTER.VDW>
-25.7126

>  <SCORE.INTER.norm>
-3.76261

>  <SCORE.INTRA>
-0.474989

>  <SCORE.INTRA.DIHEDRAL>
0.73007

>  <SCORE.INTRA.DIHEDRAL.0>
1.76676

>  <SCORE.INTRA.POLAR>
-0.383521

>  <SCORE.INTRA.POLAR.0>
-0.472211

>  <SCORE.INTRA.REPUL>
0

>  <SCORE.INTRA.REPUL.0>
0

>  <SCORE.INTRA.SOLV>
0.131471

>  <SCORE.INTRA.SOLV.lig_0>
-22.5855

>  <SCORE.INTRA.VDW>
0.398213

>  <SCORE.INTRA.VDW.0>
-0.733656

>  <SCORE.INTRA.norm>
-0.0365376

>  <SCORE.RESTR>
0

>  <SCORE.RESTR.CAVITY>
0

>  <SCORE.RESTR.norm>
0

>  <SCORE.SYSTEM>
0

>  <SCORE.SYSTEM.CONST>
0

>  <SCORE.SYSTEM.DIHEDRAL>
0

>  <SCORE.SYSTEM.SOLV>
0

>  <SCORE.SYSTEM.norm>
0

>  <SCORE.heavy>
13

>  <SCORE.norm>
-3.79914

>  <RMSD>
0.664

$$$$
lig.pdb
 OpenBabel11021811453D
libRbt.so/2013.1/901 2013/11/27
 13 14  0  0  0  0  0  0  0  0999 V2000
  -10.8213    4.5260   -7.1399 N   0  0  0  0  0  0  0  0  0  0  0  0
  -10.9578    3.7568   -8.2606 C   0  0  0  0  0  0  0  0  0  0  0  0
   -9.8892    3.3143   -8.8986 N   0  0  0  0  0  0  0  0  0  0  0  0
   -8.6196    3.6010   -8.4775 C   0  0  0  0  0  0  0  0  0  0  0  0
   -8.4202    4.3992   -7.3249 C   0  0  0  0  0  0  0  0  0  0  0  0
   -9.5807    4.8720   -6.6413 C   0  0  0  0  0  0  0  0  0  0  0  0
   -9.4795    5.5648   -5.6439 O   0  0  0  0  0  0  0  0  0  0  0  0
   -6.9683    4.5265   -7.1519 C   0  0  0  0  0  0  0  0  0  0  0  0
   -6.2330    5.2929   -6.0843 C   0  0  0  0  0  0  0  0  0  0  0  0
   -7.0376    6.4484   -5.6657 N   0  0  0  0  0  0  0  0  0  0  0  0
   -6.4138    3.8225   -8.1463 C   0  0  0  0  0  0  0  0  0  0  0  0
   -7.3840    3.2745   -8.9425 N   0  0  0  0  0  0  0  0  0  0  0  0
  -12.2103    3.4446   -8.7230 N   0  0  0  0  0  0  0  0  0  0  0  0
  1  6  1  0  0  0  0
  2  1  1  0  0  0  0
  3  4  1  0  0  0  0
  3  2  2  0  0  0  0
  4  5  2  0  0  0  0
  5  8  1  0  0  0  0
  5  6  1  0  0  0  0
  6  7  2  0  0  0  0
  8  9  1  0  0  0  0
  9 10  1  0  0  0  0
 11  8  2  0  0  0  0
 12  4  1  0  0  0  0
 12 11  1  0  0  0  0
 13  2  1  0  0  0  0
M  END
>  <CHROM.1>
-30.24498624,56.59971719,-8.81780277,4.40635252,-7.44182448,2.62593442,-0.01594657
-2.24953640

>  <Name>
lig.pdb

>  <RI>
2.95488e+07

>  <Rbt.Current_Directory>
/home/itssahil/PROJECTS/Mol_Feturizer/New_Systems/rnas/2miy

>  <Rbt.Executable>
rbdock ($Id: //depot/dev/client3/rdock/2013.1/src/exe/rbdock.cxx#4 $)

>  <Rbt.Library>
libRbt.so (2013.1, Build901 2013/11/27)

>  <Rbt.Parameter_File>
/export/apps/rDock/src/rDock_2013.1_src/data/scripts/dock_solv.prm

>  <Rbt.Receptor>
prm/blind_docking_20.prm

>  <SCORE>
-49.37

>  <SCORE.INTER>
-48.9153

>  <SCORE.INTER.CONST>
1

>  <SCORE.INTER.POLAR>
-5.43569

>  <SCORE.INTER.ROT>
2

>  <SCORE.INTER.SOLV>
18.9527

>  <SCORE.INTER.VDW>
-25.7421

>  <SCORE.INTER.norm>
-3.76271

>  <SCORE.INTRA>
-0.458008

>  <SCORE.INTRA.DIHEDRAL>
0.753316

>  <SCORE.INTRA.DIHEDRAL.0>
1.76676

>  <SCORE.INTRA.POLAR>
-0.383349

>  <SCORE.INTRA.POLAR.0>
-0.472211

>  <SCORE.INTRA.REPUL>
0

>  <SCORE.INTRA.REPUL.0>
0

>  <SCORE.INTRA.SOLV>
0.133258

>  <SCORE.INTRA.SOLV.lig_0>
-22.5855

>  <SCORE.INTRA.VDW>
0.402093

>  <SCORE.INTRA.VDW.0>
-0.733656

>  <SCORE.INTRA.norm>
-0.0352314

>  <SCORE.RESTR>
0.00333113

>  <SCORE.RESTR.CAVITY>
0.00333113

>  <SCORE.RESTR.norm>
0.000256241

>  <SCORE.SYSTEM>
0

>  <SCORE.SYSTEM.CONST>
0

>  <SCORE.SYSTEM.DIHEDRAL>
0

>  <SCORE.SYSTEM.SOLV>
0

>  <SCORE.SYSTEM.norm>
0

>  <SCORE.heavy>
13

>  <SCORE.norm>
-3.79769

>  <RMSD>
0.665

$$$$
lig.pdb
 OpenBabel11021811453D
libRbt.so/2013.1/901 2013/11/27
 13 14  0  0  0  0  0  0  0  0999 V2000
  -10.8210    4.5286   -7.1392 N   0  0  0  0  0  0  0  0  0  0  0  0
  -10.9580    3.7596   -8.2600 C   0  0  0  0  0  0  0  0  0  0  0  0
   -9.8896    3.3172   -8.8985 N   0  0  0  0  0  0  0  0  0  0  0  0
   -8.6198    3.6038   -8.4778 C   0  0  0  0  0  0  0  0  0  0  0  0
   -8.4199    4.4018   -7.3252 C   0  0  0  0  0  0  0  0  0  0  0  0
   -9.5802    4.8745   -6.6411 C   0  0  0  0  0  0  0  0  0  0  0  0
   -9.4786    5.5672   -5.6436 O   0  0  0  0  0  0  0  0  0  0  0  0
   -6.9680    4.5291   -7.1527 C   0  0  0  0  0  0  0  0  0  0  0  0
   -6.2323    5.2953   -6.0853 C   0  0  0  0  0  0  0  0  0  0  0  0
   -7.0383    6.4485   -5.6636 N   0  0  0  0  0  0  0  0  0  0  0  0
   -6.4139    3.8252   -8.1475 C   0  0  0  0  0  0  0  0  0  0  0  0
   -7.3844    3.2774   -8.9434 N   0  0  0  0  0  0  0  0  0  0  0  0
  -12.2106    3.4475   -8.7220 N   0  0  0  0  0  0  0  0  0  0  0  0
  1  6  1  0  0  0  0
  2  1  1  0  0  0  0
  3  4  1  0  0  0  0
  3  2  2  0  0  0  0
  4  5  2  0  0  0  0
  5  8  1  0  0  0  0
  5  6  1  0  0  0  0
  6  7  2  0  0  0  0
  8  9  1  0  0  0  0
  9 10  1  0  0  0  0
 11  8  2  0  0  0  0
 12  4  1  0  0  0  0
 12 11  1  0  0  0  0
 13  2  1  0  0  0  0
M  END
>  <CHROM.1>
-30.08743454,56.98892985,-8.81779774,4.40877754,-7.44172172,2.62614244,-0.01609248
-2.24905759

>  <Name>
lig.pdb

>  <RI>
0

>  <Rbt.Current_Directory>
/home/itssahil/PROJECTS/Mol_Feturizer/New_Systems/rnas/2miy

>  <Rbt.Executable>
rbdock ($Id: //depot/dev/client3/rdock/2013.1/src/exe/rbdock.cxx#4 $)

>  <Rbt.Library>
libRbt.so (2013.1, Build901 2013/11/27)

>  <Rbt.Parameter_File>
/export/apps/rDock/src/rDock_2013.1_src/data/scripts/dock_solv.prm

>  <Rbt.Receptor>
prm/pocket_docking_2.prm

>  <SCORE>
-49.3759

>  <SCORE.INTER>
-48.9268

>  <SCORE.INTER.CONST>
1

>  <SCORE.INTER.POLAR>
-5.44143

>  <SCORE.INTER.ROT>
2

>  <SCORE.INTER.SOLV>
18.9513

>  <SCORE.INTER.VDW>
-25.7302

>  <SCORE.INTER.norm>
-3.7636

>  <SCORE.INTRA>
-0.449065

>  <SCORE.INTRA.DIHEDRAL>
0.761777

>  <SCORE.INTRA.DIHEDRAL.0>
1.76676

>  <SCORE.INTRA.POLAR>
-0.382744

>  <SCORE.INTRA.POLAR.0>
-0.472211

>  <SCORE.INTRA.REPUL>
0

>  <SCORE.INTRA.REPUL.0>
0

>  <SCORE.INTRA.SOLV>
0.133866

>  <SCORE.INTRA.SOLV.lig_0>
-22.5855

>  <SCORE.INTRA.VDW>
0.404441

>  <SCORE.INTRA.VDW.0>
-0.733656

>  <SCORE.INTRA.norm>
-0.0345435

>  <SCORE.RESTR>
0

>  <SCORE.RESTR.CAVITY>
0

>  <SCORE.RESTR.norm>
0

>  <SCORE.SYSTEM>
0

>  <SCORE.SYSTEM.CONST>
0

>  <SCORE.SYSTEM.DIHEDRAL>
0

>  <SCORE.SYSTEM.SOLV>
0

>  <SCORE.SYSTEM.norm>
0

>  <SCORE.heavy>
13

>  <SCORE.norm>
-3.79815

>  <RMSD>
0.666

$$$$
lig.pdb
 OpenBabel11021811453D
libRbt.so/2013.1/901 2013/11/27
 13 14  0  0  0  0  0  0  0  0999 V2000
  -10.8218    4.5240   -7.1396 N   0  0  0  0  0  0  0  0  0  0  0  0
  -10.9578    3.7565   -8.2615 C   0  0  0  0  0  0  0  0  0  0  0  0
   -9.8888    3.3163   -8.9005 N   0  0  0  0  0  0  0  0  0  0  0  0
   -8.6194    3.6036   -8.4791 C   0  0  0  0  0  0  0  0  0  0  0  0
   -8.4206    4.4000   -7.3253 C   0  0  0  0  0  0  0  0  0  0  0  0
   -9.5815    4.8705   -6.6407 C   0  0  0  0  0  0  0  0  0  0  0  0
   -9.4808    5.5617   -5.6421 O   0  0  0  0  0  0  0  0  0  0  0  0
   -6.9688    4.5286   -7.1523 C   0  0  0  0  0  0  0  0  0  0  0  0
   -6.2341    5.2939   -6.0836 C   0  0  0  0  0  0  0  0  0  0  0  0
   -7.0292    6.4612   -5.6797 N   0  0  0  0  0  0  0  0  0  0  0  0
   -6.4137    3.8268   -8.1480 C   0  0  0  0  0  0  0  0  0  0  0  0
   -7.3835    3.2792   -8.9449 N   0  0  0  0  0  0  0  0  0  0  0  0
  -12.2100    3.4438   -8.7243 N   0  0  0  0  0  0  0  0  0  0  0  0
  1  6  1  0  0  0  0
  2  1  1  0  0  0  0
  3  4  1  0  0  0  0
  3  2  2  0  0  0  0
  4  5  2  0  0  0  0
  5  8  1  0  0  0  0
  5  6  1  0  0  0  0
  6  7  2  0  0  0  0
  8  9  1  0  0  0  0
  9 10  1  0  0  0  0
 11  8  2  0  0  0  0
 12  4  1  0  0  0  0
 12 11  1  0  0  0  0
 13  2  1  0  0  0  0
M  END
>  <CHROM.1>
-31.23551154,-125.66585286,-8.81721844,4.40816511,-7.44349660,2.62590941
-0.01742736,-2.24967403

>  <Name>
lig.pdb

>  <RI>
0

>  <Rbt.Current_Directory>
/home/itssahil/PROJECTS/Mol_Feturizer/New_Systems/rnas/2miy

>  <Rbt.Executable>
rbdock ($Id: //depot/dev/client3/rdock/2013.1/src/exe/rbdock.cxx#4 $)

>  <Rbt.Library>
libRbt.so (2013.1, Build901 2013/11/27)

>  <Rbt.Parameter_File>
/export/apps/rDock/src/rDock_2013.1_src/data/scripts/dock_solv.prm

>  <Rbt.Receptor>
prm/pocket_docking_2.prm

>  <SCORE>
-49.3658

>  <SCORE.INTER>
-48.863

>  <SCORE.INTER.CONST>
1

>  <SCORE.INTER.POLAR>
-5.42382

>  <SCORE.INTER.ROT>
2

>  <SCORE.INTER.SOLV>
19.0015

>  <SCORE.INTER.VDW>
-25.7631

>  <SCORE.INTER.norm>
-3.75869

>  <SCORE.INTRA>
-0.502801

>  <SCORE.INTRA.DIHEDRAL>
0.683588

>  <SCORE.INTRA.DIHEDRAL.0>
1.76676

>  <SCORE.INTRA.POLAR>
-0.377812

>  <SCORE.INTRA.POLAR.0>
-0.472211

>  <SCORE.INTRA.REPUL>
0

>  <SCORE.INTRA.REPUL.0>
0

>  <SCORE.INTRA.SOLV>
0.126451

>  <SCORE.INTRA.SOLV.lig_0>
-22.5855

>  <SCORE.INTRA.VDW>
0.376742

>  <SCORE.INTRA.VDW.0>
-0.733656

>  <SCORE.INTRA.norm>
-0.038677

>  <SCORE.RESTR>
0

>  <SCORE.RESTR.CAVITY>
0

>  <SCORE.RESTR.norm>
0

>  <SCORE.SYSTEM>
0

>  <SCORE.SYSTEM.CONST>
0

>  <SCORE.SYSTEM.DIHEDRAL>
0

>  <SCORE.SYSTEM.SOLV>
0

>  <SCORE.SYSTEM.norm>
0

>  <SCORE.heavy>
13

>  <SCORE.norm>
-3.79737

>  <RMSD>
0.666

$$$$
lig.pdb
 OpenBabel11021811453D
libRbt.so/2013.1/901 2013/11/27
 13 14  0  0  0  0  0  0  0  0999 V2000
  -10.8190    4.5318   -7.1438 N   0  0  0  0  0  0  0  0  0  0  0  0
  -10.9507    3.7779   -8.2754 C   0  0  0  0  0  0  0  0  0  0  0  0
   -9.8792    3.3445   -8.9150 N   0  0  0  0  0  0  0  0  0  0  0  0
   -8.6115    3.6259   -8.4848 C   0  0  0  0  0  0  0  0  0  0  0  0
   -8.4171    4.4084   -7.3207 C   0  0  0  0  0  0  0  0  0  0  0  0
   -9.5806    4.8715   -6.6355 C   0  0  0  0  0  0  0  0  0  0  0  0
   -9.4838    5.5507   -5.6284 O   0  0  0  0  0  0  0  0  0  0  0  0
   -6.9661    4.5340   -7.1400 C   0  0  0  0  0  0  0  0  0  0  0  0
   -6.2354    5.2860   -6.0591 C   0  0  0  0  0  0  0  0  0  0  0  0
   -7.0138    6.4698   -5.6713 N   0  0  0  0  0  0  0  0  0  0  0  0
   -6.4071    3.8437   -8.1416 C   0  0  0  0  0  0  0  0  0  0  0  0
   -7.3739    3.3062   -8.9491 N   0  0  0  0  0  0  0  0  0  0  0  0
  -12.2011    3.4715   -8.7472 N   0  0  0  0  0  0  0  0  0  0  0  0
  1  6  1  0  0  0  0
  2  1  1  0  0  0  0
  3  4  1  0  0  0  0
  3  2  2  0  0  0  0
  4  5  2  0  0  0  0
  5  8  1  0  0  0  0
  5  6  1  0  0  0  0
  6  7  2  0  0  0  0
  8  9  1  0  0  0  0
  9 10  1  0  0  0  0
 11  8  2  0  0  0  0
 12  4  1  0  0  0  0
 12 11  1  0  0  0  0
 13  2  1  0  0  0  0
M  END
>  <CHROM.1>
-32.81523806,58.43615716,-8.81165557,4.42024071,-7.44315014,2.62438146,-0.01531976
-2.24072763

>  <Name>
lig.pdb

>  <RI>
1.51961e+07

>  <Rbt.Current_Directory>
/home/itssahil/PROJECTS/Mol_Feturizer/New_Systems/rnas/2miy

>  <Rbt.Executable>
rbdock ($Id: //depot/dev/client3/rdock/2013.1/src/exe/rbdock.cxx#4 $)

>  <Rbt.Library>
libRbt.so (2013.1, Build901 2013/11/27)

>  <Rbt.Parameter_File>
/export/apps/rDock/src/rDock_2013.1_src/data/scripts/dock_solv.prm

>  <Rbt.Receptor>
prm/pocket_docking_3.prm

>  <SCORE>
-49.2642

>  <SCORE.INTER>
-48.7178

>  <SCORE.INTER.CONST>
1

>  <SCORE.INTER.POLAR>
-5.40528

>  <SCORE.INTER.ROT>
2

>  <SCORE.INTER.SOLV>
19.0054

>  <SCORE.INTER.VDW>
-25.7294

>  <SCORE.INTER.norm>
-3.74752

>  <SCORE.INTRA>
-0.576547

>  <SCORE.INTRA.DIHEDRAL>
0.603089

>  <SCORE.INTRA.DIHEDRAL.0>
1.76676

>  <SCORE.INTRA.POLAR>
-0.356829

>  <SCORE.INTRA.POLAR.0>
-0.472211

>  <SCORE.INTRA.REPUL>
0

>  <SCORE.INTRA.REPUL.0>
0

>  <SCORE.INTRA.SOLV>
0.106849

>  <SCORE.INTRA.SOLV.lig_0>
-22.5855

>  <SCORE.INTRA.VDW>
0.281704

>  <SCORE.INTRA.VDW.0>
-0.733656

>  <SCORE.INTRA.norm>
-0.0443498

>  <SCORE.RESTR>
0.0301447

>  <SCORE.RESTR.CAVITY>
0.0301447

>  <SCORE.RESTR.norm>
0.00231882

>  <SCORE.SYSTEM>
0

>  <SCORE.SYSTEM.CONST>
0

>  <SCORE.SYSTEM.DIHEDRAL>
0

>  <SCORE.SYSTEM.SOLV>
0

>  <SCORE.SYSTEM.norm>
0

>  <SCORE.heavy>
13

>  <SCORE.norm>
-3.78955

>  <RMSD>
0.667

$$$$
lig.pdb
 OpenBabel11021811453D
libRbt.so/2013.1/901 2013/11/27
 13 14  0  0  0  0  0  0  0  0999 V2000
  -10.8210    4.5284   -7.1406 N   0  0  0  0  0  0  0  0  0  0  0  0
  -10.9580    3.7566   -8.2595 C   0  0  0  0  0  0  0  0  0  0  0  0
   -9.8895    3.3130   -8.8971 N   0  0  0  0  0  0  0  0  0  0  0  0
   -8.6198    3.6011   -8.4774 C   0  0  0  0  0  0  0  0  0  0  0  0
   -8.4200    4.4020   -7.3268 C   0  0  0  0  0  0  0  0  0  0  0  0
   -9.5802    4.8760   -6.6436 C   0  0  0  0  0  0  0  0  0  0  0  0
   -9.4787    5.5711   -5.6478 O   0  0  0  0  0  0  0  0  0  0  0  0
   -6.9681    4.5302   -7.1549 C   0  0  0  0  0  0  0  0  0  0  0  0
   -6.2324    5.2992   -6.0895 C   0  0  0  0  0  0  0  0  0  0  0  0
   -7.0367    6.4559   -5.6737 N   0  0  0  0  0  0  0  0  0  0  0  0
   -6.4138    3.8241   -8.1480 C   0  0  0  0  0  0  0  0  0  0  0  0
   -7.3843    3.2740   -8.9424 N   0  0  0  0  0  0  0  0  0  0  0  0
  -12.2106    3.4429   -8.7205 N   0  0  0  0  0  0  0  0  0  0  0  0
  1  6  1  0  0  0  0
  2  1  1  0  0  0  0
  3  4  1  0  0  0  0
  3  2  2  0  0  0  0
  4  5  2  0  0  0  0
  5  8  1  0  0  0  0
  5  6  1  0  0  0  0
  6  7  2  0  0  0  0
  8  9  1  0  0  0  0
  9 10  1  0  0  0  0
 11  8  2  0  0  0  0
 12  4  1  0  0  0  0
 12 11  1  0  0  0  0
 13  2  1  0  0  0  0
M  END
>  <CHROM.1>
-30.28509710,-127.13921254,-8.81759591,4.40875300,-7.44335144,2.62597155
-0.01651598,-2.25185073

>  <Name>
lig.pdb

>  <RI>
0

>  <Rbt.Current_Directory>
/home/itssahil/PROJECTS/Mol_Feturizer/New_Systems/rnas/2miy

>  <Rbt.Executable>
rbdock ($Id: //depot/dev/client3/rdock/2013.1/src/exe/rbdock.cxx#4 $)

>  <Rbt.Library>
libRbt.so (2013.1, Build901 2013/11/27)

>  <Rbt.Parameter_File>
/export/apps/rDock/src/rDock_2013.1_src/data/scripts/dock_solv.prm

>  <Rbt.Receptor>
prm/pocket_docking_2.prm

>  <SCORE>
-49.3616

>  <SCORE.INTER>
-48.9171

>  <SCORE.INTER.CONST>
1

>  <SCORE.INTER.POLAR>
-5.44023

>  <SCORE.INTER.ROT>
2

>  <SCORE.INTER.SOLV>
18.9951

>  <SCORE.INTER.VDW>
-25.7424

>  <SCORE.INTER.norm>
-3.76286

>  <SCORE.INTRA>
-0.444495

>  <SCORE.INTRA.DIHEDRAL>
0.736025

>  <SCORE.INTRA.DIHEDRAL.0>
1.76676

>  <SCORE.INTRA.POLAR>
-0.387482

>  <SCORE.INTRA.POLAR.0>
-0.472211

>  <SCORE.INTRA.REPUL>
0

>  <SCORE.INTRA.REPUL.0>
0

>  <SCORE.INTRA.SOLV>
0.137772

>  <SCORE.INTRA.SOLV.lig_0>
-22.5855

>  <SCORE.INTRA.VDW>
0.436047

>  <SCORE.INTRA.VDW.0>
-0.733656

>  <SCORE.INTRA.norm>
-0.0341919

>  <SCORE.RESTR>
0

>  <SCORE.RESTR.CAVITY>
0

>  <SCORE.RESTR.norm>
0

>  <SCORE.SYSTEM>
0

>  <SCORE.SYSTEM.CONST>
0

>  <SCORE.SYSTEM.DIHEDRAL>
0

>  <SCORE.SYSTEM.SOLV>
0

>  <SCORE.SYSTEM.norm>
0

>  <SCORE.heavy>
13

>  <SCORE.norm>
-3.79705

>  <RMSD>
0.668

$$$$
lig.pdb
 OpenBabel11021811453D
libRbt.so/2013.1/901 2013/11/27
 13 14  0  0  0  0  0  0  0  0999 V2000
  -10.8192    4.5365   -7.1509 N   0  0  0  0  0  0  0  0  0  0  0  0
  -10.9518    3.7754   -8.2777 C   0  0  0  0  0  0  0  0  0  0  0  0
   -9.8809    3.3371   -8.9147 N   0  0  0  0  0  0  0  0  0  0  0  0
   -8.6128    3.6201   -8.4867 C   0  0  0  0  0  0  0  0  0  0  0  0
   -8.4175    4.4098   -7.3277 C   0  0  0  0  0  0  0  0  0  0  0  0
   -9.5804    4.8783   -6.6452 C   0  0  0  0  0  0  0  0  0  0  0  0
   -9.4827    5.5639   -5.6424 O   0  0  0  0  0  0  0  0  0  0  0  0
   -6.9663    4.5352   -7.1481 C   0  0  0  0  0  0  0  0  0  0  0  0
   -6.2347    5.2935   -6.0722 C   0  0  0  0  0  0  0  0  0  0  0  0
   -7.0523    6.4307   -5.6293 N   0  0  0  0  0  0  0  0  0  0  0  0
   -6.4082    3.8380   -8.1455 C   0  0  0  0  0  0  0  0  0  0  0  0
   -7.3756    3.2963   -8.9493 N   0  0  0  0  0  0  0  0  0  0  0  0
  -12.2026    3.4672   -8.7472 N   0  0  0  0  0  0  0  0  0  0  0  0
  1  6  1  0  0  0  0
  2  1  1  0  0  0  0
  3  4  1  0  0  0  0
  3  2  2  0  0  0  0
  4  5  2  0  0  0  0
  5  8  1  0  0  0  0
  5  6  1  0  0  0  0
  6  7  2  0  0  0  0
  8  9  1  0  0  0  0
  9 10  1  0  0  0  0
 11  8  2  0  0  0  0
 12  4  1  0  0  0  0
 12 11  1  0  0  0  0
 13  2  1  0  0  0  0
M  END
>  <CHROM.1>
-29.10733988,53.74314617,-8.81577382,4.41657226,-7.44424245,2.62239311,-0.01244356
-2.24027705

>  <Name>
lig.pdb

>  <RI>
2.68696e+07

>  <Rbt.Current_Directory>
/home/itssahil/PROJECTS/Mol_Feturizer/New_Systems/rnas/2miy

>  <Rbt.Executable>
rbdock ($Id: //depot/dev/client3/rdock/2013.1/src/exe/rbdock.cxx#4 $)

>  <Rbt.Library>
libRbt.so (2013.1, Build901 2013/11/27)

>  <Rbt.Parameter_File>
/export/apps/rDock/src/rDock_2013.1_src/data/scripts/dock_solv.prm

>  <Rbt.Receptor>
prm/pocket_docking_4.prm

>  <SCORE>
-49.2627

>  <SCORE.INTER>
-48.8891

>  <SCORE.INTER.CONST>
1

>  <SCORE.INTER.POLAR>
-5.41554

>  <SCORE.INTER.ROT>
2

>  <SCORE.INTER.SOLV>
18.9259

>  <SCORE.INTER.VDW>
-25.7829

>  <SCORE.INTER.norm>
-3.7607

>  <SCORE.INTRA>
-0.373616

>  <SCORE.INTRA.DIHEDRAL>
0.823245

>  <SCORE.INTRA.DIHEDRAL.0>
1.76676

>  <SCORE.INTRA.POLAR>
-0.396927

>  <SCORE.INTRA.POLAR.0>
-0.472211

>  <SCORE.INTRA.REPUL>
0

>  <SCORE.INTRA.REPUL.0>
0

>  <SCORE.INTRA.SOLV>
0.148587

>  <SCORE.INTRA.SOLV.lig_0>
-22.5855

>  <SCORE.INTRA.VDW>
0.490018

>  <SCORE.INTRA.VDW.0>
-0.733656

>  <SCORE.INTRA.norm>
-0.0287397

>  <SCORE.RESTR>
0

>  <SCORE.RESTR.CAVITY>
0

>  <SCORE.RESTR.norm>
0

>  <SCORE.SYSTEM>
0

>  <SCORE.SYSTEM.CONST>
0

>  <SCORE.SYSTEM.DIHEDRAL>
0

>  <SCORE.SYSTEM.SOLV>
0

>  <SCORE.SYSTEM.norm>
0

>  <SCORE.heavy>
13

>  <SCORE.norm>
-3.78944

>  <RMSD>
0.668

$$$$
lig.pdb
 OpenBabel11021811453D
libRbt.so/2013.1/901 2013/11/27
 13 14  0  0  0  0  0  0  0  0999 V2000
  -10.8204    4.5334   -7.1458 N   0  0  0  0  0  0  0  0  0  0  0  0
  -10.9556    3.7697   -8.2705 C   0  0  0  0  0  0  0  0  0  0  0  0
   -9.8861    3.3292   -8.9085 N   0  0  0  0  0  0  0  0  0  0  0  0
   -8.6170    3.6125   -8.4835 C   0  0  0  0  0  0  0  0  0  0  0  0
   -8.4191    4.4049   -7.3267 C   0  0  0  0  0  0  0  0  0  0  0  0
   -9.5805    4.8757   -6.6432 C   0  0  0  0  0  0  0  0  0  0  0  0
   -9.4805    5.5636   -5.6423 O   0  0  0  0  0  0  0  0  0  0  0  0
   -6.9675    4.5299   -7.1502 C   0  0  0  0  0  0  0  0  0  0  0  0
   -6.2335    5.2903   -6.0775 C   0  0  0  0  0  0  0  0  0  0  0  0
   -7.0264    6.4587   -5.6726 N   0  0  0  0  0  0  0  0  0  0  0  0
   -6.4117    3.8300   -8.1469 C   0  0  0  0  0  0  0  0  0  0  0  0
   -7.3809    3.2869   -8.9476 N   0  0  0  0  0  0  0  0  0  0  0  0
  -12.2074    3.4610   -8.7369 N   0  0  0  0  0  0  0  0  0  0  0  0
  1  6  1  0  0  0  0
  2  1  1  0  0  0  0
  3  4  1  0  0  0  0
  3  2  2  0  0  0  0
  4  5  2  0  0  0  0
  5  8  1  0  0  0  0
  5  6  1  0  0  0  0
  6  7  2  0  0  0  0
  8  9  1  0  0  0  0
  9 10  1  0  0  0  0
 11  8  2  0  0  0  0
 12  4  1  0  0  0  0
 12 11  1  0  0  0  0
 13  2  1  0  0  0  0
M  END
>  <CHROM.1>
-31.29006768,57.24550600,-8.81545288,4.41434599,-7.44603225,2.62578640,-0.01453206
-2.24669074

>  <Name>
lig.pdb

>  <RI>
0

>  <Rbt.Current_Directory>
/home/itssahil/PROJECTS/Mol_Feturizer/New_Systems/rnas/2miy

>  <Rbt.Executable>
rbdock ($Id: //depot/dev/client3/rdock/2013.1/src/exe/rbdock.cxx#4 $)

>  <Rbt.Library>
libRbt.so (2013.1, Build901 2013/11/27)

>  <Rbt.Parameter_File>
/export/apps/rDock/src/rDock_2013.1_src/data/scripts/dock_solv.prm

>  <Rbt.Receptor>
prm/pocket_docking_2.prm

>  <SCORE>
-49.3351

>  <SCORE.INTER>
-48.8222

>  <SCORE.INTER.CONST>
1

>  <SCORE.INTER.POLAR>
-5.43283

>  <SCORE.INTER.ROT>
2

>  <SCORE.INTER.SOLV>
18.9959

>  <SCORE.INTER.VDW>
-25.704

>  <SCORE.INTER.norm>
-3.75555

>  <SCORE.INTRA>
-0.512956

>  <SCORE.INTRA.DIHEDRAL>
0.692191

>  <SCORE.INTRA.DIHEDRAL.0>
1.76676

>  <SCORE.INTRA.POLAR>
-0.374068

>  <SCORE.INTRA.POLAR.0>
-0.472211

>  <SCORE.INTRA.REPUL>
0

>  <SCORE.INTRA.REPUL.0>
0

>  <SCORE.INTRA.SOLV>
0.122646

>  <SCORE.INTRA.SOLV.lig_0>
-22.5855

>  <SCORE.INTRA.VDW>
0.351457

>  <SCORE.INTRA.VDW.0>
-0.733656

>  <SCORE.INTRA.norm>
-0.0394582

>  <SCORE.RESTR>
0

>  <SCORE.RESTR.CAVITY>
0

>  <SCORE.RESTR.norm>
0

>  <SCORE.SYSTEM>
0

>  <SCORE.SYSTEM.CONST>
0

>  <SCORE.SYSTEM.DIHEDRAL>
0

>  <SCORE.SYSTEM.SOLV>
0

>  <SCORE.SYSTEM.norm>
0

>  <SCORE.heavy>
13

>  <SCORE.norm>
-3.79501

>  <RMSD>
0.669

$$$$
lig.pdb
 OpenBabel11021811453D
libRbt.so/2013.1/901 2013/11/27
 13 14  0  0  0  0  0  0  0  0999 V2000
  -10.8210    4.5253   -7.1512 N   0  0  0  0  0  0  0  0  0  0  0  0
  -10.9531    3.7605   -8.2755 C   0  0  0  0  0  0  0  0  0  0  0  0
   -9.8819    3.3204   -8.9110 N   0  0  0  0  0  0  0  0  0  0  0  0
   -8.6140    3.6052   -8.4835 C   0  0  0  0  0  0  0  0  0  0  0  0
   -8.4191    4.3988   -7.3271 C   0  0  0  0  0  0  0  0  0  0  0  0
   -9.5823    4.8691   -6.6463 C   0  0  0  0  0  0  0  0  0  0  0  0
   -9.4851    5.5580   -5.6458 O   0  0  0  0  0  0  0  0  0  0  0  0
   -6.9680    4.5253   -7.1476 C   0  0  0  0  0  0  0  0  0  0  0  0
   -6.2369    5.2873   -6.0741 C   0  0  0  0  0  0  0  0  0  0  0  0
   -7.0281    6.4595   -5.6773 N   0  0  0  0  0  0  0  0  0  0  0  0
   -6.4095    3.8250   -8.1426 C   0  0  0  0  0  0  0  0  0  0  0  0
   -7.3766    3.2804   -8.9448 N   0  0  0  0  0  0  0  0  0  0  0  0
  -12.2037    3.4504   -8.7442 N   0  0  0  0  0  0  0  0  0  0  0  0
  1  6  1  0  0  0  0
  2  1  1  0  0  0  0
  3  4  1  0  0  0  0
  3  2  2  0  0  0  0
  4  5  2  0  0  0  0
  5  8  1  0  0  0  0
  5  6  1  0  0  0  0
  6  7  2  0  0  0  0
  8  9  1  0  0  0  0
  9 10  1  0  0  0  0
 11  8  2  0  0  0  0
 12  4  1  0  0  0  0
 12 11  1  0  0  0  0
 13  2  1  0  0  0  0
M  END
>  <CHROM.1>
-31.61433004,56.66645990,-8.81491651,4.40821069,-7.44768892,2.62385723,-0.01412746
-2.24819252

>  <Name>
lig.pdb

>  <RI>
0

>  <Rbt.Current_Directory>
/home/itssahil/PROJECTS/Mol_Feturizer/New_Systems/rnas/2miy

>  <Rbt.Executable>
rbdock ($Id: //depot/dev/client3/rdock/2013.1/src/exe/rbdock.cxx#4 $)

>  <Rbt.Library>
libRbt.so (2013.1, Build901 2013/11/27)

>  <Rbt.Parameter_File>
/export/apps/rDock/src/rDock_2013.1_src/data/scripts/dock_solv.prm

>  <Rbt.Receptor>
prm/pocket_docking_2.prm

>  <SCORE>
-49.3362

>  <SCORE.INTER>
-48.8126

>  <SCORE.INTER.CONST>
1

>  <SCORE.INTER.POLAR>
-5.40069

>  <SCORE.INTER.ROT>
2

>  <SCORE.INTER.SOLV>
19.0002

>  <SCORE.INTER.VDW>
-25.8062

>  <SCORE.INTER.norm>
-3.75482

>  <SCORE.INTRA>
-0.523591

>  <SCORE.INTRA.DIHEDRAL>
0.674495

>  <SCORE.INTRA.DIHEDRAL.0>
1.76676

>  <SCORE.INTRA.POLAR>
-0.372275

>  <SCORE.INTRA.POLAR.0>
-0.472211

>  <SCORE.INTRA.REPUL>
0

>  <SCORE.INTRA.REPUL.0>
0

>  <SCORE.INTRA.SOLV>
0.120815

>  <SCORE.INTRA.SOLV.lig_0>
-22.5855

>  <SCORE.INTRA.VDW>
0.344487

>  <SCORE.INTRA.VDW.0>
-0.733656

>  <SCORE.INTRA.norm>
-0.0402762

>  <SCORE.RESTR>
0

>  <SCORE.RESTR.CAVITY>
0

>  <SCORE.RESTR.norm>
0

>  <SCORE.SYSTEM>
0

>  <SCORE.SYSTEM.CONST>
0

>  <SCORE.SYSTEM.DIHEDRAL>
0

>  <SCORE.SYSTEM.SOLV>
0

>  <SCORE.SYSTEM.norm>
0

>  <SCORE.heavy>
13

>  <SCORE.norm>
-3.79509

>  <RMSD>
0.669

$$$$
lig.pdb
 OpenBabel11021811453D
libRbt.so/2013.1/901 2013/11/27
 13 14  0  0  0  0  0  0  0  0999 V2000
  -10.8206    4.5311   -7.1481 N   0  0  0  0  0  0  0  0  0  0  0  0
  -10.9545    3.7670   -8.2727 C   0  0  0  0  0  0  0  0  0  0  0  0
   -9.8844    3.3257   -8.9090 N   0  0  0  0  0  0  0  0  0  0  0  0
   -8.6158    3.6087   -8.4823 C   0  0  0  0  0  0  0  0  0  0  0  0
   -8.4191    4.4015   -7.3256 C   0  0  0  0  0  0  0  0  0  0  0  0
   -9.5812    4.8730   -6.6439 C   0  0  0  0  0  0  0  0  0  0  0  0
   -9.4823    5.5613   -5.6431 O   0  0  0  0  0  0  0  0  0  0  0  0
   -6.9676    4.5259   -7.1471 C   0  0  0  0  0  0  0  0  0  0  0  0
   -6.2348    5.2864   -6.0737 C   0  0  0  0  0  0  0  0  0  0  0  0
   -7.0271    6.4560   -5.6714 N   0  0  0  0  0  0  0  0  0  0  0  0
   -6.4108    3.8253   -8.1427 C   0  0  0  0  0  0  0  0  0  0  0  0
   -7.3791    3.2824   -8.9446 N   0  0  0  0  0  0  0  0  0  0  0  0
  -12.2059    3.4587   -8.7407 N   0  0  0  0  0  0  0  0  0  0  0  0
  1  6  1  0  0  0  0
  2  1  1  0  0  0  0
  3  4  1  0  0  0  0
  3  2  2  0  0  0  0
  4  5  2  0  0  0  0
  5  8  1  0  0  0  0
  5  6  1  0  0  0  0
  6  7  2  0  0  0  0
  8  9  1  0  0  0  0
  9 10  1  0  0  0  0
 11  8  2  0  0  0  0
 12  4  1  0  0  0  0
 12 11  1  0  0  0  0
 13  2  1  0  0  0  0
M  END
>  <CHROM.1>
-31.34742490,57.24627218,-8.81520191,4.41110138,-7.44554427,2.62502407,-0.01334771
-2.24720674

>  <Name>
lig.pdb

>  <RI>
3.47783e+07

>  <Rbt.Current_Directory>
/home/itssahil/PROJECTS/Mol_Feturizer/New_Systems/rnas/2miy

>  <Rbt.Executable>
rbdock ($Id: //depot/dev/client3/rdock/2013.1/src/exe/rbdock.cxx#4 $)

>  <Rbt.Library>
libRbt.so (2013.1, Build901 2013/11/27)

>  <Rbt.Parameter_File>
/export/apps/rDock/src/rDock_2013.1_src/data/scripts/dock_solv.prm

>  <Rbt.Receptor>
prm/pocket_docking_8.prm

>  <SCORE>
-49.3326

>  <SCORE.INTER>
-48.8171

>  <SCORE.INTER.CONST>
1

>  <SCORE.INTER.POLAR>
-5.42535

>  <SCORE.INTER.ROT>
2

>  <SCORE.INTER.SOLV>
18.9878

>  <SCORE.INTER.VDW>
-25.7228

>  <SCORE.INTER.norm>
-3.75516

>  <SCORE.INTRA>
-0.515571

>  <SCORE.INTRA.DIHEDRAL>
0.688896

>  <SCORE.INTRA.DIHEDRAL.0>
1.76676

>  <SCORE.INTRA.POLAR>
-0.373594

>  <SCORE.INTRA.POLAR.0>
-0.472211

>  <SCORE.INTRA.REPUL>
0

>  <SCORE.INTRA.REPUL.0>
0

>  <SCORE.INTRA.SOLV>
0.122123

>  <SCORE.INTRA.SOLV.lig_0>
-22.5855

>  <SCORE.INTRA.VDW>
0.34914

>  <SCORE.INTRA.VDW.0>
-0.733656

>  <SCORE.INTRA.norm>
-0.0396593

>  <SCORE.RESTR>
0

>  <SCORE.RESTR.CAVITY>
0

>  <SCORE.RESTR.norm>
0

>  <SCORE.SYSTEM>
0

>  <SCORE.SYSTEM.CONST>
0

>  <SCORE.SYSTEM.DIHEDRAL>
0

>  <SCORE.SYSTEM.SOLV>
0

>  <SCORE.SYSTEM.norm>
0

>  <SCORE.heavy>
13

>  <SCORE.norm>
-3.79482

>  <RMSD>
0.669

$$$$
lig.pdb
 OpenBabel11021811453D
libRbt.so/2013.1/901 2013/11/27
 13 14  0  0  0  0  0  0  0  0999 V2000
  -10.8200    4.5340   -7.1455 N   0  0  0  0  0  0  0  0  0  0  0  0
  -10.9540    3.7705   -8.2704 C   0  0  0  0  0  0  0  0  0  0  0  0
   -9.8840    3.3318   -8.9087 N   0  0  0  0  0  0  0  0  0  0  0  0
   -8.6153    3.6167   -8.4835 C   0  0  0  0  0  0  0  0  0  0  0  0
   -8.4184    4.4090   -7.3265 C   0  0  0  0  0  0  0  0  0  0  0  0
   -9.5805    4.8779   -6.6428 C   0  0  0  0  0  0  0  0  0  0  0  0
   -9.4815    5.5656   -5.6416 O   0  0  0  0  0  0  0  0  0  0  0  0
   -6.9670    4.5360   -7.1500 C   0  0  0  0  0  0  0  0  0  0  0  0
   -6.2340    5.2972   -6.0770 C   0  0  0  0  0  0  0  0  0  0  0  0
   -7.0317    6.4604   -5.6670 N   0  0  0  0  0  0  0  0  0  0  0  0
   -6.4102    3.8373   -8.1470 C   0  0  0  0  0  0  0  0  0  0  0  0
   -7.3787    3.2931   -8.9478 N   0  0  0  0  0  0  0  0  0  0  0  0
  -12.2055    3.4603   -8.7369 N   0  0  0  0  0  0  0  0  0  0  0  0
  1  6  1  0  0  0  0
  2  1  1  0  0  0  0
  3  4  1  0  0  0  0
  3  2  2  0  0  0  0
  4  5  2  0  0  0  0
  5  8  1  0  0  0  0
  5  6  1  0  0  0  0
  6  7  2  0  0  0  0
  8  9  1  0  0  0  0
  9 10  1  0  0  0  0
 11  8  2  0  0  0  0
 12  4  1  0  0  0  0
 12 11  1  0  0  0  0
 13  2  1  0  0  0  0
M  END
>  <CHROM.1>
-31.00722199,56.52617951,-8.81510391,4.41760043,-7.44535105,2.62470492,-0.01548346
-2.24583951

>  <Name>
lig.pdb

>  <RI>
1.82164e+07

>  <Rbt.Current_Directory>
/home/itssahil/PROJECTS/Mol_Feturizer/New_Systems/rnas/2miy

>  <Rbt.Executable>
rbdock ($Id: //depot/dev/client3/rdock/2013.1/src/exe/rbdock.cxx#4 $)

>  <Rbt.Library>
libRbt.so (2013.1, Build901 2013/11/27)

>  <Rbt.Parameter_File>
/export/apps/rDock/src/rDock_2013.1_src/data/scripts/dock_solv.prm

>  <Rbt.Receptor>
prm/blind_docking_80.prm

>  <SCORE>
-49.2967

>  <SCORE.INTER>
-48.8403

>  <SCORE.INTER.CONST>
1

>  <SCORE.INTER.POLAR>
-5.42309

>  <SCORE.INTER.ROT>
2

>  <SCORE.INTER.SOLV>
18.9919

>  <SCORE.INTER.VDW>
-25.7472

>  <SCORE.INTER.norm>
-3.75695

>  <SCORE.INTRA>
-0.496727

>  <SCORE.INTRA.DIHEDRAL>
0.709573

>  <SCORE.INTRA.DIHEDRAL.0>
1.76676

>  <SCORE.INTRA.POLAR>
-0.378098

>  <SCORE.INTRA.POLAR.0>
-0.472211

>  <SCORE.INTRA.REPUL>
0

>  <SCORE.INTRA.REPUL.0>
0

>  <SCORE.INTRA.SOLV>
0.126616

>  <SCORE.INTRA.SOLV.lig_0>
-22.5855

>  <SCORE.INTRA.VDW>
0.370712

>  <SCORE.INTRA.VDW.0>
-0.733656

>  <SCORE.INTRA.norm>
-0.0382098

>  <SCORE.RESTR>
0.0403316

>  <SCORE.RESTR.CAVITY>
0.0403316

>  <SCORE.RESTR.norm>
0.00310243

>  <SCORE.SYSTEM>
0

>  <SCORE.SYSTEM.CONST>
0

>  <SCORE.SYSTEM.DIHEDRAL>
0

>  <SCORE.SYSTEM.SOLV>
0

>  <SCORE.SYSTEM.norm>
0

>  <SCORE.heavy>
13

>  <SCORE.norm>
-3.79205

>  <RMSD>
0.670

$$$$
lig.pdb
 OpenBabel11021811453D
libRbt.so/2013.1/901 2013/11/27
 13 14  0  0  0  0  0  0  0  0999 V2000
  -10.9278    4.1889   -7.0724 N   0  0  0  0  0  0  0  0  0  0  0  0
  -10.8193    3.7768   -8.3704 C   0  0  0  0  0  0  0  0  0  0  0  0
   -9.6300    3.5602   -8.9029 N   0  0  0  0  0  0  0  0  0  0  0  0
   -8.4727    3.7364   -8.1950 C   0  0  0  0  0  0  0  0  0  0  0  0
   -8.5268    4.1681   -6.8475 C   0  0  0  0  0  0  0  0  0  0  0  0
   -9.8163    4.3987   -6.2801 C   0  0  0  0  0  0  0  0  0  0  0  0
   -9.9334    4.7729   -5.1263 O   0  0  0  0  0  0  0  0  0  0  0  0
   -7.1374    4.2677   -6.3853 C   0  0  0  0  0  0  0  0  0  0  0  0
   -6.6481    4.7041   -5.0297 C   0  0  0  0  0  0  0  0  0  0  0  0
   -6.5642    6.1700   -4.9854 N   0  0  0  0  0  0  0  0  0  0  0  0
   -6.3752    3.8946   -7.4207 C   0  0  0  0  0  0  0  0  0  0  0  0
   -7.1566    3.5835   -8.5015 N   0  0  0  0  0  0  0  0  0  0  0  0
  -11.9510    3.5886   -9.1213 N   0  0  0  0  0  0  0  0  0  0  0  0
  1  6  1  0  0  0  0
  2  1  1  0  0  0  0
  3  4  1  0  0  0  0
  3  2  2  0  0  0  0
  4  5  2  0  0  0  0
  5  8  1  0  0  0  0
  5  6  1  0  0  0  0
  6  7  2  0  0  0  0
  8  9  1  0  0  0  0
  9 10  1  0  0  0  0
 11  8  2  0  0  0  0
 12  4  1  0  0  0  0
 12 11  1  0  0  0  0
 13  2  1  0  0  0  0
M  END
>  <CHROM.1>
-84.36315837,-109.73488048,-8.80286992,4.24769138,-7.07699151,2.52295132
-0.00303645,-1.99857372

>  <Name>
lig.pdb

>  <RI>
2.68696e+07

>  <Rbt.Current_Directory>
/home/itssahil/PROJECTS/Mol_Feturizer/New_Systems/rnas/2miy

>  <Rbt.Executable>
rbdock ($Id: //depot/dev/client3/rdock/2013.1/src/exe/rbdock.cxx#4 $)

>  <Rbt.Library>
libRbt.so (2013.1, Build901 2013/11/27)

>  <Rbt.Parameter_File>
/export/apps/rDock/src/rDock_2013.1_src/data/scripts/dock_solv.prm

>  <Rbt.Receptor>
prm/pocket_docking_4.prm

>  <SCORE>
-41.0399

>  <SCORE.INTER>
-42.7906

>  <SCORE.INTER.CONST>
1

>  <SCORE.INTER.POLAR>
-4.10592

>  <SCORE.INTER.ROT>
2

>  <SCORE.INTER.SOLV>
17.3

>  <SCORE.INTER.VDW>
-25.5406

>  <SCORE.INTER.norm>
-3.29158

>  <SCORE.INTRA>
1.75069

>  <SCORE.INTRA.DIHEDRAL>
0.479467

>  <SCORE.INTRA.DIHEDRAL.0>
1.76676

>  <SCORE.INTRA.POLAR>
0.472211

>  <SCORE.INTRA.POLAR.0>
-0.472211

>  <SCORE.INTRA.REPUL>
0

>  <SCORE.INTRA.REPUL.0>
0

>  <SCORE.INTRA.SOLV>
-0.389994

>  <SCORE.INTRA.SOLV.lig_0>
-22.5855

>  <SCORE.INTRA.VDW>
0.100435

>  <SCORE.INTRA.VDW.0>
-0.733656

>  <SCORE.INTRA.norm>
0.134668

>  <SCORE.RESTR>
0

>  <SCORE.RESTR.CAVITY>
0

>  <SCORE.RESTR.norm>
0

>  <SCORE.SYSTEM>
0

>  <SCORE.SYSTEM.CONST>
0

>  <SCORE.SYSTEM.DIHEDRAL>
0

>  <SCORE.SYSTEM.SOLV>
0

>  <SCORE.SYSTEM.norm>
0

>  <SCORE.heavy>
13

>  <SCORE.norm>
-3.15691

>  <RMSD>
0.670

$$$$
lig.pdb
 OpenBabel11021811453D
libRbt.so/2013.1/901 2013/11/27
 13 14  0  0  0  0  0  0  0  0999 V2000
  -10.8199    4.5338   -7.1518 N   0  0  0  0  0  0  0  0  0  0  0  0
  -10.9513    3.7727   -8.2786 C   0  0  0  0  0  0  0  0  0  0  0  0
   -9.8797    3.3354   -8.9154 N   0  0  0  0  0  0  0  0  0  0  0  0
   -8.6121    3.6197   -8.4869 C   0  0  0  0  0  0  0  0  0  0  0  0
   -8.4179    4.4096   -7.3278 C   0  0  0  0  0  0  0  0  0  0  0  0
   -9.5815    4.8769   -6.6456 C   0  0  0  0  0  0  0  0  0  0  0  0
   -9.4849    5.5625   -5.6428 O   0  0  0  0  0  0  0  0  0  0  0  0
   -6.9669    4.5365   -7.1478 C   0  0  0  0  0  0  0  0  0  0  0  0
   -6.2364    5.2955   -6.0716 C   0  0  0  0  0  0  0  0  0  0  0  0
   -7.0320    6.4618   -5.6659 N   0  0  0  0  0  0  0  0  0  0  0  0
   -6.4078    3.8399   -8.1449 C   0  0  0  0  0  0  0  0  0  0  0  0
   -7.3744    3.2973   -8.9491 N   0  0  0  0  0  0  0  0  0  0  0  0
  -12.2016    3.4632   -8.7485 N   0  0  0  0  0  0  0  0  0  0  0  0
  1  6  1  0  0  0  0
  2  1  1  0  0  0  0
  3  4  1  0  0  0  0
  3  2  2  0  0  0  0
  4  5  2  0  0  0  0
  5  8  1  0  0  0  0
  5  6  1  0  0  0  0
  6  7  2  0  0  0  0
  8  9  1  0  0  0  0
  9 10  1  0  0  0  0
 11  8  2  0  0  0  0
 12  4  1  0  0  0  0
 12 11  1  0  0  0  0
 13  2  1  0  0  0  0
M  END
>  <CHROM.1>
-31.30447818,58.06842672,-8.81400397,4.41875387,-7.44793314,2.62310528,-0.01443440
-2.24430791

>  <Name>
lig.pdb

>  <RI>
1.17462e+07

>  <Rbt.Current_Directory>
/home/itssahil/PROJECTS/Mol_Feturizer/New_Systems/rnas/2miy

>  <Rbt.Executable>
rbdock ($Id: //depot/dev/client3/rdock/2013.1/src/exe/rbdock.cxx#4 $)

>  <Rbt.Library>
libRbt.so (2013.1, Build901 2013/11/27)

>  <Rbt.Parameter_File>
/export/apps/rDock/src/rDock_2013.1_src/data/scripts/dock_solv.prm

>  <Rbt.Receptor>
prm/blind_docking_40.prm

>  <SCORE>
-49.2726

>  <SCORE.INTER>
-48.7944

>  <SCORE.INTER.CONST>
1

>  <SCORE.INTER.POLAR>
-5.40185

>  <SCORE.INTER.ROT>
2

>  <SCORE.INTER.SOLV>
18.9948

>  <SCORE.INTER.VDW>
-25.7884

>  <SCORE.INTER.norm>
-3.75342

>  <SCORE.INTRA>
-0.514549

>  <SCORE.INTRA.DIHEDRAL>
0.690062

>  <SCORE.INTRA.DIHEDRAL.0>
1.76676

>  <SCORE.INTRA.POLAR>
-0.371328

>  <SCORE.INTRA.POLAR.0>
-0.472211

>  <SCORE.INTRA.REPUL>
0

>  <SCORE.INTRA.REPUL.0>
0

>  <SCORE.INTRA.SOLV>
0.120875

>  <SCORE.INTRA.SOLV.lig_0>
-22.5855

>  <SCORE.INTRA.VDW>
0.3425

>  <SCORE.INTRA.VDW.0>
-0.733656

>  <SCORE.INTRA.norm>
-0.0395807

>  <SCORE.RESTR>
0.0363428

>  <SCORE.RESTR.CAVITY>
0.0363428

>  <SCORE.RESTR.norm>
0.0027956

>  <SCORE.SYSTEM>
0

>  <SCORE.SYSTEM.CONST>
0

>  <SCORE.SYSTEM.DIHEDRAL>
0

>  <SCORE.SYSTEM.SOLV>
0

>  <SCORE.SYSTEM.norm>
0

>  <SCORE.heavy>
13

>  <SCORE.norm>
-3.7902

>  <RMSD>
0.671

$$$$
lig.pdb
 OpenBabel11021811453D
libRbt.so/2013.1/901 2013/11/27
 13 14  0  0  0  0  0  0  0  0999 V2000
  -10.8195    4.5372   -7.1468 N   0  0  0  0  0  0  0  0  0  0  0  0
  -10.9546    3.7731   -8.2713 C   0  0  0  0  0  0  0  0  0  0  0  0
   -9.8851    3.3317   -8.9086 N   0  0  0  0  0  0  0  0  0  0  0  0
   -8.6161    3.6144   -8.4831 C   0  0  0  0  0  0  0  0  0  0  0  0
   -8.4182    4.4071   -7.3266 C   0  0  0  0  0  0  0  0  0  0  0  0
   -9.5796    4.8789   -6.6437 C   0  0  0  0  0  0  0  0  0  0  0  0
   -9.4797    5.5671   -5.6431 O   0  0  0  0  0  0  0  0  0  0  0  0
   -6.9666    4.5313   -7.1494 C   0  0  0  0  0  0  0  0  0  0  0  0
   -6.2326    5.2917   -6.0766 C   0  0  0  0  0  0  0  0  0  0  0  0
   -7.0286    6.4562   -5.6670 N   0  0  0  0  0  0  0  0  0  0  0  0
   -6.4107    3.8306   -8.1456 C   0  0  0  0  0  0  0  0  0  0  0  0
   -7.3799    3.2878   -8.9465 N   0  0  0  0  0  0  0  0  0  0  0  0
  -12.2065    3.4651   -8.7382 N   0  0  0  0  0  0  0  0  0  0  0  0
  1  6  1  0  0  0  0
  2  1  1  0  0  0  0
  3  4  1  0  0  0  0
  3  2  2  0  0  0  0
  4  5  2  0  0  0  0
  5  8  1  0  0  0  0
  5  6  1  0  0  0  0
  6  7  2  0  0  0  0
  8  9  1  0  0  0  0
  9 10  1  0  0  0  0
 11  8  2  0  0  0  0
 12  4  1  0  0  0  0
 12 11  1  0  0  0  0
 13  2  1  0  0  0  0
M  END
>  <CHROM.1>
-30.95905977,55.10992099,-8.81481396,4.41636076,-7.44552977,2.62554977,-0.01349714
-2.24651973

>  <Name>
lig.pdb

>  <RI>
0

>  <Rbt.Current_Directory>
/home/itssahil/PROJECTS/Mol_Feturizer/New_Systems/rnas/2miy

>  <Rbt.Executable>
rbdock ($Id: //depot/dev/client3/rdock/2013.1/src/exe/rbdock.cxx#4 $)

>  <Rbt.Library>
libRbt.so (2013.1, Build901 2013/11/27)

>  <Rbt.Parameter_File>
/export/apps/rDock/src/rDock_2013.1_src/data/scripts/dock_solv.prm

>  <Rbt.Receptor>
prm/pocket_docking_2.prm

>  <SCORE>
-49.3369

>  <SCORE.INTER>
-48.8555

>  <SCORE.INTER.CONST>
1

>  <SCORE.INTER.POLAR>
-5.43993

>  <SCORE.INTER.ROT>
2

>  <SCORE.INTER.SOLV>
18.9996

>  <SCORE.INTER.VDW>
-25.7038

>  <SCORE.INTER.norm>
-3.75812

>  <SCORE.INTRA>
-0.481325

>  <SCORE.INTRA.DIHEDRAL>
0.71455

>  <SCORE.INTRA.DIHEDRAL.0>
1.76676

>  <SCORE.INTRA.POLAR>
-0.380097

>  <SCORE.INTRA.POLAR.0>
-0.472211

>  <SCORE.INTRA.REPUL>
0

>  <SCORE.INTRA.REPUL.0>
0

>  <SCORE.INTRA.SOLV>
0.129764

>  <SCORE.INTRA.SOLV.lig_0>
-22.5855

>  <SCORE.INTRA.VDW>
0.388848

>  <SCORE.INTRA.VDW.0>
-0.733656

>  <SCORE.INTRA.norm>
-0.037025

>  <SCORE.RESTR>
0

>  <SCORE.RESTR.CAVITY>
0

>  <SCORE.RESTR.norm>
0

>  <SCORE.SYSTEM>
0

>  <SCORE.SYSTEM.CONST>
0

>  <SCORE.SYSTEM.DIHEDRAL>
0

>  <SCORE.SYSTEM.SOLV>
0

>  <SCORE.SYSTEM.norm>
0

>  <SCORE.heavy>
13

>  <SCORE.norm>
-3.79514

>  <RMSD>
0.671

$$$$
lig.pdb
 OpenBabel11021811453D
libRbt.so/2013.1/901 2013/11/27
 13 14  0  0  0  0  0  0  0  0999 V2000
  -10.9274    4.4277   -7.2894 N   0  0  0  0  0  0  0  0  0  0  0  0
  -10.9733    3.8946   -8.5464 C   0  0  0  0  0  0  0  0  0  0  0  0
   -9.8619    3.5081   -9.1466 N   0  0  0  0  0  0  0  0  0  0  0  0
   -8.6356    3.6226   -8.5511 C   0  0  0  0  0  0  0  0  0  0  0  0
   -8.5295    4.1737   -7.2510 C   0  0  0  0  0  0  0  0  0  0  0  0
   -9.7358    4.5876   -6.6098 C   0  0  0  0  0  0  0  0  0  0  0  0
   -9.7147    5.0715   -5.4915 O   0  0  0  0  0  0  0  0  0  0  0  0
   -7.1020    4.1663   -6.9102 C   0  0  0  0  0  0  0  0  0  0  0  0
   -6.4560    4.6655   -5.6448 C   0  0  0  0  0  0  0  0  0  0  0  0
   -6.4820    6.1341   -5.6255 N   0  0  0  0  0  0  0  0  0  0  0  0
   -6.4732    3.6259   -7.9612 C   0  0  0  0  0  0  0  0  0  0  0  0
   -7.3725    3.3057   -8.9431 N   0  0  0  0  0  0  0  0  0  0  0  0
  -12.1791    3.7618   -9.1854 N   0  0  0  0  0  0  0  0  0  0  0  0
  1  6  1  0  0  0  0
  2  1  1  0  0  0  0
  3  4  1  0  0  0  0
  3  2  2  0  0  0  0
  4  5  2  0  0  0  0
  5  8  1  0  0  0  0
  5  6  1  0  0  0  0
  6  7  2  0  0  0  0
  8  9  1  0  0  0  0
  9 10  1  0  0  0  0
 11  8  2  0  0  0  0
 12  4  1  0  0  0  0
 12 11  1  0  0  0  0
 13  2  1  0  0  0  0
M  END
>  <CHROM.1>
-72.54809563,-136.23591574,-8.83934832,4.26356144,-7.45355035,2.62220364
0.06076971,-2.09759481

>  <Name>
lig.pdb

>  <RI>
9.06885e+06

>  <Rbt.Current_Directory>
/home/itssahil/PROJECTS/Mol_Feturizer/New_Systems/rnas/2miy

>  <Rbt.Executable>
rbdock ($Id: //depot/dev/client3/rdock/2013.1/src/exe/rbdock.cxx#4 $)

>  <Rbt.Library>
libRbt.so (2013.1, Build901 2013/11/27)

>  <Rbt.Parameter_File>
/export/apps/rDock/src/rDock_2013.1_src/data/scripts/dock_solv.prm

>  <Rbt.Receptor>
prm/pocket_docking_6.prm

>  <SCORE>
-44.8103

>  <SCORE.INTER>
-46.2748

>  <SCORE.INTER.CONST>
1

>  <SCORE.INTER.POLAR>
-5.56028

>  <SCORE.INTER.ROT>
2

>  <SCORE.INTER.SOLV>
19.2024

>  <SCORE.INTER.VDW>
-23.6497

>  <SCORE.INTER.norm>
-3.5596

>  <SCORE.INTRA>
1.46285

>  <SCORE.INTRA.DIHEDRAL>
-0.113617

>  <SCORE.INTRA.DIHEDRAL.0>
1.76676

>  <SCORE.INTRA.POLAR>
0.472211

>  <SCORE.INTRA.POLAR.0>
-0.472211

>  <SCORE.INTRA.REPUL>
0

>  <SCORE.INTRA.REPUL.0>
0

>  <SCORE.INTRA.SOLV>
-0.27746

>  <SCORE.INTRA.SOLV.lig_0>
-22.5855

>  <SCORE.INTRA.VDW>
0.0528703

>  <SCORE.INTRA.VDW.0>
-0.733656

>  <SCORE.INTRA.norm>
0.112527

>  <SCORE.RESTR>
0.00163045

>  <SCORE.RESTR.CAVITY>
0.00163045

>  <SCORE.RESTR.norm>
0.000125419

>  <SCORE.SYSTEM>
0

>  <SCORE.SYSTEM.CONST>
0

>  <SCORE.SYSTEM.DIHEDRAL>
0

>  <SCORE.SYSTEM.SOLV>
0

>  <SCORE.SYSTEM.norm>
0

>  <SCORE.heavy>
13

>  <SCORE.norm>
-3.44695

>  <RMSD>
0.672

$$$$
lig.pdb
 OpenBabel11021811453D
libRbt.so/2013.1/901 2013/11/27
 13 14  0  0  0  0  0  0  0  0999 V2000
  -10.8197    4.5358   -7.1539 N   0  0  0  0  0  0  0  0  0  0  0  0
  -10.9510    3.7756   -8.2814 C   0  0  0  0  0  0  0  0  0  0  0  0
   -9.8793    3.3379   -8.9177 N   0  0  0  0  0  0  0  0  0  0  0  0
   -8.6117    3.6208   -8.4881 C   0  0  0  0  0  0  0  0  0  0  0  0
   -8.4177    4.4097   -7.3282 C   0  0  0  0  0  0  0  0  0  0  0  0
   -9.5814    4.8774   -6.6465 C   0  0  0  0  0  0  0  0  0  0  0  0
   -9.4849    5.5621   -5.6431 O   0  0  0  0  0  0  0  0  0  0  0  0
   -6.9667    4.5352   -7.1470 C   0  0  0  0  0  0  0  0  0  0  0  0
   -6.2364    5.2927   -6.0698 C   0  0  0  0  0  0  0  0  0  0  0  0
   -7.0243    6.4676   -5.6742 N   0  0  0  0  0  0  0  0  0  0  0  0
   -6.4075    3.8389   -8.1444 C   0  0  0  0  0  0  0  0  0  0  0  0
   -7.3739    3.2977   -8.9496 N   0  0  0  0  0  0  0  0  0  0  0  0
  -12.2012    3.4675   -8.7524 N   0  0  0  0  0  0  0  0  0  0  0  0
  1  6  1  0  0  0  0
  2  1  1  0  0  0  0
  3  4  1  0  0  0  0
  3  2  2  0  0  0  0
  4  5  2  0  0  0  0
  5  8  1  0  0  0  0
  5  6  1  0  0  0  0
  6  7  2  0  0  0  0
  8  9  1  0  0  0  0
  9 10  1  0  0  0  0
 11  8  2  0  0  0  0
 12  4  1  0  0  0  0
 12 11  1  0  0  0  0
 13  2  1  0  0  0  0
M  END
>  <CHROM.1>
-31.92317600,-123.19873178,-8.81300464,4.41996937,-7.44946113,2.62334151
-0.01366718,-2.24460593

>  <Name>
lig.pdb

>  <RI>
1.82164e+07

>  <Rbt.Current_Directory>
/home/itssahil/PROJECTS/Mol_Feturizer/New_Systems/rnas/2miy

>  <Rbt.Executable>
rbdock ($Id: //depot/dev/client3/rdock/2013.1/src/exe/rbdock.cxx#4 $)

>  <Rbt.Library>
libRbt.so (2013.1, Build901 2013/11/27)

>  <Rbt.Parameter_File>
/export/apps/rDock/src/rDock_2013.1_src/data/scripts/dock_solv.prm

>  <Rbt.Receptor>
prm/blind_docking_80.prm

>  <SCORE>
-49.2685

>  <SCORE.INTER>
-48.7584

>  <SCORE.INTER.CONST>
1

>  <SCORE.INTER.POLAR>
-5.40427

>  <SCORE.INTER.ROT>
2

>  <SCORE.INTER.SOLV>
19.0282

>  <SCORE.INTER.VDW>
-25.7674

>  <SCORE.INTER.norm>
-3.75064

>  <SCORE.INTRA>
-0.546167

>  <SCORE.INTRA.DIHEDRAL>
0.647987

>  <SCORE.INTRA.DIHEDRAL.0>
1.76676

>  <SCORE.INTRA.POLAR>
-0.367892

>  <SCORE.INTRA.POLAR.0>
-0.472211

>  <SCORE.INTRA.REPUL>
0

>  <SCORE.INTRA.REPUL.0>
0

>  <SCORE.INTRA.SOLV>
0.115292

>  <SCORE.INTRA.SOLV.lig_0>
-22.5855

>  <SCORE.INTRA.VDW>
0.323028

>  <SCORE.INTRA.VDW.0>
-0.733656

>  <SCORE.INTRA.norm>
-0.0420129

>  <SCORE.RESTR>
0.0360779

>  <SCORE.RESTR.CAVITY>
0.0360779

>  <SCORE.RESTR.norm>
0.00277522

>  <SCORE.SYSTEM>
0

>  <SCORE.SYSTEM.CONST>
0

>  <SCORE.SYSTEM.DIHEDRAL>
0

>  <SCORE.SYSTEM.SOLV>
0

>  <SCORE.SYSTEM.norm>
0

>  <SCORE.heavy>
13

>  <SCORE.norm>
-3.78988

>  <RMSD>
0.673

$$$$
lig.pdb
 OpenBabel11021811453D
libRbt.so/2013.1/901 2013/11/27
 13 14  0  0  0  0  0  0  0  0999 V2000
  -10.8197    4.5428   -7.1578 N   0  0  0  0  0  0  0  0  0  0  0  0
  -10.9532    3.7848   -8.2865 C   0  0  0  0  0  0  0  0  0  0  0  0
   -9.8829    3.3446   -8.9233 N   0  0  0  0  0  0  0  0  0  0  0  0
   -8.6144    3.6227   -8.4929 C   0  0  0  0  0  0  0  0  0  0  0  0
   -8.4181    4.4091   -7.3318 C   0  0  0  0  0  0  0  0  0  0  0  0
   -9.5804    4.8796   -6.6496 C   0  0  0  0  0  0  0  0  0  0  0  0
   -9.4819    5.5624   -5.6451 O   0  0  0  0  0  0  0  0  0  0  0  0
   -6.9667    4.5296   -7.1501 C   0  0  0  0  0  0  0  0  0  0  0  0
   -6.2342    5.2831   -6.0715 C   0  0  0  0  0  0  0  0  0  0  0  0
   -7.0231    6.4543   -5.6672 N   0  0  0  0  0  0  0  0  0  0  0  0
   -6.4096    3.8331   -8.1484 C   0  0  0  0  0  0  0  0  0  0  0  0
   -7.3776    3.2962   -8.9547 N   0  0  0  0  0  0  0  0  0  0  0  0
  -12.2044    3.4816   -8.7583 N   0  0  0  0  0  0  0  0  0  0  0  0
  1  6  1  0  0  0  0
  2  1  1  0  0  0  0
  3  4  1  0  0  0  0
  3  2  2  0  0  0  0
  4  5  2  0  0  0  0
  5  8  1  0  0  0  0
  5  6  1  0  0  0  0
  6  7  2  0  0  0  0
  8  9  1  0  0  0  0
  9 10  1  0  0  0  0
 11  8  2  0  0  0  0
 12  4  1  0  0  0  0
 12 11  1  0  0  0  0
 13  2  1  0  0  0  0
M  END
>  <CHROM.1>
-31.50540745,-124.11615671,-8.81379058,4.42038517,-7.45243996,2.62488216
-0.01070236,-2.24226823

>  <Name>
lig.pdb

>  <RI>
1.17462e+07

>  <Rbt.Current_Directory>
/home/itssahil/PROJECTS/Mol_Feturizer/New_Systems/rnas/2miy

>  <Rbt.Executable>
rbdock ($Id: //depot/dev/client3/rdock/2013.1/src/exe/rbdock.cxx#4 $)

>  <Rbt.Library>
libRbt.so (2013.1, Build901 2013/11/27)

>  <Rbt.Parameter_File>
/export/apps/rDock/src/rDock_2013.1_src/data/scripts/dock_solv.prm

>  <Rbt.Receptor>
prm/blind_docking_40.prm

>  <SCORE>
-49.2804

>  <SCORE.INTER>
-48.7942

>  <SCORE.INTER.CONST>
1

>  <SCORE.INTER.POLAR>
-5.42968

>  <SCORE.INTER.ROT>
2

>  <SCORE.INTER.SOLV>
19.0275

>  <SCORE.INTER.VDW>
-25.7064

>  <SCORE.INTER.norm>
-3.7534

>  <SCORE.INTRA>
-0.526172

>  <SCORE.INTRA.DIHEDRAL>
0.670491

>  <SCORE.INTRA.DIHEDRAL.0>
1.76676

>  <SCORE.INTRA.POLAR>
-0.373711

>  <SCORE.INTRA.POLAR.0>
-0.472211

>  <SCORE.INTRA.REPUL>
0

>  <SCORE.INTRA.REPUL.0>
0

>  <SCORE.INTRA.SOLV>
0.120964

>  <SCORE.INTRA.SOLV.lig_0>
-22.5855

>  <SCORE.INTRA.VDW>
0.348717

>  <SCORE.INTRA.VDW.0>
-0.733656

>  <SCORE.INTRA.norm>
-0.0404748

>  <SCORE.RESTR>
0.039942

>  <SCORE.RESTR.CAVITY>
0.039942

>  <SCORE.RESTR.norm>
0.00307246

>  <SCORE.SYSTEM>
0

>  <SCORE.SYSTEM.CONST>
0

>  <SCORE.SYSTEM.DIHEDRAL>
0

>  <SCORE.SYSTEM.SOLV>
0

>  <SCORE.SYSTEM.norm>
0

>  <SCORE.heavy>
13

>  <SCORE.norm>
-3.7908

>  <RMSD>
0.674

$$$$
lig.pdb
 OpenBabel11021811453D
libRbt.so/2013.1/901 2013/11/27
 13 14  0  0  0  0  0  0  0  0999 V2000
  -10.8197    4.5405   -7.1602 N   0  0  0  0  0  0  0  0  0  0  0  0
  -10.9505    3.7808   -8.2881 C   0  0  0  0  0  0  0  0  0  0  0  0
   -9.8786    3.3421   -8.9233 N   0  0  0  0  0  0  0  0  0  0  0  0
   -8.6112    3.6235   -8.4921 C   0  0  0  0  0  0  0  0  0  0  0  0
   -8.4176    4.4117   -7.3317 C   0  0  0  0  0  0  0  0  0  0  0  0
   -9.5816    4.8805   -6.6512 C   0  0  0  0  0  0  0  0  0  0  0  0
   -9.4855    5.5648   -5.6475 O   0  0  0  0  0  0  0  0  0  0  0  0
   -6.9667    4.5355   -7.1488 C   0  0  0  0  0  0  0  0  0  0  0  0
   -6.2368    5.2919   -6.0705 C   0  0  0  0  0  0  0  0  0  0  0  0
   -7.0302    6.4600   -5.6658 N   0  0  0  0  0  0  0  0  0  0  0  0
   -6.4071    3.8389   -8.1457 C   0  0  0  0  0  0  0  0  0  0  0  0
   -7.3733    3.2990   -8.9523 N   0  0  0  0  0  0  0  0  0  0  0  0
  -12.2006    3.4743   -8.7607 N   0  0  0  0  0  0  0  0  0  0  0  0
  1  6  1  0  0  0  0
  2  1  1  0  0  0  0
  3  4  1  0  0  0  0
  3  2  2  0  0  0  0
  4  5  2  0  0  0  0
  5  8  1  0  0  0  0
  5  6  1  0  0  0  0
  6  7  2  0  0  0  0
  8  9  1  0  0  0  0
  9 10  1  0  0  0  0
 11  8  2  0  0  0  0
 12  4  1  0  0  0  0
 12 11  1  0  0  0  0
 13  2  1  0  0  0  0
M  END
>  <CHROM.1>
-31.35675924,-124.84988759,-8.81339462,4.42179192,-7.45253712,2.62269332
-0.01167099,-2.24326871

>  <Name>
lig.pdb

>  <RI>
1.17462e+07

>  <Rbt.Current_Directory>
/home/itssahil/PROJECTS/Mol_Feturizer/New_Systems/rnas/2miy

>  <Rbt.Executable>
rbdock ($Id: //depot/dev/client3/rdock/2013.1/src/exe/rbdock.cxx#4 $)

>  <Rbt.Library>
libRbt.so (2013.1, Build901 2013/11/27)

>  <Rbt.Parameter_File>
/export/apps/rDock/src/rDock_2013.1_src/data/scripts/dock_solv.prm

>  <Rbt.Receptor>
prm/blind_docking_40.prm

>  <SCORE>
-49.2734

>  <SCORE.INTER>
-48.7936

>  <SCORE.INTER.CONST>
1

>  <SCORE.INTER.POLAR>
-5.40481

>  <SCORE.INTER.ROT>
2

>  <SCORE.INTER.SOLV>
19.0301

>  <SCORE.INTER.VDW>
-25.7897

>  <SCORE.INTER.norm>
-3.75335

>  <SCORE.INTRA>
-0.51553

>  <SCORE.INTRA.DIHEDRAL>
0.677882

>  <SCORE.INTRA.DIHEDRAL.0>
1.76676

>  <SCORE.INTRA.POLAR>
-0.37616

>  <SCORE.INTRA.POLAR.0>
-0.472211

>  <SCORE.INTRA.REPUL>
0

>  <SCORE.INTRA.REPUL.0>
0

>  <SCORE.INTRA.SOLV>
0.123766

>  <SCORE.INTRA.SOLV.lig_0>
-22.5855

>  <SCORE.INTRA.VDW>
0.362591

>  <SCORE.INTRA.VDW.0>
-0.733656

>  <SCORE.INTRA.norm>
-0.0396561

>  <SCORE.RESTR>
0.035696

>  <SCORE.RESTR.CAVITY>
0.035696

>  <SCORE.RESTR.norm>
0.00274584

>  <SCORE.SYSTEM>
0

>  <SCORE.SYSTEM.CONST>
0

>  <SCORE.SYSTEM.DIHEDRAL>
0

>  <SCORE.SYSTEM.SOLV>
0

>  <SCORE.SYSTEM.norm>
0

>  <SCORE.heavy>
13

>  <SCORE.norm>
-3.79026

>  <RMSD>
0.676

$$$$
lig.pdb
 OpenBabel11021811453D
libRbt.so/2013.1/901 2013/11/27
 13 14  0  0  0  0  0  0  0  0999 V2000
  -10.8191    4.5438   -7.1615 N   0  0  0  0  0  0  0  0  0  0  0  0
  -10.9507    3.7824   -8.2882 C   0  0  0  0  0  0  0  0  0  0  0  0
   -9.8792    3.3408   -8.9222 N   0  0  0  0  0  0  0  0  0  0  0  0
   -8.6115    3.6207   -8.4908 C   0  0  0  0  0  0  0  0  0  0  0  0
   -8.4172    4.4105   -7.3317 C   0  0  0  0  0  0  0  0  0  0  0  0
   -9.5807    4.8825   -6.6526 C   0  0  0  0  0  0  0  0  0  0  0  0
   -9.4839    5.5683   -5.6499 O   0  0  0  0  0  0  0  0  0  0  0  0
   -6.9661    4.5321   -7.1483 C   0  0  0  0  0  0  0  0  0  0  0  0
   -6.2354    5.2890   -6.0708 C   0  0  0  0  0  0  0  0  0  0  0  0
   -7.0259    6.4606   -5.6703 N   0  0  0  0  0  0  0  0  0  0  0  0
   -6.4073    3.8329   -8.1437 C   0  0  0  0  0  0  0  0  0  0  0  0
   -7.3739    3.2933   -8.9499 N   0  0  0  0  0  0  0  0  0  0  0  0
  -12.2010    3.4773   -8.7609 N   0  0  0  0  0  0  0  0  0  0  0  0
  1  6  1  0  0  0  0
  2  1  1  0  0  0  0
  3  4  1  0  0  0  0
  3  2  2  0  0  0  0
  4  5  2  0  0  0  0
  5  8  1  0  0  0  0
  5  6  1  0  0  0  0
  6  7  2  0  0  0  0
  8  9  1  0  0  0  0
  9 10  1  0  0  0  0
 11  8  2  0  0  0  0
 12  4  1  0  0  0  0
 12 11  1  0  0  0  0
 13  2  1  0  0  0  0
M  END
>  <CHROM.1>
-31.46066127,57.11374842,-8.81280614,4.42124269,-7.45303699,2.62366749,-0.01012204
-2.24519319

>  <Name>
lig.pdb

>  <RI>
3.47783e+07

>  <Rbt.Current_Directory>
/home/itssahil/PROJECTS/Mol_Feturizer/New_Systems/rnas/2miy

>  <Rbt.Executable>
rbdock ($Id: //depot/dev/client3/rdock/2013.1/src/exe/rbdock.cxx#4 $)

>  <Rbt.Library>
libRbt.so (2013.1, Build901 2013/11/27)

>  <Rbt.Parameter_File>
/export/apps/rDock/src/rDock_2013.1_src/data/scripts/dock_solv.prm

>  <Rbt.Receptor>
prm/pocket_docking_8.prm

>  <SCORE>
-49.3094

>  <SCORE.INTER>
-48.7894

>  <SCORE.INTER.CONST>
1

>  <SCORE.INTER.POLAR>
-5.41984

>  <SCORE.INTER.ROT>
2

>  <SCORE.INTER.SOLV>
19.0299

>  <SCORE.INTER.VDW>
-25.7367

>  <SCORE.INTER.norm>
-3.75303

>  <SCORE.INTRA>
-0.520034

>  <SCORE.INTRA.DIHEDRAL>
0.682606

>  <SCORE.INTRA.DIHEDRAL.0>
1.76676

>  <SCORE.INTRA.POLAR>
-0.372937

>  <SCORE.INTRA.POLAR.0>
-0.472211

>  <SCORE.INTRA.REPUL>
0

>  <SCORE.INTRA.REPUL.0>
0

>  <SCORE.INTRA.SOLV>
0.121351

>  <SCORE.INTRA.SOLV.lig_0>
-22.5855

>  <SCORE.INTRA.VDW>
0.345972

>  <SCORE.INTRA.VDW.0>
-0.733656

>  <SCORE.INTRA.norm>
-0.0400026

>  <SCORE.RESTR>
0

>  <SCORE.RESTR.CAVITY>
0

>  <SCORE.RESTR.norm>
0

>  <SCORE.SYSTEM>
0

>  <SCORE.SYSTEM.CONST>
0

>  <SCORE.SYSTEM.DIHEDRAL>
0

>  <SCORE.SYSTEM.SOLV>
0

>  <SCORE.SYSTEM.norm>
0

>  <SCORE.heavy>
13

>  <SCORE.norm>
-3.79303

>  <RMSD>
0.677

$$$$
lig.pdb
 OpenBabel11021811453D
libRbt.so/2013.1/901 2013/11/27
 13 14  0  0  0  0  0  0  0  0999 V2000
  -10.8234    4.5174   -7.1362 N   0  0  0  0  0  0  0  0  0  0  0  0
  -10.9461    3.8229   -8.3063 C   0  0  0  0  0  0  0  0  0  0  0  0
   -9.8699    3.4106   -8.9517 N   0  0  0  0  0  0  0  0  0  0  0  0
   -8.6058    3.6560   -8.4899 C   0  0  0  0  0  0  0  0  0  0  0  0
   -8.4205    4.3767   -7.2852 C   0  0  0  0  0  0  0  0  0  0  0  0
   -9.5892    4.8174   -6.5940 C   0  0  0  0  0  0  0  0  0  0  0  0
   -9.5002    5.4439   -5.5525 O   0  0  0  0  0  0  0  0  0  0  0  0
   -6.9711    4.4770   -7.0778 C   0  0  0  0  0  0  0  0  0  0  0  0
   -6.2487    5.1655   -5.9501 C   0  0  0  0  0  0  0  0  0  0  0  0
   -6.6812    6.5672   -5.8720 N   0  0  0  0  0  0  0  0  0  0  0  0
   -6.4046    3.8319   -8.1051 C   0  0  0  0  0  0  0  0  0  0  0  0
   -7.3648    3.3465   -8.9523 N   0  0  0  0  0  0  0  0  0  0  0  0
  -12.1926    3.5545   -8.8106 N   0  0  0  0  0  0  0  0  0  0  0  0
  1  6  1  0  0  0  0
  2  1  1  0  0  0  0
  3  4  1  0  0  0  0
  3  2  2  0  0  0  0
  4  5  2  0  0  0  0
  5  8  1  0  0  0  0
  5  6  1  0  0  0  0
  6  7  2  0  0  0  0
  8  9  1  0  0  0  0
  9 10  1  0  0  0  0
 11  8  2  0  0  0  0
 12  4  1  0  0  0  0
 12 11  1  0  0  0  0
 13  2  1  0  0  0  0
M  END
>  <CHROM.1>
-55.50195722,4.23051407,-8.78134467,4.42048374,-7.44579598,2.64092754,-0.01398557
-2.22070523

>  <Name>
lig.pdb

>  <RI>
4.2128e+07

>  <Rbt.Current_Directory>
/home/itssahil/PROJECTS/Mol_Feturizer/New_Systems/rnas/2miy

>  <Rbt.Executable>
rbdock ($Id: //depot/dev/client3/rdock/2013.1/src/exe/rbdock.cxx#4 $)

>  <Rbt.Library>
libRbt.so (2013.1, Build901 2013/11/27)

>  <Rbt.Parameter_File>
/export/apps/rDock/src/rDock_2013.1_src/data/scripts/dock_solv.prm

>  <Rbt.Receptor>
prm/pocket_docking_5.prm

>  <SCORE>
-47.2153

>  <SCORE.INTER>
-48.7307

>  <SCORE.INTER.CONST>
1

>  <SCORE.INTER.POLAR>
-5.66066

>  <SCORE.INTER.ROT>
2

>  <SCORE.INTER.SOLV>
19.6212

>  <SCORE.INTER.VDW>
-25.092

>  <SCORE.INTER.norm>
-3.74851

>  <SCORE.INTRA>
1.4655

>  <SCORE.INTRA.DIHEDRAL>
-0.291337

>  <SCORE.INTRA.DIHEDRAL.0>
1.76676

>  <SCORE.INTRA.POLAR>
0.472211

>  <SCORE.INTRA.POLAR.0>
-0.472211

>  <SCORE.INTRA.REPUL>
0

>  <SCORE.INTRA.REPUL.0>
0

>  <SCORE.INTRA.SOLV>
-0.123677

>  <SCORE.INTRA.SOLV.lig_0>
-22.5855

>  <SCORE.INTRA.VDW>
0.0674883

>  <SCORE.INTRA.VDW.0>
-0.733656

>  <SCORE.INTRA.norm>
0.112731

>  <SCORE.RESTR>
0.0498594

>  <SCORE.RESTR.CAVITY>
0.0498594

>  <SCORE.RESTR.norm>
0.00383534

>  <SCORE.SYSTEM>
0

>  <SCORE.SYSTEM.CONST>
0

>  <SCORE.SYSTEM.DIHEDRAL>
0

>  <SCORE.SYSTEM.SOLV>
0

>  <SCORE.SYSTEM.norm>
0

>  <SCORE.heavy>
13

>  <SCORE.norm>
-3.63195

>  <RMSD>
0.678

$$$$
lig.pdb
 OpenBabel11021811453D
libRbt.so/2013.1/901 2013/11/27
 13 14  0  0  0  0  0  0  0  0999 V2000
  -10.8320    4.4886   -7.1253 N   0  0  0  0  0  0  0  0  0  0  0  0
  -10.9630    3.7303   -8.2542 C   0  0  0  0  0  0  0  0  0  0  0  0
   -9.8913    3.3024   -8.8969 N   0  0  0  0  0  0  0  0  0  0  0  0
   -8.6237    3.5937   -8.4727 C   0  0  0  0  0  0  0  0  0  0  0  0
   -8.4300    4.3810   -7.3117 C   0  0  0  0  0  0  0  0  0  0  0  0
   -9.5938    4.8382   -6.6231 C   0  0  0  0  0  0  0  0  0  0  0  0
   -9.4976    5.5210   -5.6184 O   0  0  0  0  0  0  0  0  0  0  0  0
   -6.9791    4.5169   -7.1373 C   0  0  0  0  0  0  0  0  0  0  0  0
   -6.2492    5.2771   -6.0616 C   0  0  0  0  0  0  0  0  0  0  0  0
   -6.9475    5.1089   -4.7803 N   0  0  0  0  0  0  0  0  0  0  0  0
   -6.4195    3.8274   -8.1391 C   0  0  0  0  0  0  0  0  0  0  0  0
   -7.3859    3.2810   -8.9411 N   0  0  0  0  0  0  0  0  0  0  0  0
  -12.2132    3.4141   -8.7199 N   0  0  0  0  0  0  0  0  0  0  0  0
  1  6  1  0  0  0  0
  2  1  1  0  0  0  0
  3  4  1  0  0  0  0
  3  2  2  0  0  0  0
  4  5  2  0  0  0  0
  5  8  1  0  0  0  0
  5  6  1  0  0  0  0
  6  7  2  0  0  0  0
  8  9  1  0  0  0  0
  9 10  1  0  0  0  0
 11  8  2  0  0  0  0
 12  4  1  0  0  0  0
 12 11  1  0  0  0  0
 13  2  1  0  0  0  0
M  END
>  <CHROM.1>
38.80345027,-62.27707794,-8.81694321,4.26404819,-7.34906407,2.62665741,0.01358455
-2.08769769

>  <Name>
lig.pdb

>  <RI>
2.60406e+07

>  <Rbt.Current_Directory>
/home/itssahil/PROJECTS/Mol_Feturizer/New_Systems/rnas/2miy

>  <Rbt.Executable>
rbdock ($Id: //depot/dev/client3/rdock/2013.1/src/exe/rbdock.cxx#4 $)

>  <Rbt.Library>
libRbt.so (2013.1, Build901 2013/11/27)

>  <Rbt.Parameter_File>
/export/apps/rDock/src/rDock_2013.1_src/data/scripts/dock_solv.prm

>  <Rbt.Receptor>
prm/pocket_docking_7.prm

>  <SCORE>
-48.2403

>  <SCORE.INTER>
-47.7081

>  <SCORE.INTER.CONST>
1

>  <SCORE.INTER.POLAR>
-5.34407

>  <SCORE.INTER.ROT>
2

>  <SCORE.INTER.SOLV>
17.4152

>  <SCORE.INTER.VDW>
-24.7302

>  <SCORE.INTER.norm>
-3.66985

>  <SCORE.INTRA>
-0.707078

>  <SCORE.INTRA.DIHEDRAL>
0.296186

>  <SCORE.INTRA.DIHEDRAL.0>
1.76676

>  <SCORE.INTRA.POLAR>
-0.29227

>  <SCORE.INTRA.POLAR.0>
-0.472211

>  <SCORE.INTRA.REPUL>
0

>  <SCORE.INTRA.REPUL.0>
0

>  <SCORE.INTRA.SOLV>
0.0587191

>  <SCORE.INTRA.SOLV.lig_0>
-22.5855

>  <SCORE.INTRA.VDW>
0.109187

>  <SCORE.INTRA.VDW.0>
-0.733656

>  <SCORE.INTRA.norm>
-0.0543906

>  <SCORE.RESTR>
0.174882

>  <SCORE.RESTR.CAVITY>
0.174882

>  <SCORE.RESTR.norm>
0.0134525

>  <SCORE.SYSTEM>
0

>  <SCORE.SYSTEM.CONST>
0

>  <SCORE.SYSTEM.DIHEDRAL>
0

>  <SCORE.SYSTEM.SOLV>
0

>  <SCORE.SYSTEM.norm>
0

>  <SCORE.heavy>
13

>  <SCORE.norm>
-3.71079

>  <RMSD>
0.678

$$$$
lig.pdb
 OpenBabel11021811453D
libRbt.so/2013.1/901 2013/11/27
 13 14  0  0  0  0  0  0  0  0999 V2000
  -10.8357    4.4818   -7.1398 N   0  0  0  0  0  0  0  0  0  0  0  0
  -10.9617    3.7225   -8.2685 C   0  0  0  0  0  0  0  0  0  0  0  0
   -9.8871    3.2962   -8.9074 N   0  0  0  0  0  0  0  0  0  0  0  0
   -8.6214    3.5902   -8.4794 C   0  0  0  0  0  0  0  0  0  0  0  0
   -8.4329    4.3787   -7.3184 C   0  0  0  0  0  0  0  0  0  0  0  0
   -9.5999    4.8342   -6.6339 C   0  0  0  0  0  0  0  0  0  0  0  0
   -9.5081    5.5179   -5.6294 O   0  0  0  0  0  0  0  0  0  0  0  0
   -6.9829    4.5175   -7.1394 C   0  0  0  0  0  0  0  0  0  0  0  0
   -6.2579    5.2800   -6.0620 C   0  0  0  0  0  0  0  0  0  0  0  0
   -6.9641    5.1172   -4.7842 N   0  0  0  0  0  0  0  0  0  0  0  0
   -6.4188    3.8284   -8.1390 C   0  0  0  0  0  0  0  0  0  0  0  0
   -7.3815    3.2796   -8.9436 N   0  0  0  0  0  0  0  0  0  0  0  0
  -12.2098    3.4035   -8.7381 N   0  0  0  0  0  0  0  0  0  0  0  0
  1  6  1  0  0  0  0
  2  1  1  0  0  0  0
  3  4  1  0  0  0  0
  3  2  2  0  0  0  0
  4  5  2  0  0  0  0
  5  8  1  0  0  0  0
  5  6  1  0  0  0  0
  6  7  2  0  0  0  0
  8  9  1  0  0  0  0
  9 10  1  0  0  0  0
 11  8  2  0  0  0  0
 12  4  1  0  0  0  0
 12 11  1  0  0  0  0
 13  2  1  0  0  0  0
M  END
>  <CHROM.1>
38.49961815,117.06602525,-8.81999604,4.26141411,-7.35710994,2.62284517,0.01332536
-2.08880873

>  <Name>
lig.pdb

>  <RI>
2.60406e+07

>  <Rbt.Current_Directory>
/home/itssahil/PROJECTS/Mol_Feturizer/New_Systems/rnas/2miy

>  <Rbt.Executable>
rbdock ($Id: //depot/dev/client3/rdock/2013.1/src/exe/rbdock.cxx#4 $)

>  <Rbt.Library>
libRbt.so (2013.1, Build901 2013/11/27)

>  <Rbt.Parameter_File>
/export/apps/rDock/src/rDock_2013.1_src/data/scripts/dock_solv.prm

>  <Rbt.Receptor>
prm/pocket_docking_7.prm

>  <SCORE>
-48.2001

>  <SCORE.INTER>
-47.6532

>  <SCORE.INTER.CONST>
1

>  <SCORE.INTER.POLAR>
-5.29173

>  <SCORE.INTER.ROT>
2

>  <SCORE.INTER.SOLV>
17.4264

>  <SCORE.INTER.VDW>
-24.8718

>  <SCORE.INTER.norm>
-3.66563

>  <SCORE.INTRA>
-0.713814

>  <SCORE.INTRA.DIHEDRAL>
0.305261

>  <SCORE.INTRA.DIHEDRAL.0>
1.76676

>  <SCORE.INTRA.POLAR>
-0.29816

>  <SCORE.INTRA.POLAR.0>
-0.472211

>  <SCORE.INTRA.REPUL>
0

>  <SCORE.INTRA.REPUL.0>
0

>  <SCORE.INTRA.SOLV>
0.0625483

>  <SCORE.INTRA.SOLV.lig_0>
-22.5855

>  <SCORE.INTRA.VDW>
0.116025

>  <SCORE.INTRA.VDW.0>
-0.733656

>  <SCORE.INTRA.norm>
-0.0549088

>  <SCORE.RESTR>
0.166916

>  <SCORE.RESTR.CAVITY>
0.166916

>  <SCORE.RESTR.norm>
0.0128397

>  <SCORE.SYSTEM>
0

>  <SCORE.SYSTEM.CONST>
0

>  <SCORE.SYSTEM.DIHEDRAL>
0

>  <SCORE.SYSTEM.SOLV>
0

>  <SCORE.SYSTEM.norm>
0

>  <SCORE.heavy>
13

>  <SCORE.norm>
-3.7077

>  <RMSD>
0.679

$$$$
lig.pdb
 OpenBabel11021811453D
libRbt.so/2013.1/901 2013/11/27
 13 14  0  0  0  0  0  0  0  0999 V2000
  -10.8483    4.4644   -7.1942 N   0  0  0  0  0  0  0  0  0  0  0  0
  -11.0260    3.6957   -8.3095 C   0  0  0  0  0  0  0  0  0  0  0  0
   -9.9814    3.2382   -8.9761 N   0  0  0  0  0  0  0  0  0  0  0  0
   -8.6969    3.5085   -8.5907 C   0  0  0  0  0  0  0  0  0  0  0  0
   -8.4551    4.3053   -7.4454 C   0  0  0  0  0  0  0  0  0  0  0  0
   -9.5899    4.7945   -6.7307 C   0  0  0  0  0  0  0  0  0  0  0  0
   -9.4520    5.4871   -5.7376 O   0  0  0  0  0  0  0  0  0  0  0  0
   -6.9975    4.4135   -7.3127 C   0  0  0  0  0  0  0  0  0  0  0  0
   -6.2228    5.1714   -6.2671 C   0  0  0  0  0  0  0  0  0  0  0  0
   -7.0161    6.3163   -5.8007 N   0  0  0  0  0  0  0  0  0  0  0  0
   -6.4801    3.7009   -8.3209 C   0  0  0  0  0  0  0  0  0  0  0  0
   -7.4791    3.1649   -9.0891 N   0  0  0  0  0  0  0  0  0  0  0  0
  -12.2948    3.3996   -8.7367 N   0  0  0  0  0  0  0  0  0  0  0  0
  1  6  1  0  0  0  0
  2  1  1  0  0  0  0
  3  4  1  0  0  0  0
  3  2  2  0  0  0  0
  4  5  2  0  0  0  0
  5  8  1  0  0  0  0
  5  6  1  0  0  0  0
  6  7  2  0  0  0  0
  8  9  1  0  0  0  0
  9 10  1  0  0  0  0
 11  8  2  0  0  0  0
 12  4  1  0  0  0  0
 12 11  1  0  0  0  0
 13  2  1  0  0  0  0
M  END
>  <CHROM.1>
-28.64541494,-126.34357257,-8.85717639,4.31560708,-7.54850133,2.65452560
-0.02184770,-2.24730967

>  <Name>
lig.pdb

>  <RI>
1.8118e+07

>  <Rbt.Current_Directory>
/home/itssahil/PROJECTS/Mol_Feturizer/New_Systems/rnas/2miy

>  <Rbt.Executable>
rbdock ($Id: //depot/dev/client3/rdock/2013.1/src/exe/rbdock.cxx#4 $)

>  <Rbt.Library>
libRbt.so (2013.1, Build901 2013/11/27)

>  <Rbt.Parameter_File>
/export/apps/rDock/src/rDock_2013.1_src/data/scripts/dock_solv.prm

>  <Rbt.Receptor>
prm/blind_docking_100.prm

>  <SCORE>
-45.5443

>  <SCORE.INTER>
-47.6738

>  <SCORE.INTER.CONST>
1

>  <SCORE.INTER.POLAR>
-5.4207

>  <SCORE.INTER.ROT>
2

>  <SCORE.INTER.SOLV>
19.1266

>  <SCORE.INTER.VDW>
-25.0224

>  <SCORE.INTER.norm>
-3.66721

>  <SCORE.INTRA>
-0.36117

>  <SCORE.INTRA.DIHEDRAL>
0.831613

>  <SCORE.INTRA.DIHEDRAL.0>
1.76676

>  <SCORE.INTRA.POLAR>
-0.398179

>  <SCORE.INTRA.POLAR.0>
-0.472211

>  <SCORE.INTRA.REPUL>
0

>  <SCORE.INTRA.REPUL.0>
0

>  <SCORE.INTRA.SOLV>
0.150321

>  <SCORE.INTRA.SOLV.lig_0>
-22.5855

>  <SCORE.INTRA.VDW>
0.501671

>  <SCORE.INTRA.VDW.0>
-0.733656

>  <SCORE.INTRA.norm>
-0.0277823

>  <SCORE.RESTR>
2.49064

>  <SCORE.RESTR.CAVITY>
2.49064

>  <SCORE.RESTR.norm>
0.191588

>  <SCORE.SYSTEM>
0

>  <SCORE.SYSTEM.CONST>
0

>  <SCORE.SYSTEM.DIHEDRAL>
0

>  <SCORE.SYSTEM.SOLV>
0

>  <SCORE.SYSTEM.norm>
0

>  <SCORE.heavy>
13

>  <SCORE.norm>
-3.50341

>  <RMSD>
0.682

$$$$
lig.pdb
 OpenBabel11021811453D
libRbt.so/2013.1/901 2013/11/27
 13 14  0  0  0  0  0  0  0  0999 V2000
  -10.8507    4.4567   -7.1955 N   0  0  0  0  0  0  0  0  0  0  0  0
  -11.0310    3.6887   -8.3109 C   0  0  0  0  0  0  0  0  0  0  0  0
   -9.9880    3.2306   -8.9796 N   0  0  0  0  0  0  0  0  0  0  0  0
   -8.7026    3.4994   -8.5961 C   0  0  0  0  0  0  0  0  0  0  0  0
   -8.4581    4.2954   -7.4508 C   0  0  0  0  0  0  0  0  0  0  0  0
   -9.5912    4.7852   -6.7339 C   0  0  0  0  0  0  0  0  0  0  0  0
   -9.4509    5.4771   -5.7407 O   0  0  0  0  0  0  0  0  0  0  0  0
   -7.0001    4.4021   -7.3205 C   0  0  0  0  0  0  0  0  0  0  0  0
   -6.2229    5.1585   -6.2758 C   0  0  0  0  0  0  0  0  0  0  0  0
   -7.0077    6.3132   -5.8190 N   0  0  0  0  0  0  0  0  0  0  0  0
   -6.4851    3.6895   -8.3300 C   0  0  0  0  0  0  0  0  0  0  0  0
   -7.4860    3.1550   -9.0968 N   0  0  0  0  0  0  0  0  0  0  0  0
  -12.3008    3.3942   -8.7361 N   0  0  0  0  0  0  0  0  0  0  0  0
  1  6  1  0  0  0  0
  2  1  1  0  0  0  0
  3  4  1  0  0  0  0
  3  2  2  0  0  0  0
  4  5  2  0  0  0  0
  5  8  1  0  0  0  0
  5  6  1  0  0  0  0
  6  7  2  0  0  0  0
  8  9  1  0  0  0  0
  9 10  1  0  0  0  0
 11  8  2  0  0  0  0
 12  4  1  0  0  0  0
 12 11  1  0  0  0  0
 13  2  1  0  0  0  0
M  END
>  <CHROM.1>
-29.32152478,54.44385793,-8.85972998,4.30699005,-7.55446385,2.65708225,-0.02260489
-2.24806241

>  <Name>
lig.pdb

>  <RI>
0

>  <Rbt.Current_Directory>
/home/itssahil/PROJECTS/Mol_Feturizer/New_Systems/rnas/2miy

>  <Rbt.Executable>
rbdock ($Id: //depot/dev/client3/rdock/2013.1/src/exe/rbdock.cxx#4 $)

>  <Rbt.Library>
libRbt.so (2013.1, Build901 2013/11/27)

>  <Rbt.Parameter_File>
/export/apps/rDock/src/rDock_2013.1_src/data/scripts/dock_solv.prm

>  <Rbt.Receptor>
prm/blind_docking_60.prm

>  <SCORE>
-45.418

>  <SCORE.INTER>
-47.4837

>  <SCORE.INTER.CONST>
1

>  <SCORE.INTER.POLAR>
-5.41263

>  <SCORE.INTER.ROT>
2

>  <SCORE.INTER.SOLV>
19.1422

>  <SCORE.INTER.VDW>
-24.9278

>  <SCORE.INTER.norm>
-3.65259

>  <SCORE.INTRA>
-0.393393

>  <SCORE.INTRA.DIHEDRAL>
0.809846

>  <SCORE.INTRA.DIHEDRAL.0>
1.76676

>  <SCORE.INTRA.POLAR>
-0.394512

>  <SCORE.INTRA.POLAR.0>
-0.472211

>  <SCORE.INTRA.REPUL>
0

>  <SCORE.INTRA.REPUL.0>
0

>  <SCORE.INTRA.SOLV>
0.145439

>  <SCORE.INTRA.SOLV.lig_0>
-22.5855

>  <SCORE.INTRA.VDW>
0.470305

>  <SCORE.INTRA.VDW.0>
-0.733656

>  <SCORE.INTRA.norm>
-0.030261

>  <SCORE.RESTR>
2.45909

>  <SCORE.RESTR.CAVITY>
2.45909

>  <SCORE.RESTR.norm>
0.189161

>  <SCORE.SYSTEM>
0

>  <SCORE.SYSTEM.CONST>
0

>  <SCORE.SYSTEM.DIHEDRAL>
0

>  <SCORE.SYSTEM.SOLV>
0

>  <SCORE.SYSTEM.norm>
0

>  <SCORE.heavy>
13

>  <SCORE.norm>
-3.49369

>  <RMSD>
0.683

$$$$
lig.pdb
 OpenBabel11021811453D
libRbt.so/2013.1/901 2013/11/27
 13 14  0  0  0  0  0  0  0  0999 V2000
  -10.8263    4.5168   -7.1330 N   0  0  0  0  0  0  0  0  0  0  0  0
  -10.9647    3.7381   -8.2470 C   0  0  0  0  0  0  0  0  0  0  0  0
   -9.8971    3.2943   -8.8858 N   0  0  0  0  0  0  0  0  0  0  0  0
   -8.6268    3.5888   -8.4722 C   0  0  0  0  0  0  0  0  0  0  0  0
   -8.4255    4.3969   -7.3269 C   0  0  0  0  0  0  0  0  0  0  0  0
   -9.5849    4.8712   -6.6424 C   0  0  0  0  0  0  0  0  0  0  0  0
   -9.4821    5.5724   -5.6510 O   0  0  0  0  0  0  0  0  0  0  0  0
   -6.9735    4.5308   -7.1609 C   0  0  0  0  0  0  0  0  0  0  0  0
   -6.2365    5.3083   -6.1025 C   0  0  0  0  0  0  0  0  0  0  0  0
   -6.9660    5.2211   -4.8306 N   0  0  0  0  0  0  0  0  0  0  0  0
   -6.4204    3.8207   -8.1519 C   0  0  0  0  0  0  0  0  0  0  0  0
   -7.3920    3.2629   -8.9396 N   0  0  0  0  0  0  0  0  0  0  0  0
  -12.2179    3.4178   -8.7017 N   0  0  0  0  0  0  0  0  0  0  0  0
  1  6  1  0  0  0  0
  2  1  1  0  0  0  0
  3  4  1  0  0  0  0
  3  2  2  0  0  0  0
  4  5  2  0  0  0  0
  5  8  1  0  0  0  0
  5  6  1  0  0  0  0
  6  7  2  0  0  0  0
  8  9  1  0  0  0  0
  9 10  1  0  0  0  0
 11  8  2  0  0  0  0
 12  4  1  0  0  0  0
 12 11  1  0  0  0  0
 13  2  1  0  0  0  0
M  END
>  <CHROM.1>
36.03348626,119.47295811,-8.81644133,4.28569571,-7.36201383,2.62983256,0.01282740
-2.11099887

>  <Name>
lig.pdb

>  <RI>
2.60406e+07

>  <Rbt.Current_Directory>
/home/itssahil/PROJECTS/Mol_Feturizer/New_Systems/rnas/2miy

>  <Rbt.Executable>
rbdock ($Id: //depot/dev/client3/rdock/2013.1/src/exe/rbdock.cxx#4 $)

>  <Rbt.Library>
libRbt.so (2013.1, Build901 2013/11/27)

>  <Rbt.Parameter_File>
/export/apps/rDock/src/rDock_2013.1_src/data/scripts/dock_solv.prm

>  <Rbt.Receptor>
prm/pocket_docking_7.prm

>  <SCORE>
-48.4959

>  <SCORE.INTER>
-48.0194

>  <SCORE.INTER.CONST>
1

>  <SCORE.INTER.POLAR>
-5.43124

>  <SCORE.INTER.ROT>
2

>  <SCORE.INTER.SOLV>
17.5711

>  <SCORE.INTER.VDW>
-24.6992

>  <SCORE.INTER.norm>
-3.6938

>  <SCORE.INTRA>
-0.689724

>  <SCORE.INTRA.DIHEDRAL>
0.441355

>  <SCORE.INTRA.DIHEDRAL.0>
1.76676

>  <SCORE.INTRA.POLAR>
-0.338317

>  <SCORE.INTRA.POLAR.0>
-0.472211

>  <SCORE.INTRA.REPUL>
0

>  <SCORE.INTRA.REPUL.0>
0

>  <SCORE.INTRA.SOLV>
0.0855858

>  <SCORE.INTRA.SOLV.lig_0>
-22.5855

>  <SCORE.INTRA.VDW>
0.197084

>  <SCORE.INTRA.VDW.0>
-0.733656

>  <SCORE.INTRA.norm>
-0.0530557

>  <SCORE.RESTR>
0.213288

>  <SCORE.RESTR.CAVITY>
0.213288

>  <SCORE.RESTR.norm>
0.0164068

>  <SCORE.SYSTEM>
0

>  <SCORE.SYSTEM.CONST>
0

>  <SCORE.SYSTEM.DIHEDRAL>
0

>  <SCORE.SYSTEM.SOLV>
0

>  <SCORE.SYSTEM.norm>
0

>  <SCORE.heavy>
13

>  <SCORE.norm>
-3.73045

>  <RMSD>
0.683

$$$$
lig.pdb
 OpenBabel11021811453D
libRbt.so/2013.1/901 2013/11/27
 13 14  0  0  0  0  0  0  0  0999 V2000
  -10.8296    4.4992   -7.1462 N   0  0  0  0  0  0  0  0  0  0  0  0
  -10.9599    3.7272   -8.2657 C   0  0  0  0  0  0  0  0  0  0  0  0
   -9.8876    3.2906   -8.9018 N   0  0  0  0  0  0  0  0  0  0  0  0
   -8.6204    3.5864   -8.4798 C   0  0  0  0  0  0  0  0  0  0  0  0
   -8.4275    4.3878   -7.3284 C   0  0  0  0  0  0  0  0  0  0  0  0
   -9.5918    4.8542   -6.6469 C   0  0  0  0  0  0  0  0  0  0  0  0
   -9.4962    5.5494   -5.6506 O   0  0  0  0  0  0  0  0  0  0  0  0
   -6.9767    4.5250   -7.1541 C   0  0  0  0  0  0  0  0  0  0  0  0
   -6.2476    5.2980   -6.0870 C   0  0  0  0  0  0  0  0  0  0  0  0
   -6.9768    5.1902   -4.8165 N   0  0  0  0  0  0  0  0  0  0  0  0
   -6.4164    3.8229   -8.1467 C   0  0  0  0  0  0  0  0  0  0  0  0
   -7.3822    3.2672   -8.9429 N   0  0  0  0  0  0  0  0  0  0  0  0
  -12.2097    3.4060   -8.7289 N   0  0  0  0  0  0  0  0  0  0  0  0
  1  6  1  0  0  0  0
  2  1  1  0  0  0  0
  3  4  1  0  0  0  0
  3  2  2  0  0  0  0
  4  5  2  0  0  0  0
  5  8  1  0  0  0  0
  5  6  1  0  0  0  0
  6  7  2  0  0  0  0
  8  9  1  0  0  0  0
  9 10  1  0  0  0  0
 11  8  2  0  0  0  0
 12  4  1  0  0  0  0
 12 11  1  0  0  0  0
 13  2  1  0  0  0  0
M  END
>  <CHROM.1>
36.55189708,-59.54242005,-8.81719576,4.27481583,-7.36591605,2.62407771,0.01314461
-2.10373486

>  <Name>
lig.pdb

>  <RI>
2.60406e+07

>  <Rbt.Current_Directory>
/home/itssahil/PROJECTS/Mol_Feturizer/New_Systems/rnas/2miy

>  <Rbt.Executable>
rbdock ($Id: //depot/dev/client3/rdock/2013.1/src/exe/rbdock.cxx#4 $)

>  <Rbt.Library>
libRbt.so (2013.1, Build901 2013/11/27)

>  <Rbt.Parameter_File>
/export/apps/rDock/src/rDock_2013.1_src/data/scripts/dock_solv.prm

>  <Rbt.Receptor>
prm/pocket_docking_7.prm

>  <SCORE>
-48.4203

>  <SCORE.INTER>
-47.9196

>  <SCORE.INTER.CONST>
1

>  <SCORE.INTER.POLAR>
-5.34203

>  <SCORE.INTER.ROT>
2

>  <SCORE.INTER.SOLV>
17.5265

>  <SCORE.INTER.VDW>
-24.9151

>  <SCORE.INTER.norm>
-3.68612

>  <SCORE.INTRA>
-0.693082

>  <SCORE.INTRA.DIHEDRAL>
0.41159

>  <SCORE.INTRA.DIHEDRAL.0>
1.76676

>  <SCORE.INTRA.POLAR>
-0.330088

>  <SCORE.INTRA.POLAR.0>
-0.472211

>  <SCORE.INTRA.REPUL>
0

>  <SCORE.INTRA.REPUL.0>
0

>  <SCORE.INTRA.SOLV>
0.0801057

>  <SCORE.INTRA.SOLV.lig_0>
-22.5855

>  <SCORE.INTRA.VDW>
0.18337

>  <SCORE.INTRA.VDW.0>
-0.733656

>  <SCORE.INTRA.norm>
-0.053314

>  <SCORE.RESTR>
0.192374

>  <SCORE.RESTR.CAVITY>
0.192374

>  <SCORE.RESTR.norm>
0.014798

>  <SCORE.SYSTEM>
0

>  <SCORE.SYSTEM.CONST>
0

>  <SCORE.SYSTEM.DIHEDRAL>
0

>  <SCORE.SYSTEM.SOLV>
0

>  <SCORE.SYSTEM.norm>
0

>  <SCORE.heavy>
13

>  <SCORE.norm>
-3.72464

>  <RMSD>
0.683

$$$$
lig.pdb
 OpenBabel11021811453D
libRbt.so/2013.1/901 2013/11/27
 13 14  0  0  0  0  0  0  0  0999 V2000
  -10.8198    4.5234   -7.1446 N   0  0  0  0  0  0  0  0  0  0  0  0
  -10.9467    3.7988   -8.2958 C   0  0  0  0  0  0  0  0  0  0  0  0
   -9.8726    3.3718   -8.9353 N   0  0  0  0  0  0  0  0  0  0  0  0
   -8.6069    3.6312   -8.4859 C   0  0  0  0  0  0  0  0  0  0  0  0
   -8.4174    4.3830   -7.3009 C   0  0  0  0  0  0  0  0  0  0  0  0
   -9.5837    4.8394   -6.6159 C   0  0  0  0  0  0  0  0  0  0  0  0
   -9.4911    5.4926   -5.5914 O   0  0  0  0  0  0  0  0  0  0  0  0
   -6.9672    4.4910   -7.1029 C   0  0  0  0  0  0  0  0  0  0  0  0
   -6.2410    5.2096   -5.9966 C   0  0  0  0  0  0  0  0  0  0  0  0
   -6.7519    6.5821   -5.8831 N   0  0  0  0  0  0  0  0  0  0  0  0
   -6.4043    3.8207   -8.1158 C   0  0  0  0  0  0  0  0  0  0  0  0
   -7.3675    3.3120   -8.9458 N   0  0  0  0  0  0  0  0  0  0  0  0
  -12.1949    3.5154   -8.7872 N   0  0  0  0  0  0  0  0  0  0  0  0
  1  6  1  0  0  0  0
  2  1  1  0  0  0  0
  3  4  1  0  0  0  0
  3  2  2  0  0  0  0
  4  5  2  0  0  0  0
  5  8  1  0  0  0  0
  5  6  1  0  0  0  0
  6  7  2  0  0  0  0
  8  9  1  0  0  0  0
  9 10  1  0  0  0  0
 11  8  2  0  0  0  0
 12  4  1  0  0  0  0
 12 11  1  0  0  0  0
 13  2  1  0  0  0  0
M  END
>  <CHROM.1>
-51.05250354,-175.76083118,-8.78626829,4.41916548,-7.45433974,2.63789268
-0.01423437,-2.24222606

>  <Name>
lig.pdb

>  <RI>
1.51961e+07

>  <Rbt.Current_Directory>
/home/itssahil/PROJECTS/Mol_Feturizer/New_Systems/rnas/2miy

>  <Rbt.Executable>
rbdock ($Id: //depot/dev/client3/rdock/2013.1/src/exe/rbdock.cxx#4 $)

>  <Rbt.Library>
libRbt.so (2013.1, Build901 2013/11/27)

>  <Rbt.Parameter_File>
/export/apps/rDock/src/rDock_2013.1_src/data/scripts/dock_solv.prm

>  <Rbt.Receptor>
prm/pocket_docking_3.prm

>  <SCORE>
-47.5381

>  <SCORE.INTER>
-49.1065

>  <SCORE.INTER.CONST>
1

>  <SCORE.INTER.POLAR>
-5.62542

>  <SCORE.INTER.ROT>
2

>  <SCORE.INTER.SOLV>
19.6033

>  <SCORE.INTER.VDW>
-25.454

>  <SCORE.INTER.norm>
-3.77742

>  <SCORE.INTRA>
1.52427

>  <SCORE.INTRA.DIHEDRAL>
-0.220304

>  <SCORE.INTRA.DIHEDRAL.0>
1.76676

>  <SCORE.INTRA.POLAR>
0.472211

>  <SCORE.INTRA.POLAR.0>
-0.472211

>  <SCORE.INTRA.REPUL>
0

>  <SCORE.INTRA.REPUL.0>
0

>  <SCORE.INTRA.SOLV>
-0.0711218

>  <SCORE.INTRA.SOLV.lig_0>
-22.5855

>  <SCORE.INTRA.VDW>
0.06447

>  <SCORE.INTRA.VDW.0>
-0.733656

>  <SCORE.INTRA.norm>
0.117252

>  <SCORE.RESTR>
0.0441008

>  <SCORE.RESTR.CAVITY>
0.0441008

>  <SCORE.RESTR.norm>
0.00339237

>  <SCORE.SYSTEM>
0

>  <SCORE.SYSTEM.CONST>
0

>  <SCORE.SYSTEM.DIHEDRAL>
0

>  <SCORE.SYSTEM.SOLV>
0

>  <SCORE.SYSTEM.norm>
0

>  <SCORE.heavy>
13

>  <SCORE.norm>
-3.65678

>  <RMSD>
0.688

$$$$
lig.pdb
 OpenBabel11021811453D
libRbt.so/2013.1/901 2013/11/27
 13 14  0  0  0  0  0  0  0  0999 V2000
  -10.8191    4.5266   -7.1439 N   0  0  0  0  0  0  0  0  0  0  0  0
  -10.9469    3.8017   -8.2949 C   0  0  0  0  0  0  0  0  0  0  0  0
   -9.8734    3.3736   -8.9346 N   0  0  0  0  0  0  0  0  0  0  0  0
   -8.6073    3.6319   -8.4855 C   0  0  0  0  0  0  0  0  0  0  0  0
   -8.4169    4.3839   -7.3008 C   0  0  0  0  0  0  0  0  0  0  0  0
   -9.5826    4.8415   -6.6156 C   0  0  0  0  0  0  0  0  0  0  0  0
   -9.4891    5.4950   -5.5913 O   0  0  0  0  0  0  0  0  0  0  0  0
   -6.9665    4.4907   -7.1031 C   0  0  0  0  0  0  0  0  0  0  0  0
   -6.2394    5.2089   -5.9972 C   0  0  0  0  0  0  0  0  0  0  0  0
   -6.7536    6.5798   -5.8797 N   0  0  0  0  0  0  0  0  0  0  0  0
   -6.4045    3.8195   -8.1160 C   0  0  0  0  0  0  0  0  0  0  0  0
   -7.3683    3.3115   -8.9456 N   0  0  0  0  0  0  0  0  0  0  0  0
  -12.1955    3.5193   -8.7860 N   0  0  0  0  0  0  0  0  0  0  0  0
  1  6  1  0  0  0  0
  2  1  1  0  0  0  0
  3  4  1  0  0  0  0
  3  2  2  0  0  0  0
  4  5  2  0  0  0  0
  5  8  1  0  0  0  0
  5  6  1  0  0  0  0
  6  7  2  0  0  0  0
  8  9  1  0  0  0  0
  9 10  1  0  0  0  0
 11  8  2  0  0  0  0
 12  4  1  0  0  0  0
 12 11  1  0  0  0  0
 13  2  1  0  0  0  0
M  END
>  <CHROM.1>
-50.77824618,3.95520680,-8.78604768,4.42021638,-7.45385455,2.63840235,-0.01350145
-2.24227897

>  <Name>
lig.pdb

>  <RI>
1.51961e+07

>  <Rbt.Current_Directory>
/home/itssahil/PROJECTS/Mol_Feturizer/New_Systems/rnas/2miy

>  <Rbt.Executable>
rbdock ($Id: //depot/dev/client3/rdock/2013.1/src/exe/rbdock.cxx#4 $)

>  <Rbt.Library>
libRbt.so (2013.1, Build901 2013/11/27)

>  <Rbt.Parameter_File>
/export/apps/rDock/src/rDock_2013.1_src/data/scripts/dock_solv.prm

>  <Rbt.Receptor>
prm/pocket_docking_3.prm

>  <SCORE>
-47.5454

>  <SCORE.INTER>
-49.1264

>  <SCORE.INTER.CONST>
1

>  <SCORE.INTER.POLAR>
-5.64569

>  <SCORE.INTER.ROT>
2

>  <SCORE.INTER.SOLV>
19.6017

>  <SCORE.INTER.VDW>
-25.3992

>  <SCORE.INTER.norm>
-3.77895

>  <SCORE.INTRA>
1.53735

>  <SCORE.INTRA.DIHEDRAL>
-0.198787

>  <SCORE.INTRA.DIHEDRAL.0>
1.76676

>  <SCORE.INTRA.POLAR>
0.472211

>  <SCORE.INTRA.POLAR.0>
-0.472211

>  <SCORE.INTRA.REPUL>
0

>  <SCORE.INTRA.REPUL.0>
0

>  <SCORE.INTRA.SOLV>
-0.0699354

>  <SCORE.INTRA.SOLV.lig_0>
-22.5855

>  <SCORE.INTRA.VDW>
0.0661951

>  <SCORE.INTRA.VDW.0>
-0.733656

>  <SCORE.INTRA.norm>
0.118258

>  <SCORE.RESTR>
0.0436725

>  <SCORE.RESTR.CAVITY>
0.0436725

>  <SCORE.RESTR.norm>
0.00335943

>  <SCORE.SYSTEM>
0

>  <SCORE.SYSTEM.CONST>
0

>  <SCORE.SYSTEM.DIHEDRAL>
0

>  <SCORE.SYSTEM.SOLV>
0

>  <SCORE.SYSTEM.norm>
0

>  <SCORE.heavy>
13

>  <SCORE.norm>
-3.65734

>  <RMSD>
0.688

$$$$
lig.pdb
 OpenBabel11021811453D
libRbt.so/2013.1/901 2013/11/27
 13 14  0  0  0  0  0  0  0  0999 V2000
  -10.8398    4.4839   -7.2066 N   0  0  0  0  0  0  0  0  0  0  0  0
  -11.0100    3.7225   -8.3281 C   0  0  0  0  0  0  0  0  0  0  0  0
   -9.9609    3.2646   -8.9873 N   0  0  0  0  0  0  0  0  0  0  0  0
   -8.6791    3.5271   -8.5880 C   0  0  0  0  0  0  0  0  0  0  0  0
   -8.4450    4.3162   -7.4357 C   0  0  0  0  0  0  0  0  0  0  0  0
   -9.5846    4.8059   -6.7291 C   0  0  0  0  0  0  0  0  0  0  0  0
   -9.4533    5.4920   -5.7306 O   0  0  0  0  0  0  0  0  0  0  0  0
   -6.9883    4.4174   -7.2884 C   0  0  0  0  0  0  0  0  0  0  0  0
   -6.2205    5.1658   -6.2309 C   0  0  0  0  0  0  0  0  0  0  0  0
   -6.9939    6.3372   -5.7979 N   0  0  0  0  0  0  0  0  0  0  0  0
   -6.4641    3.7086   -8.2958 C   0  0  0  0  0  0  0  0  0  0  0  0
   -7.4580    3.1814   -9.0768 N   0  0  0  0  0  0  0  0  0  0  0  0
  -12.2758    3.4344   -8.7692 N   0  0  0  0  0  0  0  0  0  0  0  0
  1  6  1  0  0  0  0
  2  1  1  0  0  0  0
  3  4  1  0  0  0  0
  3  2  2  0  0  0  0
  4  5  2  0  0  0  0
  5  8  1  0  0  0  0
  5  6  1  0  0  0  0
  6  7  2  0  0  0  0
  8  9  1  0  0  0  0
  9 10  1  0  0  0  0
 11  8  2  0  0  0  0
 12  4  1  0  0  0  0
 12 11  1  0  0  0  0
 13  2  1  0  0  0  0
M  END
>  <CHROM.1>
-30.55339822,-127.56438808,-8.84416581,4.33119231,-7.54565739,2.65093200
-0.01375392,-2.24509560

>  <Name>
lig.pdb

>  <RI>
0

>  <Rbt.Current_Directory>
/home/itssahil/PROJECTS/Mol_Feturizer/New_Systems/rnas/2miy

>  <Rbt.Executable>
rbdock ($Id: //depot/dev/client3/rdock/2013.1/src/exe/rbdock.cxx#4 $)

>  <Rbt.Library>
libRbt.so (2013.1, Build901 2013/11/27)

>  <Rbt.Parameter_File>
/export/apps/rDock/src/rDock_2013.1_src/data/scripts/dock_solv.prm

>  <Rbt.Receptor>
prm/blind_docking_60.prm

>  <SCORE>
-45.7403

>  <SCORE.INTER>
-47.8319

>  <SCORE.INTER.CONST>
1

>  <SCORE.INTER.POLAR>
-5.43121

>  <SCORE.INTER.ROT>
2

>  <SCORE.INTER.SOLV>
19.1906

>  <SCORE.INTER.VDW>
-25.1141

>  <SCORE.INTER.norm>
-3.67937

>  <SCORE.INTRA>
-0.447883

>  <SCORE.INTRA.DIHEDRAL>
0.719948

>  <SCORE.INTRA.DIHEDRAL.0>
1.76676

>  <SCORE.INTRA.POLAR>
-0.383951

>  <SCORE.INTRA.POLAR.0>
-0.472211

>  <SCORE.INTRA.REPUL>
0

>  <SCORE.INTRA.REPUL.0>
0

>  <SCORE.INTRA.SOLV>
0.136177

>  <SCORE.INTRA.SOLV.lig_0>
-22.5855

>  <SCORE.INTRA.VDW>
0.429487

>  <SCORE.INTRA.VDW.0>
-0.733656

>  <SCORE.INTRA.norm>
-0.0344525

>  <SCORE.RESTR>
2.5394

>  <SCORE.RESTR.CAVITY>
2.5394

>  <SCORE.RESTR.norm>
0.195338

>  <SCORE.SYSTEM>
0

>  <SCORE.SYSTEM.CONST>
0

>  <SCORE.SYSTEM.DIHEDRAL>
0

>  <SCORE.SYSTEM.SOLV>
0

>  <SCORE.SYSTEM.norm>
0

>  <SCORE.heavy>
13

>  <SCORE.norm>
-3.51849

>  <RMSD>
0.689

$$$$
lig.pdb
 OpenBabel11021811453D
libRbt.so/2013.1/901 2013/11/27
 13 14  0  0  0  0  0  0  0  0999 V2000
  -10.8196    4.5276   -7.1426 N   0  0  0  0  0  0  0  0  0  0  0  0
  -10.9481    3.8022   -8.2931 C   0  0  0  0  0  0  0  0  0  0  0  0
   -9.8751    3.3730   -8.9328 N   0  0  0  0  0  0  0  0  0  0  0  0
   -8.6087    3.6307   -8.4842 C   0  0  0  0  0  0  0  0  0  0  0  0
   -8.4175    4.3832   -7.2999 C   0  0  0  0  0  0  0  0  0  0  0  0
   -9.5827    4.8420   -6.6148 C   0  0  0  0  0  0  0  0  0  0  0  0
   -9.4886    5.4960   -5.5908 O   0  0  0  0  0  0  0  0  0  0  0  0
   -6.9670    4.4892   -7.1027 C   0  0  0  0  0  0  0  0  0  0  0  0
   -6.2391    5.2076   -5.9974 C   0  0  0  0  0  0  0  0  0  0  0  0
   -6.7450    6.5822   -5.8875 N   0  0  0  0  0  0  0  0  0  0  0  0
   -6.4056    3.8171   -8.1153 C   0  0  0  0  0  0  0  0  0  0  0  0
   -7.3700    3.3092   -8.9444 N   0  0  0  0  0  0  0  0  0  0  0  0
  -12.1970    3.5203   -8.7837 N   0  0  0  0  0  0  0  0  0  0  0  0
  1  6  1  0  0  0  0
  2  1  1  0  0  0  0
  3  4  1  0  0  0  0
  3  2  2  0  0  0  0
  4  5  2  0  0  0  0
  5  8  1  0  0  0  0
  5  6  1  0  0  0  0
  6  7  2  0  0  0  0
  8  9  1  0  0  0  0
  9 10  1  0  0  0  0
 11  8  2  0  0  0  0
 12  4  1  0  0  0  0
 12 11  1  0  0  0  0
 13  2  1  0  0  0  0
M  END
>  <CHROM.1>
-51.21766398,-175.07904070,-8.78605951,4.41996917,-7.45348788,2.63946994
-0.01344820,-2.24325770

>  <Name>
lig.pdb

>  <RI>
1.51961e+07

>  <Rbt.Current_Directory>
/home/itssahil/PROJECTS/Mol_Feturizer/New_Systems/rnas/2miy

>  <Rbt.Executable>
rbdock ($Id: //depot/dev/client3/rdock/2013.1/src/exe/rbdock.cxx#4 $)

>  <Rbt.Library>
libRbt.so (2013.1, Build901 2013/11/27)

>  <Rbt.Parameter_File>
/export/apps/rDock/src/rDock_2013.1_src/data/scripts/dock_solv.prm

>  <Rbt.Receptor>
prm/pocket_docking_3.prm

>  <SCORE>
-47.5326

>  <SCORE.INTER>
-49.0992

>  <SCORE.INTER.CONST>
1

>  <SCORE.INTER.POLAR>
-5.65186

>  <SCORE.INTER.ROT>
2

>  <SCORE.INTER.SOLV>
19.617

>  <SCORE.INTER.VDW>
-25.3656

>  <SCORE.INTER.norm>
-3.77686

>  <SCORE.INTRA>
1.52001

>  <SCORE.INTRA.DIHEDRAL>
-0.225528

>  <SCORE.INTRA.DIHEDRAL.0>
1.76676

>  <SCORE.INTRA.POLAR>
0.472211

>  <SCORE.INTRA.POLAR.0>
-0.472211

>  <SCORE.INTRA.REPUL>
0

>  <SCORE.INTRA.REPUL.0>
0

>  <SCORE.INTRA.SOLV>
-0.0728976

>  <SCORE.INTRA.SOLV.lig_0>
-22.5855

>  <SCORE.INTRA.VDW>
0.0637076

>  <SCORE.INTRA.VDW.0>
-0.733656

>  <SCORE.INTRA.norm>
0.116924

>  <SCORE.RESTR>
0.0465655

>  <SCORE.RESTR.CAVITY>
0.0465655

>  <SCORE.RESTR.norm>
0.00358197

>  <SCORE.SYSTEM>
0

>  <SCORE.SYSTEM.CONST>
0

>  <SCORE.SYSTEM.DIHEDRAL>
0

>  <SCORE.SYSTEM.SOLV>
0

>  <SCORE.SYSTEM.norm>
0

>  <SCORE.heavy>
13

>  <SCORE.norm>
-3.65636

>  <RMSD>
0.689

$$$$
lig.pdb
 OpenBabel11021811453D
libRbt.so/2013.1/901 2013/11/27
 13 14  0  0  0  0  0  0  0  0999 V2000
  -10.8189    4.5281   -7.1417 N   0  0  0  0  0  0  0  0  0  0  0  0
  -10.9473    3.8022   -8.2919 C   0  0  0  0  0  0  0  0  0  0  0  0
   -9.8742    3.3746   -8.9326 N   0  0  0  0  0  0  0  0  0  0  0  0
   -8.6078    3.6345   -8.4852 C   0  0  0  0  0  0  0  0  0  0  0  0
   -8.4167    4.3876   -7.3013 C   0  0  0  0  0  0  0  0  0  0  0  0
   -9.5820    4.8447   -6.6152 C   0  0  0  0  0  0  0  0  0  0  0  0
   -9.4880    5.4991   -5.5915 O   0  0  0  0  0  0  0  0  0  0  0  0
   -6.9663    4.4959   -7.1055 C   0  0  0  0  0  0  0  0  0  0  0  0
   -6.2385    5.2158   -6.0010 C   0  0  0  0  0  0  0  0  0  0  0  0
   -6.7459    6.5899   -5.8915 N   0  0  0  0  0  0  0  0  0  0  0  0
   -6.4047    3.8245   -8.1184 C   0  0  0  0  0  0  0  0  0  0  0  0
   -7.3691    3.3148   -8.9465 N   0  0  0  0  0  0  0  0  0  0  0  0
  -12.1963    3.5182   -8.7813 N   0  0  0  0  0  0  0  0  0  0  0  0
  1  6  1  0  0  0  0
  2  1  1  0  0  0  0
  3  4  1  0  0  0  0
  3  2  2  0  0  0  0
  4  5  2  0  0  0  0
  5  8  1  0  0  0  0
  5  6  1  0  0  0  0
  6  7  2  0  0  0  0
  8  9  1  0  0  0  0
  9 10  1  0  0  0  0
 11  8  2  0  0  0  0
 12  4  1  0  0  0  0
 12 11  1  0  0  0  0
 13  2  1  0  0  0  0
M  END
>  <CHROM.1>
-51.25205477,5.38091986,-8.78536645,4.42377448,-7.45468699,2.63934576,-0.01538180
-2.24365478

>  <Name>
lig.pdb

>  <RI>
2.95488e+07

>  <Rbt.Current_Directory>
/home/itssahil/PROJECTS/Mol_Feturizer/New_Systems/rnas/2miy

>  <Rbt.Executable>
rbdock ($Id: //depot/dev/client3/rdock/2013.1/src/exe/rbdock.cxx#4 $)

>  <Rbt.Library>
libRbt.so (2013.1, Build901 2013/11/27)

>  <Rbt.Parameter_File>
/export/apps/rDock/src/rDock_2013.1_src/data/scripts/dock_solv.prm

>  <Rbt.Receptor>
prm/blind_docking_20.prm

>  <SCORE>
-47.6015

>  <SCORE.INTER>
-49.1293

>  <SCORE.INTER.CONST>
1

>  <SCORE.INTER.POLAR>
-5.65271

>  <SCORE.INTER.ROT>
2

>  <SCORE.INTER.SOLV>
19.6377

>  <SCORE.INTER.VDW>
-25.3897

>  <SCORE.INTER.norm>
-3.77917

>  <SCORE.INTRA>
1.5278

>  <SCORE.INTRA.DIHEDRAL>
-0.208742

>  <SCORE.INTRA.DIHEDRAL.0>
1.76676

>  <SCORE.INTRA.POLAR>
0.472211

>  <SCORE.INTRA.POLAR.0>
-0.472211

>  <SCORE.INTRA.REPUL>
0

>  <SCORE.INTRA.REPUL.0>
0

>  <SCORE.INTRA.SOLV>
-0.075048

>  <SCORE.INTRA.SOLV.lig_0>
-22.5855

>  <SCORE.INTRA.VDW>
0.0641725

>  <SCORE.INTRA.VDW.0>
-0.733656

>  <SCORE.INTRA.norm>
0.117523

>  <SCORE.RESTR>
0

>  <SCORE.RESTR.CAVITY>
0

>  <SCORE.RESTR.norm>
0

>  <SCORE.SYSTEM>
0

>  <SCORE.SYSTEM.CONST>
0

>  <SCORE.SYSTEM.DIHEDRAL>
0

>  <SCORE.SYSTEM.SOLV>
0

>  <SCORE.SYSTEM.norm>
0

>  <SCORE.heavy>
13

>  <SCORE.norm>
-3.66165

>  <RMSD>
0.690

$$$$
lig.pdb
 OpenBabel11021811453D
libRbt.so/2013.1/901 2013/11/27
 13 14  0  0  0  0  0  0  0  0999 V2000
  -10.8219    4.5244   -7.1392 N   0  0  0  0  0  0  0  0  0  0  0  0
  -10.9580    3.7484   -8.2553 C   0  0  0  0  0  0  0  0  0  0  0  0
   -9.8890    3.3074   -8.8939 N   0  0  0  0  0  0  0  0  0  0  0  0
   -8.6196    3.6024   -8.4779 C   0  0  0  0  0  0  0  0  0  0  0  0
   -8.4207    4.4079   -7.3304 C   0  0  0  0  0  0  0  0  0  0  0  0
   -9.5815    4.8790   -6.6461 C   0  0  0  0  0  0  0  0  0  0  0  0
   -9.4808    5.5778   -5.6528 O   0  0  0  0  0  0  0  0  0  0  0  0
   -6.9690    4.5431   -7.1622 C   0  0  0  0  0  0  0  0  0  0  0  0
   -6.2343    5.3188   -6.1009 C   0  0  0  0  0  0  0  0  0  0  0  0
   -6.9555    5.2122   -4.8257 N   0  0  0  0  0  0  0  0  0  0  0  0
   -6.4139    3.8361   -8.1543 C   0  0  0  0  0  0  0  0  0  0  0  0
   -7.3838    3.2792   -8.9446 N   0  0  0  0  0  0  0  0  0  0  0  0
  -12.2102    3.4277   -8.7124 N   0  0  0  0  0  0  0  0  0  0  0  0
  1  6  1  0  0  0  0
  2  1  1  0  0  0  0
  3  4  1  0  0  0  0
  3  2  2  0  0  0  0
  4  5  2  0  0  0  0
  5  8  1  0  0  0  0
  5  6  1  0  0  0  0
  6  7  2  0  0  0  0
  8  9  1  0  0  0  0
  9 10  1  0  0  0  0
 11  8  2  0  0  0  0
 12  4  1  0  0  0  0
 12 11  1  0  0  0  0
 13  2  1  0  0  0  0
M  END
>  <CHROM.1>
36.80673451,-59.59740152,-8.81049180,4.29501022,-7.36577288,2.62856898,0.01292000
-2.10717560

>  <Name>
lig.pdb

>  <RI>
4.2128e+07

>  <Rbt.Current_Directory>
/home/itssahil/PROJECTS/Mol_Feturizer/New_Systems/rnas/2miy

>  <Rbt.Executable>
rbdock ($Id: //depot/dev/client3/rdock/2013.1/src/exe/rbdock.cxx#4 $)

>  <Rbt.Library>
libRbt.so (2013.1, Build901 2013/11/27)

>  <Rbt.Parameter_File>
/export/apps/rDock/src/rDock_2013.1_src/data/scripts/dock_solv.prm

>  <Rbt.Receptor>
prm/pocket_docking_5.prm

>  <SCORE>
-48.7131

>  <SCORE.INTER>
-48.0685

>  <SCORE.INTER.CONST>
1

>  <SCORE.INTER.POLAR>
-5.41428

>  <SCORE.INTER.ROT>
2

>  <SCORE.INTER.SOLV>
17.601

>  <SCORE.INTER.VDW>
-24.7984

>  <SCORE.INTER.norm>
-3.69757

>  <SCORE.INTRA>
-0.695304

>  <SCORE.INTRA.DIHEDRAL>
0.397841

>  <SCORE.INTRA.DIHEDRAL.0>
1.76676

>  <SCORE.INTRA.POLAR>
-0.326097

>  <SCORE.INTRA.POLAR.0>
-0.472211

>  <SCORE.INTRA.REPUL>
0

>  <SCORE.INTRA.REPUL.0>
0

>  <SCORE.INTRA.SOLV>
0.0778087

>  <SCORE.INTRA.SOLV.lig_0>
-22.5855

>  <SCORE.INTRA.VDW>
0.175602

>  <SCORE.INTRA.VDW.0>
-0.733656

>  <SCORE.INTRA.norm>
-0.0534849

>  <SCORE.RESTR>
0.0506932

>  <SCORE.RESTR.CAVITY>
0.0506932

>  <SCORE.RESTR.norm>
0.00389948

>  <SCORE.SYSTEM>
0

>  <SCORE.SYSTEM.CONST>
0

>  <SCORE.SYSTEM.DIHEDRAL>
0

>  <SCORE.SYSTEM.SOLV>
0

>  <SCORE.SYSTEM.norm>
0

>  <SCORE.heavy>
13

>  <SCORE.norm>
-3.74716

>  <RMSD>
0.690

$$$$
lig.pdb
 OpenBabel11021811453D
libRbt.so/2013.1/901 2013/11/27
 13 14  0  0  0  0  0  0  0  0999 V2000
  -11.1511    3.8666   -7.0640 N   0  0  0  0  0  0  0  0  0  0  0  0
  -11.2511    3.3620   -8.3296 C   0  0  0  0  0  0  0  0  0  0  0  0
  -10.1642    3.1507   -9.0498 N   0  0  0  0  0  0  0  0  0  0  0  0
   -8.9111    3.4234   -8.5734 C   0  0  0  0  0  0  0  0  0  0  0  0
   -8.7499    3.9534   -7.2702 C   0  0  0  0  0  0  0  0  0  0  0  0
   -9.9300    4.1775   -6.4988 C   0  0  0  0  0  0  0  0  0  0  0  0
   -9.8618    4.6332   -5.3707 O   0  0  0  0  0  0  0  0  0  0  0  0
   -7.3079    4.1399   -7.0712 C   0  0  0  0  0  0  0  0  0  0  0  0
   -6.6112    4.6957   -5.8574 C   0  0  0  0  0  0  0  0  0  0  0  0
   -5.6081    5.6840   -6.2754 N   0  0  0  0  0  0  0  0  0  0  0  0
   -6.7210    3.7186   -8.1983 C   0  0  0  0  0  0  0  0  0  0  0  0
   -7.6630    3.2975   -9.0987 N   0  0  0  0  0  0  0  0  0  0  0  0
  -12.4859    3.0750   -8.8520 N   0  0  0  0  0  0  0  0  0  0  0  0
  1  6  1  0  0  0  0
  2  1  1  0  0  0  0
  3  4  1  0  0  0  0
  3  2  2  0  0  0  0
  4  5  2  0  0  0  0
  5  8  1  0  0  0  0
  5  6  1  0  0  0  0
  6  7  2  0  0  0  0
  8  9  1  0  0  0  0
  9 10  1  0  0  0  0
 11  8  2  0  0  0  0
 12  4  1  0  0  0  0
 12 11  1  0  0  0  0
 13  2  1  0  0  0  0
M  END
>  <CHROM.1>
-133.48092894,-7.26996888,-8.97346563,3.96020290,-7.48411291,2.75518242,-0.12916721
-1.99971747

>  <Name>
lig.pdb

>  <RI>
1.8118e+07

>  <Rbt.Current_Directory>
/home/itssahil/PROJECTS/Mol_Feturizer/New_Systems/rnas/2miy

>  <Rbt.Executable>
rbdock ($Id: //depot/dev/client3/rdock/2013.1/src/exe/rbdock.cxx#4 $)

>  <Rbt.Library>
libRbt.so (2013.1, Build901 2013/11/27)

>  <Rbt.Parameter_File>
/export/apps/rDock/src/rDock_2013.1_src/data/scripts/dock_solv.prm

>  <Rbt.Receptor>
prm/blind_docking_100.prm

>  <SCORE>
-42.0848

>  <SCORE.INTER>
-46.7549

>  <SCORE.INTER.CONST>
1

>  <SCORE.INTER.POLAR>
-5.67271

>  <SCORE.INTER.ROT>
2

>  <SCORE.INTER.SOLV>
20.8833

>  <SCORE.INTER.VDW>
-24.1554

>  <SCORE.INTER.norm>
-3.59653

>  <SCORE.INTRA>
2.62239

>  <SCORE.INTRA.DIHEDRAL>
1.59301

>  <SCORE.INTRA.DIHEDRAL.0>
1.76676

>  <SCORE.INTRA.POLAR>
0.472211

>  <SCORE.INTRA.POLAR.0>
-0.472211

>  <SCORE.INTRA.REPUL>
0

>  <SCORE.INTRA.REPUL.0>
0

>  <SCORE.INTRA.SOLV>
-0.615436

>  <SCORE.INTRA.SOLV.lig_0>
-22.5855

>  <SCORE.INTRA.VDW>
0.528083

>  <SCORE.INTRA.VDW.0>
-0.733656

>  <SCORE.INTRA.norm>
0.201722

>  <SCORE.RESTR>
2.04774

>  <SCORE.RESTR.CAVITY>
2.04774

>  <SCORE.RESTR.norm>
0.157519

>  <SCORE.SYSTEM>
0

>  <SCORE.SYSTEM.CONST>
0

>  <SCORE.SYSTEM.DIHEDRAL>
0

>  <SCORE.SYSTEM.SOLV>
0

>  <SCORE.SYSTEM.norm>
0

>  <SCORE.heavy>
13

>  <SCORE.norm>
-3.23729

>  <RMSD>
0.692

$$$$
lig.pdb
 OpenBabel11021811453D
libRbt.so/2013.1/901 2013/11/27
 13 14  0  0  0  0  0  0  0  0999 V2000
  -10.8420    4.4850   -7.2118 N   0  0  0  0  0  0  0  0  0  0  0  0
  -11.0128    3.7215   -8.3317 C   0  0  0  0  0  0  0  0  0  0  0  0
   -9.9640    3.2634   -8.9914 N   0  0  0  0  0  0  0  0  0  0  0  0
   -8.6820    3.5278   -8.5940 C   0  0  0  0  0  0  0  0  0  0  0  0
   -8.4473    4.3190   -7.4433 C   0  0  0  0  0  0  0  0  0  0  0  0
   -9.5865    4.8089   -6.7362 C   0  0  0  0  0  0  0  0  0  0  0  0
   -9.4547    5.4969   -5.7391 O   0  0  0  0  0  0  0  0  0  0  0  0
   -6.9905    4.4218   -7.2979 C   0  0  0  0  0  0  0  0  0  0  0  0
   -6.2222    5.1727   -6.2425 C   0  0  0  0  0  0  0  0  0  0  0  0
   -7.0009    6.3380   -5.8029 N   0  0  0  0  0  0  0  0  0  0  0  0
   -6.4669    3.7117   -8.3047 C   0  0  0  0  0  0  0  0  0  0  0  0
   -7.4611    3.1823   -9.0835 N   0  0  0  0  0  0  0  0  0  0  0  0
  -12.2789    3.4315   -8.7709 N   0  0  0  0  0  0  0  0  0  0  0  0
  1  6  1  0  0  0  0
  2  1  1  0  0  0  0
  3  4  1  0  0  0  0
  3  2  2  0  0  0  0
  4  5  2  0  0  0  0
  5  8  1  0  0  0  0
  5  6  1  0  0  0  0
  6  7  2  0  0  0  0
  8  9  1  0  0  0  0
  9 10  1  0  0  0  0
 11  8  2  0  0  0  0
 12  4  1  0  0  0  0
 12 11  1  0  0  0  0
 13  2  1  0  0  0  0
M  END
>  <CHROM.1>
-30.09779084,-124.71923615,-8.84703052,4.33289300,-7.55211456,2.65099020
-0.01493785,-2.24590253

>  <Name>
lig.pdb

>  <RI>
1.8118e+07

>  <Rbt.Current_Directory>
/home/itssahil/PROJECTS/Mol_Feturizer/New_Systems/rnas/2miy

>  <Rbt.Executable>
rbdock ($Id: //depot/dev/client3/rdock/2013.1/src/exe/rbdock.cxx#4 $)

>  <Rbt.Library>
libRbt.so (2013.1, Build901 2013/11/27)

>  <Rbt.Parameter_File>
/export/apps/rDock/src/rDock_2013.1_src/data/scripts/dock_solv.prm

>  <Rbt.Receptor>
prm/blind_docking_100.prm

>  <SCORE>
-45.7149

>  <SCORE.INTER>
-47.7919

>  <SCORE.INTER.CONST>
1

>  <SCORE.INTER.POLAR>
-5.42426

>  <SCORE.INTER.ROT>
2

>  <SCORE.INTER.SOLV>
19.1945

>  <SCORE.INTER.VDW>
-25.1119

>  <SCORE.INTER.norm>
-3.6763

>  <SCORE.INTRA>
-0.455466

>  <SCORE.INTRA.DIHEDRAL>
0.750498

>  <SCORE.INTRA.DIHEDRAL.0>
1.76676

>  <SCORE.INTRA.POLAR>
-0.386023

>  <SCORE.INTRA.POLAR.0>
-0.472211

>  <SCORE.INTRA.REPUL>
0

>  <SCORE.INTRA.REPUL.0>
0

>  <SCORE.INTRA.SOLV>
0.134731

>  <SCORE.INTRA.SOLV.lig_0>
-22.5855

>  <SCORE.INTRA.VDW>
0.414399

>  <SCORE.INTRA.VDW.0>
-0.733656

>  <SCORE.INTRA.norm>
-0.0350358

>  <SCORE.RESTR>
2.53252

>  <SCORE.RESTR.CAVITY>
2.53252

>  <SCORE.RESTR.norm>
0.19481

>  <SCORE.SYSTEM>
0

>  <SCORE.SYSTEM.CONST>
0

>  <SCORE.SYSTEM.DIHEDRAL>
0

>  <SCORE.SYSTEM.SOLV>
0

>  <SCORE.SYSTEM.norm>
0

>  <SCORE.heavy>
13

>  <SCORE.norm>
-3.51653

>  <RMSD>
0.692

$$$$
lig.pdb
 OpenBabel11021811453D
libRbt.so/2013.1/901 2013/11/27
 13 14  0  0  0  0  0  0  0  0999 V2000
  -10.8184    4.5305   -7.1445 N   0  0  0  0  0  0  0  0  0  0  0  0
  -10.9469    3.8028   -8.2936 C   0  0  0  0  0  0  0  0  0  0  0  0
   -9.8738    3.3736   -8.9332 N   0  0  0  0  0  0  0  0  0  0  0  0
   -8.6074    3.6336   -8.4858 C   0  0  0  0  0  0  0  0  0  0  0  0
   -8.4163    4.3884   -7.3031 C   0  0  0  0  0  0  0  0  0  0  0  0
   -9.5815    4.8472   -6.6180 C   0  0  0  0  0  0  0  0  0  0  0  0
   -9.4875    5.5031   -5.5953 O   0  0  0  0  0  0  0  0  0  0  0  0
   -6.9658    4.4963   -7.1070 C   0  0  0  0  0  0  0  0  0  0  0  0
   -6.2380    5.2175   -6.0034 C   0  0  0  0  0  0  0  0  0  0  0  0
   -6.7531    6.5883   -5.8883 N   0  0  0  0  0  0  0  0  0  0  0  0
   -6.4043    3.8230   -8.1187 C   0  0  0  0  0  0  0  0  0  0  0  0
   -7.3686    3.3126   -8.9463 N   0  0  0  0  0  0  0  0  0  0  0  0
  -12.1958    3.5187   -8.7829 N   0  0  0  0  0  0  0  0  0  0  0  0
  1  6  1  0  0  0  0
  2  1  1  0  0  0  0
  3  4  1  0  0  0  0
  3  2  2  0  0  0  0
  4  5  2  0  0  0  0
  5  8  1  0  0  0  0
  5  6  1  0  0  0  0
  6  7  2  0  0  0  0
  8  9  1  0  0  0  0
  9 10  1  0  0  0  0
 11  8  2  0  0  0  0
 12  4  1  0  0  0  0
 12 11  1  0  0  0  0
 13  2  1  0  0  0  0
M  END
>  <CHROM.1>
-50.75192681,4.26182436,-8.78560048,4.42423612,-7.45587073,2.63879565,-0.01435937
-2.24463954

>  <Name>
lig.pdb

>  <RI>
2.95488e+07

>  <Rbt.Current_Directory>
/home/itssahil/PROJECTS/Mol_Feturizer/New_Systems/rnas/2miy

>  <Rbt.Executable>
rbdock ($Id: //depot/dev/client3/rdock/2013.1/src/exe/rbdock.cxx#4 $)

>  <Rbt.Library>
libRbt.so (2013.1, Build901 2013/11/27)

>  <Rbt.Parameter_File>
/export/apps/rDock/src/rDock_2013.1_src/data/scripts/dock_solv.prm

>  <Rbt.Receptor>
prm/blind_docking_20.prm

>  <SCORE>
-47.6062

>  <SCORE.INTER>
-49.1445

>  <SCORE.INTER.CONST>
1

>  <SCORE.INTER.POLAR>
-5.65632

>  <SCORE.INTER.ROT>
2

>  <SCORE.INTER.SOLV>
19.6279

>  <SCORE.INTER.VDW>
-25.3845

>  <SCORE.INTER.norm>
-3.78034

>  <SCORE.INTRA>
1.53822

>  <SCORE.INTRA.DIHEDRAL>
-0.197622

>  <SCORE.INTRA.DIHEDRAL.0>
1.76676

>  <SCORE.INTRA.POLAR>
0.472211

>  <SCORE.INTRA.POLAR.0>
-0.472211

>  <SCORE.INTRA.REPUL>
0

>  <SCORE.INTRA.REPUL.0>
0

>  <SCORE.INTRA.SOLV>
-0.0695992

>  <SCORE.INTRA.SOLV.lig_0>
-22.5855

>  <SCORE.INTRA.VDW>
0.0663124

>  <SCORE.INTRA.VDW.0>
-0.733656

>  <SCORE.INTRA.norm>
0.118325

>  <SCORE.RESTR>
0

>  <SCORE.RESTR.CAVITY>
0

>  <SCORE.RESTR.norm>
0

>  <SCORE.SYSTEM>
0

>  <SCORE.SYSTEM.CONST>
0

>  <SCORE.SYSTEM.DIHEDRAL>
0

>  <SCORE.SYSTEM.SOLV>
0

>  <SCORE.SYSTEM.norm>
0

>  <SCORE.heavy>
13

>  <SCORE.norm>
-3.66202

>  <RMSD>
0.692

$$$$
lig.pdb
 OpenBabel11021811453D
libRbt.so/2013.1/901 2013/11/27
 13 14  0  0  0  0  0  0  0  0999 V2000
  -10.8193    4.5294   -7.1427 N   0  0  0  0  0  0  0  0  0  0  0  0
  -10.9486    3.7991   -8.2900 C   0  0  0  0  0  0  0  0  0  0  0  0
   -9.8759    3.3689   -8.9298 N   0  0  0  0  0  0  0  0  0  0  0  0
   -8.6092    3.6305   -8.4843 C   0  0  0  0  0  0  0  0  0  0  0  0
   -8.4172    4.3881   -7.3035 C   0  0  0  0  0  0  0  0  0  0  0  0
   -9.5820    4.8479   -6.6183 C   0  0  0  0  0  0  0  0  0  0  0  0
   -9.4872    5.5063   -5.5972 O   0  0  0  0  0  0  0  0  0  0  0  0
   -6.9666    4.4971   -7.1092 C   0  0  0  0  0  0  0  0  0  0  0  0
   -6.2379    5.2212   -6.0080 C   0  0  0  0  0  0  0  0  0  0  0  0
   -6.7476    6.5947   -5.9013 N   0  0  0  0  0  0  0  0  0  0  0  0
   -6.4058    3.8218   -8.1199 C   0  0  0  0  0  0  0  0  0  0  0  0
   -7.3708    3.3090   -8.9453 N   0  0  0  0  0  0  0  0  0  0  0  0
  -12.1979    3.5132   -8.7774 N   0  0  0  0  0  0  0  0  0  0  0  0
  1  6  1  0  0  0  0
  2  1  1  0  0  0  0
  3  4  1  0  0  0  0
  3  2  2  0  0  0  0
  4  5  2  0  0  0  0
  5  8  1  0  0  0  0
  5  6  1  0  0  0  0
  6  7  2  0  0  0  0
  8  9  1  0  0  0  0
  9 10  1  0  0  0  0
 11  8  2  0  0  0  0
 12  4  1  0  0  0  0
 12 11  1  0  0  0  0
 13  2  1  0  0  0  0
M  END
>  <CHROM.1>
-51.11245277,-175.18001663,-8.78627431,4.42360760,-7.45642191,2.63967903
-0.01561649,-2.24725962

>  <Name>
lig.pdb

>  <RI>
2.95488e+07

>  <Rbt.Current_Directory>
/home/itssahil/PROJECTS/Mol_Feturizer/New_Systems/rnas/2miy

>  <Rbt.Executable>
rbdock ($Id: //depot/dev/client3/rdock/2013.1/src/exe/rbdock.cxx#4 $)

>  <Rbt.Library>
libRbt.so (2013.1, Build901 2013/11/27)

>  <Rbt.Parameter_File>
/export/apps/rDock/src/rDock_2013.1_src/data/scripts/dock_solv.prm

>  <Rbt.Receptor>
prm/blind_docking_20.prm

>  <SCORE>
-47.6179

>  <SCORE.INTER>
-49.1404

>  <SCORE.INTER.CONST>
1

>  <SCORE.INTER.POLAR>
-5.65998

>  <SCORE.INTER.ROT>
2

>  <SCORE.INTER.SOLV>
19.6474

>  <SCORE.INTER.VDW>
-25.3761

>  <SCORE.INTER.norm>
-3.78003

>  <SCORE.INTRA>
1.52244

>  <SCORE.INTRA.DIHEDRAL>
-0.222721

>  <SCORE.INTRA.DIHEDRAL.0>
1.76676

>  <SCORE.INTRA.POLAR>
0.472211

>  <SCORE.INTRA.POLAR.0>
-0.472211

>  <SCORE.INTRA.REPUL>
0

>  <SCORE.INTRA.REPUL.0>
0

>  <SCORE.INTRA.SOLV>
-0.0717302

>  <SCORE.INTRA.SOLV.lig_0>
-22.5855

>  <SCORE.INTRA.VDW>
0.0641525

>  <SCORE.INTRA.VDW.0>
-0.733656

>  <SCORE.INTRA.norm>
0.117111

>  <SCORE.RESTR>
0

>  <SCORE.RESTR.CAVITY>
0

>  <SCORE.RESTR.norm>
0

>  <SCORE.SYSTEM>
0

>  <SCORE.SYSTEM.CONST>
0

>  <SCORE.SYSTEM.DIHEDRAL>
0

>  <SCORE.SYSTEM.SOLV>
0

>  <SCORE.SYSTEM.norm>
0

>  <SCORE.heavy>
13

>  <SCORE.norm>
-3.66292

>  <RMSD>
0.693

$$$$
lig.pdb
 OpenBabel11021811453D
libRbt.so/2013.1/901 2013/11/27
 13 14  0  0  0  0  0  0  0  0999 V2000
  -10.8217    4.5256   -7.1441 N   0  0  0  0  0  0  0  0  0  0  0  0
  -10.9583    3.7441   -8.2562 C   0  0  0  0  0  0  0  0  0  0  0  0
   -9.8897    3.3008   -8.8937 N   0  0  0  0  0  0  0  0  0  0  0  0
   -8.6200    3.5988   -8.4805 C   0  0  0  0  0  0  0  0  0  0  0  0
   -8.4206    4.4099   -7.3370 C   0  0  0  0  0  0  0  0  0  0  0  0
   -9.5811    4.8835   -6.6539 C   0  0  0  0  0  0  0  0  0  0  0  0
   -9.4799    5.5872   -5.6642 O   0  0  0  0  0  0  0  0  0  0  0  0
   -6.9689    4.5469   -7.1709 C   0  0  0  0  0  0  0  0  0  0  0  0
   -6.2337    5.3283   -6.1142 C   0  0  0  0  0  0  0  0  0  0  0  0
   -6.9472    5.2176   -4.8350 N   0  0  0  0  0  0  0  0  0  0  0  0
   -6.4142    3.8356   -8.1601 C   0  0  0  0  0  0  0  0  0  0  0  0
   -7.3845    3.2742   -8.9468 N   0  0  0  0  0  0  0  0  0  0  0  0
  -12.2107    3.4203   -8.7106 N   0  0  0  0  0  0  0  0  0  0  0  0
  1  6  1  0  0  0  0
  2  1  1  0  0  0  0
  3  4  1  0  0  0  0
  3  2  2  0  0  0  0
  4  5  2  0  0  0  0
  5  8  1  0  0  0  0
  5  6  1  0  0  0  0
  6  7  2  0  0  0  0
  8  9  1  0  0  0  0
  9 10  1  0  0  0  0
 11  8  2  0  0  0  0
 12  4  1  0  0  0  0
 12 11  1  0  0  0  0
 13  2  1  0  0  0  0
M  END
>  <CHROM.1>
37.30506884,117.84042547,-8.80981188,4.29550472,-7.37130270,2.62966215,0.01219401
-2.11116499

>  <Name>
lig.pdb

>  <RI>
1.82164e+07

>  <Rbt.Current_Directory>
/home/itssahil/PROJECTS/Mol_Feturizer/New_Systems/rnas/2miy

>  <Rbt.Executable>
rbdock ($Id: //depot/dev/client3/rdock/2013.1/src/exe/rbdock.cxx#4 $)

>  <Rbt.Library>
libRbt.so (2013.1, Build901 2013/11/27)

>  <Rbt.Parameter_File>
/export/apps/rDock/src/rDock_2013.1_src/data/scripts/dock_solv.prm

>  <Rbt.Receptor>
prm/blind_docking_80.prm

>  <SCORE>
-48.7363

>  <SCORE.INTER>
-48.083

>  <SCORE.INTER.CONST>
1

>  <SCORE.INTER.POLAR>
-5.41189

>  <SCORE.INTER.ROT>
2

>  <SCORE.INTER.SOLV>
17.6493

>  <SCORE.INTER.VDW>
-24.8321

>  <SCORE.INTER.norm>
-3.69869

>  <SCORE.INTRA>
-0.708497

>  <SCORE.INTRA.DIHEDRAL>
0.369727

>  <SCORE.INTRA.DIHEDRAL.0>
1.76676

>  <SCORE.INTRA.POLAR>
-0.317848

>  <SCORE.INTRA.POLAR.0>
-0.472211

>  <SCORE.INTRA.REPUL>
0

>  <SCORE.INTRA.REPUL.0>
0

>  <SCORE.INTRA.SOLV>
0.0737433

>  <SCORE.INTRA.SOLV.lig_0>
-22.5855

>  <SCORE.INTRA.VDW>
0.150451

>  <SCORE.INTRA.VDW.0>
-0.733656

>  <SCORE.INTRA.norm>
-0.0544998

>  <SCORE.RESTR>
0.0551841

>  <SCORE.RESTR.CAVITY>
0.0551841

>  <SCORE.RESTR.norm>
0.00424493

>  <SCORE.SYSTEM>
0

>  <SCORE.SYSTEM.CONST>
0

>  <SCORE.SYSTEM.DIHEDRAL>
0

>  <SCORE.SYSTEM.SOLV>
0

>  <SCORE.SYSTEM.norm>
0

>  <SCORE.heavy>
13

>  <SCORE.norm>
-3.74894

>  <RMSD>
0.694

$$$$
lig.pdb
 OpenBabel11021811453D
libRbt.so/2013.1/901 2013/11/27
 13 14  0  0  0  0  0  0  0  0999 V2000
  -10.8188    4.5327   -7.1470 N   0  0  0  0  0  0  0  0  0  0  0  0
  -10.9477    3.8027   -8.2945 C   0  0  0  0  0  0  0  0  0  0  0  0
   -9.8749    3.3718   -8.9335 N   0  0  0  0  0  0  0  0  0  0  0  0
   -8.6084    3.6323   -8.4870 C   0  0  0  0  0  0  0  0  0  0  0  0
   -8.4167    4.3895   -7.3059 C   0  0  0  0  0  0  0  0  0  0  0  0
   -9.5817    4.8501   -6.6215 C   0  0  0  0  0  0  0  0  0  0  0  0
   -9.4871    5.5082   -5.6002 O   0  0  0  0  0  0  0  0  0  0  0  0
   -6.9661    4.4974   -7.1103 C   0  0  0  0  0  0  0  0  0  0  0  0
   -6.2378    5.2206   -6.0084 C   0  0  0  0  0  0  0  0  0  0  0  0
   -6.7570    6.5897   -5.8917 N   0  0  0  0  0  0  0  0  0  0  0  0
   -6.4051    3.8218   -8.1208 C   0  0  0  0  0  0  0  0  0  0  0  0
   -7.3698    3.3099   -8.9471 N   0  0  0  0  0  0  0  0  0  0  0  0
  -12.1969    3.5180   -8.7829 N   0  0  0  0  0  0  0  0  0  0  0  0
  1  6  1  0  0  0  0
  2  1  1  0  0  0  0
  3  4  1  0  0  0  0
  3  2  2  0  0  0  0
  4  5  2  0  0  0  0
  5  8  1  0  0  0  0
  5  6  1  0  0  0  0
  6  7  2  0  0  0  0
  8  9  1  0  0  0  0
  9 10  1  0  0  0  0
 11  8  2  0  0  0  0
 12  4  1  0  0  0  0
 12 11  1  0  0  0  0
 13  2  1  0  0  0  0
M  END
>  <CHROM.1>
-50.47549324,-175.37643380,-8.78659533,4.42490674,-7.45812830,2.63880462
-0.01394968,-2.24635635

>  <Name>
lig.pdb

>  <RI>
1.51961e+07

>  <Rbt.Current_Directory>
/home/itssahil/PROJECTS/Mol_Feturizer/New_Systems/rnas/2miy

>  <Rbt.Executable>
rbdock ($Id: //depot/dev/client3/rdock/2013.1/src/exe/rbdock.cxx#4 $)

>  <Rbt.Library>
libRbt.so (2013.1, Build901 2013/11/27)

>  <Rbt.Parameter_File>
/export/apps/rDock/src/rDock_2013.1_src/data/scripts/dock_solv.prm

>  <Rbt.Receptor>
prm/pocket_docking_3.prm

>  <SCORE>
-47.5588

>  <SCORE.INTER>
-49.1448

>  <SCORE.INTER.CONST>
1

>  <SCORE.INTER.POLAR>
-5.64749

>  <SCORE.INTER.ROT>
2

>  <SCORE.INTER.SOLV>
19.6329

>  <SCORE.INTER.VDW>
-25.4159

>  <SCORE.INTER.norm>
-3.78037

>  <SCORE.INTRA>
1.53738

>  <SCORE.INTRA.DIHEDRAL>
-0.205724

>  <SCORE.INTRA.DIHEDRAL.0>
1.76676

>  <SCORE.INTRA.POLAR>
0.472211

>  <SCORE.INTRA.POLAR.0>
-0.472211

>  <SCORE.INTRA.REPUL>
0

>  <SCORE.INTRA.REPUL.0>
0

>  <SCORE.INTRA.SOLV>
-0.0646412

>  <SCORE.INTRA.SOLV.lig_0>
-22.5855

>  <SCORE.INTRA.VDW>
0.0670491

>  <SCORE.INTRA.VDW.0>
-0.733656

>  <SCORE.INTRA.norm>
0.11826

>  <SCORE.RESTR>
0.0486319

>  <SCORE.RESTR.CAVITY>
0.0486319

>  <SCORE.RESTR.norm>
0.00374091

>  <SCORE.SYSTEM>
0

>  <SCORE.SYSTEM.CONST>
0

>  <SCORE.SYSTEM.DIHEDRAL>
0

>  <SCORE.SYSTEM.SOLV>
0

>  <SCORE.SYSTEM.norm>
0

>  <SCORE.heavy>
13

>  <SCORE.norm>
-3.65837

>  <RMSD>
0.694

$$$$
lig.pdb
 OpenBabel11021811453D
libRbt.so/2013.1/901 2013/11/27
 13 14  0  0  0  0  0  0  0  0999 V2000
  -10.8184    4.5327   -7.1451 N   0  0  0  0  0  0  0  0  0  0  0  0
  -10.9474    3.8022   -8.2923 C   0  0  0  0  0  0  0  0  0  0  0  0
   -9.8746    3.3720   -8.9317 N   0  0  0  0  0  0  0  0  0  0  0  0
   -8.6080    3.6335   -8.4860 C   0  0  0  0  0  0  0  0  0  0  0  0
   -8.4163    4.3913   -7.3052 C   0  0  0  0  0  0  0  0  0  0  0  0
   -9.5812    4.8513   -6.6204 C   0  0  0  0  0  0  0  0  0  0  0  0
   -9.4866    5.5097   -5.5993 O   0  0  0  0  0  0  0  0  0  0  0  0
   -6.9657    4.5003   -7.1105 C   0  0  0  0  0  0  0  0  0  0  0  0
   -6.2373    5.2245   -6.0093 C   0  0  0  0  0  0  0  0  0  0  0  0
   -6.7497    6.5968   -5.9002 N   0  0  0  0  0  0  0  0  0  0  0  0
   -6.4047    3.8248   -8.1211 C   0  0  0  0  0  0  0  0  0  0  0  0
   -7.3695    3.3120   -8.9467 N   0  0  0  0  0  0  0  0  0  0  0  0
  -12.1966    3.5164   -8.7799 N   0  0  0  0  0  0  0  0  0  0  0  0
  1  6  1  0  0  0  0
  2  1  1  0  0  0  0
  3  4  1  0  0  0  0
  3  2  2  0  0  0  0
  4  5  2  0  0  0  0
  5  8  1  0  0  0  0
  5  6  1  0  0  0  0
  6  7  2  0  0  0  0
  8  9  1  0  0  0  0
  9 10  1  0  0  0  0
 11  8  2  0  0  0  0
 12  4  1  0  0  0  0
 12 11  1  0  0  0  0
 13  2  1  0  0  0  0
M  END
>  <CHROM.1>
-50.94896591,3.71039853,-8.78545144,4.42673541,-7.45811744,2.63936051,-0.01535994
-2.24724860

>  <Name>
lig.pdb

>  <RI>
0

>  <Rbt.Current_Directory>
/home/itssahil/PROJECTS/Mol_Feturizer/New_Systems/rnas/2miy

>  <Rbt.Executable>
rbdock ($Id: //depot/dev/client3/rdock/2013.1/src/exe/rbdock.cxx#4 $)

>  <Rbt.Library>
libRbt.so (2013.1, Build901 2013/11/27)

>  <Rbt.Parameter_File>
/export/apps/rDock/src/rDock_2013.1_src/data/scripts/dock_solv.prm

>  <Rbt.Receptor>
prm/pocket_docking_2.prm

>  <SCORE>
-47.6491

>  <SCORE.INTER>
-49.1824

>  <SCORE.INTER.CONST>
1

>  <SCORE.INTER.POLAR>
-5.67596

>  <SCORE.INTER.ROT>
2

>  <SCORE.INTER.SOLV>
19.6554

>  <SCORE.INTER.VDW>
-25.3535

>  <SCORE.INTER.norm>
-3.78326

>  <SCORE.INTRA>
1.53327

>  <SCORE.INTRA.DIHEDRAL>
-0.20361

>  <SCORE.INTRA.DIHEDRAL.0>
1.76676

>  <SCORE.INTRA.POLAR>
0.472211

>  <SCORE.INTRA.POLAR.0>
-0.472211

>  <SCORE.INTRA.REPUL>
0

>  <SCORE.INTRA.REPUL.0>
0

>  <SCORE.INTRA.SOLV>
-0.0718781

>  <SCORE.INTRA.SOLV.lig_0>
-22.5855

>  <SCORE.INTRA.VDW>
0.0654939

>  <SCORE.INTRA.VDW.0>
-0.733656

>  <SCORE.INTRA.norm>
0.117944

>  <SCORE.RESTR>
0

>  <SCORE.RESTR.CAVITY>
0

>  <SCORE.RESTR.norm>
0

>  <SCORE.SYSTEM>
0

>  <SCORE.SYSTEM.CONST>
0

>  <SCORE.SYSTEM.DIHEDRAL>
0

>  <SCORE.SYSTEM.SOLV>
0

>  <SCORE.SYSTEM.norm>
0

>  <SCORE.heavy>
13

>  <SCORE.norm>
-3.66532

>  <RMSD>
0.695

$$$$
lig.pdb
 OpenBabel11021811453D
libRbt.so/2013.1/901 2013/11/27
 13 14  0  0  0  0  0  0  0  0999 V2000
  -10.8251    4.5213   -7.1501 N   0  0  0  0  0  0  0  0  0  0  0  0
  -10.9701    3.7309   -8.2549 C   0  0  0  0  0  0  0  0  0  0  0  0
   -9.9063    3.2804   -8.8954 N   0  0  0  0  0  0  0  0  0  0  0  0
   -8.6336    3.5793   -8.4925 C   0  0  0  0  0  0  0  0  0  0  0  0
   -8.4255    4.3994   -7.3571 C   0  0  0  0  0  0  0  0  0  0  0  0
   -9.5808    4.8808   -6.6707 C   0  0  0  0  0  0  0  0  0  0  0  0
   -9.4721    5.5924   -5.6874 O   0  0  0  0  0  0  0  0  0  0  0  0
   -6.9725    4.5350   -7.2011 C   0  0  0  0  0  0  0  0  0  0  0  0
   -6.2293    5.3236   -6.1554 C   0  0  0  0  0  0  0  0  0  0  0  0
   -6.9448    5.2399   -4.8753 N   0  0  0  0  0  0  0  0  0  0  0  0
   -6.4254    3.8145   -8.1879 C   0  0  0  0  0  0  0  0  0  0  0  0
   -7.4016    3.2485   -8.9639 N   0  0  0  0  0  0  0  0  0  0  0  0
  -12.2260    3.4059   -8.6988 N   0  0  0  0  0  0  0  0  0  0  0  0
  1  6  1  0  0  0  0
  2  1  1  0  0  0  0
  3  4  1  0  0  0  0
  3  2  2  0  0  0  0
  4  5  2  0  0  0  0
  5  8  1  0  0  0  0
  5  6  1  0  0  0  0
  6  7  2  0  0  0  0
  8  9  1  0  0  0  0
  9 10  1  0  0  0  0
 11  8  2  0  0  0  0
 12  4  1  0  0  0  0
 12 11  1  0  0  0  0
 13  2  1  0  0  0  0
M  END
>  <CHROM.1>
36.53365503,119.32470786,-8.81605039,4.28687948,-7.38836479,2.63533380,0.01004552
-2.12072965

>  <Name>
lig.pdb

>  <RI>
9.06885e+06

>  <Rbt.Current_Directory>
/home/itssahil/PROJECTS/Mol_Feturizer/New_Systems/rnas/2miy

>  <Rbt.Executable>
rbdock ($Id: //depot/dev/client3/rdock/2013.1/src/exe/rbdock.cxx#4 $)

>  <Rbt.Library>
libRbt.so (2013.1, Build901 2013/11/27)

>  <Rbt.Parameter_File>
/export/apps/rDock/src/rDock_2013.1_src/data/scripts/dock_solv.prm

>  <Rbt.Receptor>
prm/pocket_docking_6.prm

>  <SCORE>
-48.7156

>  <SCORE.INTER>
-48.0191

>  <SCORE.INTER.CONST>
1

>  <SCORE.INTER.POLAR>
-5.43767

>  <SCORE.INTER.ROT>
2

>  <SCORE.INTER.SOLV>
17.7311

>  <SCORE.INTER.VDW>
-24.7309

>  <SCORE.INTER.norm>
-3.69378

>  <SCORE.INTRA>
-0.696524

>  <SCORE.INTRA.DIHEDRAL>
0.413771

>  <SCORE.INTRA.DIHEDRAL.0>
1.76676

>  <SCORE.INTRA.POLAR>
-0.330905

>  <SCORE.INTRA.POLAR.0>
-0.472211

>  <SCORE.INTRA.REPUL>
0

>  <SCORE.INTRA.REPUL.0>
0

>  <SCORE.INTRA.SOLV>
0.0810952

>  <SCORE.INTRA.SOLV.lig_0>
-22.5855

>  <SCORE.INTRA.VDW>
0.18112

>  <SCORE.INTRA.VDW.0>
-0.733656

>  <SCORE.INTRA.norm>
-0.0535788

>  <SCORE.RESTR>
0

>  <SCORE.RESTR.CAVITY>
0

>  <SCORE.RESTR.norm>
0

>  <SCORE.SYSTEM>
0

>  <SCORE.SYSTEM.CONST>
0

>  <SCORE.SYSTEM.DIHEDRAL>
0

>  <SCORE.SYSTEM.SOLV>
0

>  <SCORE.SYSTEM.norm>
0

>  <SCORE.heavy>
13

>  <SCORE.norm>
-3.74736

>  <RMSD>
0.695

$$$$
lig.pdb
 OpenBabel11021811453D
libRbt.so/2013.1/901 2013/11/27
 13 14  0  0  0  0  0  0  0  0999 V2000
  -10.8185    4.5329   -7.1455 N   0  0  0  0  0  0  0  0  0  0  0  0
  -10.9479    3.8016   -8.2922 C   0  0  0  0  0  0  0  0  0  0  0  0
   -9.8754    3.3700   -8.9311 N   0  0  0  0  0  0  0  0  0  0  0  0
   -8.6086    3.6309   -8.4854 C   0  0  0  0  0  0  0  0  0  0  0  0
   -8.4165    4.3895   -7.3052 C   0  0  0  0  0  0  0  0  0  0  0  0
   -9.5812    4.8509   -6.6209 C   0  0  0  0  0  0  0  0  0  0  0  0
   -9.4862    5.5101   -5.6004 O   0  0  0  0  0  0  0  0  0  0  0  0
   -6.9658    4.4976   -7.1104 C   0  0  0  0  0  0  0  0  0  0  0  0
   -6.2371    5.2221   -6.0096 C   0  0  0  0  0  0  0  0  0  0  0  0
   -6.7474    6.5953   -5.9027 N   0  0  0  0  0  0  0  0  0  0  0  0
   -6.4052    3.8208   -8.1203 C   0  0  0  0  0  0  0  0  0  0  0  0
   -7.3703    3.3081   -8.9456 N   0  0  0  0  0  0  0  0  0  0  0  0
  -12.1972    3.5163   -8.7798 N   0  0  0  0  0  0  0  0  0  0  0  0
  1  6  1  0  0  0  0
  2  1  1  0  0  0  0
  3  4  1  0  0  0  0
  3  2  2  0  0  0  0
  4  5  2  0  0  0  0
  5  8  1  0  0  0  0
  5  6  1  0  0  0  0
  6  7  2  0  0  0  0
  8  9  1  0  0  0  0
  9 10  1  0  0  0  0
 11  8  2  0  0  0  0
 12  4  1  0  0  0  0
 12 11  1  0  0  0  0
 13  2  1  0  0  0  0
M  END
>  <CHROM.1>
-51.00713064,4.83573373,-8.78550664,4.42513896,-7.45830342,2.63983008,-0.01472271
-2.24814691

>  <Name>
lig.pdb

>  <RI>
3.47783e+07

>  <Rbt.Current_Directory>
/home/itssahil/PROJECTS/Mol_Feturizer/New_Systems/rnas/2miy

>  <Rbt.Executable>
rbdock ($Id: //depot/dev/client3/rdock/2013.1/src/exe/rbdock.cxx#4 $)

>  <Rbt.Library>
libRbt.so (2013.1, Build901 2013/11/27)

>  <Rbt.Parameter_File>
/export/apps/rDock/src/rDock_2013.1_src/data/scripts/dock_solv.prm

>  <Rbt.Receptor>
prm/pocket_docking_8.prm

>  <SCORE>
-47.6438

>  <SCORE.INTER>
-49.1767

>  <SCORE.INTER.CONST>
1

>  <SCORE.INTER.POLAR>
-5.67558

>  <SCORE.INTER.ROT>
2

>  <SCORE.INTER.SOLV>
19.6632

>  <SCORE.INTER.VDW>
-25.3536

>  <SCORE.INTER.norm>
-3.78282

>  <SCORE.INTRA>
1.53286

>  <SCORE.INTRA.DIHEDRAL>
-0.203373

>  <SCORE.INTRA.DIHEDRAL.0>
1.76676

>  <SCORE.INTRA.POLAR>
0.472211

>  <SCORE.INTRA.POLAR.0>
-0.472211

>  <SCORE.INTRA.REPUL>
0

>  <SCORE.INTRA.REPUL.0>
0

>  <SCORE.INTRA.SOLV>
-0.0723756

>  <SCORE.INTRA.SOLV.lig_0>
-22.5855

>  <SCORE.INTRA.VDW>
0.0652197

>  <SCORE.INTRA.VDW.0>
-0.733656

>  <SCORE.INTRA.norm>
0.117913

>  <SCORE.RESTR>
0

>  <SCORE.RESTR.CAVITY>
0

>  <SCORE.RESTR.norm>
0

>  <SCORE.SYSTEM>
0

>  <SCORE.SYSTEM.CONST>
0

>  <SCORE.SYSTEM.DIHEDRAL>
0

>  <SCORE.SYSTEM.SOLV>
0

>  <SCORE.SYSTEM.norm>
0

>  <SCORE.heavy>
13

>  <SCORE.norm>
-3.66491

>  <RMSD>
0.695

$$$$
lig.pdb
 OpenBabel11021811453D
libRbt.so/2013.1/901 2013/11/27
 13 14  0  0  0  0  0  0  0  0999 V2000
  -10.8187    4.5336   -7.1461 N   0  0  0  0  0  0  0  0  0  0  0  0
  -10.9481    3.8012   -8.2921 C   0  0  0  0  0  0  0  0  0  0  0  0
   -9.8755    3.3694   -8.9308 N   0  0  0  0  0  0  0  0  0  0  0  0
   -8.6088    3.6312   -8.4855 C   0  0  0  0  0  0  0  0  0  0  0  0
   -8.4167    4.3909   -7.3061 C   0  0  0  0  0  0  0  0  0  0  0  0
   -9.5815    4.8525   -6.6220 C   0  0  0  0  0  0  0  0  0  0  0  0
   -9.4866    5.5127   -5.6021 O   0  0  0  0  0  0  0  0  0  0  0  0
   -6.9661    4.4997   -7.1116 C   0  0  0  0  0  0  0  0  0  0  0  0
   -6.2374    5.2254   -6.0116 C   0  0  0  0  0  0  0  0  0  0  0  0
   -6.7502    6.5977   -5.9039 N   0  0  0  0  0  0  0  0  0  0  0  0
   -6.4054    3.8222   -8.1209 C   0  0  0  0  0  0  0  0  0  0  0  0
   -7.3704    3.3083   -8.9456 N   0  0  0  0  0  0  0  0  0  0  0  0
  -12.1974    3.5151   -8.7792 N   0  0  0  0  0  0  0  0  0  0  0  0
  1  6  1  0  0  0  0
  2  1  1  0  0  0  0
  3  4  1  0  0  0  0
  3  2  2  0  0  0  0
  4  5  2  0  0  0  0
  5  8  1  0  0  0  0
  5  6  1  0  0  0  0
  6  7  2  0  0  0  0
  8  9  1  0  0  0  0
  9 10  1  0  0  0  0
 11  8  2  0  0  0  0
 12  4  1  0  0  0  0
 12 11  1  0  0  0  0
 13  2  1  0  0  0  0
M  END
>  <CHROM.1>
-50.88593791,4.27666827,-8.78596987,4.42620600,-7.45892352,2.63957840,-0.01498540
-2.24892725

>  <Name>
lig.pdb

>  <RI>
2.95488e+07

>  <Rbt.Current_Directory>
/home/itssahil/PROJECTS/Mol_Feturizer/New_Systems/rnas/2miy

>  <Rbt.Executable>
rbdock ($Id: //depot/dev/client3/rdock/2013.1/src/exe/rbdock.cxx#4 $)

>  <Rbt.Library>
libRbt.so (2013.1, Build901 2013/11/27)

>  <Rbt.Parameter_File>
/export/apps/rDock/src/rDock_2013.1_src/data/scripts/dock_solv.prm

>  <Rbt.Receptor>
prm/blind_docking_20.prm

>  <SCORE>
-47.6367

>  <SCORE.INTER>
-49.1718

>  <SCORE.INTER.CONST>
1

>  <SCORE.INTER.POLAR>
-5.67701

>  <SCORE.INTER.ROT>
2

>  <SCORE.INTER.SOLV>
19.664

>  <SCORE.INTER.VDW>
-25.3458

>  <SCORE.INTER.norm>
-3.78245

>  <SCORE.INTRA>
1.53517

>  <SCORE.INTRA.DIHEDRAL>
-0.201103

>  <SCORE.INTRA.DIHEDRAL.0>
1.76676

>  <SCORE.INTRA.POLAR>
0.472211

>  <SCORE.INTRA.POLAR.0>
-0.472211

>  <SCORE.INTRA.REPUL>
0

>  <SCORE.INTRA.REPUL.0>
0

>  <SCORE.INTRA.SOLV>
-0.0710953

>  <SCORE.INTRA.SOLV.lig_0>
-22.5855

>  <SCORE.INTRA.VDW>
0.0657473

>  <SCORE.INTRA.VDW.0>
-0.733656

>  <SCORE.INTRA.norm>
0.11809

>  <SCORE.RESTR>
0

>  <SCORE.RESTR.CAVITY>
0

>  <SCORE.RESTR.norm>
0

>  <SCORE.SYSTEM>
0

>  <SCORE.SYSTEM.CONST>
0

>  <SCORE.SYSTEM.DIHEDRAL>
0

>  <SCORE.SYSTEM.SOLV>
0

>  <SCORE.SYSTEM.norm>
0

>  <SCORE.heavy>
13

>  <SCORE.norm>
-3.66436

>  <RMSD>
0.696

$$$$
lig.pdb
 OpenBabel11021811453D
libRbt.so/2013.1/901 2013/11/27
 13 14  0  0  0  0  0  0  0  0999 V2000
  -10.8186    4.5330   -7.1456 N   0  0  0  0  0  0  0  0  0  0  0  0
  -10.9480    3.8023   -8.2926 C   0  0  0  0  0  0  0  0  0  0  0  0
   -9.8755    3.3713   -8.9319 N   0  0  0  0  0  0  0  0  0  0  0  0
   -8.6087    3.6323   -8.4863 C   0  0  0  0  0  0  0  0  0  0  0  0
   -8.4165    4.3903   -7.3057 C   0  0  0  0  0  0  0  0  0  0  0  0
   -9.5812    4.8511   -6.6210 C   0  0  0  0  0  0  0  0  0  0  0  0
   -9.4863    5.5098   -5.6001 O   0  0  0  0  0  0  0  0  0  0  0  0
   -6.9659    4.4986   -7.1111 C   0  0  0  0  0  0  0  0  0  0  0  0
   -6.2371    5.2227   -6.0100 C   0  0  0  0  0  0  0  0  0  0  0  0
   -6.7456    6.5967   -5.9043 N   0  0  0  0  0  0  0  0  0  0  0  0
   -6.4053    3.8225   -8.1214 C   0  0  0  0  0  0  0  0  0  0  0  0
   -7.3704    3.3099   -8.9469 N   0  0  0  0  0  0  0  0  0  0  0  0
  -12.1973    3.5170   -8.7802 N   0  0  0  0  0  0  0  0  0  0  0  0
  1  6  1  0  0  0  0
  2  1  1  0  0  0  0
  3  4  1  0  0  0  0
  3  2  2  0  0  0  0
  4  5  2  0  0  0  0
  5  8  1  0  0  0  0
  5  6  1  0  0  0  0
  6  7  2  0  0  0  0
  8  9  1  0  0  0  0
  9 10  1  0  0  0  0
 11  8  2  0  0  0  0
 12  4  1  0  0  0  0
 12 11  1  0  0  0  0
 13  2  1  0  0  0  0
M  END
>  <CHROM.1>
-51.13744710,-175.44513116,-8.78551420,4.42595369,-7.45879516,2.63986615
-0.01503401,-2.24767003

>  <Name>
lig.pdb

>  <RI>
2.95488e+07

>  <Rbt.Current_Directory>
/home/itssahil/PROJECTS/Mol_Feturizer/New_Systems/rnas/2miy

>  <Rbt.Executable>
rbdock ($Id: //depot/dev/client3/rdock/2013.1/src/exe/rbdock.cxx#4 $)

>  <Rbt.Library>
libRbt.so (2013.1, Build901 2013/11/27)

>  <Rbt.Parameter_File>
/export/apps/rDock/src/rDock_2013.1_src/data/scripts/dock_solv.prm

>  <Rbt.Receptor>
prm/blind_docking_20.prm

>  <SCORE>
-47.6448

>  <SCORE.INTER>
-49.1669

>  <SCORE.INTER.CONST>
1

>  <SCORE.INTER.POLAR>
-5.66783

>  <SCORE.INTER.ROT>
2

>  <SCORE.INTER.SOLV>
19.663

>  <SCORE.INTER.VDW>
-25.3729

>  <SCORE.INTER.norm>
-3.78207

>  <SCORE.INTRA>
1.52211

>  <SCORE.INTRA.DIHEDRAL>
-0.222948

>  <SCORE.INTRA.DIHEDRAL.0>
1.76676

>  <SCORE.INTRA.POLAR>
0.472211

>  <SCORE.INTRA.POLAR.0>
-0.472211

>  <SCORE.INTRA.REPUL>
0

>  <SCORE.INTRA.REPUL.0>
0

>  <SCORE.INTRA.SOLV>
-0.0720384

>  <SCORE.INTRA.SOLV.lig_0>
-22.5855

>  <SCORE.INTRA.VDW>
0.0640884

>  <SCORE.INTRA.VDW.0>
-0.733656

>  <SCORE.INTRA.norm>
0.117086

>  <SCORE.RESTR>
0

>  <SCORE.RESTR.CAVITY>
0

>  <SCORE.RESTR.norm>
0

>  <SCORE.SYSTEM>
0

>  <SCORE.SYSTEM.CONST>
0

>  <SCORE.SYSTEM.DIHEDRAL>
0

>  <SCORE.SYSTEM.SOLV>
0

>  <SCORE.SYSTEM.norm>
0

>  <SCORE.heavy>
13

>  <SCORE.norm>
-3.66499

>  <RMSD>
0.696

$$$$
lig.pdb
 OpenBabel11021811453D
libRbt.so/2013.1/901 2013/11/27
 13 14  0  0  0  0  0  0  0  0999 V2000
  -10.8235    4.5215   -7.1536 N   0  0  0  0  0  0  0  0  0  0  0  0
  -10.9577    3.7495   -8.2727 C   0  0  0  0  0  0  0  0  0  0  0  0
   -9.8876    3.3175   -8.9156 N   0  0  0  0  0  0  0  0  0  0  0  0
   -8.6190    3.6181   -8.5012 C   0  0  0  0  0  0  0  0  0  0  0  0
   -8.4222    4.4197   -7.3506 C   0  0  0  0  0  0  0  0  0  0  0  0
   -9.5842    4.8811   -6.6617 C   0  0  0  0  0  0  0  0  0  0  0  0
   -9.4852    5.5762   -5.6657 O   0  0  0  0  0  0  0  0  0  0  0  0
   -6.9709    4.5625   -7.1851 C   0  0  0  0  0  0  0  0  0  0  0  0
   -6.2383    5.3379   -6.1221 C   0  0  0  0  0  0  0  0  0  0  0  0
   -6.9515    5.2147   -4.8439 N   0  0  0  0  0  0  0  0  0  0  0  0
   -6.4140    3.8631   -8.1815 C   0  0  0  0  0  0  0  0  0  0  0  0
   -7.3824    3.3040   -8.9721 N   0  0  0  0  0  0  0  0  0  0  0  0
  -12.2091    3.4236   -8.7284 N   0  0  0  0  0  0  0  0  0  0  0  0
  1  6  1  0  0  0  0
  2  1  1  0  0  0  0
  3  4  1  0  0  0  0
  3  2  2  0  0  0  0
  4  5  2  0  0  0  0
  5  8  1  0  0  0  0
  5  6  1  0  0  0  0
  6  7  2  0  0  0  0
  8  9  1  0  0  0  0
  9 10  1  0  0  0  0
 11  8  2  0  0  0  0
 12  4  1  0  0  0  0
 12 11  1  0  0  0  0
 13  2  1  0  0  0  0
M  END
>  <CHROM.1>
37.15653814,-61.42639718,-8.81094771,4.30403825,-7.38547330,2.62787658,0.00706355
-2.10228371

>  <Name>
lig.pdb

>  <RI>
1.17462e+07

>  <Rbt.Current_Directory>
/home/itssahil/PROJECTS/Mol_Feturizer/New_Systems/rnas/2miy

>  <Rbt.Executable>
rbdock ($Id: //depot/dev/client3/rdock/2013.1/src/exe/rbdock.cxx#4 $)

>  <Rbt.Library>
libRbt.so (2013.1, Build901 2013/11/27)

>  <Rbt.Parameter_File>
/export/apps/rDock/src/rDock_2013.1_src/data/scripts/dock_solv.prm

>  <Rbt.Receptor>
prm/blind_docking_40.prm

>  <SCORE>
-48.5972

>  <SCORE.INTER>
-47.937

>  <SCORE.INTER.CONST>
1

>  <SCORE.INTER.POLAR>
-5.34681

>  <SCORE.INTER.ROT>
2

>  <SCORE.INTER.SOLV>
17.6868

>  <SCORE.INTER.VDW>
-24.9642

>  <SCORE.INTER.norm>
-3.68746

>  <SCORE.INTRA>
-0.701776

>  <SCORE.INTRA.DIHEDRAL>
0.381864

>  <SCORE.INTRA.DIHEDRAL.0>
1.76676

>  <SCORE.INTRA.POLAR>
-0.319028

>  <SCORE.INTRA.POLAR.0>
-0.472211

>  <SCORE.INTRA.REPUL>
0

>  <SCORE.INTRA.REPUL.0>
0

>  <SCORE.INTRA.SOLV>
0.0741079

>  <SCORE.INTRA.SOLV.lig_0>
-22.5855

>  <SCORE.INTRA.VDW>
0.154933

>  <SCORE.INTRA.VDW.0>
-0.733656

>  <SCORE.INTRA.norm>
-0.0539828

>  <SCORE.RESTR>
0.0415271

>  <SCORE.RESTR.CAVITY>
0.0415271

>  <SCORE.RESTR.norm>
0.00319439

>  <SCORE.SYSTEM>
0

>  <SCORE.SYSTEM.CONST>
0

>  <SCORE.SYSTEM.DIHEDRAL>
0

>  <SCORE.SYSTEM.SOLV>
0

>  <SCORE.SYSTEM.norm>
0

>  <SCORE.heavy>
13

>  <SCORE.norm>
-3.73825

>  <RMSD>
0.696

$$$$
lig.pdb
 OpenBabel11021811453D
libRbt.so/2013.1/901 2013/11/27
 13 14  0  0  0  0  0  0  0  0999 V2000
  -10.8190    4.5324   -7.1473 N   0  0  0  0  0  0  0  0  0  0  0  0
  -10.9483    3.8017   -8.2943 C   0  0  0  0  0  0  0  0  0  0  0  0
   -9.8758    3.3694   -8.9328 N   0  0  0  0  0  0  0  0  0  0  0  0
   -8.6091    3.6290   -8.4861 C   0  0  0  0  0  0  0  0  0  0  0  0
   -8.4170    4.3869   -7.3055 C   0  0  0  0  0  0  0  0  0  0  0  0
   -9.5817    4.8491   -6.6217 C   0  0  0  0  0  0  0  0  0  0  0  0
   -9.4868    5.5078   -5.6009 O   0  0  0  0  0  0  0  0  0  0  0  0
   -6.9664    4.4936   -7.1097 C   0  0  0  0  0  0  0  0  0  0  0  0
   -6.2376    5.2170   -6.0082 C   0  0  0  0  0  0  0  0  0  0  0  0
   -6.7376    6.5947   -5.9097 N   0  0  0  0  0  0  0  0  0  0  0  0
   -6.4057    3.8168   -8.1196 C   0  0  0  0  0  0  0  0  0  0  0  0
   -7.3708    3.3052   -8.9457 N   0  0  0  0  0  0  0  0  0  0  0  0
  -12.1976    3.5178   -8.7828 N   0  0  0  0  0  0  0  0  0  0  0  0
  1  6  1  0  0  0  0
  2  1  1  0  0  0  0
  3  4  1  0  0  0  0
  3  2  2  0  0  0  0
  4  5  2  0  0  0  0
  5  8  1  0  0  0  0
  5  6  1  0  0  0  0
  6  7  2  0  0  0  0
  8  9  1  0  0  0  0
  9 10  1  0  0  0  0
 11  8  2  0  0  0  0
 12  4  1  0  0  0  0
 12 11  1  0  0  0  0
 13  2  1  0  0  0  0
M  END
>  <CHROM.1>
-51.56009974,-175.11936634,-8.78514807,4.42327920,-7.45950242,2.64047797
-0.01402912,-2.24820557

>  <Name>
lig.pdb

>  <RI>
0

>  <Rbt.Current_Directory>
/home/itssahil/PROJECTS/Mol_Feturizer/New_Systems/rnas/2miy

>  <Rbt.Executable>
rbdock ($Id: //depot/dev/client3/rdock/2013.1/src/exe/rbdock.cxx#4 $)

>  <Rbt.Library>
libRbt.so (2013.1, Build901 2013/11/27)

>  <Rbt.Parameter_File>
/export/apps/rDock/src/rDock_2013.1_src/data/scripts/dock_solv.prm

>  <Rbt.Receptor>
prm/pocket_docking_2.prm

>  <SCORE>
-47.6147

>  <SCORE.INTER>
-49.1273

>  <SCORE.INTER.CONST>
1

>  <SCORE.INTER.POLAR>
-5.67915

>  <SCORE.INTER.ROT>
2

>  <SCORE.INTER.SOLV>
19.6757

>  <SCORE.INTER.VDW>
-25.313

>  <SCORE.INTER.norm>
-3.77902

>  <SCORE.INTRA>
1.51262

>  <SCORE.INTRA.DIHEDRAL>
-0.233891

>  <SCORE.INTRA.DIHEDRAL.0>
1.76676

>  <SCORE.INTRA.POLAR>
0.472211

>  <SCORE.INTRA.POLAR.0>
-0.472211

>  <SCORE.INTRA.REPUL>
0

>  <SCORE.INTRA.REPUL.0>
0

>  <SCORE.INTRA.SOLV>
-0.0767442

>  <SCORE.INTRA.SOLV.lig_0>
-22.5855

>  <SCORE.INTRA.VDW>
0.0624162

>  <SCORE.INTRA.VDW.0>
-0.733656

>  <SCORE.INTRA.norm>
0.116355

>  <SCORE.RESTR>
0

>  <SCORE.RESTR.CAVITY>
0

>  <SCORE.RESTR.norm>
0

>  <SCORE.SYSTEM>
0

>  <SCORE.SYSTEM.CONST>
0

>  <SCORE.SYSTEM.DIHEDRAL>
0

>  <SCORE.SYSTEM.SOLV>
0

>  <SCORE.SYSTEM.norm>
0

>  <SCORE.heavy>
13

>  <SCORE.norm>
-3.66267

>  <RMSD>
0.696

$$$$
lig.pdb
 OpenBabel11021811453D
libRbt.so/2013.1/901 2013/11/27
 13 14  0  0  0  0  0  0  0  0999 V2000
  -10.8093    4.5577   -7.1780 N   0  0  0  0  0  0  0  0  0  0  0  0
  -10.9452    3.7792   -8.2923 C   0  0  0  0  0  0  0  0  0  0  0  0
   -9.8762    3.3227   -8.9199 N   0  0  0  0  0  0  0  0  0  0  0  0
   -8.6069    3.6035   -8.4938 C   0  0  0  0  0  0  0  0  0  0  0  0
   -8.4082    4.4108   -7.3475 C   0  0  0  0  0  0  0  0  0  0  0  0
   -9.5690    4.8988   -6.6752 C   0  0  0  0  0  0  0  0  0  0  0  0
   -9.4684    5.6000   -5.6837 O   0  0  0  0  0  0  0  0  0  0  0  0
   -6.9564    4.5286   -7.1669 C   0  0  0  0  0  0  0  0  0  0  0  0
   -6.2215    5.2991   -6.1021 C   0  0  0  0  0  0  0  0  0  0  0  0
   -7.0306    6.4507   -5.6813 N   0  0  0  0  0  0  0  0  0  0  0  0
   -6.4015    3.8111   -8.1515 C   0  0  0  0  0  0  0  0  0  0  0  0
   -7.3712    3.2632   -8.9484 N   0  0  0  0  0  0  0  0  0  0  0  0
  -12.1972    3.4723   -8.7594 N   0  0  0  0  0  0  0  0  0  0  0  0
  1  6  1  0  0  0  0
  2  1  1  0  0  0  0
  3  4  1  0  0  0  0
  3  2  2  0  0  0  0
  4  5  2  0  0  0  0
  5  8  1  0  0  0  0
  5  6  1  0  0  0  0
  6  7  2  0  0  0  0
  8  9  1  0  0  0  0
  9 10  1  0  0  0  0
 11  8  2  0  0  0  0
 12  4  1  0  0  0  0
 12 11  1  0  0  0  0
 13  2  1  0  0  0  0
M  END
>  <CHROM.1>
-29.20919927,55.74652544,-8.80607824,4.41858199,-7.46517121,2.62542883,-0.00559772
-2.25681372

>  <Name>
lig.pdb

>  <RI>
0

>  <Rbt.Current_Directory>
/home/itssahil/PROJECTS/Mol_Feturizer/New_Systems/rnas/2miy

>  <Rbt.Executable>
rbdock ($Id: //depot/dev/client3/rdock/2013.1/src/exe/rbdock.cxx#4 $)

>  <Rbt.Library>
libRbt.so (2013.1, Build901 2013/11/27)

>  <Rbt.Parameter_File>
/export/apps/rDock/src/rDock_2013.1_src/data/scripts/dock_solv.prm

>  <Rbt.Receptor>
prm/pocket_docking_2.prm

>  <SCORE>
-49.3443

>  <SCORE.INTER>
-48.9509

>  <SCORE.INTER.CONST>
1

>  <SCORE.INTER.POLAR>
-5.46047

>  <SCORE.INTER.ROT>
2

>  <SCORE.INTER.SOLV>
19.0768

>  <SCORE.INTER.VDW>
-25.7246

>  <SCORE.INTER.norm>
-3.76545

>  <SCORE.INTRA>
-0.393421

>  <SCORE.INTRA.DIHEDRAL>
0.814299

>  <SCORE.INTRA.DIHEDRAL.0>
1.76676

>  <SCORE.INTRA.POLAR>
-0.391465

>  <SCORE.INTRA.POLAR.0>
-0.472211

>  <SCORE.INTRA.REPUL>
0

>  <SCORE.INTRA.REPUL.0>
0

>  <SCORE.INTRA.SOLV>
0.143885

>  <SCORE.INTRA.SOLV.lig_0>
-22.5855

>  <SCORE.INTRA.VDW>
0.458468

>  <SCORE.INTRA.VDW.0>
-0.733656

>  <SCORE.INTRA.norm>
-0.0302631

>  <SCORE.RESTR>
0

>  <SCORE.RESTR.CAVITY>
0

>  <SCORE.RESTR.norm>
0

>  <SCORE.SYSTEM>
0

>  <SCORE.SYSTEM.CONST>
0

>  <SCORE.SYSTEM.DIHEDRAL>
0

>  <SCORE.SYSTEM.SOLV>
0

>  <SCORE.SYSTEM.norm>
0

>  <SCORE.heavy>
13

>  <SCORE.norm>
-3.79571

>  <RMSD>
0.696

$$$$
lig.pdb
 OpenBabel11021811453D
libRbt.so/2013.1/901 2013/11/27
 13 14  0  0  0  0  0  0  0  0999 V2000
  -10.8209    4.5269   -7.1424 N   0  0  0  0  0  0  0  0  0  0  0  0
  -10.9579    3.7453   -8.2546 C   0  0  0  0  0  0  0  0  0  0  0  0
   -9.8895    3.3012   -8.8918 N   0  0  0  0  0  0  0  0  0  0  0  0
   -8.6197    3.5982   -8.4783 C   0  0  0  0  0  0  0  0  0  0  0  0
   -8.4199    4.4093   -7.3349 C   0  0  0  0  0  0  0  0  0  0  0  0
   -9.5802    4.8839   -6.6521 C   0  0  0  0  0  0  0  0  0  0  0  0
   -9.4786    5.5875   -5.6623 O   0  0  0  0  0  0  0  0  0  0  0  0
   -6.9681    4.5453   -7.1685 C   0  0  0  0  0  0  0  0  0  0  0  0
   -6.2325    5.3262   -6.1117 C   0  0  0  0  0  0  0  0  0  0  0  0
   -6.9380    5.2035   -4.8292 N   0  0  0  0  0  0  0  0  0  0  0  0
   -6.4138    3.8334   -8.1576 C   0  0  0  0  0  0  0  0  0  0  0  0
   -7.3843    3.2727   -8.9444 N   0  0  0  0  0  0  0  0  0  0  0  0
  -12.2105    3.4225   -8.7092 N   0  0  0  0  0  0  0  0  0  0  0  0
  1  6  1  0  0  0  0
  2  1  1  0  0  0  0
  3  4  1  0  0  0  0
  3  2  2  0  0  0  0
  4  5  2  0  0  0  0
  5  8  1  0  0  0  0
  5  6  1  0  0  0  0
  6  7  2  0  0  0  0
  8  9  1  0  0  0  0
  9 10  1  0  0  0  0
 11  8  2  0  0  0  0
 12  4  1  0  0  0  0
 12 11  1  0  0  0  0
 13  2  1  0  0  0  0
M  END
>  <CHROM.1>
37.94288160,-62.14992654,-8.80831887,4.29418724,-7.36888372,2.63023275,0.01335419
-2.11025246

>  <Name>
lig.pdb

>  <RI>
3.47783e+07

>  <Rbt.Current_Directory>
/home/itssahil/PROJECTS/Mol_Feturizer/New_Systems/rnas/2miy

>  <Rbt.Executable>
rbdock ($Id: //depot/dev/client3/rdock/2013.1/src/exe/rbdock.cxx#4 $)

>  <Rbt.Library>
libRbt.so (2013.1, Build901 2013/11/27)

>  <Rbt.Parameter_File>
/export/apps/rDock/src/rDock_2013.1_src/data/scripts/dock_solv.prm

>  <Rbt.Receptor>
prm/pocket_docking_8.prm

>  <SCORE>
-48.7724

>  <SCORE.INTER>
-48.0661

>  <SCORE.INTER.CONST>
1

>  <SCORE.INTER.POLAR>
-5.42096

>  <SCORE.INTER.ROT>
2

>  <SCORE.INTER.SOLV>
17.6444

>  <SCORE.INTER.VDW>
-24.789

>  <SCORE.INTER.norm>
-3.69739

>  <SCORE.INTRA>
-0.706301

>  <SCORE.INTRA.DIHEDRAL>
0.341054

>  <SCORE.INTRA.DIHEDRAL.0>
1.76676

>  <SCORE.INTRA.POLAR>
-0.306113

>  <SCORE.INTRA.POLAR.0>
-0.472211

>  <SCORE.INTRA.REPUL>
0

>  <SCORE.INTRA.REPUL.0>
0

>  <SCORE.INTRA.SOLV>
0.0667236

>  <SCORE.INTRA.SOLV.lig_0>
-22.5855

>  <SCORE.INTRA.VDW>
0.130593

>  <SCORE.INTRA.VDW.0>
-0.733656

>  <SCORE.INTRA.norm>
-0.0543309

>  <SCORE.RESTR>
0

>  <SCORE.RESTR.CAVITY>
0

>  <SCORE.RESTR.norm>
0

>  <SCORE.SYSTEM>
0

>  <SCORE.SYSTEM.CONST>
0

>  <SCORE.SYSTEM.DIHEDRAL>
0

>  <SCORE.SYSTEM.SOLV>
0

>  <SCORE.SYSTEM.norm>
0

>  <SCORE.heavy>
13

>  <SCORE.norm>
-3.75173

>  <RMSD>
0.696

$$$$
lig.pdb
 OpenBabel11021811453D
libRbt.so/2013.1/901 2013/11/27
 13 14  0  0  0  0  0  0  0  0999 V2000
  -10.8183    4.5358   -7.1473 N   0  0  0  0  0  0  0  0  0  0  0  0
  -10.9474    3.8038   -8.2936 C   0  0  0  0  0  0  0  0  0  0  0  0
   -9.8747    3.3722   -8.9322 N   0  0  0  0  0  0  0  0  0  0  0  0
   -8.6081    3.6337   -8.4866 C   0  0  0  0  0  0  0  0  0  0  0  0
   -8.4162    4.3930   -7.3068 C   0  0  0  0  0  0  0  0  0  0  0  0
   -9.5810    4.8544   -6.6228 C   0  0  0  0  0  0  0  0  0  0  0  0
   -9.4863    5.5142   -5.6027 O   0  0  0  0  0  0  0  0  0  0  0  0
   -6.9656    4.5015   -7.1120 C   0  0  0  0  0  0  0  0  0  0  0  0
   -6.2371    5.2268   -6.0116 C   0  0  0  0  0  0  0  0  0  0  0  0
   -6.7543    6.5971   -5.8992 N   0  0  0  0  0  0  0  0  0  0  0  0
   -6.4047    3.8244   -8.1215 C   0  0  0  0  0  0  0  0  0  0  0  0
   -7.3696    3.3109   -8.9466 N   0  0  0  0  0  0  0  0  0  0  0  0
  -12.1966    3.5180   -8.7811 N   0  0  0  0  0  0  0  0  0  0  0  0
  1  6  1  0  0  0  0
  2  1  1  0  0  0  0
  3  4  1  0  0  0  0
  3  2  2  0  0  0  0
  4  5  2  0  0  0  0
  5  8  1  0  0  0  0
  5  6  1  0  0  0  0
  6  7  2  0  0  0  0
  8  9  1  0  0  0  0
  9 10  1  0  0  0  0
 11  8  2  0  0  0  0
 12  4  1  0  0  0  0
 12 11  1  0  0  0  0
 13  2  1  0  0  0  0
M  END
>  <CHROM.1>
-50.61694428,2.71852729,-8.78582580,4.42815986,-7.45934188,2.63909412,-0.01455890
-2.24821502

>  <Name>
lig.pdb

>  <RI>
2.95488e+07

>  <Rbt.Current_Directory>
/home/itssahil/PROJECTS/Mol_Feturizer/New_Systems/rnas/2miy

>  <Rbt.Executable>
rbdock ($Id: //depot/dev/client3/rdock/2013.1/src/exe/rbdock.cxx#4 $)

>  <Rbt.Library>
libRbt.so (2013.1, Build901 2013/11/27)

>  <Rbt.Parameter_File>
/export/apps/rDock/src/rDock_2013.1_src/data/scripts/dock_solv.prm

>  <Rbt.Receptor>
prm/blind_docking_20.prm

>  <SCORE>
-47.624

>  <SCORE.INTER>
-49.1639

>  <SCORE.INTER.CONST>
1

>  <SCORE.INTER.POLAR>
-5.68014

>  <SCORE.INTER.ROT>
2

>  <SCORE.INTER.SOLV>
19.6529

>  <SCORE.INTER.VDW>
-25.3265

>  <SCORE.INTER.norm>
-3.78184

>  <SCORE.INTRA>
1.5399

>  <SCORE.INTRA.DIHEDRAL>
-0.196443

>  <SCORE.INTRA.DIHEDRAL.0>
1.76676

>  <SCORE.INTRA.POLAR>
0.472211

>  <SCORE.INTRA.POLAR.0>
-0.472211

>  <SCORE.INTRA.REPUL>
0

>  <SCORE.INTRA.REPUL.0>
0

>  <SCORE.INTRA.SOLV>
-0.0683057

>  <SCORE.INTRA.SOLV.lig_0>
-22.5855

>  <SCORE.INTRA.VDW>
0.0667577

>  <SCORE.INTRA.VDW.0>
-0.733656

>  <SCORE.INTRA.norm>
0.118454

>  <SCORE.RESTR>
0

>  <SCORE.RESTR.CAVITY>
0

>  <SCORE.RESTR.norm>
0

>  <SCORE.SYSTEM>
0

>  <SCORE.SYSTEM.CONST>
0

>  <SCORE.SYSTEM.DIHEDRAL>
0

>  <SCORE.SYSTEM.SOLV>
0

>  <SCORE.SYSTEM.norm>
0

>  <SCORE.heavy>
13

>  <SCORE.norm>
-3.66339

>  <RMSD>
0.697

$$$$
lig.pdb
 OpenBabel11021811453D
libRbt.so/2013.1/901 2013/11/27
 13 14  0  0  0  0  0  0  0  0999 V2000
  -10.8184    4.5330   -7.1472 N   0  0  0  0  0  0  0  0  0  0  0  0
  -10.9468    3.8020   -8.2942 C   0  0  0  0  0  0  0  0  0  0  0  0
   -9.8736    3.3719   -8.9331 N   0  0  0  0  0  0  0  0  0  0  0  0
   -8.6072    3.6342   -8.4871 C   0  0  0  0  0  0  0  0  0  0  0  0
   -8.4162    4.3925   -7.3065 C   0  0  0  0  0  0  0  0  0  0  0  0
   -9.5815    4.8522   -6.6222 C   0  0  0  0  0  0  0  0  0  0  0  0
   -9.4876    5.5111   -5.6014 O   0  0  0  0  0  0  0  0  0  0  0  0
   -6.9657    4.5021   -7.1114 C   0  0  0  0  0  0  0  0  0  0  0  0
   -6.2380    5.2270   -6.0101 C   0  0  0  0  0  0  0  0  0  0  0  0
   -6.7469    6.6010   -5.9056 N   0  0  0  0  0  0  0  0  0  0  0  0
   -6.4041    3.8265   -8.1215 C   0  0  0  0  0  0  0  0  0  0  0  0
   -7.3684    3.3130   -8.9472 N   0  0  0  0  0  0  0  0  0  0  0  0
  -12.1956    3.5155   -8.7822 N   0  0  0  0  0  0  0  0  0  0  0  0
  1  6  1  0  0  0  0
  2  1  1  0  0  0  0
  3  4  1  0  0  0  0
  3  2  2  0  0  0  0
  4  5  2  0  0  0  0
  5  8  1  0  0  0  0
  5  6  1  0  0  0  0
  6  7  2  0  0  0  0
  8  9  1  0  0  0  0
  9 10  1  0  0  0  0
 11  8  2  0  0  0  0
 12  4  1  0  0  0  0
 12 11  1  0  0  0  0
 13  2  1  0  0  0  0
M  END
>  <CHROM.1>
-51.18954155,-175.43956494,-8.78505269,4.42781407,-7.45977362,2.63907420
-0.01560153,-2.24781912

>  <Name>
lig.pdb

>  <RI>
0

>  <Rbt.Current_Directory>
/home/itssahil/PROJECTS/Mol_Feturizer/New_Systems/rnas/2miy

>  <Rbt.Executable>
rbdock ($Id: //depot/dev/client3/rdock/2013.1/src/exe/rbdock.cxx#4 $)

>  <Rbt.Library>
libRbt.so (2013.1, Build901 2013/11/27)

>  <Rbt.Parameter_File>
/export/apps/rDock/src/rDock_2013.1_src/data/scripts/dock_solv.prm

>  <Rbt.Receptor>
prm/pocket_docking_2.prm

>  <SCORE>
-47.6504

>  <SCORE.INTER>
-49.1714

>  <SCORE.INTER.CONST>
1

>  <SCORE.INTER.POLAR>
-5.66007

>  <SCORE.INTER.ROT>
2

>  <SCORE.INTER.SOLV>
19.6697

>  <SCORE.INTER.VDW>
-25.4039

>  <SCORE.INTER.norm>
-3.78241

>  <SCORE.INTRA>
1.52095

>  <SCORE.INTRA.DIHEDRAL>
-0.22427

>  <SCORE.INTRA.DIHEDRAL.0>
1.76676

>  <SCORE.INTRA.POLAR>
0.472211

>  <SCORE.INTRA.POLAR.0>
-0.472211

>  <SCORE.INTRA.REPUL>
0

>  <SCORE.INTRA.REPUL.0>
0

>  <SCORE.INTRA.SOLV>
-0.0726211

>  <SCORE.INTRA.SOLV.lig_0>
-22.5855

>  <SCORE.INTRA.VDW>
0.0638785

>  <SCORE.INTRA.VDW.0>
-0.733656

>  <SCORE.INTRA.norm>
0.116996

>  <SCORE.RESTR>
0

>  <SCORE.RESTR.CAVITY>
0

>  <SCORE.RESTR.norm>
0

>  <SCORE.SYSTEM>
0

>  <SCORE.SYSTEM.CONST>
0

>  <SCORE.SYSTEM.DIHEDRAL>
0

>  <SCORE.SYSTEM.SOLV>
0

>  <SCORE.SYSTEM.norm>
0

>  <SCORE.heavy>
13

>  <SCORE.norm>
-3.66542

>  <RMSD>
0.697

$$$$
lig.pdb
 OpenBabel11021811453D
libRbt.so/2013.1/901 2013/11/27
 13 14  0  0  0  0  0  0  0  0999 V2000
  -10.8094    4.5536   -7.1809 N   0  0  0  0  0  0  0  0  0  0  0  0
  -10.9433    3.7775   -8.2972 C   0  0  0  0  0  0  0  0  0  0  0  0
   -9.8733    3.3233   -8.9245 N   0  0  0  0  0  0  0  0  0  0  0  0
   -8.6047    3.6043   -8.4963 C   0  0  0  0  0  0  0  0  0  0  0  0
   -8.4080    4.4091   -7.3479 C   0  0  0  0  0  0  0  0  0  0  0  0
   -9.5700    4.8946   -6.6759 C   0  0  0  0  0  0  0  0  0  0  0  0
   -9.4711    5.5936   -5.6827 O   0  0  0  0  0  0  0  0  0  0  0  0
   -6.9566    4.5278   -7.1655 C   0  0  0  0  0  0  0  0  0  0  0  0
   -6.2235    5.2965   -6.0980 C   0  0  0  0  0  0  0  0  0  0  0  0
   -7.0193    6.4651   -5.6992 N   0  0  0  0  0  0  0  0  0  0  0  0
   -6.3998    3.8130   -8.1510 C   0  0  0  0  0  0  0  0  0  0  0  0
   -7.3681    3.2661   -8.9503 N   0  0  0  0  0  0  0  0  0  0  0  0
  -12.1946    3.4707   -8.7664 N   0  0  0  0  0  0  0  0  0  0  0  0
  1  6  1  0  0  0  0
  2  1  1  0  0  0  0
  3  4  1  0  0  0  0
  3  2  2  0  0  0  0
  4  5  2  0  0  0  0
  5  8  1  0  0  0  0
  5  6  1  0  0  0  0
  6  7  2  0  0  0  0
  8  9  1  0  0  0  0
  9 10  1  0  0  0  0
 11  8  2  0  0  0  0
 12  4  1  0  0  0  0
 12 11  1  0  0  0  0
 13  2  1  0  0  0  0
M  END
>  <CHROM.1>
-30.60084688,57.20432422,-8.80436971,4.41860135,-7.46828330,2.62499966,-0.00638703
-2.25716187

>  <Name>
lig.pdb

>  <RI>
2.95488e+07

>  <Rbt.Current_Directory>
/home/itssahil/PROJECTS/Mol_Feturizer/New_Systems/rnas/2miy

>  <Rbt.Executable>
rbdock ($Id: //depot/dev/client3/rdock/2013.1/src/exe/rbdock.cxx#4 $)

>  <Rbt.Library>
libRbt.so (2013.1, Build901 2013/11/27)

>  <Rbt.Parameter_File>
/export/apps/rDock/src/rDock_2013.1_src/data/scripts/dock_solv.prm

>  <Rbt.Receptor>
prm/blind_docking_20.prm

>  <SCORE>
-49.318

>  <SCORE.INTER>
-48.8455

>  <SCORE.INTER.CONST>
1

>  <SCORE.INTER.POLAR>
-5.43681

>  <SCORE.INTER.ROT>
2

>  <SCORE.INTER.SOLV>
19.116

>  <SCORE.INTER.VDW>
-25.7463

>  <SCORE.INTER.norm>
-3.75734

>  <SCORE.INTRA>
-0.478342

>  <SCORE.INTRA.DIHEDRAL>
0.73188

>  <SCORE.INTRA.DIHEDRAL.0>
1.76676

>  <SCORE.INTRA.POLAR>
-0.379107

>  <SCORE.INTRA.POLAR.0>
-0.472211

>  <SCORE.INTRA.REPUL>
0

>  <SCORE.INTRA.REPUL.0>
0

>  <SCORE.INTRA.SOLV>
0.128917

>  <SCORE.INTRA.SOLV.lig_0>
-22.5855

>  <SCORE.INTRA.VDW>
0.380223

>  <SCORE.INTRA.VDW.0>
-0.733656

>  <SCORE.INTRA.norm>
-0.0367955

>  <SCORE.RESTR>
0.00584896

>  <SCORE.RESTR.CAVITY>
0.00584896

>  <SCORE.RESTR.norm>
0.00044992

>  <SCORE.SYSTEM>
0

>  <SCORE.SYSTEM.CONST>
0

>  <SCORE.SYSTEM.DIHEDRAL>
0

>  <SCORE.SYSTEM.SOLV>
0

>  <SCORE.SYSTEM.norm>
0

>  <SCORE.heavy>
13

>  <SCORE.norm>
-3.79369

>  <RMSD>
0.698

$$$$
lig.pdb
 OpenBabel11021811453D
libRbt.so/2013.1/901 2013/11/27
 13 14  0  0  0  0  0  0  0  0999 V2000
  -10.8183    4.5363   -7.1465 N   0  0  0  0  0  0  0  0  0  0  0  0
  -10.9472    3.8050   -8.2933 C   0  0  0  0  0  0  0  0  0  0  0  0
   -9.8743    3.3740   -8.9320 N   0  0  0  0  0  0  0  0  0  0  0  0
   -8.6077    3.6354   -8.4859 C   0  0  0  0  0  0  0  0  0  0  0  0
   -8.4162    4.3940   -7.3056 C   0  0  0  0  0  0  0  0  0  0  0  0
   -9.5813    4.8548   -6.6215 C   0  0  0  0  0  0  0  0  0  0  0  0
   -9.4869    5.5139   -5.6009 O   0  0  0  0  0  0  0  0  0  0  0  0
   -6.9657    4.5026   -7.1104 C   0  0  0  0  0  0  0  0  0  0  0  0
   -6.2375    5.2273   -6.0094 C   0  0  0  0  0  0  0  0  0  0  0  0
   -6.7439    6.6023   -5.9067 N   0  0  0  0  0  0  0  0  0  0  0  0
   -6.4045    3.8263   -8.1203 C   0  0  0  0  0  0  0  0  0  0  0  0
   -7.3692    3.3132   -8.9459 N   0  0  0  0  0  0  0  0  0  0  0  0
  -12.1962    3.5193   -8.7812 N   0  0  0  0  0  0  0  0  0  0  0  0
  1  6  1  0  0  0  0
  2  1  1  0  0  0  0
  3  4  1  0  0  0  0
  3  2  2  0  0  0  0
  4  5  2  0  0  0  0
  5  8  1  0  0  0  0
  5  6  1  0  0  0  0
  6  7  2  0  0  0  0
  8  9  1  0  0  0  0
  9 10  1  0  0  0  0
 11  8  2  0  0  0  0
 12  4  1  0  0  0  0
 12 11  1  0  0  0  0
 13  2  1  0  0  0  0
M  END
>  <CHROM.1>
-51.28149055,-174.96333091,-8.78492606,4.42959015,-7.45906031,2.63960359
-0.01507176,-2.24824356

>  <Name>
lig.pdb

>  <RI>
0

>  <Rbt.Current_Directory>
/home/itssahil/PROJECTS/Mol_Feturizer/New_Systems/rnas/2miy

>  <Rbt.Executable>
rbdock ($Id: //depot/dev/client3/rdock/2013.1/src/exe/rbdock.cxx#4 $)

>  <Rbt.Library>
libRbt.so (2013.1, Build901 2013/11/27)

>  <Rbt.Parameter_File>
/export/apps/rDock/src/rDock_2013.1_src/data/scripts/dock_solv.prm

>  <Rbt.Receptor>
prm/pocket_docking_2.prm

>  <SCORE>
-47.6348

>  <SCORE.INTER>
-49.1533

>  <SCORE.INTER.CONST>
1

>  <SCORE.INTER.POLAR>
-5.66608

>  <SCORE.INTER.ROT>
2

>  <SCORE.INTER.SOLV>
19.6779

>  <SCORE.INTER.VDW>
-25.3746

>  <SCORE.INTER.norm>
-3.78103

>  <SCORE.INTRA>
1.5185

>  <SCORE.INTRA.DIHEDRAL>
-0.227299

>  <SCORE.INTRA.DIHEDRAL.0>
1.76676

>  <SCORE.INTRA.POLAR>
0.472211

>  <SCORE.INTRA.POLAR.0>
-0.472211

>  <SCORE.INTRA.REPUL>
0

>  <SCORE.INTRA.REPUL.0>
0

>  <SCORE.INTRA.SOLV>
-0.0736007

>  <SCORE.INTRA.SOLV.lig_0>
-22.5855

>  <SCORE.INTRA.VDW>
0.0634313

>  <SCORE.INTRA.VDW.0>
-0.733656

>  <SCORE.INTRA.norm>
0.116808

>  <SCORE.RESTR>
0

>  <SCORE.RESTR.CAVITY>
0

>  <SCORE.RESTR.norm>
0

>  <SCORE.SYSTEM>
0

>  <SCORE.SYSTEM.CONST>
0

>  <SCORE.SYSTEM.DIHEDRAL>
0

>  <SCORE.SYSTEM.SOLV>
0

>  <SCORE.SYSTEM.norm>
0

>  <SCORE.heavy>
13

>  <SCORE.norm>
-3.66422

>  <RMSD>
0.698

$$$$
lig.pdb
 OpenBabel11021811453D
libRbt.so/2013.1/901 2013/11/27
 13 14  0  0  0  0  0  0  0  0999 V2000
  -10.8958    4.2962   -7.0274 N   0  0  0  0  0  0  0  0  0  0  0  0
  -10.8006    3.8715   -8.3224 C   0  0  0  0  0  0  0  0  0  0  0  0
   -9.6184    3.6196   -8.8551 N   0  0  0  0  0  0  0  0  0  0  0  0
   -8.4556    3.7708   -8.1506 C   0  0  0  0  0  0  0  0  0  0  0  0
   -8.4958    4.2141   -6.8063 C   0  0  0  0  0  0  0  0  0  0  0  0
   -9.7777    4.4829   -6.2386 C   0  0  0  0  0  0  0  0  0  0  0  0
   -9.8828    4.8689   -5.0875 O   0  0  0  0  0  0  0  0  0  0  0  0
   -7.1034    4.2807   -6.3473 C   0  0  0  0  0  0  0  0  0  0  0  0
   -6.6002    4.7145   -4.9958 C   0  0  0  0  0  0  0  0  0  0  0  0
   -6.5513    6.1814   -4.9368 N   0  0  0  0  0  0  0  0  0  0  0  0
   -6.3532    3.8798   -7.3810 C   0  0  0  0  0  0  0  0  0  0  0  0
   -7.1445    3.5810   -8.4580 N   0  0  0  0  0  0  0  0  0  0  0  0
  -11.9383    3.7073   -9.0699 N   0  0  0  0  0  0  0  0  0  0  0  0
  1  6  1  0  0  0  0
  2  1  1  0  0  0  0
  3  4  1  0  0  0  0
  3  2  2  0  0  0  0
  4  5  2  0  0  0  0
  5  8  1  0  0  0  0
  5  6  1  0  0  0  0
  6  7  2  0  0  0  0
  8  9  1  0  0  0  0
  9 10  1  0  0  0  0
 11  8  2  0  0  0  0
 12  4  1  0  0  0  0
 12 11  1  0  0  0  0
 13  2  1  0  0  0  0
M  END
>  <CHROM.1>
-81.13057554,66.29637012,-8.77694284,4.29948609,-7.03369421,2.52992054,0.02299458
-2.00783550

>  <Name>
lig.pdb

>  <RI>
1.51961e+07

>  <Rbt.Current_Directory>
/home/itssahil/PROJECTS/Mol_Feturizer/New_Systems/rnas/2miy

>  <Rbt.Executable>
rbdock ($Id: //depot/dev/client3/rdock/2013.1/src/exe/rbdock.cxx#4 $)

>  <Rbt.Library>
libRbt.so (2013.1, Build901 2013/11/27)

>  <Rbt.Parameter_File>
/export/apps/rDock/src/rDock_2013.1_src/data/scripts/dock_solv.prm

>  <Rbt.Receptor>
prm/pocket_docking_3.prm

>  <SCORE>
-40.9654

>  <SCORE.INTER>
-42.6172

>  <SCORE.INTER.CONST>
1

>  <SCORE.INTER.POLAR>
-4.25559

>  <SCORE.INTER.ROT>
2

>  <SCORE.INTER.SOLV>
17.1931

>  <SCORE.INTER.VDW>
-24.8905

>  <SCORE.INTER.norm>
-3.27825

>  <SCORE.INTRA>
1.65184

>  <SCORE.INTRA.DIHEDRAL>
0.279374

>  <SCORE.INTRA.DIHEDRAL.0>
1.76676

>  <SCORE.INTRA.POLAR>
0.472211

>  <SCORE.INTRA.POLAR.0>
-0.472211

>  <SCORE.INTRA.REPUL>
0

>  <SCORE.INTRA.REPUL.0>
0

>  <SCORE.INTRA.SOLV>
-0.357494

>  <SCORE.INTRA.SOLV.lig_0>
-22.5855

>  <SCORE.INTRA.VDW>
0.0853845

>  <SCORE.INTRA.VDW.0>
-0.733656

>  <SCORE.INTRA.norm>
0.127065

>  <SCORE.RESTR>
0

>  <SCORE.RESTR.CAVITY>
0

>  <SCORE.RESTR.norm>
0

>  <SCORE.SYSTEM>
0

>  <SCORE.SYSTEM.CONST>
0

>  <SCORE.SYSTEM.DIHEDRAL>
0

>  <SCORE.SYSTEM.SOLV>
0

>  <SCORE.SYSTEM.norm>
0

>  <SCORE.heavy>
13

>  <SCORE.norm>
-3.15118

>  <RMSD>
0.698

$$$$
lig.pdb
 OpenBabel11021811453D
libRbt.so/2013.1/901 2013/11/27
 13 14  0  0  0  0  0  0  0  0999 V2000
  -10.8212    4.5283   -7.1386 N   0  0  0  0  0  0  0  0  0  0  0  0
  -10.9580    3.7536   -8.2555 C   0  0  0  0  0  0  0  0  0  0  0  0
   -9.8895    3.3120   -8.8943 N   0  0  0  0  0  0  0  0  0  0  0  0
   -8.6198    3.6050   -8.4777 C   0  0  0  0  0  0  0  0  0  0  0  0
   -8.4202    4.4090   -7.3293 C   0  0  0  0  0  0  0  0  0  0  0  0
   -9.5806    4.8808   -6.6448 C   0  0  0  0  0  0  0  0  0  0  0  0
   -9.4792    5.5784   -5.6508 O   0  0  0  0  0  0  0  0  0  0  0  0
   -6.9684    4.5422   -7.1606 C   0  0  0  0  0  0  0  0  0  0  0  0
   -6.2330    5.3159   -6.0984 C   0  0  0  0  0  0  0  0  0  0  0  0
   -6.9197    5.1567   -4.8097 N   0  0  0  0  0  0  0  0  0  0  0  0
   -6.4139    3.8356   -8.1533 C   0  0  0  0  0  0  0  0  0  0  0  0
   -7.3842    3.2807   -8.9445 N   0  0  0  0  0  0  0  0  0  0  0  0
  -12.2105    3.4350   -8.7133 N   0  0  0  0  0  0  0  0  0  0  0  0
  1  6  1  0  0  0  0
  2  1  1  0  0  0  0
  3  4  1  0  0  0  0
  3  2  2  0  0  0  0
  4  5  2  0  0  0  0
  5  8  1  0  0  0  0
  5  6  1  0  0  0  0
  6  7  2  0  0  0  0
  8  9  1  0  0  0  0
  9 10  1  0  0  0  0
 11  8  2  0  0  0  0
 12  4  1  0  0  0  0
 12 11  1  0  0  0  0
 13  2  1  0  0  0  0
M  END
>  <CHROM.1>
39.46533093,-62.25307389,-8.80682505,4.29173819,-7.36363298,2.63126439,0.01595103
-2.10178989

>  <Name>
lig.pdb

>  <RI>
1.51961e+07

>  <Rbt.Current_Directory>
/home/itssahil/PROJECTS/Mol_Feturizer/New_Systems/rnas/2miy

>  <Rbt.Executable>
rbdock ($Id: //depot/dev/client3/rdock/2013.1/src/exe/rbdock.cxx#4 $)

>  <Rbt.Library>
libRbt.so (2013.1, Build901 2013/11/27)

>  <Rbt.Parameter_File>
/export/apps/rDock/src/rDock_2013.1_src/data/scripts/dock_solv.prm

>  <Rbt.Receptor>
prm/pocket_docking_3.prm

>  <SCORE>
-48.665

>  <SCORE.INTER>
-48.0119

>  <SCORE.INTER.CONST>
1

>  <SCORE.INTER.POLAR>
-5.42774

>  <SCORE.INTER.ROT>
2

>  <SCORE.INTER.SOLV>
17.6063

>  <SCORE.INTER.VDW>
-24.7176

>  <SCORE.INTER.norm>
-3.69323

>  <SCORE.INTRA>
-0.702928

>  <SCORE.INTRA.DIHEDRAL>
0.262141

>  <SCORE.INTRA.DIHEDRAL.0>
1.76676

>  <SCORE.INTRA.POLAR>
-0.28077

>  <SCORE.INTRA.POLAR.0>
-0.472211

>  <SCORE.INTRA.REPUL>
0

>  <SCORE.INTRA.REPUL.0>
0

>  <SCORE.INTRA.SOLV>
0.0525113

>  <SCORE.INTRA.SOLV.lig_0>
-22.5855

>  <SCORE.INTRA.VDW>
0.0943621

>  <SCORE.INTRA.VDW.0>
-0.733656

>  <SCORE.INTRA.norm>
-0.0540714

>  <SCORE.RESTR>
0.049818

>  <SCORE.RESTR.CAVITY>
0.049818

>  <SCORE.RESTR.norm>
0.00383215

>  <SCORE.SYSTEM>
0

>  <SCORE.SYSTEM.CONST>
0

>  <SCORE.SYSTEM.DIHEDRAL>
0

>  <SCORE.SYSTEM.SOLV>
0

>  <SCORE.SYSTEM.norm>
0

>  <SCORE.heavy>
13

>  <SCORE.norm>
-3.74347

>  <RMSD>
0.698

$$$$
lig.pdb
 OpenBabel11021811453D
libRbt.so/2013.1/901 2013/11/27
 13 14  0  0  0  0  0  0  0  0999 V2000
  -10.9121    4.3367   -7.1213 N   0  0  0  0  0  0  0  0  0  0  0  0
  -11.0076    3.5987   -8.2671 C   0  0  0  0  0  0  0  0  0  0  0  0
   -9.9166    3.2282   -8.9131 N   0  0  0  0  0  0  0  0  0  0  0  0
   -8.6637    3.5605   -8.4759 C   0  0  0  0  0  0  0  0  0  0  0  0
   -8.5069    4.3293   -7.2970 C   0  0  0  0  0  0  0  0  0  0  0  0
   -9.6912    4.7244   -6.6050 C   0  0  0  0  0  0  0  0  0  0  0  0
   -9.6269    5.3883   -5.5852 O   0  0  0  0  0  0  0  0  0  0  0  0
   -7.0634    4.5192   -7.1119 C   0  0  0  0  0  0  0  0  0  0  0  0
   -6.3695    5.2842   -6.0160 C   0  0  0  0  0  0  0  0  0  0  0  0
   -6.6277    4.6355   -4.7237 N   0  0  0  0  0  0  0  0  0  0  0  0
   -6.4722    3.8748   -8.1254 C   0  0  0  0  0  0  0  0  0  0  0  0
   -7.4122    3.3080   -8.9443 N   0  0  0  0  0  0  0  0  0  0  0  0
  -12.2420    3.2431   -8.7463 N   0  0  0  0  0  0  0  0  0  0  0  0
  1  6  1  0  0  0  0
  2  1  1  0  0  0  0
  3  4  1  0  0  0  0
  3  2  2  0  0  0  0
  4  5  2  0  0  0  0
  5  8  1  0  0  0  0
  5  6  1  0  0  0  0
  6  7  2  0  0  0  0
  8  9  1  0  0  0  0
  9 10  1  0  0  0  0
 11  8  2  0  0  0  0
 12  4  1  0  0  0  0
 12 11  1  0  0  0  0
 13  2  1  0  0  0  0
M  END
>  <CHROM.1>
64.29353498,-87.00637946,-8.84774820,4.15819487,-7.33725250,2.63366296,0.00121626
-2.03908087

>  <Name>
lig.pdb

>  <RI>
2.60406e+07

>  <Rbt.Current_Directory>
/home/itssahil/PROJECTS/Mol_Feturizer/New_Systems/rnas/2miy

>  <Rbt.Executable>
rbdock ($Id: //depot/dev/client3/rdock/2013.1/src/exe/rbdock.cxx#4 $)

>  <Rbt.Library>
libRbt.so (2013.1, Build901 2013/11/27)

>  <Rbt.Parameter_File>
/export/apps/rDock/src/rDock_2013.1_src/data/scripts/dock_solv.prm

>  <Rbt.Receptor>
prm/pocket_docking_7.prm

>  <SCORE>
-45.8157

>  <SCORE.INTER>
-47.246

>  <SCORE.INTER.CONST>
1

>  <SCORE.INTER.POLAR>
-5.06364

>  <SCORE.INTER.ROT>
2

>  <SCORE.INTER.SOLV>
17.5438

>  <SCORE.INTER.VDW>
-25.3998

>  <SCORE.INTER.norm>
-3.63431

>  <SCORE.INTRA>
1.39209

>  <SCORE.INTRA.DIHEDRAL>
-0.271482

>  <SCORE.INTRA.DIHEDRAL.0>
1.76676

>  <SCORE.INTRA.POLAR>
0.472211

>  <SCORE.INTRA.POLAR.0>
-0.472211

>  <SCORE.INTRA.REPUL>
0

>  <SCORE.INTRA.REPUL.0>
0

>  <SCORE.INTRA.SOLV>
-0.192151

>  <SCORE.INTRA.SOLV.lig_0>
-22.5855

>  <SCORE.INTRA.VDW>
0.018384

>  <SCORE.INTRA.VDW.0>
-0.733656

>  <SCORE.INTRA.norm>
0.107084

>  <SCORE.RESTR>
0.0382375

>  <SCORE.RESTR.CAVITY>
0.0382375

>  <SCORE.RESTR.norm>
0.00294135

>  <SCORE.SYSTEM>
0

>  <SCORE.SYSTEM.CONST>
0

>  <SCORE.SYSTEM.DIHEDRAL>
0

>  <SCORE.SYSTEM.SOLV>
0

>  <SCORE.SYSTEM.norm>
0

>  <SCORE.heavy>
13

>  <SCORE.norm>
-3.52428

>  <RMSD>
0.698

$$$$
lig.pdb
 OpenBabel11021811453D
libRbt.so/2013.1/901 2013/11/27
 13 14  0  0  0  0  0  0  0  0999 V2000
  -10.8207    4.5212   -7.1641 N   0  0  0  0  0  0  0  0  0  0  0  0
  -10.9497    3.7360   -8.2746 C   0  0  0  0  0  0  0  0  0  0  0  0
   -9.8768    3.2972   -8.9079 N   0  0  0  0  0  0  0  0  0  0  0  0
   -8.6101    3.6034   -8.4919 C   0  0  0  0  0  0  0  0  0  0  0  0
   -8.4185    4.4186   -7.3500 C   0  0  0  0  0  0  0  0  0  0  0  0
   -9.5836    4.8874   -6.6714 C   0  0  0  0  0  0  0  0  0  0  0  0
   -9.4892    5.5942   -5.6832 O   0  0  0  0  0  0  0  0  0  0  0  0
   -6.9680    4.5643   -7.1801 C   0  0  0  0  0  0  0  0  0  0  0  0
   -6.2403    5.3526   -6.1234 C   0  0  0  0  0  0  0  0  0  0  0  0
   -6.9748    5.2688   -4.8541 N   0  0  0  0  0  0  0  0  0  0  0  0
   -6.4066    3.8536   -8.1659 C   0  0  0  0  0  0  0  0  0  0  0  0
   -7.3714    3.2846   -8.9539 N   0  0  0  0  0  0  0  0  0  0  0  0
  -12.1991    3.4040   -8.7316 N   0  0  0  0  0  0  0  0  0  0  0  0
  1  6  1  0  0  0  0
  2  1  1  0  0  0  0
  3  4  1  0  0  0  0
  3  2  2  0  0  0  0
  4  5  2  0  0  0  0
  5  8  1  0  0  0  0
  5  6  1  0  0  0  0
  6  7  2  0  0  0  0
  8  9  1  0  0  0  0
  9 10  1  0  0  0  0
 11  8  2  0  0  0  0
 12  4  1  0  0  0  0
 12 11  1  0  0  0  0
 13  2  1  0  0  0  0
M  END
>  <CHROM.1>
35.89833118,-59.75757974,-8.80856745,4.30465466,-7.38577857,2.62296239,0.00782409
-2.11616497

>  <Name>
lig.pdb

>  <RI>
1.51961e+07

>  <Rbt.Current_Directory>
/home/itssahil/PROJECTS/Mol_Feturizer/New_Systems/rnas/2miy

>  <Rbt.Executable>
rbdock ($Id: //depot/dev/client3/rdock/2013.1/src/exe/rbdock.cxx#4 $)

>  <Rbt.Library>
libRbt.so (2013.1, Build901 2013/11/27)

>  <Rbt.Parameter_File>
/export/apps/rDock/src/rDock_2013.1_src/data/scripts/dock_solv.prm

>  <Rbt.Receptor>
prm/pocket_docking_3.prm

>  <SCORE>
-48.5752

>  <SCORE.INTER>
-47.9351

>  <SCORE.INTER.CONST>
1

>  <SCORE.INTER.POLAR>
-5.32635

>  <SCORE.INTER.ROT>
2

>  <SCORE.INTER.SOLV>
17.7127

>  <SCORE.INTER.VDW>
-25.0398

>  <SCORE.INTER.norm>
-3.68732

>  <SCORE.INTRA>
-0.685372

>  <SCORE.INTRA.DIHEDRAL>
0.447702

>  <SCORE.INTRA.DIHEDRAL.0>
1.76676

>  <SCORE.INTRA.POLAR>
-0.339334

>  <SCORE.INTRA.POLAR.0>
-0.472211

>  <SCORE.INTRA.REPUL>
0

>  <SCORE.INTRA.REPUL.0>
0

>  <SCORE.INTRA.SOLV>
0.0858351

>  <SCORE.INTRA.SOLV.lig_0>
-22.5855

>  <SCORE.INTRA.VDW>
0.201596

>  <SCORE.INTRA.VDW.0>
-0.733656

>  <SCORE.INTRA.norm>
-0.0527209

>  <SCORE.RESTR>
0.0452385

>  <SCORE.RESTR.CAVITY>
0.0452385

>  <SCORE.RESTR.norm>
0.00347989

>  <SCORE.SYSTEM>
0

>  <SCORE.SYSTEM.CONST>
0

>  <SCORE.SYSTEM.DIHEDRAL>
0

>  <SCORE.SYSTEM.SOLV>
0

>  <SCORE.SYSTEM.norm>
0

>  <SCORE.heavy>
13

>  <SCORE.norm>
-3.73656

>  <RMSD>
0.699

$$$$
lig.pdb
 OpenBabel11021811453D
libRbt.so/2013.1/901 2013/11/27
 13 14  0  0  0  0  0  0  0  0999 V2000
  -10.8140    4.5401   -7.1612 N   0  0  0  0  0  0  0  0  0  0  0  0
  -10.9383    3.8190   -8.3148 C   0  0  0  0  0  0  0  0  0  0  0  0
   -9.8630    3.3904   -8.9511 N   0  0  0  0  0  0  0  0  0  0  0  0
   -8.5983    3.6447   -8.4958 C   0  0  0  0  0  0  0  0  0  0  0  0
   -8.4114    4.3927   -7.3080 C   0  0  0  0  0  0  0  0  0  0  0  0
   -9.5791    4.8508   -6.6266 C   0  0  0  0  0  0  0  0  0  0  0  0
   -9.4887    5.5011   -5.5999 O   0  0  0  0  0  0  0  0  0  0  0  0
   -6.9617    4.4958   -7.1038 C   0  0  0  0  0  0  0  0  0  0  0  0
   -6.2378    5.2092   -5.9926 C   0  0  0  0  0  0  0  0  0  0  0  0
   -6.7434    6.5836   -5.8790 N   0  0  0  0  0  0  0  0  0  0  0  0
   -6.3967    3.8264   -8.1162 C   0  0  0  0  0  0  0  0  0  0  0  0
   -7.3580    3.3230   -8.9515 N   0  0  0  0  0  0  0  0  0  0  0  0
  -12.1854    3.5408   -8.8121 N   0  0  0  0  0  0  0  0  0  0  0  0
  1  6  1  0  0  0  0
  2  1  1  0  0  0  0
  3  4  1  0  0  0  0
  3  2  2  0  0  0  0
  4  5  2  0  0  0  0
  5  8  1  0  0  0  0
  5  6  1  0  0  0  0
  6  7  2  0  0  0  0
  8  9  1  0  0  0  0
  9 10  1  0  0  0  0
 11  8  2  0  0  0  0
 12  4  1  0  0  0  0
 12 11  1  0  0  0  0
 13  2  1  0  0  0  0
M  END
>  <CHROM.1>
-51.14819445,-175.38082799,-8.77934620,4.43052380,-7.46302577,2.63671927
-0.00935900,-2.23966463

>  <Name>
lig.pdb

>  <RI>
1.51961e+07

>  <Rbt.Current_Directory>
/home/itssahil/PROJECTS/Mol_Feturizer/New_Systems/rnas/2miy

>  <Rbt.Executable>
rbdock ($Id: //depot/dev/client3/rdock/2013.1/src/exe/rbdock.cxx#4 $)

>  <Rbt.Library>
libRbt.so (2013.1, Build901 2013/11/27)

>  <Rbt.Parameter_File>
/export/apps/rDock/src/rDock_2013.1_src/data/scripts/dock_solv.prm

>  <Rbt.Receptor>
prm/pocket_docking_3.prm

>  <SCORE>
-47.4761

>  <SCORE.INTER>
-49.0379

>  <SCORE.INTER.CONST>
1

>  <SCORE.INTER.POLAR>
-5.634

>  <SCORE.INTER.ROT>
2

>  <SCORE.INTER.SOLV>
19.6517

>  <SCORE.INTER.VDW>
-25.3958

>  <SCORE.INTER.norm>
-3.77215

>  <SCORE.INTRA>
1.52182

>  <SCORE.INTRA.DIHEDRAL>
-0.223318

>  <SCORE.INTRA.DIHEDRAL.0>
1.76676

>  <SCORE.INTRA.POLAR>
0.472211

>  <SCORE.INTRA.POLAR.0>
-0.472211

>  <SCORE.INTRA.REPUL>
0

>  <SCORE.INTRA.REPUL.0>
0

>  <SCORE.INTRA.SOLV>
-0.0721518

>  <SCORE.INTRA.SOLV.lig_0>
-22.5855

>  <SCORE.INTRA.VDW>
0.064036

>  <SCORE.INTRA.VDW.0>
-0.733656

>  <SCORE.INTRA.norm>
0.117063

>  <SCORE.RESTR>
0.0399612

>  <SCORE.RESTR.CAVITY>
0.0399612

>  <SCORE.RESTR.norm>
0.00307394

>  <SCORE.SYSTEM>
0

>  <SCORE.SYSTEM.CONST>
0

>  <SCORE.SYSTEM.DIHEDRAL>
0

>  <SCORE.SYSTEM.SOLV>
0

>  <SCORE.SYSTEM.norm>
0

>  <SCORE.heavy>
13

>  <SCORE.norm>
-3.65201

>  <RMSD>
0.700

$$$$
lig.pdb
 OpenBabel11021811453D
libRbt.so/2013.1/901 2013/11/27
 13 14  0  0  0  0  0  0  0  0999 V2000
  -10.8137    4.5390   -7.1611 N   0  0  0  0  0  0  0  0  0  0  0  0
  -10.9377    3.8201   -8.3161 C   0  0  0  0  0  0  0  0  0  0  0  0
   -9.8622    3.3920   -8.9525 N   0  0  0  0  0  0  0  0  0  0  0  0
   -8.5976    3.6447   -8.4958 C   0  0  0  0  0  0  0  0  0  0  0  0
   -8.4111    4.3903   -7.3065 C   0  0  0  0  0  0  0  0  0  0  0  0
   -9.5789    4.8479   -6.6251 C   0  0  0  0  0  0  0  0  0  0  0  0
   -9.4888    5.4962   -5.5971 O   0  0  0  0  0  0  0  0  0  0  0  0
   -6.9615    4.4921   -7.1011 C   0  0  0  0  0  0  0  0  0  0  0  0
   -6.2379    5.2029   -5.9881 C   0  0  0  0  0  0  0  0  0  0  0  0
   -6.7365    6.5802   -5.8781 N   0  0  0  0  0  0  0  0  0  0  0  0
   -6.3962    3.8243   -8.1144 C   0  0  0  0  0  0  0  0  0  0  0  0
   -7.3572    3.3230   -8.9513 N   0  0  0  0  0  0  0  0  0  0  0  0
  -12.1846    3.5436   -8.8149 N   0  0  0  0  0  0  0  0  0  0  0  0
  1  6  1  0  0  0  0
  2  1  1  0  0  0  0
  3  4  1  0  0  0  0
  3  2  2  0  0  0  0
  4  5  2  0  0  0  0
  5  8  1  0  0  0  0
  5  6  1  0  0  0  0
  6  7  2  0  0  0  0
  8  9  1  0  0  0  0
  9 10  1  0  0  0  0
 11  8  2  0  0  0  0
 12  4  1  0  0  0  0
 12 11  1  0  0  0  0
 13  2  1  0  0  0  0
M  END
>  <CHROM.1>
-51.51433324,-175.20522058,-8.77833100,4.42890406,-7.46226812,2.63700497
-0.00875129,-2.23817634

>  <Name>
lig.pdb

>  <RI>
1.51961e+07

>  <Rbt.Current_Directory>
/home/itssahil/PROJECTS/Mol_Feturizer/New_Systems/rnas/2miy

>  <Rbt.Executable>
rbdock ($Id: //depot/dev/client3/rdock/2013.1/src/exe/rbdock.cxx#4 $)

>  <Rbt.Library>
libRbt.so (2013.1, Build901 2013/11/27)

>  <Rbt.Parameter_File>
/export/apps/rDock/src/rDock_2013.1_src/data/scripts/dock_solv.prm

>  <Rbt.Receptor>
prm/pocket_docking_3.prm

>  <SCORE>
-47.4487

>  <SCORE.INTER>
-49.0014

>  <SCORE.INTER.CONST>
1

>  <SCORE.INTER.POLAR>
-5.63645

>  <SCORE.INTER.ROT>
2

>  <SCORE.INTER.SOLV>
19.6514

>  <SCORE.INTER.VDW>
-25.3633

>  <SCORE.INTER.norm>
-3.76934

>  <SCORE.INTRA>
1.51367

>  <SCORE.INTRA.DIHEDRAL>
-0.232653

>  <SCORE.INTRA.DIHEDRAL.0>
1.76676

>  <SCORE.INTRA.POLAR>
0.472211

>  <SCORE.INTRA.POLAR.0>
-0.472211

>  <SCORE.INTRA.REPUL>
0

>  <SCORE.INTRA.REPUL.0>
0

>  <SCORE.INTRA.SOLV>
-0.0762391

>  <SCORE.INTRA.SOLV.lig_0>
-22.5855

>  <SCORE.INTRA.VDW>
0.0626008

>  <SCORE.INTRA.VDW.0>
-0.733656

>  <SCORE.INTRA.norm>
0.116436

>  <SCORE.RESTR>
0.0390848

>  <SCORE.RESTR.CAVITY>
0.0390848

>  <SCORE.RESTR.norm>
0.00300652

>  <SCORE.SYSTEM>
0

>  <SCORE.SYSTEM.CONST>
0

>  <SCORE.SYSTEM.DIHEDRAL>
0

>  <SCORE.SYSTEM.SOLV>
0

>  <SCORE.SYSTEM.norm>
0

>  <SCORE.heavy>
13

>  <SCORE.norm>
-3.6499

>  <RMSD>
0.700

$$$$
lig.pdb
 OpenBabel11021811453D
libRbt.so/2013.1/901 2013/11/27
 13 14  0  0  0  0  0  0  0  0999 V2000
  -10.8186    4.5361   -7.1572 N   0  0  0  0  0  0  0  0  0  0  0  0
  -10.9441    3.8260   -8.3175 C   0  0  0  0  0  0  0  0  0  0  0  0
   -9.8697    3.3936   -8.9528 N   0  0  0  0  0  0  0  0  0  0  0  0
   -8.6049    3.6331   -8.4899 C   0  0  0  0  0  0  0  0  0  0  0  0
   -8.4168    4.3693   -7.2950 C   0  0  0  0  0  0  0  0  0  0  0  0
   -9.5834    4.8316   -6.6147 C   0  0  0  0  0  0  0  0  0  0  0  0
   -9.4919    5.4723   -5.5821 O   0  0  0  0  0  0  0  0  0  0  0  0
   -6.9671    4.4582   -7.0837 C   0  0  0  0  0  0  0  0  0  0  0  0
   -6.2420    5.1559   -5.9634 C   0  0  0  0  0  0  0  0  0  0  0  0
   -6.6442    6.5680   -5.9212 N   0  0  0  0  0  0  0  0  0  0  0  0
   -6.4034    3.7927   -8.0994 C   0  0  0  0  0  0  0  0  0  0  0  0
   -7.3654    3.3047   -8.9431 N   0  0  0  0  0  0  0  0  0  0  0  0
  -12.1913    3.5627   -8.8225 N   0  0  0  0  0  0  0  0  0  0  0  0
  1  6  1  0  0  0  0
  2  1  1  0  0  0  0
  3  4  1  0  0  0  0
  3  2  2  0  0  0  0
  4  5  2  0  0  0  0
  5  8  1  0  0  0  0
  5  6  1  0  0  0  0
  6  7  2  0  0  0  0
  8  9  1  0  0  0  0
  9 10  1  0  0  0  0
 11  8  2  0  0  0  0
 12  4  1  0  0  0  0
 12 11  1  0  0  0  0
 13  2  1  0  0  0  0
M  END
>  <CHROM.1>
-56.42347132,-173.34926933,-8.77509148,4.41484391,-7.45881504,2.64529471
-0.00459253,-2.23592864

>  <Name>
lig.pdb

>  <RI>
9.06885e+06

>  <Rbt.Current_Directory>
/home/itssahil/PROJECTS/Mol_Feturizer/New_Systems/rnas/2miy

>  <Rbt.Executable>
rbdock ($Id: //depot/dev/client3/rdock/2013.1/src/exe/rbdock.cxx#4 $)

>  <Rbt.Library>
libRbt.so (2013.1, Build901 2013/11/27)

>  <Rbt.Parameter_File>
/export/apps/rDock/src/rDock_2013.1_src/data/scripts/dock_solv.prm

>  <Rbt.Receptor>
prm/pocket_docking_6.prm

>  <SCORE>
-47.1685

>  <SCORE.INTER>
-48.755

>  <SCORE.INTER.CONST>
1

>  <SCORE.INTER.POLAR>
-5.75589

>  <SCORE.INTER.ROT>
2

>  <SCORE.INTER.SOLV>
19.7628

>  <SCORE.INTER.VDW>
-24.838

>  <SCORE.INTER.norm>
-3.75039

>  <SCORE.INTRA>
1.45512

>  <SCORE.INTRA.DIHEDRAL>
-0.320468

>  <SCORE.INTRA.DIHEDRAL.0>
1.76676

>  <SCORE.INTRA.POLAR>
0.472211

>  <SCORE.INTRA.POLAR.0>
-0.472211

>  <SCORE.INTRA.REPUL>
0

>  <SCORE.INTRA.REPUL.0>
0

>  <SCORE.INTRA.SOLV>
-0.132248

>  <SCORE.INTRA.SOLV.lig_0>
-22.5855

>  <SCORE.INTRA.VDW>
0.0759565

>  <SCORE.INTRA.VDW.0>
-0.733656

>  <SCORE.INTRA.norm>
0.111932

>  <SCORE.RESTR>
0.131376

>  <SCORE.RESTR.CAVITY>
0.131376

>  <SCORE.RESTR.norm>
0.0101058

>  <SCORE.SYSTEM>
0

>  <SCORE.SYSTEM.CONST>
0

>  <SCORE.SYSTEM.DIHEDRAL>
0

>  <SCORE.SYSTEM.SOLV>
0

>  <SCORE.SYSTEM.norm>
0

>  <SCORE.heavy>
13

>  <SCORE.norm>
-3.62835

>  <RMSD>
0.700

$$$$
lig.pdb
 OpenBabel11021811453D
libRbt.so/2013.1/901 2013/11/27
 13 14  0  0  0  0  0  0  0  0999 V2000
  -10.8181    4.5346   -7.1454 N   0  0  0  0  0  0  0  0  0  0  0  0
  -10.9473    3.8011   -8.2907 C   0  0  0  0  0  0  0  0  0  0  0  0
   -9.8746    3.3708   -8.9302 N   0  0  0  0  0  0  0  0  0  0  0  0
   -8.6078    3.6354   -8.4866 C   0  0  0  0  0  0  0  0  0  0  0  0
   -8.4159    4.3964   -7.3079 C   0  0  0  0  0  0  0  0  0  0  0  0
   -9.5808    4.8563   -6.6229 C   0  0  0  0  0  0  0  0  0  0  0  0
   -9.4861    5.5175   -5.6037 O   0  0  0  0  0  0  0  0  0  0  0  0
   -6.9653    4.5081   -7.1151 C   0  0  0  0  0  0  0  0  0  0  0  0
   -6.2368    5.2361   -6.0165 C   0  0  0  0  0  0  0  0  0  0  0  0
   -6.7362    6.6145   -5.9245 N   0  0  0  0  0  0  0  0  0  0  0  0
   -6.4044    3.8309   -8.1246 C   0  0  0  0  0  0  0  0  0  0  0  0
   -7.3693    3.3145   -8.9478 N   0  0  0  0  0  0  0  0  0  0  0  0
  -12.1965    3.5121   -8.7762 N   0  0  0  0  0  0  0  0  0  0  0  0
  1  6  1  0  0  0  0
  2  1  1  0  0  0  0
  3  4  1  0  0  0  0
  3  2  2  0  0  0  0
  4  5  2  0  0  0  0
  5  8  1  0  0  0  0
  5  6  1  0  0  0  0
  6  7  2  0  0  0  0
  8  9  1  0  0  0  0
  9 10  1  0  0  0  0
 11  8  2  0  0  0  0
 12  4  1  0  0  0  0
 12 11  1  0  0  0  0
 13  2  1  0  0  0  0
M  END
>  <CHROM.1>
-51.84297179,-174.20210591,-8.78403926,4.43147497,-7.46171031,2.64031920
-0.01792365,-2.25067648

>  <Name>
lig.pdb

>  <RI>
2.95488e+07

>  <Rbt.Current_Directory>
/home/itssahil/PROJECTS/Mol_Feturizer/New_Systems/rnas/2miy

>  <Rbt.Executable>
rbdock ($Id: //depot/dev/client3/rdock/2013.1/src/exe/rbdock.cxx#4 $)

>  <Rbt.Library>
libRbt.so (2013.1, Build901 2013/11/27)

>  <Rbt.Parameter_File>
/export/apps/rDock/src/rDock_2013.1_src/data/scripts/dock_solv.prm

>  <Rbt.Receptor>
prm/blind_docking_20.prm

>  <SCORE>
-47.644

>  <SCORE.INTER>
-49.1497

>  <SCORE.INTER.CONST>
1

>  <SCORE.INTER.POLAR>
-5.67673

>  <SCORE.INTER.ROT>
2

>  <SCORE.INTER.SOLV>
19.7198

>  <SCORE.INTER.VDW>
-25.3507

>  <SCORE.INTER.norm>
-3.78075

>  <SCORE.INTRA>
1.50575

>  <SCORE.INTRA.DIHEDRAL>
-0.241999

>  <SCORE.INTRA.DIHEDRAL.0>
1.76676

>  <SCORE.INTRA.POLAR>
0.472211

>  <SCORE.INTRA.POLAR.0>
-0.472211

>  <SCORE.INTRA.REPUL>
0

>  <SCORE.INTRA.REPUL.0>
0

>  <SCORE.INTRA.SOLV>
-0.0798311

>  <SCORE.INTRA.SOLV.lig_0>
-22.5855

>  <SCORE.INTRA.VDW>
0.061152

>  <SCORE.INTRA.VDW.0>
-0.733656

>  <SCORE.INTRA.norm>
0.115827

>  <SCORE.RESTR>
0

>  <SCORE.RESTR.CAVITY>
0

>  <SCORE.RESTR.norm>
0

>  <SCORE.SYSTEM>
0

>  <SCORE.SYSTEM.CONST>
0

>  <SCORE.SYSTEM.DIHEDRAL>
0

>  <SCORE.SYSTEM.SOLV>
0

>  <SCORE.SYSTEM.norm>
0

>  <SCORE.heavy>
13

>  <SCORE.norm>
-3.66492

>  <RMSD>
0.701

$$$$
lig.pdb
 OpenBabel11021811453D
libRbt.so/2013.1/901 2013/11/27
 13 14  0  0  0  0  0  0  0  0999 V2000
  -10.8153    4.5426   -7.1548 N   0  0  0  0  0  0  0  0  0  0  0  0
  -10.9432    3.8155   -8.3043 C   0  0  0  0  0  0  0  0  0  0  0  0
   -9.8700    3.3817   -8.9406 N   0  0  0  0  0  0  0  0  0  0  0  0
   -8.6039    3.6363   -8.4892 C   0  0  0  0  0  0  0  0  0  0  0  0
   -8.4133    4.3903   -7.3059 C   0  0  0  0  0  0  0  0  0  0  0  0
   -9.5787    4.8540   -6.6245 C   0  0  0  0  0  0  0  0  0  0  0  0
   -9.4851    5.5096   -5.6015 O   0  0  0  0  0  0  0  0  0  0  0  0
   -6.9630    4.4920   -7.1052 C   0  0  0  0  0  0  0  0  0  0  0  0
   -6.2355    5.2100   -5.9993 C   0  0  0  0  0  0  0  0  0  0  0  0
   -6.7348    6.5876   -5.8956 N   0  0  0  0  0  0  0  0  0  0  0  0
   -6.4012    3.8163   -8.1152 C   0  0  0  0  0  0  0  0  0  0  0  0
   -7.3651    3.3100   -8.9458 N   0  0  0  0  0  0  0  0  0  0  0  0
  -12.1918    3.5368   -8.7976 N   0  0  0  0  0  0  0  0  0  0  0  0
  1  6  1  0  0  0  0
  2  1  1  0  0  0  0
  3  4  1  0  0  0  0
  3  2  2  0  0  0  0
  4  5  2  0  0  0  0
  5  8  1  0  0  0  0
  5  6  1  0  0  0  0
  6  7  2  0  0  0  0
  8  9  1  0  0  0  0
  9 10  1  0  0  0  0
 11  8  2  0  0  0  0
 12  4  1  0  0  0  0
 12 11  1  0  0  0  0
 13  2  1  0  0  0  0
M  END
>  <CHROM.1>
-51.36978163,-174.41886383,-8.78111127,4.42804085,-7.46064751,2.63970461
-0.00951460,-2.24523774

>  <Name>
lig.pdb

>  <RI>
0

>  <Rbt.Current_Directory>
/home/itssahil/PROJECTS/Mol_Feturizer/New_Systems/rnas/2miy

>  <Rbt.Executable>
rbdock ($Id: //depot/dev/client3/rdock/2013.1/src/exe/rbdock.cxx#4 $)

>  <Rbt.Library>
libRbt.so (2013.1, Build901 2013/11/27)

>  <Rbt.Parameter_File>
/export/apps/rDock/src/rDock_2013.1_src/data/scripts/dock_solv.prm

>  <Rbt.Receptor>
prm/pocket_docking_2.prm

>  <SCORE>
-47.5671

>  <SCORE.INTER>
-49.0831

>  <SCORE.INTER.CONST>
1

>  <SCORE.INTER.POLAR>
-5.67572

>  <SCORE.INTER.ROT>
2

>  <SCORE.INTER.SOLV>
19.6766

>  <SCORE.INTER.VDW>
-25.2952

>  <SCORE.INTER.norm>
-3.77562

>  <SCORE.INTRA>
1.51605

>  <SCORE.INTRA.DIHEDRAL>
-0.230312

>  <SCORE.INTRA.DIHEDRAL.0>
1.76676

>  <SCORE.INTRA.POLAR>
0.472211

>  <SCORE.INTRA.POLAR.0>
-0.472211

>  <SCORE.INTRA.REPUL>
0

>  <SCORE.INTRA.REPUL.0>
0

>  <SCORE.INTRA.SOLV>
-0.0745335

>  <SCORE.INTRA.SOLV.lig_0>
-22.5855

>  <SCORE.INTRA.VDW>
0.0629563

>  <SCORE.INTRA.VDW.0>
-0.733656

>  <SCORE.INTRA.norm>
0.116619

>  <SCORE.RESTR>
0

>  <SCORE.RESTR.CAVITY>
0

>  <SCORE.RESTR.norm>
0

>  <SCORE.SYSTEM>
0

>  <SCORE.SYSTEM.CONST>
0

>  <SCORE.SYSTEM.DIHEDRAL>
0

>  <SCORE.SYSTEM.SOLV>
0

>  <SCORE.SYSTEM.norm>
0

>  <SCORE.heavy>
13

>  <SCORE.norm>
-3.659

>  <RMSD>
0.701

$$$$
lig.pdb
 OpenBabel11021811453D
libRbt.so/2013.1/901 2013/11/27
 13 14  0  0  0  0  0  0  0  0999 V2000
  -10.8247    4.5257   -7.1500 N   0  0  0  0  0  0  0  0  0  0  0  0
  -10.9696    3.7408   -8.2587 C   0  0  0  0  0  0  0  0  0  0  0  0
   -9.9058    3.2921   -8.9004 N   0  0  0  0  0  0  0  0  0  0  0  0
   -8.6330    3.5875   -8.4949 C   0  0  0  0  0  0  0  0  0  0  0  0
   -8.4251    4.4020   -7.3554 C   0  0  0  0  0  0  0  0  0  0  0  0
   -9.5804    4.8815   -6.6677 C   0  0  0  0  0  0  0  0  0  0  0  0
   -9.4718    5.5882   -5.6810 O   0  0  0  0  0  0  0  0  0  0  0  0
   -6.9720    4.5351   -7.1975 C   0  0  0  0  0  0  0  0  0  0  0  0
   -6.2288    5.3178   -6.1474 C   0  0  0  0  0  0  0  0  0  0  0  0
   -6.9142    5.1815   -4.8553 N   0  0  0  0  0  0  0  0  0  0  0  0
   -6.4248    3.8187   -8.1872 C   0  0  0  0  0  0  0  0  0  0  0  0
   -7.4010    3.2575   -8.9668 N   0  0  0  0  0  0  0  0  0  0  0  0
  -12.2255    3.4193   -8.7053 N   0  0  0  0  0  0  0  0  0  0  0  0
  1  6  1  0  0  0  0
  2  1  1  0  0  0  0
  3  4  1  0  0  0  0
  3  2  2  0  0  0  0
  4  5  2  0  0  0  0
  5  8  1  0  0  0  0
  5  6  1  0  0  0  0
  6  7  2  0  0  0  0
  8  9  1  0  0  0  0
  9 10  1  0  0  0  0
 11  8  2  0  0  0  0
 12  4  1  0  0  0  0
 12 11  1  0  0  0  0
 13  2  1  0  0  0  0
M  END
>  <CHROM.1>
38.94678505,-63.09351536,-8.81268604,4.28578077,-7.38632914,2.63703193,0.01319397
-2.11207708

>  <Name>
lig.pdb

>  <RI>
2.68696e+07

>  <Rbt.Current_Directory>
/home/itssahil/PROJECTS/Mol_Feturizer/New_Systems/rnas/2miy

>  <Rbt.Executable>
rbdock ($Id: //depot/dev/client3/rdock/2013.1/src/exe/rbdock.cxx#4 $)

>  <Rbt.Library>
libRbt.so (2013.1, Build901 2013/11/27)

>  <Rbt.Parameter_File>
/export/apps/rDock/src/rDock_2013.1_src/data/scripts/dock_solv.prm

>  <Rbt.Receptor>
prm/pocket_docking_4.prm

>  <SCORE>
-48.7128

>  <SCORE.INTER>
-48.007

>  <SCORE.INTER.CONST>
1

>  <SCORE.INTER.POLAR>
-5.44458

>  <SCORE.INTER.ROT>
2

>  <SCORE.INTER.SOLV>
17.7245

>  <SCORE.INTER.VDW>
-24.6976

>  <SCORE.INTER.norm>
-3.69284

>  <SCORE.INTRA>
-0.70589

>  <SCORE.INTRA.DIHEDRAL>
0.29006

>  <SCORE.INTRA.DIHEDRAL.0>
1.76676

>  <SCORE.INTRA.POLAR>
-0.28877

>  <SCORE.INTRA.POLAR.0>
-0.472211

>  <SCORE.INTRA.REPUL>
0

>  <SCORE.INTRA.REPUL.0>
0

>  <SCORE.INTRA.SOLV>
0.0572195

>  <SCORE.INTRA.SOLV.lig_0>
-22.5855

>  <SCORE.INTRA.VDW>
0.102288

>  <SCORE.INTRA.VDW.0>
-0.733656

>  <SCORE.INTRA.norm>
-0.0542992

>  <SCORE.RESTR>
0

>  <SCORE.RESTR.CAVITY>
0

>  <SCORE.RESTR.norm>
0

>  <SCORE.SYSTEM>
0

>  <SCORE.SYSTEM.CONST>
0

>  <SCORE.SYSTEM.DIHEDRAL>
0

>  <SCORE.SYSTEM.SOLV>
0

>  <SCORE.SYSTEM.norm>
0

>  <SCORE.heavy>
13

>  <SCORE.norm>
-3.74714

>  <RMSD>
0.701

$$$$
lig.pdb
 OpenBabel11021811453D
libRbt.so/2013.1/901 2013/11/27
 13 14  0  0  0  0  0  0  0  0999 V2000
  -10.8224    4.5371   -7.1556 N   0  0  0  0  0  0  0  0  0  0  0  0
  -10.9628    3.7417   -8.2574 C   0  0  0  0  0  0  0  0  0  0  0  0
   -9.8963    3.2876   -8.8909 N   0  0  0  0  0  0  0  0  0  0  0  0
   -8.6253    3.5876   -8.4835 C   0  0  0  0  0  0  0  0  0  0  0  0
   -8.4219    4.4128   -7.3509 C   0  0  0  0  0  0  0  0  0  0  0  0
   -9.5801    4.8981   -6.6720 C   0  0  0  0  0  0  0  0  0  0  0  0
   -9.4755    5.6141   -5.6915 O   0  0  0  0  0  0  0  0  0  0  0  0
   -6.9696    4.5482   -7.1888 C   0  0  0  0  0  0  0  0  0  0  0  0
   -6.2307    5.3412   -6.1434 C   0  0  0  0  0  0  0  0  0  0  0  0
   -6.9352    5.2379   -4.8586 N   0  0  0  0  0  0  0  0  0  0  0  0
   -6.4184    3.8229   -8.1697 C   0  0  0  0  0  0  0  0  0  0  0  0
   -7.3913    3.2539   -8.9476 N   0  0  0  0  0  0  0  0  0  0  0  0
  -12.2168    3.4153   -8.7056 N   0  0  0  0  0  0  0  0  0  0  0  0
  1  6  1  0  0  0  0
  2  1  1  0  0  0  0
  3  4  1  0  0  0  0
  3  2  2  0  0  0  0
  4  5  2  0  0  0  0
  5  8  1  0  0  0  0
  5  6  1  0  0  0  0
  6  7  2  0  0  0  0
  8  9  1  0  0  0  0
  9 10  1  0  0  0  0
 11  8  2  0  0  0  0
 12  4  1  0  0  0  0
 12 11  1  0  0  0  0
 13  2  1  0  0  0  0
M  END
>  <CHROM.1>
37.85543016,-60.78790870,-8.81074580,4.29809133,-7.38269470,2.63262190,0.01384955
-2.12314889

>  <Name>
lig.pdb

>  <RI>
3.47783e+07

>  <Rbt.Current_Directory>
/home/itssahil/PROJECTS/Mol_Feturizer/New_Systems/rnas/2miy

>  <Rbt.Executable>
rbdock ($Id: //depot/dev/client3/rdock/2013.1/src/exe/rbdock.cxx#4 $)

>  <Rbt.Library>
libRbt.so (2013.1, Build901 2013/11/27)

>  <Rbt.Parameter_File>
/export/apps/rDock/src/rDock_2013.1_src/data/scripts/dock_solv.prm

>  <Rbt.Receptor>
prm/pocket_docking_8.prm

>  <SCORE>
-48.7605

>  <SCORE.INTER>
-48.0558

>  <SCORE.INTER.CONST>
1

>  <SCORE.INTER.POLAR>
-5.45106

>  <SCORE.INTER.ROT>
2

>  <SCORE.INTER.SOLV>
17.7506

>  <SCORE.INTER.VDW>
-24.7172

>  <SCORE.INTER.norm>
-3.6966

>  <SCORE.INTRA>
-0.704742

>  <SCORE.INTRA.DIHEDRAL>
0.343524

>  <SCORE.INTRA.DIHEDRAL.0>
1.76676

>  <SCORE.INTRA.POLAR>
-0.308939

>  <SCORE.INTRA.POLAR.0>
-0.472211

>  <SCORE.INTRA.REPUL>
0

>  <SCORE.INTRA.REPUL.0>
0

>  <SCORE.INTRA.SOLV>
0.0679417

>  <SCORE.INTRA.SOLV.lig_0>
-22.5855

>  <SCORE.INTRA.VDW>
0.139917

>  <SCORE.INTRA.VDW.0>
-0.733656

>  <SCORE.INTRA.norm>
-0.0542109

>  <SCORE.RESTR>
0

>  <SCORE.RESTR.CAVITY>
0

>  <SCORE.RESTR.norm>
0

>  <SCORE.SYSTEM>
0

>  <SCORE.SYSTEM.CONST>
0

>  <SCORE.SYSTEM.DIHEDRAL>
0

>  <SCORE.SYSTEM.SOLV>
0

>  <SCORE.SYSTEM.norm>
0

>  <SCORE.heavy>
13

>  <SCORE.norm>
-3.75081

>  <RMSD>
0.703

$$$$
lig.pdb
 OpenBabel11021811453D
libRbt.so/2013.1/901 2013/11/27
 13 14  0  0  0  0  0  0  0  0999 V2000
  -10.8178    4.5464   -7.1601 N   0  0  0  0  0  0  0  0  0  0  0  0
  -10.9458    3.8184   -8.3090 C   0  0  0  0  0  0  0  0  0  0  0  0
   -9.8726    3.3832   -8.9443 N   0  0  0  0  0  0  0  0  0  0  0  0
   -8.6065    3.6372   -8.4926 C   0  0  0  0  0  0  0  0  0  0  0  0
   -8.4159    4.3921   -7.3099 C   0  0  0  0  0  0  0  0  0  0  0  0
   -9.5813    4.8574   -6.6294 C   0  0  0  0  0  0  0  0  0  0  0  0
   -9.4876    5.5138   -5.6070 O   0  0  0  0  0  0  0  0  0  0  0  0
   -6.9656    4.4929   -7.1086 C   0  0  0  0  0  0  0  0  0  0  0  0
   -6.2381    5.2114   -6.0030 C   0  0  0  0  0  0  0  0  0  0  0  0
   -6.7285    6.5928   -5.9082 N   0  0  0  0  0  0  0  0  0  0  0  0
   -6.4038    3.8158   -8.1176 C   0  0  0  0  0  0  0  0  0  0  0  0
   -7.3677    3.3095   -8.9483 N   0  0  0  0  0  0  0  0  0  0  0  0
  -12.1943    3.5401   -8.8026 N   0  0  0  0  0  0  0  0  0  0  0  0
  1  6  1  0  0  0  0
  2  1  1  0  0  0  0
  3  4  1  0  0  0  0
  3  2  2  0  0  0  0
  4  5  2  0  0  0  0
  5  8  1  0  0  0  0
  5  6  1  0  0  0  0
  6  7  2  0  0  0  0
  8  9  1  0  0  0  0
  9 10  1  0  0  0  0
 11  8  2  0  0  0  0
 12  4  1  0  0  0  0
 12 11  1  0  0  0  0
 13  2  1  0  0  0  0
M  END
>  <CHROM.1>
-51.83928593,6.36238099,-8.78276267,4.43040975,-7.46563766,2.64047556,-0.00908330
-2.24674185

>  <Name>
lig.pdb

>  <RI>
0

>  <Rbt.Current_Directory>
/home/itssahil/PROJECTS/Mol_Feturizer/New_Systems/rnas/2miy

>  <Rbt.Executable>
rbdock ($Id: //depot/dev/client3/rdock/2013.1/src/exe/rbdock.cxx#4 $)

>  <Rbt.Library>
libRbt.so (2013.1, Build901 2013/11/27)

>  <Rbt.Parameter_File>
/export/apps/rDock/src/rDock_2013.1_src/data/scripts/dock_solv.prm

>  <Rbt.Receptor>
prm/pocket_docking_2.prm

>  <SCORE>
-47.5345

>  <SCORE.INTER>
-49.0503

>  <SCORE.INTER.CONST>
1

>  <SCORE.INTER.POLAR>
-5.69772

>  <SCORE.INTER.ROT>
2

>  <SCORE.INTER.SOLV>
19.7222

>  <SCORE.INTER.VDW>
-25.2152

>  <SCORE.INTER.norm>
-3.7731

>  <SCORE.INTRA>
1.51581

>  <SCORE.INTRA.DIHEDRAL>
-0.221465

>  <SCORE.INTRA.DIHEDRAL.0>
1.76676

>  <SCORE.INTRA.POLAR>
0.472211

>  <SCORE.INTRA.POLAR.0>
-0.472211

>  <SCORE.INTRA.REPUL>
0

>  <SCORE.INTRA.REPUL.0>
0

>  <SCORE.INTRA.SOLV>
-0.0815262

>  <SCORE.INTRA.SOLV.lig_0>
-22.5855

>  <SCORE.INTRA.VDW>
0.0617891

>  <SCORE.INTRA.VDW.0>
-0.733656

>  <SCORE.INTRA.norm>
0.116601

>  <SCORE.RESTR>
0

>  <SCORE.RESTR.CAVITY>
0

>  <SCORE.RESTR.norm>
0

>  <SCORE.SYSTEM>
0

>  <SCORE.SYSTEM.CONST>
0

>  <SCORE.SYSTEM.DIHEDRAL>
0

>  <SCORE.SYSTEM.SOLV>
0

>  <SCORE.SYSTEM.norm>
0

>  <SCORE.heavy>
13

>  <SCORE.norm>
-3.6565

>  <RMSD>
0.704

$$$$
lig.pdb
 OpenBabel11021811453D
libRbt.so/2013.1/901 2013/11/27
 13 14  0  0  0  0  0  0  0  0999 V2000
  -10.8116    4.5465   -7.1564 N   0  0  0  0  0  0  0  0  0  0  0  0
  -10.9393    3.8201   -8.3064 C   0  0  0  0  0  0  0  0  0  0  0  0
   -9.8658    3.3881   -8.9435 N   0  0  0  0  0  0  0  0  0  0  0  0
   -8.5998    3.6439   -8.4927 C   0  0  0  0  0  0  0  0  0  0  0  0
   -8.4095    4.3973   -7.3089 C   0  0  0  0  0  0  0  0  0  0  0  0
   -9.5752    4.8591   -6.6266 C   0  0  0  0  0  0  0  0  0  0  0  0
   -9.4818    5.5141   -5.6032 O   0  0  0  0  0  0  0  0  0  0  0  0
   -6.9592    4.5006   -7.1089 C   0  0  0  0  0  0  0  0  0  0  0  0
   -6.2321    5.2188   -6.0029 C   0  0  0  0  0  0  0  0  0  0  0  0
   -6.7439    6.5909   -5.8877 N   0  0  0  0  0  0  0  0  0  0  0  0
   -6.3971    3.8263   -8.1197 C   0  0  0  0  0  0  0  0  0  0  0  0
   -7.3609    3.3194   -8.9501 N   0  0  0  0  0  0  0  0  0  0  0  0
  -12.1877    3.5401   -8.7992 N   0  0  0  0  0  0  0  0  0  0  0  0
  1  6  1  0  0  0  0
  2  1  1  0  0  0  0
  3  4  1  0  0  0  0
  3  2  2  0  0  0  0
  4  5  2  0  0  0  0
  5  8  1  0  0  0  0
  5  6  1  0  0  0  0
  6  7  2  0  0  0  0
  8  9  1  0  0  0  0
  9 10  1  0  0  0  0
 11  8  2  0  0  0  0
 12  4  1  0  0  0  0
 12 11  1  0  0  0  0
 13  2  1  0  0  0  0
M  END
>  <CHROM.1>
-50.71730810,3.57824999,-8.77836786,4.43430119,-7.46259028,2.63859095,-0.01032994
-2.24388270

>  <Name>
lig.pdb

>  <RI>
3.47783e+07

>  <Rbt.Current_Directory>
/home/itssahil/PROJECTS/Mol_Feturizer/New_Systems/rnas/2miy

>  <Rbt.Executable>
rbdock ($Id: //depot/dev/client3/rdock/2013.1/src/exe/rbdock.cxx#4 $)

>  <Rbt.Library>
libRbt.so (2013.1, Build901 2013/11/27)

>  <Rbt.Parameter_File>
/export/apps/rDock/src/rDock_2013.1_src/data/scripts/dock_solv.prm

>  <Rbt.Receptor>
prm/pocket_docking_8.prm

>  <SCORE>
-47.5402

>  <SCORE.INTER>
-49.0786

>  <SCORE.INTER.CONST>
1

>  <SCORE.INTER.POLAR>
-5.67912

>  <SCORE.INTER.ROT>
2

>  <SCORE.INTER.SOLV>
19.6716

>  <SCORE.INTER.VDW>
-25.2792

>  <SCORE.INTER.norm>
-3.77528

>  <SCORE.INTRA>
1.53841

>  <SCORE.INTRA.DIHEDRAL>
-0.197767

>  <SCORE.INTRA.DIHEDRAL.0>
1.76676

>  <SCORE.INTRA.POLAR>
0.472211

>  <SCORE.INTRA.POLAR.0>
-0.472211

>  <SCORE.INTRA.REPUL>
0

>  <SCORE.INTRA.REPUL.0>
0

>  <SCORE.INTRA.SOLV>
-0.0693066

>  <SCORE.INTRA.SOLV.lig_0>
-22.5855

>  <SCORE.INTRA.VDW>
0.0664335

>  <SCORE.INTRA.VDW.0>
-0.733656

>  <SCORE.INTRA.norm>
0.11834

>  <SCORE.RESTR>
0

>  <SCORE.RESTR.CAVITY>
0

>  <SCORE.RESTR.norm>
0

>  <SCORE.SYSTEM>
0

>  <SCORE.SYSTEM.CONST>
0

>  <SCORE.SYSTEM.DIHEDRAL>
0

>  <SCORE.SYSTEM.SOLV>
0

>  <SCORE.SYSTEM.norm>
0

>  <SCORE.heavy>
13

>  <SCORE.norm>
-3.65694

>  <RMSD>
0.704

$$$$
lig.pdb
 OpenBabel11021811453D
libRbt.so/2013.1/901 2013/11/27
 13 14  0  0  0  0  0  0  0  0999 V2000
  -10.8208    4.5498   -7.1687 N   0  0  0  0  0  0  0  0  0  0  0  0
  -10.9572    3.7759   -8.2863 C   0  0  0  0  0  0  0  0  0  0  0  0
   -9.8885    3.3287   -8.9209 N   0  0  0  0  0  0  0  0  0  0  0  0
   -8.6190    3.6150   -8.4993 C   0  0  0  0  0  0  0  0  0  0  0  0
   -8.4197    4.4178   -7.3500 C   0  0  0  0  0  0  0  0  0  0  0  0
   -9.5803    4.8957   -6.6700 C   0  0  0  0  0  0  0  0  0  0  0  0
   -9.4792    5.5927   -5.6756 O   0  0  0  0  0  0  0  0  0  0  0  0
   -6.9678    4.5433   -7.1755 C   0  0  0  0  0  0  0  0  0  0  0  0
   -6.2326    5.3130   -6.1103 C   0  0  0  0  0  0  0  0  0  0  0  0
   -6.9697    5.2253   -4.8428 N   0  0  0  0  0  0  0  0  0  0  0  0
   -6.4132    3.8339   -8.1662 C   0  0  0  0  0  0  0  0  0  0  0  0
   -7.3833    3.2843   -8.9612 N   0  0  0  0  0  0  0  0  0  0  0  0
  -12.2096    3.4639   -8.7490 N   0  0  0  0  0  0  0  0  0  0  0  0
  1  6  1  0  0  0  0
  2  1  1  0  0  0  0
  3  4  1  0  0  0  0
  3  2  2  0  0  0  0
  4  5  2  0  0  0  0
  5  8  1  0  0  0  0
  5  6  1  0  0  0  0
  6  7  2  0  0  0  0
  8  9  1  0  0  0  0
  9 10  1  0  0  0  0
 11  8  2  0  0  0  0
 12  4  1  0  0  0  0
 12 11  1  0  0  0  0
 13  2  1  0  0  0  0
M  END
>  <CHROM.1>
36.01930798,-59.90411816,-8.81093340,4.30897225,-7.38758647,2.62767409,0.02015569
-2.10737255

>  <Name>
lig.pdb

>  <RI>
1.17462e+07

>  <Rbt.Current_Directory>
/home/itssahil/PROJECTS/Mol_Feturizer/New_Systems/rnas/2miy

>  <Rbt.Executable>
rbdock ($Id: //depot/dev/client3/rdock/2013.1/src/exe/rbdock.cxx#4 $)

>  <Rbt.Library>
libRbt.so (2013.1, Build901 2013/11/27)

>  <Rbt.Parameter_File>
/export/apps/rDock/src/rDock_2013.1_src/data/scripts/dock_solv.prm

>  <Rbt.Receptor>
prm/blind_docking_40.prm

>  <SCORE>
-48.6364

>  <SCORE.INTER>
-48.0014

>  <SCORE.INTER.CONST>
1

>  <SCORE.INTER.POLAR>
-5.43665

>  <SCORE.INTER.ROT>
2

>  <SCORE.INTER.SOLV>
17.6771

>  <SCORE.INTER.VDW>
-24.7045

>  <SCORE.INTER.norm>
-3.69242

>  <SCORE.INTRA>
-0.687526

>  <SCORE.INTRA.DIHEDRAL>
0.441284

>  <SCORE.INTRA.DIHEDRAL.0>
1.76676

>  <SCORE.INTRA.POLAR>
-0.337483

>  <SCORE.INTRA.POLAR.0>
-0.472211

>  <SCORE.INTRA.REPUL>
0

>  <SCORE.INTRA.REPUL.0>
0

>  <SCORE.INTRA.SOLV>
0.0847251

>  <SCORE.INTRA.SOLV.lig_0>
-22.5855

>  <SCORE.INTRA.VDW>
0.196912

>  <SCORE.INTRA.VDW.0>
-0.733656

>  <SCORE.INTRA.norm>
-0.0528866

>  <SCORE.RESTR>
0.0525734

>  <SCORE.RESTR.CAVITY>
0.0525734

>  <SCORE.RESTR.norm>
0.0040441

>  <SCORE.SYSTEM>
0

>  <SCORE.SYSTEM.CONST>
0

>  <SCORE.SYSTEM.DIHEDRAL>
0

>  <SCORE.SYSTEM.SOLV>
0

>  <SCORE.SYSTEM.norm>
0

>  <SCORE.heavy>
13

>  <SCORE.norm>
-3.74126

>  <RMSD>
0.705

$$$$
lig.pdb
 OpenBabel11021811453D
libRbt.so/2013.1/901 2013/11/27
 13 14  0  0  0  0  0  0  0  0999 V2000
  -10.8128    4.5495   -7.1682 N   0  0  0  0  0  0  0  0  0  0  0  0
  -10.9391    3.8318   -8.3238 C   0  0  0  0  0  0  0  0  0  0  0  0
   -9.8653    3.3930   -8.9556 N   0  0  0  0  0  0  0  0  0  0  0  0
   -8.6002    3.6330   -8.4936 C   0  0  0  0  0  0  0  0  0  0  0  0
   -8.4112    4.3768   -7.3036 C   0  0  0  0  0  0  0  0  0  0  0  0
   -9.5773    4.8461   -6.6270 C   0  0  0  0  0  0  0  0  0  0  0  0
   -9.4850    5.4935   -5.5987 O   0  0  0  0  0  0  0  0  0  0  0  0
   -6.9615    4.4642   -7.0921 C   0  0  0  0  0  0  0  0  0  0  0  0
   -6.2356    5.1678   -5.9760 C   0  0  0  0  0  0  0  0  0  0  0  0
   -6.6958    6.5601   -5.8908 N   0  0  0  0  0  0  0  0  0  0  0  0
   -6.3987    3.7907   -8.1030 C   0  0  0  0  0  0  0  0  0  0  0  0
   -7.3612    3.2990   -8.9439 N   0  0  0  0  0  0  0  0  0  0  0  0
  -12.1866    3.5677   -8.8277 N   0  0  0  0  0  0  0  0  0  0  0  0
  1  6  1  0  0  0  0
  2  1  1  0  0  0  0
  3  4  1  0  0  0  0
  3  2  2  0  0  0  0
  4  5  2  0  0  0  0
  5  8  1  0  0  0  0
  5  6  1  0  0  0  0
  6  7  2  0  0  0  0
  8  9  1  0  0  0  0
  9 10  1  0  0  0  0
 11  8  2  0  0  0  0
 12  4  1  0  0  0  0
 12 11  1  0  0  0  0
 13  2  1  0  0  0  0
M  END
>  <CHROM.1>
-52.97485978,4.76924778,-8.77494546,4.42007124,-7.46308397,2.64176345,0.00034170
-2.23969741

>  <Name>
lig.pdb

>  <RI>
9.06885e+06

>  <Rbt.Current_Directory>
/home/itssahil/PROJECTS/Mol_Feturizer/New_Systems/rnas/2miy

>  <Rbt.Executable>
rbdock ($Id: //depot/dev/client3/rdock/2013.1/src/exe/rbdock.cxx#4 $)

>  <Rbt.Library>
libRbt.so (2013.1, Build901 2013/11/27)

>  <Rbt.Parameter_File>
/export/apps/rDock/src/rDock_2013.1_src/data/scripts/dock_solv.prm

>  <Rbt.Receptor>
prm/pocket_docking_6.prm

>  <SCORE>
-47.2264

>  <SCORE.INTER>
-48.8942

>  <SCORE.INTER.CONST>
1

>  <SCORE.INTER.POLAR>
-5.73739

>  <SCORE.INTER.ROT>
2

>  <SCORE.INTER.SOLV>
19.6994

>  <SCORE.INTER.VDW>
-24.9713

>  <SCORE.INTER.norm>
-3.7611

>  <SCORE.INTRA>
1.50365

>  <SCORE.INTRA.DIHEDRAL>
-0.248615

>  <SCORE.INTRA.DIHEDRAL.0>
1.76676

>  <SCORE.INTRA.POLAR>
0.472211

>  <SCORE.INTRA.POLAR.0>
-0.472211

>  <SCORE.INTRA.REPUL>
0

>  <SCORE.INTRA.REPUL.0>
0

>  <SCORE.INTRA.SOLV>
-0.0946007

>  <SCORE.INTRA.SOLV.lig_0>
-22.5855

>  <SCORE.INTRA.VDW>
0.0697356

>  <SCORE.INTRA.VDW.0>
-0.733656

>  <SCORE.INTRA.norm>
0.115665

>  <SCORE.RESTR>
0.164159

>  <SCORE.RESTR.CAVITY>
0.164159

>  <SCORE.RESTR.norm>
0.0126276

>  <SCORE.SYSTEM>
0

>  <SCORE.SYSTEM.CONST>
0

>  <SCORE.SYSTEM.DIHEDRAL>
0

>  <SCORE.SYSTEM.SOLV>
0

>  <SCORE.SYSTEM.norm>
0

>  <SCORE.heavy>
13

>  <SCORE.norm>
-3.6328

>  <RMSD>
0.705

$$$$
lig.pdb
 OpenBabel11021811453D
libRbt.so/2013.1/901 2013/11/27
 13 14  0  0  0  0  0  0  0  0999 V2000
  -10.8104    4.5526   -7.1652 N   0  0  0  0  0  0  0  0  0  0  0  0
  -10.9367    3.8320   -8.3190 C   0  0  0  0  0  0  0  0  0  0  0  0
   -9.8626    3.3976   -8.9534 N   0  0  0  0  0  0  0  0  0  0  0  0
   -8.5973    3.6451   -8.4960 C   0  0  0  0  0  0  0  0  0  0  0  0
   -8.4084    4.3923   -7.3080 C   0  0  0  0  0  0  0  0  0  0  0  0
   -9.5747    4.8568   -6.6286 C   0  0  0  0  0  0  0  0  0  0  0  0
   -9.4826    5.5066   -5.6018 O   0  0  0  0  0  0  0  0  0  0  0  0
   -6.9585    4.4876   -7.1014 C   0  0  0  0  0  0  0  0  0  0  0  0
   -6.2327    5.1972   -5.9890 C   0  0  0  0  0  0  0  0  0  0  0  0
   -6.7256    6.5767   -5.8815 N   0  0  0  0  0  0  0  0  0  0  0  0
   -6.3954    3.8151   -8.1127 C   0  0  0  0  0  0  0  0  0  0  0  0
   -7.3580    3.3167   -8.9496 N   0  0  0  0  0  0  0  0  0  0  0  0
  -12.1844    3.5604   -8.8184 N   0  0  0  0  0  0  0  0  0  0  0  0
  1  6  1  0  0  0  0
  2  1  1  0  0  0  0
  3  4  1  0  0  0  0
  3  2  2  0  0  0  0
  4  5  2  0  0  0  0
  5  8  1  0  0  0  0
  5  6  1  0  0  0  0
  6  7  2  0  0  0  0
  8  9  1  0  0  0  0
  9 10  1  0  0  0  0
 11  8  2  0  0  0  0
 12  4  1  0  0  0  0
 12 11  1  0  0  0  0
 13  2  1  0  0  0  0
M  END
>  <CHROM.1>
-51.46917038,-175.86319929,-8.77539023,4.43225844,-7.46410215,2.63910793
-0.00437749,-2.24007953

>  <Name>
lig.pdb

>  <RI>
0

>  <Rbt.Current_Directory>
/home/itssahil/PROJECTS/Mol_Feturizer/New_Systems/rnas/2miy

>  <Rbt.Executable>
rbdock ($Id: //depot/dev/client3/rdock/2013.1/src/exe/rbdock.cxx#4 $)

>  <Rbt.Library>
libRbt.so (2013.1, Build901 2013/11/27)

>  <Rbt.Parameter_File>
/export/apps/rDock/src/rDock_2013.1_src/data/scripts/dock_solv.prm

>  <Rbt.Receptor>
prm/pocket_docking_2.prm

>  <SCORE>
-47.5266

>  <SCORE.INTER>
-49.0465

>  <SCORE.INTER.CONST>
1

>  <SCORE.INTER.POLAR>
-5.6912

>  <SCORE.INTER.ROT>
2

>  <SCORE.INTER.SOLV>
19.6771

>  <SCORE.INTER.VDW>
-25.2194

>  <SCORE.INTER.norm>
-3.7728

>  <SCORE.INTRA>
1.51523

>  <SCORE.INTRA.DIHEDRAL>
-0.230543

>  <SCORE.INTRA.DIHEDRAL.0>
1.76676

>  <SCORE.INTRA.POLAR>
0.472211

>  <SCORE.INTRA.POLAR.0>
-0.472211

>  <SCORE.INTRA.REPUL>
0

>  <SCORE.INTRA.REPUL.0>
0

>  <SCORE.INTRA.SOLV>
-0.075802

>  <SCORE.INTRA.SOLV.lig_0>
-22.5855

>  <SCORE.INTRA.VDW>
0.0628888

>  <SCORE.INTRA.VDW.0>
-0.733656

>  <SCORE.INTRA.norm>
0.116556

>  <SCORE.RESTR>
0.00459475

>  <SCORE.RESTR.CAVITY>
0.00459475

>  <SCORE.RESTR.norm>
0.000353442

>  <SCORE.SYSTEM>
0

>  <SCORE.SYSTEM.CONST>
0

>  <SCORE.SYSTEM.DIHEDRAL>
0

>  <SCORE.SYSTEM.SOLV>
0

>  <SCORE.SYSTEM.norm>
0

>  <SCORE.heavy>
13

>  <SCORE.norm>
-3.65589

>  <RMSD>
0.706

$$$$
lig.pdb
 OpenBabel11021811453D
libRbt.so/2013.1/901 2013/11/27
 13 14  0  0  0  0  0  0  0  0999 V2000
  -10.8166    4.5455   -7.1562 N   0  0  0  0  0  0  0  0  0  0  0  0
  -10.9576    3.7548   -8.2613 C   0  0  0  0  0  0  0  0  0  0  0  0
   -9.8915    3.3004   -8.8952 N   0  0  0  0  0  0  0  0  0  0  0  0
   -8.6202    3.5955   -8.4850 C   0  0  0  0  0  0  0  0  0  0  0  0
   -8.4163    4.4158   -7.3489 C   0  0  0  0  0  0  0  0  0  0  0  0
   -9.5741    4.9014   -6.6697 C   0  0  0  0  0  0  0  0  0  0  0  0
   -9.4689    5.6133   -5.6862 O   0  0  0  0  0  0  0  0  0  0  0  0
   -6.9638    4.5468   -7.1844 C   0  0  0  0  0  0  0  0  0  0  0  0
   -6.2242    5.3338   -6.1349 C   0  0  0  0  0  0  0  0  0  0  0  0
   -6.9359    5.2351   -4.8537 N   0  0  0  0  0  0  0  0  0  0  0  0
   -6.4131    3.8239   -8.1674 C   0  0  0  0  0  0  0  0  0  0  0  0
   -7.3865    3.2604   -8.9488 N   0  0  0  0  0  0  0  0  0  0  0  0
  -12.2119    3.4335   -8.7124 N   0  0  0  0  0  0  0  0  0  0  0  0
  1  6  1  0  0  0  0
  2  1  1  0  0  0  0
  3  4  1  0  0  0  0
  3  2  2  0  0  0  0
  4  5  2  0  0  0  0
  5  8  1  0  0  0  0
  5  6  1  0  0  0  0
  6  7  2  0  0  0  0
  8  9  1  0  0  0  0
  9 10  1  0  0  0  0
 11  8  2  0  0  0  0
 12  4  1  0  0  0  0
 12 11  1  0  0  0  0
 13  2  1  0  0  0  0
M  END
>  <CHROM.1>
37.45527297,-60.64568560,-8.80581225,4.30292717,-7.38187043,2.63252166,0.01646548
-2.11989204

>  <Name>
lig.pdb

>  <RI>
2.68696e+07

>  <Rbt.Current_Directory>
/home/itssahil/PROJECTS/Mol_Feturizer/New_Systems/rnas/2miy

>  <Rbt.Executable>
rbdock ($Id: //depot/dev/client3/rdock/2013.1/src/exe/rbdock.cxx#4 $)

>  <Rbt.Library>
libRbt.so (2013.1, Build901 2013/11/27)

>  <Rbt.Parameter_File>
/export/apps/rDock/src/rDock_2013.1_src/data/scripts/dock_solv.prm

>  <Rbt.Receptor>
prm/pocket_docking_4.prm

>  <SCORE>
-48.8391

>  <SCORE.INTER>
-48.1357

>  <SCORE.INTER.CONST>
1

>  <SCORE.INTER.POLAR>
-5.46913

>  <SCORE.INTER.ROT>
2

>  <SCORE.INTER.SOLV>
17.7388

>  <SCORE.INTER.VDW>
-24.7063

>  <SCORE.INTER.norm>
-3.70275

>  <SCORE.INTRA>
-0.703366

>  <SCORE.INTRA.DIHEDRAL>
0.364602

>  <SCORE.INTRA.DIHEDRAL.0>
1.76676

>  <SCORE.INTRA.POLAR>
-0.315514

>  <SCORE.INTRA.POLAR.0>
-0.472211

>  <SCORE.INTRA.REPUL>
0

>  <SCORE.INTRA.REPUL.0>
0

>  <SCORE.INTRA.SOLV>
0.0716373

>  <SCORE.INTRA.SOLV.lig_0>
-22.5855

>  <SCORE.INTRA.VDW>
0.15126

>  <SCORE.INTRA.VDW.0>
-0.733656

>  <SCORE.INTRA.norm>
-0.0541051

>  <SCORE.RESTR>
0

>  <SCORE.RESTR.CAVITY>
0

>  <SCORE.RESTR.norm>
0

>  <SCORE.SYSTEM>
0

>  <SCORE.SYSTEM.CONST>
0

>  <SCORE.SYSTEM.DIHEDRAL>
0

>  <SCORE.SYSTEM.SOLV>
0

>  <SCORE.SYSTEM.norm>
0

>  <SCORE.heavy>
13

>  <SCORE.norm>
-3.75685

>  <RMSD>
0.707

$$$$
lig.pdb
 OpenBabel11021811453D
libRbt.so/2013.1/901 2013/11/27
 13 14  0  0  0  0  0  0  0  0999 V2000
  -10.8152    4.5427   -7.1586 N   0  0  0  0  0  0  0  0  0  0  0  0
  -10.9543    3.7505   -8.2629 C   0  0  0  0  0  0  0  0  0  0  0  0
   -9.8871    3.2959   -8.8948 N   0  0  0  0  0  0  0  0  0  0  0  0
   -8.6165    3.5922   -8.4833 C   0  0  0  0  0  0  0  0  0  0  0  0
   -8.4145    4.4140   -7.3480 C   0  0  0  0  0  0  0  0  0  0  0  0
   -9.5734    4.8999   -6.6709 C   0  0  0  0  0  0  0  0  0  0  0  0
   -9.4699    5.6131   -5.6883 O   0  0  0  0  0  0  0  0  0  0  0  0
   -6.9623    4.5461   -7.1818 C   0  0  0  0  0  0  0  0  0  0  0  0
   -6.2245    5.3348   -6.1324 C   0  0  0  0  0  0  0  0  0  0  0  0
   -6.9388    5.2390   -4.8524 N   0  0  0  0  0  0  0  0  0  0  0  0
   -6.4100    3.8221   -8.1632 C   0  0  0  0  0  0  0  0  0  0  0  0
   -7.3820    3.2572   -8.9451 N   0  0  0  0  0  0  0  0  0  0  0  0
  -12.2078    3.4279   -8.7152 N   0  0  0  0  0  0  0  0  0  0  0  0
  1  6  1  0  0  0  0
  2  1  1  0  0  0  0
  3  4  1  0  0  0  0
  3  2  2  0  0  0  0
  4  5  2  0  0  0  0
  5  8  1  0  0  0  0
  5  6  1  0  0  0  0
  6  7  2  0  0  0  0
  8  9  1  0  0  0  0
  9 10  1  0  0  0  0
 11  8  2  0  0  0  0
 12  4  1  0  0  0  0
 12 11  1  0  0  0  0
 13  2  1  0  0  0  0
M  END
>  <CHROM.1>
37.37714907,117.96109207,-8.80407706,4.30093008,-7.38144870,2.63127245,0.01668183
-2.12125923

>  <Name>
lig.pdb

>  <RI>
3.47783e+07

>  <Rbt.Current_Directory>
/home/itssahil/PROJECTS/Mol_Feturizer/New_Systems/rnas/2miy

>  <Rbt.Executable>
rbdock ($Id: //depot/dev/client3/rdock/2013.1/src/exe/rbdock.cxx#4 $)

>  <Rbt.Library>
libRbt.so (2013.1, Build901 2013/11/27)

>  <Rbt.Parameter_File>
/export/apps/rDock/src/rDock_2013.1_src/data/scripts/dock_solv.prm

>  <Rbt.Receptor>
prm/pocket_docking_8.prm

>  <SCORE>
-48.822

>  <SCORE.INTER>
-48.1132

>  <SCORE.INTER.CONST>
1

>  <SCORE.INTER.POLAR>
-5.455

>  <SCORE.INTER.ROT>
2

>  <SCORE.INTER.SOLV>
17.7354

>  <SCORE.INTER.VDW>
-24.7373

>  <SCORE.INTER.norm>
-3.70102

>  <SCORE.INTRA>
-0.708782

>  <SCORE.INTRA.DIHEDRAL>
0.366055

>  <SCORE.INTRA.DIHEDRAL.0>
1.76676

>  <SCORE.INTRA.POLAR>
-0.31693

>  <SCORE.INTRA.POLAR.0>
-0.472211

>  <SCORE.INTRA.REPUL>
0

>  <SCORE.INTRA.REPUL.0>
0

>  <SCORE.INTRA.SOLV>
0.0731204

>  <SCORE.INTRA.SOLV.lig_0>
-22.5855

>  <SCORE.INTRA.VDW>
0.149193

>  <SCORE.INTRA.VDW.0>
-0.733656

>  <SCORE.INTRA.norm>
-0.0545217

>  <SCORE.RESTR>
0

>  <SCORE.RESTR.CAVITY>
0

>  <SCORE.RESTR.norm>
0

>  <SCORE.SYSTEM>
0

>  <SCORE.SYSTEM.CONST>
0

>  <SCORE.SYSTEM.DIHEDRAL>
0

>  <SCORE.SYSTEM.SOLV>
0

>  <SCORE.SYSTEM.norm>
0

>  <SCORE.heavy>
13

>  <SCORE.norm>
-3.75554

>  <RMSD>
0.707

$$$$
lig.pdb
 OpenBabel11021811453D
libRbt.so/2013.1/901 2013/11/27
 13 14  0  0  0  0  0  0  0  0999 V2000
  -10.8131    4.5499   -7.1599 N   0  0  0  0  0  0  0  0  0  0  0  0
  -10.9424    3.8164   -8.3052 C   0  0  0  0  0  0  0  0  0  0  0  0
   -9.8699    3.3794   -8.9405 N   0  0  0  0  0  0  0  0  0  0  0  0
   -8.6033    3.6367   -8.4922 C   0  0  0  0  0  0  0  0  0  0  0  0
   -8.4112    4.3973   -7.3133 C   0  0  0  0  0  0  0  0  0  0  0  0
   -9.5759    4.8645   -6.6329 C   0  0  0  0  0  0  0  0  0  0  0  0
   -9.4810    5.5258   -5.6137 O   0  0  0  0  0  0  0  0  0  0  0  0
   -6.9607    4.5004   -7.1152 C   0  0  0  0  0  0  0  0  0  0  0  0
   -6.2319    5.2247   -6.0143 C   0  0  0  0  0  0  0  0  0  0  0  0
   -6.7430    6.5976   -5.9064 N   0  0  0  0  0  0  0  0  0  0  0  0
   -6.4001    3.8192   -8.1221 C   0  0  0  0  0  0  0  0  0  0  0  0
   -7.3650    3.3081   -8.9486 N   0  0  0  0  0  0  0  0  0  0  0  0
  -12.1916    3.5347   -8.7952 N   0  0  0  0  0  0  0  0  0  0  0  0
  1  6  1  0  0  0  0
  2  1  1  0  0  0  0
  3  4  1  0  0  0  0
  3  2  2  0  0  0  0
  4  5  2  0  0  0  0
  5  8  1  0  0  0  0
  5  6  1  0  0  0  0
  6  7  2  0  0  0  0
  8  9  1  0  0  0  0
  9 10  1  0  0  0  0
 11  8  2  0  0  0  0
 12  4  1  0  0  0  0
 12 11  1  0  0  0  0
 13  2  1  0  0  0  0
M  END
>  <CHROM.1>
-50.67293313,-174.45974978,-8.78037531,4.43362178,-7.46676526,2.63978177
-0.00993291,-2.25004508

>  <Name>
lig.pdb

>  <RI>
0

>  <Rbt.Current_Directory>
/home/itssahil/PROJECTS/Mol_Feturizer/New_Systems/rnas/2miy

>  <Rbt.Executable>
rbdock ($Id: //depot/dev/client3/rdock/2013.1/src/exe/rbdock.cxx#4 $)

>  <Rbt.Library>
libRbt.so (2013.1, Build901 2013/11/27)

>  <Rbt.Parameter_File>
/export/apps/rDock/src/rDock_2013.1_src/data/scripts/dock_solv.prm

>  <Rbt.Receptor>
prm/pocket_docking_2.prm

>  <SCORE>
-47.5417

>  <SCORE.INTER>
-49.0737

>  <SCORE.INTER.CONST>
1

>  <SCORE.INTER.POLAR>
-5.67882

>  <SCORE.INTER.ROT>
2

>  <SCORE.INTER.SOLV>
19.7116

>  <SCORE.INTER.VDW>
-25.2902

>  <SCORE.INTER.norm>
-3.7749

>  <SCORE.INTRA>
1.53196

>  <SCORE.INTRA.DIHEDRAL>
-0.212411

>  <SCORE.INTRA.DIHEDRAL.0>
1.76676

>  <SCORE.INTRA.POLAR>
0.472211

>  <SCORE.INTRA.POLAR.0>
-0.472211

>  <SCORE.INTRA.REPUL>
0

>  <SCORE.INTRA.REPUL.0>
0

>  <SCORE.INTRA.SOLV>
-0.0667421

>  <SCORE.INTRA.SOLV.lig_0>
-22.5855

>  <SCORE.INTRA.VDW>
0.0660205

>  <SCORE.INTRA.VDW.0>
-0.733656

>  <SCORE.INTRA.norm>
0.117843

>  <SCORE.RESTR>
0

>  <SCORE.RESTR.CAVITY>
0

>  <SCORE.RESTR.norm>
0

>  <SCORE.SYSTEM>
0

>  <SCORE.SYSTEM.CONST>
0

>  <SCORE.SYSTEM.DIHEDRAL>
0

>  <SCORE.SYSTEM.SOLV>
0

>  <SCORE.SYSTEM.norm>
0

>  <SCORE.heavy>
13

>  <SCORE.norm>
-3.65705

>  <RMSD>
0.708

$$$$
lig.pdb
 OpenBabel11021811453D
libRbt.so/2013.1/901 2013/11/27
 13 14  0  0  0  0  0  0  0  0999 V2000
  -10.8188    4.5410   -7.1588 N   0  0  0  0  0  0  0  0  0  0  0  0
  -10.9572    3.7488   -8.2631 C   0  0  0  0  0  0  0  0  0  0  0  0
   -9.8896    3.2958   -8.8955 N   0  0  0  0  0  0  0  0  0  0  0  0
   -8.6193    3.5938   -8.4845 C   0  0  0  0  0  0  0  0  0  0  0  0
   -8.4180    4.4158   -7.3491 C   0  0  0  0  0  0  0  0  0  0  0  0
   -9.5774    4.8999   -6.6715 C   0  0  0  0  0  0  0  0  0  0  0  0
   -9.4745    5.6131   -5.6887 O   0  0  0  0  0  0  0  0  0  0  0  0
   -6.9659    4.5498   -7.1835 C   0  0  0  0  0  0  0  0  0  0  0  0
   -6.2289    5.3394   -6.1341 C   0  0  0  0  0  0  0  0  0  0  0  0
   -6.9302    5.2239   -4.8487 N   0  0  0  0  0  0  0  0  0  0  0  0
   -6.4130    3.8269   -8.1651 C   0  0  0  0  0  0  0  0  0  0  0  0
   -7.3845    3.2607   -8.9468 N   0  0  0  0  0  0  0  0  0  0  0  0
  -12.2105    3.4245   -8.7150 N   0  0  0  0  0  0  0  0  0  0  0  0
  1  6  1  0  0  0  0
  2  1  1  0  0  0  0
  3  4  1  0  0  0  0
  3  2  2  0  0  0  0
  4  5  2  0  0  0  0
  5  8  1  0  0  0  0
  5  6  1  0  0  0  0
  6  7  2  0  0  0  0
  8  9  1  0  0  0  0
  9 10  1  0  0  0  0
 11  8  2  0  0  0  0
 12  4  1  0  0  0  0
 12 11  1  0  0  0  0
 13  2  1  0  0  0  0
M  END
>  <CHROM.1>
38.32276160,118.50276996,-8.80629652,4.30038127,-7.38190303,2.63163982,0.01587631
-2.11948162

>  <Name>
lig.pdb

>  <RI>
0

>  <Rbt.Current_Directory>
/home/itssahil/PROJECTS/Mol_Feturizer/New_Systems/rnas/2miy

>  <Rbt.Executable>
rbdock ($Id: //depot/dev/client3/rdock/2013.1/src/exe/rbdock.cxx#4 $)

>  <Rbt.Library>
libRbt.so (2013.1, Build901 2013/11/27)

>  <Rbt.Parameter_File>
/export/apps/rDock/src/rDock_2013.1_src/data/scripts/dock_solv.prm

>  <Rbt.Receptor>
prm/pocket_docking_2.prm

>  <SCORE>
-48.8088

>  <SCORE.INTER>
-48.1026

>  <SCORE.INTER.CONST>
1

>  <SCORE.INTER.POLAR>
-5.44451

>  <SCORE.INTER.ROT>
2

>  <SCORE.INTER.SOLV>
17.7422

>  <SCORE.INTER.VDW>
-24.7674

>  <SCORE.INTER.norm>
-3.7002

>  <SCORE.INTRA>
-0.706196

>  <SCORE.INTRA.DIHEDRAL>
0.316789

>  <SCORE.INTRA.DIHEDRAL.0>
1.76676

>  <SCORE.INTRA.POLAR>
-0.301339

>  <SCORE.INTRA.POLAR.0>
-0.472211

>  <SCORE.INTRA.REPUL>
0

>  <SCORE.INTRA.REPUL.0>
0

>  <SCORE.INTRA.SOLV>
0.0645773

>  <SCORE.INTRA.SOLV.lig_0>
-22.5855

>  <SCORE.INTRA.VDW>
0.127674

>  <SCORE.INTRA.VDW.0>
-0.733656

>  <SCORE.INTRA.norm>
-0.0543228

>  <SCORE.RESTR>
0

>  <SCORE.RESTR.CAVITY>
0

>  <SCORE.RESTR.norm>
0

>  <SCORE.SYSTEM>
0

>  <SCORE.SYSTEM.CONST>
0

>  <SCORE.SYSTEM.DIHEDRAL>
0

>  <SCORE.SYSTEM.SOLV>
0

>  <SCORE.SYSTEM.norm>
0

>  <SCORE.heavy>
13

>  <SCORE.norm>
-3.75452

>  <RMSD>
0.708

$$$$
lig.pdb
 OpenBabel11021811453D
libRbt.so/2013.1/901 2013/11/27
 13 14  0  0  0  0  0  0  0  0999 V2000
  -10.8091    4.5534   -7.1673 N   0  0  0  0  0  0  0  0  0  0  0  0
  -10.9344    3.8336   -8.3216 C   0  0  0  0  0  0  0  0  0  0  0  0
   -9.8598    3.4002   -8.9559 N   0  0  0  0  0  0  0  0  0  0  0  0
   -8.5949    3.6482   -8.4978 C   0  0  0  0  0  0  0  0  0  0  0  0
   -8.4069    4.3946   -7.3092 C   0  0  0  0  0  0  0  0  0  0  0  0
   -9.5738    4.8579   -6.6299 C   0  0  0  0  0  0  0  0  0  0  0  0
   -9.4824    5.5071   -5.6027 O   0  0  0  0  0  0  0  0  0  0  0  0
   -6.9572    4.4907   -7.1019 C   0  0  0  0  0  0  0  0  0  0  0  0
   -6.2322    5.2000   -5.9888 C   0  0  0  0  0  0  0  0  0  0  0  0
   -6.7277    6.5784   -5.8789 N   0  0  0  0  0  0  0  0  0  0  0  0
   -6.3932    3.8192   -8.1135 C   0  0  0  0  0  0  0  0  0  0  0  0
   -7.3552    3.3208   -8.9511 N   0  0  0  0  0  0  0  0  0  0  0  0
  -12.1818    3.5615   -8.8217 N   0  0  0  0  0  0  0  0  0  0  0  0
  1  6  1  0  0  0  0
  2  1  1  0  0  0  0
  3  4  1  0  0  0  0
  3  2  2  0  0  0  0
  4  5  2  0  0  0  0
  5  8  1  0  0  0  0
  5  6  1  0  0  0  0
  6  7  2  0  0  0  0
  8  9  1  0  0  0  0
  9 10  1  0  0  0  0
 11  8  2  0  0  0  0
 12  4  1  0  0  0  0
 12 11  1  0  0  0  0
 13  2  1  0  0  0  0
M  END
>  <CHROM.1>
-51.36622447,-175.02592678,-8.77400636,4.43443318,-7.46526950,2.63831294
-0.00451686,-2.23931687

>  <Name>
lig.pdb

>  <RI>
1.51961e+07

>  <Rbt.Current_Directory>
/home/itssahil/PROJECTS/Mol_Feturizer/New_Systems/rnas/2miy

>  <Rbt.Executable>
rbdock ($Id: //depot/dev/client3/rdock/2013.1/src/exe/rbdock.cxx#4 $)

>  <Rbt.Library>
libRbt.so (2013.1, Build901 2013/11/27)

>  <Rbt.Parameter_File>
/export/apps/rDock/src/rDock_2013.1_src/data/scripts/dock_solv.prm

>  <Rbt.Receptor>
prm/pocket_docking_3.prm

>  <SCORE>
-47.4843

>  <SCORE.INTER>
-49.0411

>  <SCORE.INTER.CONST>
1

>  <SCORE.INTER.POLAR>
-5.67179

>  <SCORE.INTER.ROT>
2

>  <SCORE.INTER.SOLV>
19.6825

>  <SCORE.INTER.VDW>
-25.2823

>  <SCORE.INTER.norm>
-3.7724

>  <SCORE.INTRA>
1.5167

>  <SCORE.INTRA.DIHEDRAL>
-0.229303

>  <SCORE.INTRA.DIHEDRAL.0>
1.76676

>  <SCORE.INTRA.POLAR>
0.472211

>  <SCORE.INTRA.POLAR.0>
-0.472211

>  <SCORE.INTRA.REPUL>
0

>  <SCORE.INTRA.REPUL.0>
0

>  <SCORE.INTRA.SOLV>
-0.0745576

>  <SCORE.INTRA.SOLV.lig_0>
-22.5855

>  <SCORE.INTRA.VDW>
0.0631142

>  <SCORE.INTRA.VDW.0>
-0.733656

>  <SCORE.INTRA.norm>
0.116669

>  <SCORE.RESTR>
0.0401824

>  <SCORE.RESTR.CAVITY>
0.0401824

>  <SCORE.RESTR.norm>
0.00309095

>  <SCORE.SYSTEM>
0

>  <SCORE.SYSTEM.CONST>
0

>  <SCORE.SYSTEM.DIHEDRAL>
0

>  <SCORE.SYSTEM.SOLV>
0

>  <SCORE.SYSTEM.norm>
0

>  <SCORE.heavy>
13

>  <SCORE.norm>
-3.65264

>  <RMSD>
0.708

$$$$
lig.pdb
 OpenBabel11021811453D
libRbt.so/2013.1/901 2013/11/27
 13 14  0  0  0  0  0  0  0  0999 V2000
  -10.8094    4.5544   -7.1694 N   0  0  0  0  0  0  0  0  0  0  0  0
  -10.9345    3.8350   -8.3240 C   0  0  0  0  0  0  0  0  0  0  0  0
   -9.8598    3.4014   -8.9580 N   0  0  0  0  0  0  0  0  0  0  0  0
   -8.5950    3.6485   -8.4991 C   0  0  0  0  0  0  0  0  0  0  0  0
   -8.4073    4.3944   -7.3101 C   0  0  0  0  0  0  0  0  0  0  0  0
   -9.5743    4.8581   -6.6313 C   0  0  0  0  0  0  0  0  0  0  0  0
   -9.4831    5.5068   -5.6037 O   0  0  0  0  0  0  0  0  0  0  0  0
   -6.9576    4.4896   -7.1020 C   0  0  0  0  0  0  0  0  0  0  0  0
   -6.2329    5.1981   -5.9882 C   0  0  0  0  0  0  0  0  0  0  0  0
   -6.7265    6.5773   -5.8792 N   0  0  0  0  0  0  0  0  0  0  0  0
   -6.3935    3.8183   -8.1135 C   0  0  0  0  0  0  0  0  0  0  0  0
   -7.3552    3.3207   -8.9518 N   0  0  0  0  0  0  0  0  0  0  0  0
  -12.1817    3.5639   -8.8249 N   0  0  0  0  0  0  0  0  0  0  0  0
  1  6  1  0  0  0  0
  2  1  1  0  0  0  0
  3  4  1  0  0  0  0
  3  2  2  0  0  0  0
  4  5  2  0  0  0  0
  5  8  1  0  0  0  0
  5  6  1  0  0  0  0
  6  7  2  0  0  0  0
  8  9  1  0  0  0  0
  9 10  1  0  0  0  0
 11  8  2  0  0  0  0
 12  4  1  0  0  0  0
 12 11  1  0  0  0  0
 13  2  1  0  0  0  0
M  END
>  <CHROM.1>
-51.43921305,-175.12846407,-8.77415412,4.43451345,-7.46645252,2.63829704
-0.00383422,-2.23900463

>  <Name>
lig.pdb

>  <RI>
1.51961e+07

>  <Rbt.Current_Directory>
/home/itssahil/PROJECTS/Mol_Feturizer/New_Systems/rnas/2miy

>  <Rbt.Executable>
rbdock ($Id: //depot/dev/client3/rdock/2013.1/src/exe/rbdock.cxx#4 $)

>  <Rbt.Library>
libRbt.so (2013.1, Build901 2013/11/27)

>  <Rbt.Parameter_File>
/export/apps/rDock/src/rDock_2013.1_src/data/scripts/dock_solv.prm

>  <Rbt.Receptor>
prm/pocket_docking_3.prm

>  <SCORE>
-47.4825

>  <SCORE.INTER>
-49.0375

>  <SCORE.INTER.CONST>
1

>  <SCORE.INTER.POLAR>
-5.67569

>  <SCORE.INTER.ROT>
2

>  <SCORE.INTER.SOLV>
19.6864

>  <SCORE.INTER.VDW>
-25.2682

>  <SCORE.INTER.norm>
-3.77211

>  <SCORE.INTRA>
1.51521

>  <SCORE.INTRA.DIHEDRAL>
-0.23094

>  <SCORE.INTRA.DIHEDRAL.0>
1.76676

>  <SCORE.INTRA.POLAR>
0.472211

>  <SCORE.INTRA.POLAR.0>
-0.472211

>  <SCORE.INTRA.REPUL>
0

>  <SCORE.INTRA.REPUL.0>
0

>  <SCORE.INTRA.SOLV>
-0.0753875

>  <SCORE.INTRA.SOLV.lig_0>
-22.5855

>  <SCORE.INTRA.VDW>
0.0628601

>  <SCORE.INTRA.VDW.0>
-0.733656

>  <SCORE.INTRA.norm>
0.116555

>  <SCORE.RESTR>
0.0398139

>  <SCORE.RESTR.CAVITY>
0.0398139

>  <SCORE.RESTR.norm>
0.00306261

>  <SCORE.SYSTEM>
0

>  <SCORE.SYSTEM.CONST>
0

>  <SCORE.SYSTEM.DIHEDRAL>
0

>  <SCORE.SYSTEM.SOLV>
0

>  <SCORE.SYSTEM.norm>
0

>  <SCORE.heavy>
13

>  <SCORE.norm>
-3.6525

>  <RMSD>
0.709

$$$$
lig.pdb
 OpenBabel11021811453D
libRbt.so/2013.1/901 2013/11/27
 13 14  0  0  0  0  0  0  0  0999 V2000
  -10.8142    4.5439   -7.1589 N   0  0  0  0  0  0  0  0  0  0  0  0
  -10.9534    3.7521   -8.2634 C   0  0  0  0  0  0  0  0  0  0  0  0
   -9.8862    3.2970   -8.8951 N   0  0  0  0  0  0  0  0  0  0  0  0
   -8.6156    3.5925   -8.4832 C   0  0  0  0  0  0  0  0  0  0  0  0
   -8.4135    4.4140   -7.3476 C   0  0  0  0  0  0  0  0  0  0  0  0
   -9.5724    4.9003   -6.6707 C   0  0  0  0  0  0  0  0  0  0  0  0
   -9.4689    5.6133   -5.6879 O   0  0  0  0  0  0  0  0  0  0  0  0
   -6.9613    4.5452   -7.1809 C   0  0  0  0  0  0  0  0  0  0  0  0
   -6.2234    5.3333   -6.1310 C   0  0  0  0  0  0  0  0  0  0  0  0
   -6.9317    5.2278   -4.8485 N   0  0  0  0  0  0  0  0  0  0  0  0
   -6.4091    3.8213   -8.1623 C   0  0  0  0  0  0  0  0  0  0  0  0
   -7.3812    3.2570   -8.9446 N   0  0  0  0  0  0  0  0  0  0  0  0
  -12.2069    3.4302   -8.7162 N   0  0  0  0  0  0  0  0  0  0  0  0
  1  6  1  0  0  0  0
  2  1  1  0  0  0  0
  3  4  1  0  0  0  0
  3  2  2  0  0  0  0
  4  5  2  0  0  0  0
  5  8  1  0  0  0  0
  5  6  1  0  0  0  0
  6  7  2  0  0  0  0
  8  9  1  0  0  0  0
  9 10  1  0  0  0  0
 11  8  2  0  0  0  0
 12  4  1  0  0  0  0
 12 11  1  0  0  0  0
 13  2  1  0  0  0  0
M  END
>  <CHROM.1>
37.87220422,-60.89497778,-8.80249075,4.30037099,-7.38087164,2.63149491,0.01758587
-2.12023537

>  <Name>
lig.pdb

>  <RI>
2.68696e+07

>  <Rbt.Current_Directory>
/home/itssahil/PROJECTS/Mol_Feturizer/New_Systems/rnas/2miy

>  <Rbt.Executable>
rbdock ($Id: //depot/dev/client3/rdock/2013.1/src/exe/rbdock.cxx#4 $)

>  <Rbt.Library>
libRbt.so (2013.1, Build901 2013/11/27)

>  <Rbt.Parameter_File>
/export/apps/rDock/src/rDock_2013.1_src/data/scripts/dock_solv.prm

>  <Rbt.Receptor>
prm/pocket_docking_4.prm

>  <SCORE>
-48.8179

>  <SCORE.INTER>
-48.1128

>  <SCORE.INTER.CONST>
1

>  <SCORE.INTER.POLAR>
-5.45596

>  <SCORE.INTER.ROT>
2

>  <SCORE.INTER.SOLV>
17.7359

>  <SCORE.INTER.VDW>
-24.7339

>  <SCORE.INTER.norm>
-3.70098

>  <SCORE.INTRA>
-0.705173

>  <SCORE.INTRA.DIHEDRAL>
0.342805

>  <SCORE.INTRA.DIHEDRAL.0>
1.76676

>  <SCORE.INTRA.POLAR>
-0.308634

>  <SCORE.INTRA.POLAR.0>
-0.472211

>  <SCORE.INTRA.REPUL>
0

>  <SCORE.INTRA.REPUL.0>
0

>  <SCORE.INTRA.SOLV>
0.0677556

>  <SCORE.INTRA.SOLV.lig_0>
-22.5855

>  <SCORE.INTRA.VDW>
0.138902

>  <SCORE.INTRA.VDW.0>
-0.733656

>  <SCORE.INTRA.norm>
-0.0542441

>  <SCORE.RESTR>
0

>  <SCORE.RESTR.CAVITY>
0

>  <SCORE.RESTR.norm>
0

>  <SCORE.SYSTEM>
0

>  <SCORE.SYSTEM.CONST>
0

>  <SCORE.SYSTEM.DIHEDRAL>
0

>  <SCORE.SYSTEM.SOLV>
0

>  <SCORE.SYSTEM.norm>
0

>  <SCORE.heavy>
13

>  <SCORE.norm>
-3.75523

>  <RMSD>
0.709

$$$$
lig.pdb
 OpenBabel11021811453D
libRbt.so/2013.1/901 2013/11/27
 13 14  0  0  0  0  0  0  0  0999 V2000
  -10.8150    4.5446   -7.1586 N   0  0  0  0  0  0  0  0  0  0  0  0
  -10.9550    3.7523   -8.2627 C   0  0  0  0  0  0  0  0  0  0  0  0
   -9.8883    3.2964   -8.8945 N   0  0  0  0  0  0  0  0  0  0  0  0
   -8.6174    3.5914   -8.4832 C   0  0  0  0  0  0  0  0  0  0  0  0
   -8.4144    4.4133   -7.3481 C   0  0  0  0  0  0  0  0  0  0  0  0
   -9.5728    4.9005   -6.6710 C   0  0  0  0  0  0  0  0  0  0  0  0
   -9.4685    5.6139   -5.6885 O   0  0  0  0  0  0  0  0  0  0  0  0
   -6.9621    4.5439   -7.1820 C   0  0  0  0  0  0  0  0  0  0  0  0
   -6.2234    5.3321   -6.1327 C   0  0  0  0  0  0  0  0  0  0  0  0
   -6.9318    5.2282   -4.8501 N   0  0  0  0  0  0  0  0  0  0  0  0
   -6.4106    3.8192   -8.1632 C   0  0  0  0  0  0  0  0  0  0  0  0
   -7.3833    3.2551   -8.9450 N   0  0  0  0  0  0  0  0  0  0  0  0
  -12.2089    3.4309   -8.7148 N   0  0  0  0  0  0  0  0  0  0  0  0
  1  6  1  0  0  0  0
  2  1  1  0  0  0  0
  3  4  1  0  0  0  0
  3  2  2  0  0  0  0
  4  5  2  0  0  0  0
  5  8  1  0  0  0  0
  5  6  1  0  0  0  0
  6  7  2  0  0  0  0
  8  9  1  0  0  0  0
  9 10  1  0  0  0  0
 11  8  2  0  0  0  0
 12  4  1  0  0  0  0
 12 11  1  0  0  0  0
 13  2  1  0  0  0  0
M  END
>  <CHROM.1>
37.83682861,-61.65321809,-8.80351871,4.29992895,-7.38117806,2.63205617,0.01782346
-2.12077667

>  <Name>
lig.pdb

>  <RI>
9.06885e+06

>  <Rbt.Current_Directory>
/home/itssahil/PROJECTS/Mol_Feturizer/New_Systems/rnas/2miy

>  <Rbt.Executable>
rbdock ($Id: //depot/dev/client3/rdock/2013.1/src/exe/rbdock.cxx#4 $)

>  <Rbt.Library>
libRbt.so (2013.1, Build901 2013/11/27)

>  <Rbt.Parameter_File>
/export/apps/rDock/src/rDock_2013.1_src/data/scripts/dock_solv.prm

>  <Rbt.Receptor>
prm/pocket_docking_6.prm

>  <SCORE>
-48.8235

>  <SCORE.INTER>
-48.1171

>  <SCORE.INTER.CONST>
1

>  <SCORE.INTER.POLAR>
-5.46565

>  <SCORE.INTER.ROT>
2

>  <SCORE.INTER.SOLV>
17.7376

>  <SCORE.INTER.VDW>
-24.7051

>  <SCORE.INTER.norm>
-3.70131

>  <SCORE.INTRA>
-0.706416

>  <SCORE.INTRA.DIHEDRAL>
0.345884

>  <SCORE.INTRA.DIHEDRAL.0>
1.76676

>  <SCORE.INTRA.POLAR>
-0.308554

>  <SCORE.INTRA.POLAR.0>
-0.472211

>  <SCORE.INTRA.REPUL>
0

>  <SCORE.INTRA.REPUL.0>
0

>  <SCORE.INTRA.SOLV>
0.0678489

>  <SCORE.INTRA.SOLV.lig_0>
-22.5855

>  <SCORE.INTRA.VDW>
0.135799

>  <SCORE.INTRA.VDW.0>
-0.733656

>  <SCORE.INTRA.norm>
-0.0543397

>  <SCORE.RESTR>
0

>  <SCORE.RESTR.CAVITY>
0

>  <SCORE.RESTR.norm>
0

>  <SCORE.SYSTEM>
0

>  <SCORE.SYSTEM.CONST>
0

>  <SCORE.SYSTEM.DIHEDRAL>
0

>  <SCORE.SYSTEM.SOLV>
0

>  <SCORE.SYSTEM.norm>
0

>  <SCORE.heavy>
13

>  <SCORE.norm>
-3.75565

>  <RMSD>
0.709

$$$$
lig.pdb
 OpenBabel11021811453D
libRbt.so/2013.1/901 2013/11/27
 13 14  0  0  0  0  0  0  0  0999 V2000
  -10.8235    4.5295   -7.1920 N   0  0  0  0  0  0  0  0  0  0  0  0
  -10.9478    3.7521   -8.3085 C   0  0  0  0  0  0  0  0  0  0  0  0
   -9.8722    3.3066   -8.9326 N   0  0  0  0  0  0  0  0  0  0  0  0
   -8.6073    3.5981   -8.5008 C   0  0  0  0  0  0  0  0  0  0  0  0
   -8.4205    4.4047   -7.3521 C   0  0  0  0  0  0  0  0  0  0  0  0
   -9.5885    4.8808   -6.6835 C   0  0  0  0  0  0  0  0  0  0  0  0
   -9.4982    5.5808   -5.6901 O   0  0  0  0  0  0  0  0  0  0  0  0
   -6.9707    4.5353   -7.1654 C   0  0  0  0  0  0  0  0  0  0  0  0
   -6.2471    5.3102   -6.0960 C   0  0  0  0  0  0  0  0  0  0  0  0
   -6.9762    5.1944   -4.8261 N   0  0  0  0  0  0  0  0  0  0  0  0
   -6.4052    3.8249   -8.1491 C   0  0  0  0  0  0  0  0  0  0  0  0
   -7.3667    3.2700   -8.9511 N   0  0  0  0  0  0  0  0  0  0  0  0
  -12.1951    3.4349   -8.7813 N   0  0  0  0  0  0  0  0  0  0  0  0
  1  6  1  0  0  0  0
  2  1  1  0  0  0  0
  3  4  1  0  0  0  0
  3  2  2  0  0  0  0
  4  5  2  0  0  0  0
  5  8  1  0  0  0  0
  5  6  1  0  0  0  0
  6  7  2  0  0  0  0
  8  9  1  0  0  0  0
  9 10  1  0  0  0  0
 11  8  2  0  0  0  0
 12  4  1  0  0  0  0
 12 11  1  0  0  0  0
 13  2  1  0  0  0  0
M  END
>  <CHROM.1>
37.49809826,121.24234363,-8.80940306,4.29160561,-7.39198324,2.61993589,0.02282026
-2.10729162

>  <Name>
lig.pdb

>  <RI>
2.60406e+07

>  <Rbt.Current_Directory>
/home/itssahil/PROJECTS/Mol_Feturizer/New_Systems/rnas/2miy

>  <Rbt.Executable>
rbdock ($Id: //depot/dev/client3/rdock/2013.1/src/exe/rbdock.cxx#4 $)

>  <Rbt.Library>
libRbt.so (2013.1, Build901 2013/11/27)

>  <Rbt.Parameter_File>
/export/apps/rDock/src/rDock_2013.1_src/data/scripts/dock_solv.prm

>  <Rbt.Receptor>
prm/pocket_docking_7.prm

>  <SCORE>
-48.4705

>  <SCORE.INTER>
-47.9994

>  <SCORE.INTER.CONST>
1

>  <SCORE.INTER.POLAR>
-5.32593

>  <SCORE.INTER.ROT>
2

>  <SCORE.INTER.SOLV>
17.65

>  <SCORE.INTER.VDW>
-25.0632

>  <SCORE.INTER.norm>
-3.69226

>  <SCORE.INTRA>
-0.672683

>  <SCORE.INTRA.DIHEDRAL>
0.364793

>  <SCORE.INTRA.DIHEDRAL.0>
1.76676

>  <SCORE.INTRA.POLAR>
-0.311028

>  <SCORE.INTRA.POLAR.0>
-0.472211

>  <SCORE.INTRA.REPUL>
0

>  <SCORE.INTRA.REPUL.0>
0

>  <SCORE.INTRA.SOLV>
0.0728711

>  <SCORE.INTRA.SOLV.lig_0>
-22.5855

>  <SCORE.INTRA.VDW>
0.165979

>  <SCORE.INTRA.VDW.0>
-0.733656

>  <SCORE.INTRA.norm>
-0.0517449

>  <SCORE.RESTR>
0.201616

>  <SCORE.RESTR.CAVITY>
0.201616

>  <SCORE.RESTR.norm>
0.0155089

>  <SCORE.SYSTEM>
0

>  <SCORE.SYSTEM.CONST>
0

>  <SCORE.SYSTEM.DIHEDRAL>
0

>  <SCORE.SYSTEM.SOLV>
0

>  <SCORE.SYSTEM.norm>
0

>  <SCORE.heavy>
13

>  <SCORE.norm>
-3.7285

>  <RMSD>
0.710

$$$$
lig.pdb
 OpenBabel11021811453D
libRbt.so/2013.1/901 2013/11/27
 13 14  0  0  0  0  0  0  0  0999 V2000
  -10.8128    4.5403   -7.1709 N   0  0  0  0  0  0  0  0  0  0  0  0
  -10.9461    3.7583   -8.2831 C   0  0  0  0  0  0  0  0  0  0  0  0
   -9.8755    3.3094   -8.9134 N   0  0  0  0  0  0  0  0  0  0  0  0
   -8.6072    3.6018   -8.4925 C   0  0  0  0  0  0  0  0  0  0  0  0
   -8.4111    4.4132   -7.3486 C   0  0  0  0  0  0  0  0  0  0  0  0
   -9.5736    4.8929   -6.6733 C   0  0  0  0  0  0  0  0  0  0  0  0
   -9.4754    5.5971   -5.6836 O   0  0  0  0  0  0  0  0  0  0  0  0
   -6.9598    4.5435   -7.1735 C   0  0  0  0  0  0  0  0  0  0  0  0
   -6.2276    5.3226   -6.1130 C   0  0  0  0  0  0  0  0  0  0  0  0
   -6.9505    5.2178   -4.8385 N   0  0  0  0  0  0  0  0  0  0  0  0
   -6.4023    3.8286   -8.1585 C   0  0  0  0  0  0  0  0  0  0  0  0
   -7.3702    3.2709   -8.9507 N   0  0  0  0  0  0  0  0  0  0  0  0
  -12.1972    3.4399   -8.7450 N   0  0  0  0  0  0  0  0  0  0  0  0
  1  6  1  0  0  0  0
  2  1  1  0  0  0  0
  3  4  1  0  0  0  0
  3  2  2  0  0  0  0
  4  5  2  0  0  0  0
  5  8  1  0  0  0  0
  5  6  1  0  0  0  0
  6  7  2  0  0  0  0
  8  9  1  0  0  0  0
  9 10  1  0  0  0  0
 11  8  2  0  0  0  0
 12  4  1  0  0  0  0
 12 11  1  0  0  0  0
 13  2  1  0  0  0  0
M  END
>  <CHROM.1>
37.23881170,118.11070291,-8.80069995,4.30066067,-7.38525515,2.62663848,0.01939680
-2.11223346

>  <Name>
lig.pdb

>  <RI>
4.2128e+07

>  <Rbt.Current_Directory>
/home/itssahil/PROJECTS/Mol_Feturizer/New_Systems/rnas/2miy

>  <Rbt.Executable>
rbdock ($Id: //depot/dev/client3/rdock/2013.1/src/exe/rbdock.cxx#4 $)

>  <Rbt.Library>
libRbt.so (2013.1, Build901 2013/11/27)

>  <Rbt.Parameter_File>
/export/apps/rDock/src/rDock_2013.1_src/data/scripts/dock_solv.prm

>  <Rbt.Receptor>
prm/pocket_docking_5.prm

>  <SCORE>
-48.6917

>  <SCORE.INTER>
-48.0372

>  <SCORE.INTER.CONST>
1

>  <SCORE.INTER.POLAR>
-5.40153

>  <SCORE.INTER.ROT>
2

>  <SCORE.INTER.SOLV>
17.6968

>  <SCORE.INTER.VDW>
-24.8519

>  <SCORE.INTER.norm>
-3.69517

>  <SCORE.INTRA>
-0.70747

>  <SCORE.INTRA.DIHEDRAL>
0.373711

>  <SCORE.INTRA.DIHEDRAL.0>
1.76676

>  <SCORE.INTRA.POLAR>
-0.319209

>  <SCORE.INTRA.POLAR.0>
-0.472211

>  <SCORE.INTRA.REPUL>
0

>  <SCORE.INTRA.REPUL.0>
0

>  <SCORE.INTRA.SOLV>
0.0744179

>  <SCORE.INTRA.SOLV.lig_0>
-22.5855

>  <SCORE.INTRA.VDW>
0.153775

>  <SCORE.INTRA.VDW.0>
-0.733656

>  <SCORE.INTRA.norm>
-0.0544207

>  <SCORE.RESTR>
0.0529161

>  <SCORE.RESTR.CAVITY>
0.0529161

>  <SCORE.RESTR.norm>
0.00407047

>  <SCORE.SYSTEM>
0

>  <SCORE.SYSTEM.CONST>
0

>  <SCORE.SYSTEM.DIHEDRAL>
0

>  <SCORE.SYSTEM.SOLV>
0

>  <SCORE.SYSTEM.norm>
0

>  <SCORE.heavy>
13

>  <SCORE.norm>
-3.74552

>  <RMSD>
0.711

$$$$
lig.pdb
 OpenBabel11021811453D
libRbt.so/2013.1/901 2013/11/27
 13 14  0  0  0  0  0  0  0  0999 V2000
  -10.8084    4.5501   -7.1727 N   0  0  0  0  0  0  0  0  0  0  0  0
  -10.9310    3.8304   -8.3274 C   0  0  0  0  0  0  0  0  0  0  0  0
   -9.8548    3.4007   -8.9615 N   0  0  0  0  0  0  0  0  0  0  0  0
   -8.5908    3.6523   -8.5026 C   0  0  0  0  0  0  0  0  0  0  0  0
   -8.4057    4.3987   -7.3136 C   0  0  0  0  0  0  0  0  0  0  0  0
   -9.5743    4.8581   -6.6347 C   0  0  0  0  0  0  0  0  0  0  0  0
   -9.4854    5.5071   -5.6071 O   0  0  0  0  0  0  0  0  0  0  0  0
   -6.9563    4.4991   -7.1056 C   0  0  0  0  0  0  0  0  0  0  0  0
   -6.2340    5.2100   -5.9918 C   0  0  0  0  0  0  0  0  0  0  0  0
   -6.7245    6.5909   -5.8901 N   0  0  0  0  0  0  0  0  0  0  0  0
   -6.3898    3.8299   -8.1172 C   0  0  0  0  0  0  0  0  0  0  0  0
   -7.3499    3.3289   -8.9556 N   0  0  0  0  0  0  0  0  0  0  0  0
  -12.1772    3.5549   -8.8283 N   0  0  0  0  0  0  0  0  0  0  0  0
  1  6  1  0  0  0  0
  2  1  1  0  0  0  0
  3  4  1  0  0  0  0
  3  2  2  0  0  0  0
  4  5  2  0  0  0  0
  5  8  1  0  0  0  0
  5  6  1  0  0  0  0
  6  7  2  0  0  0  0
  8  9  1  0  0  0  0
  9 10  1  0  0  0  0
 11  8  2  0  0  0  0
 12  4  1  0  0  0  0
 12 11  1  0  0  0  0
 13  2  1  0  0  0  0
M  END
>  <CHROM.1>
-51.92001869,-175.23770575,-8.77191810,4.43785810,-7.47063570,2.63671052
-0.00709587,-2.23938896

>  <Name>
lig.pdb

>  <RI>
1.82164e+07

>  <Rbt.Current_Directory>
/home/itssahil/PROJECTS/Mol_Feturizer/New_Systems/rnas/2miy

>  <Rbt.Executable>
rbdock ($Id: //depot/dev/client3/rdock/2013.1/src/exe/rbdock.cxx#4 $)

>  <Rbt.Library>
libRbt.so (2013.1, Build901 2013/11/27)

>  <Rbt.Parameter_File>
/export/apps/rDock/src/rDock_2013.1_src/data/scripts/dock_solv.prm

>  <Rbt.Receptor>
prm/blind_docking_80.prm

>  <SCORE>
-47.4897

>  <SCORE.INTER>
-49.004

>  <SCORE.INTER.CONST>
1

>  <SCORE.INTER.POLAR>
-5.64707

>  <SCORE.INTER.ROT>
2

>  <SCORE.INTER.SOLV>
19.7192

>  <SCORE.INTER.VDW>
-25.3522

>  <SCORE.INTER.norm>
-3.76954

>  <SCORE.INTRA>
1.50524

>  <SCORE.INTRA.DIHEDRAL>
-0.24222

>  <SCORE.INTRA.DIHEDRAL.0>
1.76676

>  <SCORE.INTRA.POLAR>
0.472211

>  <SCORE.INTRA.POLAR.0>
-0.472211

>  <SCORE.INTRA.REPUL>
0

>  <SCORE.INTRA.REPUL.0>
0

>  <SCORE.INTRA.SOLV>
-0.0808068

>  <SCORE.INTRA.SOLV.lig_0>
-22.5855

>  <SCORE.INTRA.VDW>
0.0612392

>  <SCORE.INTRA.VDW.0>
-0.733656

>  <SCORE.INTRA.norm>
0.115788

>  <SCORE.RESTR>
0.00907325

>  <SCORE.RESTR.CAVITY>
0.00907325

>  <SCORE.RESTR.norm>
0.000697942

>  <SCORE.SYSTEM>
0

>  <SCORE.SYSTEM.CONST>
0

>  <SCORE.SYSTEM.DIHEDRAL>
0

>  <SCORE.SYSTEM.SOLV>
0

>  <SCORE.SYSTEM.norm>
0

>  <SCORE.heavy>
13

>  <SCORE.norm>
-3.65305

>  <RMSD>
0.712

$$$$
lig.pdb
 OpenBabel11021811453D
libRbt.so/2013.1/901 2013/11/27
 13 14  0  0  0  0  0  0  0  0999 V2000
  -10.8138    4.5392   -7.1722 N   0  0  0  0  0  0  0  0  0  0  0  0
  -10.9526    3.7398   -8.2713 C   0  0  0  0  0  0  0  0  0  0  0  0
   -9.8852    3.2813   -8.9001 N   0  0  0  0  0  0  0  0  0  0  0  0
   -8.6148    3.5805   -8.4902 C   0  0  0  0  0  0  0  0  0  0  0  0
   -8.4131    4.4097   -7.3602 C   0  0  0  0  0  0  0  0  0  0  0  0
   -9.5723    4.8997   -6.6865 C   0  0  0  0  0  0  0  0  0  0  0  0
   -9.4691    5.6193   -5.7084 O   0  0  0  0  0  0  0  0  0  0  0  0
   -6.9609    4.5430   -7.1946 C   0  0  0  0  0  0  0  0  0  0  0  0
   -6.2235    5.3386   -6.1501 C   0  0  0  0  0  0  0  0  0  0  0  0
   -6.9453    5.2620   -4.8730 N   0  0  0  0  0  0  0  0  0  0  0  0
   -6.4083    3.8129   -8.1711 C   0  0  0  0  0  0  0  0  0  0  0  0
   -7.3801    3.2427   -8.9496 N   0  0  0  0  0  0  0  0  0  0  0  0
  -12.2060    3.4141   -8.7218 N   0  0  0  0  0  0  0  0  0  0  0  0
  1  6  1  0  0  0  0
  2  1  1  0  0  0  0
  3  4  1  0  0  0  0
  3  2  2  0  0  0  0
  4  5  2  0  0  0  0
  5  8  1  0  0  0  0
  5  6  1  0  0  0  0
  6  7  2  0  0  0  0
  8  9  1  0  0  0  0
  9 10  1  0  0  0  0
 11  8  2  0  0  0  0
 12  4  1  0  0  0  0
 12 11  1  0  0  0  0
 13  2  1  0  0  0  0
M  END
>  <CHROM.1>
36.80930147,118.95290830,-8.80334156,4.29732441,-7.39331369,2.63053630,0.01624708
-2.12862483

>  <Name>
lig.pdb

>  <RI>
0

>  <Rbt.Current_Directory>
/home/itssahil/PROJECTS/Mol_Feturizer/New_Systems/rnas/2miy

>  <Rbt.Executable>
rbdock ($Id: //depot/dev/client3/rdock/2013.1/src/exe/rbdock.cxx#4 $)

>  <Rbt.Library>
libRbt.so (2013.1, Build901 2013/11/27)

>  <Rbt.Parameter_File>
/export/apps/rDock/src/rDock_2013.1_src/data/scripts/dock_solv.prm

>  <Rbt.Receptor>
prm/pocket_docking_2.prm

>  <SCORE>
-48.7684

>  <SCORE.INTER>
-48.0674

>  <SCORE.INTER.CONST>
1

>  <SCORE.INTER.POLAR>
-5.43376

>  <SCORE.INTER.ROT>
2

>  <SCORE.INTER.SOLV>
17.7888

>  <SCORE.INTER.VDW>
-24.7953

>  <SCORE.INTER.norm>
-3.69749

>  <SCORE.INTRA>
-0.700984

>  <SCORE.INTRA.DIHEDRAL>
0.398213

>  <SCORE.INTRA.DIHEDRAL.0>
1.76676

>  <SCORE.INTRA.POLAR>
-0.326508

>  <SCORE.INTRA.POLAR.0>
-0.472211

>  <SCORE.INTRA.REPUL>
0

>  <SCORE.INTRA.REPUL.0>
0

>  <SCORE.INTRA.SOLV>
0.078524

>  <SCORE.INTRA.SOLV.lig_0>
-22.5855

>  <SCORE.INTRA.VDW>
0.170776

>  <SCORE.INTRA.VDW.0>
-0.733656

>  <SCORE.INTRA.norm>
-0.0539218

>  <SCORE.RESTR>
0

>  <SCORE.RESTR.CAVITY>
0

>  <SCORE.RESTR.norm>
0

>  <SCORE.SYSTEM>
0

>  <SCORE.SYSTEM.CONST>
0

>  <SCORE.SYSTEM.DIHEDRAL>
0

>  <SCORE.SYSTEM.SOLV>
0

>  <SCORE.SYSTEM.norm>
0

>  <SCORE.heavy>
13

>  <SCORE.norm>
-3.75141

>  <RMSD>
0.712

$$$$
lig.pdb
 OpenBabel11021811453D
libRbt.so/2013.1/901 2013/11/27
 13 14  0  0  0  0  0  0  0  0999 V2000
  -10.8132    4.5407   -7.1718 N   0  0  0  0  0  0  0  0  0  0  0  0
  -10.9524    3.7444   -8.2731 C   0  0  0  0  0  0  0  0  0  0  0  0
   -9.8853    3.2860   -8.9023 N   0  0  0  0  0  0  0  0  0  0  0  0
   -8.6146    3.5822   -8.4909 C   0  0  0  0  0  0  0  0  0  0  0  0
   -8.4125    4.4082   -7.3586 C   0  0  0  0  0  0  0  0  0  0  0  0
   -9.5714    4.8982   -6.6844 C   0  0  0  0  0  0  0  0  0  0  0  0
   -9.4678    5.6151   -5.7044 O   0  0  0  0  0  0  0  0  0  0  0  0
   -6.9602    4.5389   -7.1917 C   0  0  0  0  0  0  0  0  0  0  0  0
   -6.2224    5.3308   -6.1446 C   0  0  0  0  0  0  0  0  0  0  0  0
   -6.9373    5.2400   -4.8647 N   0  0  0  0  0  0  0  0  0  0  0  0
   -6.4081    3.8105   -8.1697 C   0  0  0  0  0  0  0  0  0  0  0  0
   -7.3802    3.2438   -8.9503 N   0  0  0  0  0  0  0  0  0  0  0  0
  -12.2059    3.4217   -8.7252 N   0  0  0  0  0  0  0  0  0  0  0  0
  1  6  1  0  0  0  0
  2  1  1  0  0  0  0
  3  4  1  0  0  0  0
  3  2  2  0  0  0  0
  4  5  2  0  0  0  0
  5  8  1  0  0  0  0
  5  6  1  0  0  0  0
  6  7  2  0  0  0  0
  8  9  1  0  0  0  0
  9 10  1  0  0  0  0
 11  8  2  0  0  0  0
 12  4  1  0  0  0  0
 12 11  1  0  0  0  0
 13  2  1  0  0  0  0
M  END
>  <CHROM.1>
37.41826466,-60.36182333,-8.80208341,4.29551296,-7.39184576,2.63106039,0.01821810
-2.12510191

>  <Name>
lig.pdb

>  <RI>
3.47783e+07

>  <Rbt.Current_Directory>
/home/itssahil/PROJECTS/Mol_Feturizer/New_Systems/rnas/2miy

>  <Rbt.Executable>
rbdock ($Id: //depot/dev/client3/rdock/2013.1/src/exe/rbdock.cxx#4 $)

>  <Rbt.Library>
libRbt.so (2013.1, Build901 2013/11/27)

>  <Rbt.Parameter_File>
/export/apps/rDock/src/rDock_2013.1_src/data/scripts/dock_solv.prm

>  <Rbt.Receptor>
prm/pocket_docking_8.prm

>  <SCORE>
-48.7754

>  <SCORE.INTER>
-48.0733

>  <SCORE.INTER.CONST>
1

>  <SCORE.INTER.POLAR>
-5.43973

>  <SCORE.INTER.ROT>
2

>  <SCORE.INTER.SOLV>
17.7738

>  <SCORE.INTER.VDW>
-24.7744

>  <SCORE.INTER.norm>
-3.69795

>  <SCORE.INTRA>
-0.702134

>  <SCORE.INTRA.DIHEDRAL>
0.366131

>  <SCORE.INTRA.DIHEDRAL.0>
1.76676

>  <SCORE.INTRA.POLAR>
-0.31621

>  <SCORE.INTRA.POLAR.0>
-0.472211

>  <SCORE.INTRA.REPUL>
0

>  <SCORE.INTRA.REPUL.0>
0

>  <SCORE.INTRA.SOLV>
0.072059

>  <SCORE.INTRA.SOLV.lig_0>
-22.5855

>  <SCORE.INTRA.VDW>
0.153886

>  <SCORE.INTRA.VDW.0>
-0.733656

>  <SCORE.INTRA.norm>
-0.0540103

>  <SCORE.RESTR>
0

>  <SCORE.RESTR.CAVITY>
0

>  <SCORE.RESTR.norm>
0

>  <SCORE.SYSTEM>
0

>  <SCORE.SYSTEM.CONST>
0

>  <SCORE.SYSTEM.DIHEDRAL>
0

>  <SCORE.SYSTEM.SOLV>
0

>  <SCORE.SYSTEM.norm>
0

>  <SCORE.heavy>
13

>  <SCORE.norm>
-3.75196

>  <RMSD>
0.713

$$$$
lig.pdb
 OpenBabel11021811453D
libRbt.so/2013.1/901 2013/11/27
 13 14  0  0  0  0  0  0  0  0999 V2000
  -10.8121    4.5530   -7.1793 N   0  0  0  0  0  0  0  0  0  0  0  0
  -10.9456    3.7746   -8.2941 C   0  0  0  0  0  0  0  0  0  0  0  0
   -9.8752    3.3211   -8.9215 N   0  0  0  0  0  0  0  0  0  0  0  0
   -8.6068    3.6051   -8.4949 C   0  0  0  0  0  0  0  0  0  0  0  0
   -8.4105    4.4124   -7.3482 C   0  0  0  0  0  0  0  0  0  0  0  0
   -9.5728    4.8971   -6.6761 C   0  0  0  0  0  0  0  0  0  0  0  0
   -9.4743    5.5981   -5.6842 O   0  0  0  0  0  0  0  0  0  0  0  0
   -6.9592    4.5339   -7.1671 C   0  0  0  0  0  0  0  0  0  0  0  0
   -6.2266    5.3059   -6.1017 C   0  0  0  0  0  0  0  0  0  0  0  0
   -6.9570    5.2053   -4.8313 N   0  0  0  0  0  0  0  0  0  0  0  0
   -6.4020    3.8183   -8.1519 C   0  0  0  0  0  0  0  0  0  0  0  0
   -7.3700    3.2683   -8.9493 N   0  0  0  0  0  0  0  0  0  0  0  0
  -12.1967    3.4647   -8.7616 N   0  0  0  0  0  0  0  0  0  0  0  0
  1  6  1  0  0  0  0
  2  1  1  0  0  0  0
  3  4  1  0  0  0  0
  3  2  2  0  0  0  0
  4  5  2  0  0  0  0
  5  8  1  0  0  0  0
  5  6  1  0  0  0  0
  6  7  2  0  0  0  0
  8  9  1  0  0  0  0
  9 10  1  0  0  0  0
 11  8  2  0  0  0  0
 12  4  1  0  0  0  0
 12 11  1  0  0  0  0
 13  2  1  0  0  0  0
M  END
>  <CHROM.1>
37.07188168,-61.10064775,-8.80071889,4.30266144,-7.38663201,2.62598247,0.02620937
-2.10996451

>  <Name>
lig.pdb

>  <RI>
4.2128e+07

>  <Rbt.Current_Directory>
/home/itssahil/PROJECTS/Mol_Feturizer/New_Systems/rnas/2miy

>  <Rbt.Executable>
rbdock ($Id: //depot/dev/client3/rdock/2013.1/src/exe/rbdock.cxx#4 $)

>  <Rbt.Library>
libRbt.so (2013.1, Build901 2013/11/27)

>  <Rbt.Parameter_File>
/export/apps/rDock/src/rDock_2013.1_src/data/scripts/dock_solv.prm

>  <Rbt.Receptor>
prm/pocket_docking_5.prm

>  <SCORE>
-48.7126

>  <SCORE.INTER>
-48.0654

>  <SCORE.INTER.CONST>
1

>  <SCORE.INTER.POLAR>
-5.4327

>  <SCORE.INTER.ROT>
2

>  <SCORE.INTER.SOLV>
17.6793

>  <SCORE.INTER.VDW>
-24.761

>  <SCORE.INTER.norm>
-3.69733

>  <SCORE.INTRA>
-0.701341

>  <SCORE.INTRA.DIHEDRAL>
0.385905

>  <SCORE.INTRA.DIHEDRAL.0>
1.76676

>  <SCORE.INTRA.POLAR>
-0.32084

>  <SCORE.INTRA.POLAR.0>
-0.472211

>  <SCORE.INTRA.REPUL>
0

>  <SCORE.INTRA.REPUL.0>
0

>  <SCORE.INTRA.SOLV>
0.0749716

>  <SCORE.INTRA.SOLV.lig_0>
-22.5855

>  <SCORE.INTRA.VDW>
0.159079

>  <SCORE.INTRA.VDW.0>
-0.733656

>  <SCORE.INTRA.norm>
-0.0539493

>  <SCORE.RESTR>
0.0540998

>  <SCORE.RESTR.CAVITY>
0.0540998

>  <SCORE.RESTR.norm>
0.00416153

>  <SCORE.SYSTEM>
0

>  <SCORE.SYSTEM.CONST>
0

>  <SCORE.SYSTEM.DIHEDRAL>
0

>  <SCORE.SYSTEM.SOLV>
0

>  <SCORE.SYSTEM.norm>
0

>  <SCORE.heavy>
13

>  <SCORE.norm>
-3.74712

>  <RMSD>
0.715

$$$$
lig.pdb
 OpenBabel11021811453D
libRbt.so/2013.1/901 2013/11/27
 13 14  0  0  0  0  0  0  0  0999 V2000
  -10.8079    4.5492   -7.1810 N   0  0  0  0  0  0  0  0  0  0  0  0
  -10.9270    3.8448   -8.3455 C   0  0  0  0  0  0  0  0  0  0  0  0
   -9.8492    3.4156   -8.9771 N   0  0  0  0  0  0  0  0  0  0  0  0
   -8.5869    3.6529   -8.5062 C   0  0  0  0  0  0  0  0  0  0  0  0
   -8.4054    4.3832   -7.3067 C   0  0  0  0  0  0  0  0  0  0  0  0
   -9.5757    4.8421   -6.6304 C   0  0  0  0  0  0  0  0  0  0  0  0
   -9.4899    5.4777   -5.5942 O   0  0  0  0  0  0  0  0  0  0  0  0
   -6.9569    4.4711   -7.0871 C   0  0  0  0  0  0  0  0  0  0  0  0
   -6.2379    5.1633   -5.9593 C   0  0  0  0  0  0  0  0  0  0  0  0
   -6.6561    6.5701   -5.8993 N   0  0  0  0  0  0  0  0  0  0  0  0
   -6.3877    3.8107   -8.1029 C   0  0  0  0  0  0  0  0  0  0  0  0
   -7.3450    3.3267   -8.9542 N   0  0  0  0  0  0  0  0  0  0  0  0
  -12.1715    3.5839   -8.8586 N   0  0  0  0  0  0  0  0  0  0  0  0
  1  6  1  0  0  0  0
  2  1  1  0  0  0  0
  3  4  1  0  0  0  0
  3  2  2  0  0  0  0
  4  5  2  0  0  0  0
  5  8  1  0  0  0  0
  5  6  1  0  0  0  0
  6  7  2  0  0  0  0
  8  9  1  0  0  0  0
  9 10  1  0  0  0  0
 11  8  2  0  0  0  0
 12  4  1  0  0  0  0
 12 11  1  0  0  0  0
 13  2  1  0  0  0  0
M  END
>  <CHROM.1>
-55.55047950,-174.03110119,-8.76427050,4.42905911,-7.47095539,2.63981173
-0.00050852,-2.23030583

>  <Name>
lig.pdb

>  <RI>
9.06885e+06

>  <Rbt.Current_Directory>
/home/itssahil/PROJECTS/Mol_Feturizer/New_Systems/rnas/2miy

>  <Rbt.Executable>
rbdock ($Id: //depot/dev/client3/rdock/2013.1/src/exe/rbdock.cxx#4 $)

>  <Rbt.Library>
libRbt.so (2013.1, Build901 2013/11/27)

>  <Rbt.Parameter_File>
/export/apps/rDock/src/rDock_2013.1_src/data/scripts/dock_solv.prm

>  <Rbt.Receptor>
prm/pocket_docking_6.prm

>  <SCORE>
-47.2332

>  <SCORE.INTER>
-48.8362

>  <SCORE.INTER.CONST>
1

>  <SCORE.INTER.POLAR>
-5.6956

>  <SCORE.INTER.ROT>
2

>  <SCORE.INTER.SOLV>
19.7813

>  <SCORE.INTER.VDW>
-25.0993

>  <SCORE.INTER.norm>
-3.75663

>  <SCORE.INTRA>
1.45494

>  <SCORE.INTRA.DIHEDRAL>
-0.309433

>  <SCORE.INTRA.DIHEDRAL.0>
1.76676

>  <SCORE.INTRA.POLAR>
0.472211

>  <SCORE.INTRA.POLAR.0>
-0.472211

>  <SCORE.INTRA.REPUL>
0

>  <SCORE.INTRA.REPUL.0>
0

>  <SCORE.INTRA.SOLV>
-0.122175

>  <SCORE.INTRA.SOLV.lig_0>
-22.5855

>  <SCORE.INTRA.VDW>
0.0652258

>  <SCORE.INTRA.VDW.0>
-0.733656

>  <SCORE.INTRA.norm>
0.111918

>  <SCORE.RESTR>
0.148112

>  <SCORE.RESTR.CAVITY>
0.148112

>  <SCORE.RESTR.norm>
0.0113933

>  <SCORE.SYSTEM>
0

>  <SCORE.SYSTEM.CONST>
0

>  <SCORE.SYSTEM.DIHEDRAL>
0

>  <SCORE.SYSTEM.SOLV>
0

>  <SCORE.SYSTEM.norm>
0

>  <SCORE.heavy>
13

>  <SCORE.norm>
-3.63332

>  <RMSD>
0.715

$$$$
lig.pdb
 OpenBabel11021811453D
libRbt.so/2013.1/901 2013/11/27
 13 14  0  0  0  0  0  0  0  0999 V2000
  -10.8077    4.5642   -7.1692 N   0  0  0  0  0  0  0  0  0  0  0  0
  -10.9336    3.8405   -8.3211 C   0  0  0  0  0  0  0  0  0  0  0  0
   -9.8593    3.4072   -8.9559 N   0  0  0  0  0  0  0  0  0  0  0  0
   -8.5941    3.6590   -8.5007 C   0  0  0  0  0  0  0  0  0  0  0  0
   -8.4055    4.4095   -7.3147 C   0  0  0  0  0  0  0  0  0  0  0  0
   -9.5722    4.8727   -6.6349 C   0  0  0  0  0  0  0  0  0  0  0  0
   -9.4803    5.5252   -5.6099 O   0  0  0  0  0  0  0  0  0  0  0  0
   -6.9556    4.5089   -7.1101 C   0  0  0  0  0  0  0  0  0  0  0  0
   -6.2301    5.2231   -6.0004 C   0  0  0  0  0  0  0  0  0  0  0  0
   -6.7324    6.5990   -5.8900 N   0  0  0  0  0  0  0  0  0  0  0  0
   -6.3921    3.8354   -8.1206 C   0  0  0  0  0  0  0  0  0  0  0  0
   -7.3545    3.3326   -8.9550 N   0  0  0  0  0  0  0  0  0  0  0  0
  -12.1813    3.5645   -8.8183 N   0  0  0  0  0  0  0  0  0  0  0  0
  1  6  1  0  0  0  0
  2  1  1  0  0  0  0
  3  4  1  0  0  0  0
  3  2  2  0  0  0  0
  4  5  2  0  0  0  0
  5  8  1  0  0  0  0
  5  6  1  0  0  0  0
  6  7  2  0  0  0  0
  8  9  1  0  0  0  0
  9 10  1  0  0  0  0
 11  8  2  0  0  0  0
 12  4  1  0  0  0  0
 12 11  1  0  0  0  0
 13  2  1  0  0  0  0
M  END
>  <CHROM.1>
-51.11101055,4.55996733,-8.77324067,4.44799355,-7.47002631,2.63820275,-0.00689662
-2.24221746

>  <Name>
lig.pdb

>  <RI>
1.82164e+07

>  <Rbt.Current_Directory>
/home/itssahil/PROJECTS/Mol_Feturizer/New_Systems/rnas/2miy

>  <Rbt.Executable>
rbdock ($Id: //depot/dev/client3/rdock/2013.1/src/exe/rbdock.cxx#4 $)

>  <Rbt.Library>
libRbt.so (2013.1, Build901 2013/11/27)

>  <Rbt.Parameter_File>
/export/apps/rDock/src/rDock_2013.1_src/data/scripts/dock_solv.prm

>  <Rbt.Receptor>
prm/blind_docking_80.prm

>  <SCORE>
-47.4804

>  <SCORE.INTER>
-49.0187

>  <SCORE.INTER.CONST>
1

>  <SCORE.INTER.POLAR>
-5.69641

>  <SCORE.INTER.ROT>
2

>  <SCORE.INTER.SOLV>
19.7339

>  <SCORE.INTER.VDW>
-25.2024

>  <SCORE.INTER.norm>
-3.77067

>  <SCORE.INTRA>
1.53034

>  <SCORE.INTRA.DIHEDRAL>
-0.206444

>  <SCORE.INTRA.DIHEDRAL.0>
1.76676

>  <SCORE.INTRA.POLAR>
0.472211

>  <SCORE.INTRA.POLAR.0>
-0.472211

>  <SCORE.INTRA.REPUL>
0

>  <SCORE.INTRA.REPUL.0>
0

>  <SCORE.INTRA.SOLV>
-0.0735769

>  <SCORE.INTRA.SOLV.lig_0>
-22.5855

>  <SCORE.INTRA.VDW>
0.0648286

>  <SCORE.INTRA.VDW.0>
-0.733656

>  <SCORE.INTRA.norm>
0.117718

>  <SCORE.RESTR>
0.00801342

>  <SCORE.RESTR.CAVITY>
0.00801342

>  <SCORE.RESTR.norm>
0.000616417

>  <SCORE.SYSTEM>
0

>  <SCORE.SYSTEM.CONST>
0

>  <SCORE.SYSTEM.DIHEDRAL>
0

>  <SCORE.SYSTEM.SOLV>
0

>  <SCORE.SYSTEM.norm>
0

>  <SCORE.heavy>
13

>  <SCORE.norm>
-3.65234

>  <RMSD>
0.716

$$$$
lig.pdb
 OpenBabel11021811453D
libRbt.so/2013.1/901 2013/11/27
 13 14  0  0  0  0  0  0  0  0999 V2000
  -10.8071    4.5662   -7.1719 N   0  0  0  0  0  0  0  0  0  0  0  0
  -10.9327    3.8444   -8.3250 C   0  0  0  0  0  0  0  0  0  0  0  0
   -9.8582    3.4110   -8.9594 N   0  0  0  0  0  0  0  0  0  0  0  0
   -8.5931    3.6607   -8.5025 C   0  0  0  0  0  0  0  0  0  0  0  0
   -8.4049    4.4092   -7.3153 C   0  0  0  0  0  0  0  0  0  0  0  0
   -9.5717    4.8726   -6.6359 C   0  0  0  0  0  0  0  0  0  0  0  0
   -9.4801    5.5235   -5.6098 O   0  0  0  0  0  0  0  0  0  0  0  0
   -6.9551    4.5067   -7.1092 C   0  0  0  0  0  0  0  0  0  0  0  0
   -6.2299    5.2184   -5.9977 C   0  0  0  0  0  0  0  0  0  0  0  0
   -6.7299    6.5951   -5.8865 N   0  0  0  0  0  0  0  0  0  0  0  0
   -6.3913    3.8341   -8.1201 C   0  0  0  0  0  0  0  0  0  0  0  0
   -7.3535    3.3336   -8.9562 N   0  0  0  0  0  0  0  0  0  0  0  0
  -12.1801    3.5706   -8.8238 N   0  0  0  0  0  0  0  0  0  0  0  0
  1  6  1  0  0  0  0
  2  1  1  0  0  0  0
  3  4  1  0  0  0  0
  3  2  2  0  0  0  0
  4  5  2  0  0  0  0
  5  8  1  0  0  0  0
  5  6  1  0  0  0  0
  6  7  2  0  0  0  0
  8  9  1  0  0  0  0
  9 10  1  0  0  0  0
 11  8  2  0  0  0  0
 12  4  1  0  0  0  0
 12 11  1  0  0  0  0
 13  2  1  0  0  0  0
M  END
>  <CHROM.1>
-51.16579917,-174.80830830,-8.77243812,4.44828175,-7.47087346,2.63813322
-0.00542054,-2.24071530

>  <Name>
lig.pdb

>  <RI>
1.17462e+07

>  <Rbt.Current_Directory>
/home/itssahil/PROJECTS/Mol_Feturizer/New_Systems/rnas/2miy

>  <Rbt.Executable>
rbdock ($Id: //depot/dev/client3/rdock/2013.1/src/exe/rbdock.cxx#4 $)

>  <Rbt.Library>
libRbt.so (2013.1, Build901 2013/11/27)

>  <Rbt.Parameter_File>
/export/apps/rDock/src/rDock_2013.1_src/data/scripts/dock_solv.prm

>  <Rbt.Receptor>
prm/blind_docking_40.prm

>  <SCORE>
-47.4824

>  <SCORE.INTER>
-49.0107

>  <SCORE.INTER.CONST>
1

>  <SCORE.INTER.POLAR>
-5.6844

>  <SCORE.INTER.ROT>
2

>  <SCORE.INTER.SOLV>
19.7316

>  <SCORE.INTER.VDW>
-25.2363

>  <SCORE.INTER.norm>
-3.77005

>  <SCORE.INTRA>
1.52092

>  <SCORE.INTRA.DIHEDRAL>
-0.224636

>  <SCORE.INTRA.DIHEDRAL.0>
1.76676

>  <SCORE.INTRA.POLAR>
0.472211

>  <SCORE.INTRA.POLAR.0>
-0.472211

>  <SCORE.INTRA.REPUL>
0

>  <SCORE.INTRA.REPUL.0>
0

>  <SCORE.INTRA.SOLV>
-0.0722878

>  <SCORE.INTRA.SOLV.lig_0>
-22.5855

>  <SCORE.INTRA.VDW>
0.0638682

>  <SCORE.INTRA.VDW.0>
-0.733656

>  <SCORE.INTRA.norm>
0.116994

>  <SCORE.RESTR>
0.00735838

>  <SCORE.RESTR.CAVITY>
0.00735838

>  <SCORE.RESTR.norm>
0.000566029

>  <SCORE.SYSTEM>
0

>  <SCORE.SYSTEM.CONST>
0

>  <SCORE.SYSTEM.DIHEDRAL>
0

>  <SCORE.SYSTEM.SOLV>
0

>  <SCORE.SYSTEM.norm>
0

>  <SCORE.heavy>
13

>  <SCORE.norm>
-3.65249

>  <RMSD>
0.717

$$$$
lig.pdb
 OpenBabel11021811453D
libRbt.so/2013.1/901 2013/11/27
 13 14  0  0  0  0  0  0  0  0999 V2000
  -10.8098    4.5394   -7.1881 N   0  0  0  0  0  0  0  0  0  0  0  0
  -10.9375    3.7600   -8.3028 C   0  0  0  0  0  0  0  0  0  0  0  0
   -9.8638    3.3121   -8.9285 N   0  0  0  0  0  0  0  0  0  0  0  0
   -8.5976    3.6028   -8.5001 C   0  0  0  0  0  0  0  0  0  0  0  0
   -8.4072    4.4114   -7.3533 C   0  0  0  0  0  0  0  0  0  0  0  0
   -9.5731    4.8901   -6.6831 C   0  0  0  0  0  0  0  0  0  0  0  0
   -9.4798    5.5919   -5.6912 O   0  0  0  0  0  0  0  0  0  0  0  0
   -6.9568    4.5406   -7.1701 C   0  0  0  0  0  0  0  0  0  0  0  0
   -6.2299    5.3167   -6.1038 C   0  0  0  0  0  0  0  0  0  0  0  0
   -6.9620    5.2129   -4.8346 N   0  0  0  0  0  0  0  0  0  0  0  0
   -6.3944    3.8277   -8.1538 C   0  0  0  0  0  0  0  0  0  0  0  0
   -7.3584    3.2724   -8.9525 N   0  0  0  0  0  0  0  0  0  0  0  0
  -12.1862    3.4434   -8.7722 N   0  0  0  0  0  0  0  0  0  0  0  0
  1  6  1  0  0  0  0
  2  1  1  0  0  0  0
  3  4  1  0  0  0  0
  3  2  2  0  0  0  0
  4  5  2  0  0  0  0
  5  8  1  0  0  0  0
  5  6  1  0  0  0  0
  6  7  2  0  0  0  0
  8  9  1  0  0  0  0
  9 10  1  0  0  0  0
 11  8  2  0  0  0  0
 12  4  1  0  0  0  0
 12 11  1  0  0  0  0
 13  2  1  0  0  0  0
M  END
>  <CHROM.1>
37.05468545,-59.64234833,-8.79683855,4.29966291,-7.39232554,2.62195634,0.02241536
-2.11011897

>  <Name>
lig.pdb

>  <RI>
1.17462e+07

>  <Rbt.Current_Directory>
/home/itssahil/PROJECTS/Mol_Feturizer/New_Systems/rnas/2miy

>  <Rbt.Executable>
rbdock ($Id: //depot/dev/client3/rdock/2013.1/src/exe/rbdock.cxx#4 $)

>  <Rbt.Library>
libRbt.so (2013.1, Build901 2013/11/27)

>  <Rbt.Parameter_File>
/export/apps/rDock/src/rDock_2013.1_src/data/scripts/dock_solv.prm

>  <Rbt.Receptor>
prm/blind_docking_40.prm

>  <SCORE>
-48.6974

>  <SCORE.INTER>
-48.0482

>  <SCORE.INTER.CONST>
1

>  <SCORE.INTER.POLAR>
-5.3543

>  <SCORE.INTER.ROT>
2

>  <SCORE.INTER.SOLV>
17.6953

>  <SCORE.INTER.VDW>
-25.0162

>  <SCORE.INTER.norm>
-3.69602

>  <SCORE.INTRA>
-0.696844

>  <SCORE.INTRA.DIHEDRAL>
0.384515

>  <SCORE.INTRA.DIHEDRAL.0>
1.76676

>  <SCORE.INTRA.POLAR>
-0.322099

>  <SCORE.INTRA.POLAR.0>
-0.472211

>  <SCORE.INTRA.REPUL>
0

>  <SCORE.INTRA.REPUL.0>
0

>  <SCORE.INTRA.SOLV>
0.0755648

>  <SCORE.INTRA.SOLV.lig_0>
-22.5855

>  <SCORE.INTRA.VDW>
0.168252

>  <SCORE.INTRA.VDW.0>
-0.733656

>  <SCORE.INTRA.norm>
-0.0536034

>  <SCORE.RESTR>
0.0476483

>  <SCORE.RESTR.CAVITY>
0.0476483

>  <SCORE.RESTR.norm>
0.00366525

>  <SCORE.SYSTEM>
0

>  <SCORE.SYSTEM.CONST>
0

>  <SCORE.SYSTEM.DIHEDRAL>
0

>  <SCORE.SYSTEM.SOLV>
0

>  <SCORE.SYSTEM.norm>
0

>  <SCORE.heavy>
13

>  <SCORE.norm>
-3.74595

>  <RMSD>
0.717

$$$$
lig.pdb
 OpenBabel11021811453D
libRbt.so/2013.1/901 2013/11/27
 13 14  0  0  0  0  0  0  0  0999 V2000
  -10.8070    4.5666   -7.1720 N   0  0  0  0  0  0  0  0  0  0  0  0
  -10.9325    3.8449   -8.3251 C   0  0  0  0  0  0  0  0  0  0  0  0
   -9.8580    3.4114   -8.9594 N   0  0  0  0  0  0  0  0  0  0  0  0
   -8.5930    3.6610   -8.5025 C   0  0  0  0  0  0  0  0  0  0  0  0
   -8.4048    4.4094   -7.3151 C   0  0  0  0  0  0  0  0  0  0  0  0
   -9.5717    4.8728   -6.6358 C   0  0  0  0  0  0  0  0  0  0  0  0
   -9.4802    5.5236   -5.6096 O   0  0  0  0  0  0  0  0  0  0  0  0
   -6.9550    4.5068   -7.1088 C   0  0  0  0  0  0  0  0  0  0  0  0
   -6.2299    5.2183   -5.9972 C   0  0  0  0  0  0  0  0  0  0  0  0
   -6.7282    6.5958   -5.8875 N   0  0  0  0  0  0  0  0  0  0  0  0
   -6.3912    3.8343   -8.1198 C   0  0  0  0  0  0  0  0  0  0  0  0
   -7.3533    3.3338   -8.9560 N   0  0  0  0  0  0  0  0  0  0  0  0
  -12.1800    3.5712   -8.8240 N   0  0  0  0  0  0  0  0  0  0  0  0
  1  6  1  0  0  0  0
  2  1  1  0  0  0  0
  3  4  1  0  0  0  0
  3  2  2  0  0  0  0
  4  5  2  0  0  0  0
  5  8  1  0  0  0  0
  5  6  1  0  0  0  0
  6  7  2  0  0  0  0
  8  9  1  0  0  0  0
  9 10  1  0  0  0  0
 11  8  2  0  0  0  0
 12  4  1  0  0  0  0
 12 11  1  0  0  0  0
 13  2  1  0  0  0  0
M  END
>  <CHROM.1>
-51.26186458,4.34437365,-8.77211550,4.44863063,-7.47098485,2.63826289,-0.00546019
-2.24078010

>  <Name>
lig.pdb

>  <RI>
1.17462e+07

>  <Rbt.Current_Directory>
/home/itssahil/PROJECTS/Mol_Feturizer/New_Systems/rnas/2miy

>  <Rbt.Executable>
rbdock ($Id: //depot/dev/client3/rdock/2013.1/src/exe/rbdock.cxx#4 $)

>  <Rbt.Library>
libRbt.so (2013.1, Build901 2013/11/27)

>  <Rbt.Parameter_File>
/export/apps/rDock/src/rDock_2013.1_src/data/scripts/dock_solv.prm

>  <Rbt.Receptor>
prm/blind_docking_40.prm

>  <SCORE>
-47.4779

>  <SCORE.INTER>
-49.0118

>  <SCORE.INTER.CONST>
1

>  <SCORE.INTER.POLAR>
-5.70253

>  <SCORE.INTER.ROT>
2

>  <SCORE.INTER.SOLV>
19.7369

>  <SCORE.INTER.VDW>
-25.1784

>  <SCORE.INTER.norm>
-3.77014

>  <SCORE.INTRA>
1.52686

>  <SCORE.INTRA.DIHEDRAL>
-0.21057

>  <SCORE.INTRA.DIHEDRAL.0>
1.76676

>  <SCORE.INTRA.POLAR>
0.472211

>  <SCORE.INTRA.POLAR.0>
-0.472211

>  <SCORE.INTRA.REPUL>
0

>  <SCORE.INTRA.REPUL.0>
0

>  <SCORE.INTRA.SOLV>
-0.0752981

>  <SCORE.INTRA.SOLV.lig_0>
-22.5855

>  <SCORE.INTRA.VDW>
0.0642761

>  <SCORE.INTRA.VDW.0>
-0.733656

>  <SCORE.INTRA.norm>
0.117451

>  <SCORE.RESTR>
0.00708762

>  <SCORE.RESTR.CAVITY>
0.00708762

>  <SCORE.RESTR.norm>
0.000545202

>  <SCORE.SYSTEM>
0

>  <SCORE.SYSTEM.CONST>
0

>  <SCORE.SYSTEM.DIHEDRAL>
0

>  <SCORE.SYSTEM.SOLV>
0

>  <SCORE.SYSTEM.norm>
0

>  <SCORE.heavy>
13

>  <SCORE.norm>
-3.65215

>  <RMSD>
0.717

$$$$
lig.pdb
 OpenBabel11021811453D
libRbt.so/2013.1/901 2013/11/27
 13 14  0  0  0  0  0  0  0  0999 V2000
  -10.8105    4.5481   -7.1837 N   0  0  0  0  0  0  0  0  0  0  0  0
  -10.9419    3.7673   -8.2970 C   0  0  0  0  0  0  0  0  0  0  0  0
   -9.8704    3.3151   -8.9233 N   0  0  0  0  0  0  0  0  0  0  0  0
   -8.6027    3.6027   -8.4969 C   0  0  0  0  0  0  0  0  0  0  0  0
   -8.4086    4.4125   -7.3516 C   0  0  0  0  0  0  0  0  0  0  0  0
   -9.5721    4.8959   -6.6807 C   0  0  0  0  0  0  0  0  0  0  0  0
   -9.4755    5.5990   -5.6901 O   0  0  0  0  0  0  0  0  0  0  0  0
   -6.9575    4.5376   -7.1704 C   0  0  0  0  0  0  0  0  0  0  0  0
   -6.2270    5.3133   -6.1063 C   0  0  0  0  0  0  0  0  0  0  0  0
   -6.9559    5.2108   -4.8351 N   0  0  0  0  0  0  0  0  0  0  0  0
   -6.3985    3.8214   -8.1536 C   0  0  0  0  0  0  0  0  0  0  0  0
   -7.3651    3.2678   -8.9503 N   0  0  0  0  0  0  0  0  0  0  0  0
  -12.1922    3.4538   -8.7643 N   0  0  0  0  0  0  0  0  0  0  0  0
  1  6  1  0  0  0  0
  2  1  1  0  0  0  0
  3  4  1  0  0  0  0
  3  2  2  0  0  0  0
  4  5  2  0  0  0  0
  5  8  1  0  0  0  0
  5  6  1  0  0  0  0
  6  7  2  0  0  0  0
  8  9  1  0  0  0  0
  9 10  1  0  0  0  0
 11  8  2  0  0  0  0
 12  4  1  0  0  0  0
 12 11  1  0  0  0  0
 13  2  1  0  0  0  0
M  END
>  <CHROM.1>
37.20464440,-59.57434814,-8.79835359,4.30164584,-7.38989680,2.62469211,0.02447825
-2.11153692

>  <Name>
lig.pdb

>  <RI>
4.2128e+07

>  <Rbt.Current_Directory>
/home/itssahil/PROJECTS/Mol_Feturizer/New_Systems/rnas/2miy

>  <Rbt.Executable>
rbdock ($Id: //depot/dev/client3/rdock/2013.1/src/exe/rbdock.cxx#4 $)

>  <Rbt.Library>
libRbt.so (2013.1, Build901 2013/11/27)

>  <Rbt.Parameter_File>
/export/apps/rDock/src/rDock_2013.1_src/data/scripts/dock_solv.prm

>  <Rbt.Receptor>
prm/pocket_docking_5.prm

>  <SCORE>
-48.7074

>  <SCORE.INTER>
-48.0634

>  <SCORE.INTER.CONST>
1

>  <SCORE.INTER.POLAR>
-5.40287

>  <SCORE.INTER.ROT>
2

>  <SCORE.INTER.SOLV>
17.6992

>  <SCORE.INTER.VDW>
-24.8657

>  <SCORE.INTER.norm>
-3.69718

>  <SCORE.INTRA>
-0.696795

>  <SCORE.INTRA.DIHEDRAL>
0.376335

>  <SCORE.INTRA.DIHEDRAL.0>
1.76676

>  <SCORE.INTRA.POLAR>
-0.319571

>  <SCORE.INTRA.POLAR.0>
-0.472211

>  <SCORE.INTRA.REPUL>
0

>  <SCORE.INTRA.REPUL.0>
0

>  <SCORE.INTRA.SOLV>
0.0742303

>  <SCORE.INTRA.SOLV.lig_0>
-22.5855

>  <SCORE.INTRA.VDW>
0.164463

>  <SCORE.INTRA.VDW.0>
-0.733656

>  <SCORE.INTRA.norm>
-0.0535996

>  <SCORE.RESTR>
0.0527123

>  <SCORE.RESTR.CAVITY>
0.0527123

>  <SCORE.RESTR.norm>
0.0040548

>  <SCORE.SYSTEM>
0

>  <SCORE.SYSTEM.CONST>
0

>  <SCORE.SYSTEM.DIHEDRAL>
0

>  <SCORE.SYSTEM.SOLV>
0

>  <SCORE.SYSTEM.norm>
0

>  <SCORE.heavy>
13

>  <SCORE.norm>
-3.74673

>  <RMSD>
0.717

$$$$
lig.pdb
 OpenBabel11021811453D
libRbt.so/2013.1/901 2013/11/27
 13 14  0  0  0  0  0  0  0  0999 V2000
  -10.8070    4.5661   -7.1738 N   0  0  0  0  0  0  0  0  0  0  0  0
  -10.9314    3.8443   -8.3271 C   0  0  0  0  0  0  0  0  0  0  0  0
   -9.8563    3.4123   -8.9614 N   0  0  0  0  0  0  0  0  0  0  0  0
   -8.5916    3.6636   -8.5043 C   0  0  0  0  0  0  0  0  0  0  0  0
   -8.4046    4.4120   -7.3168 C   0  0  0  0  0  0  0  0  0  0  0  0
   -9.5720    4.8739   -6.6376 C   0  0  0  0  0  0  0  0  0  0  0  0
   -9.4815    5.5247   -5.6113 O   0  0  0  0  0  0  0  0  0  0  0  0
   -6.9549    4.5114   -7.1104 C   0  0  0  0  0  0  0  0  0  0  0  0
   -6.2308    5.2237   -5.9987 C   0  0  0  0  0  0  0  0  0  0  0  0
   -6.7334    6.5994   -5.8865 N   0  0  0  0  0  0  0  0  0  0  0  0
   -6.3901    3.8397   -8.1214 C   0  0  0  0  0  0  0  0  0  0  0  0
   -7.3515    3.3381   -8.9578 N   0  0  0  0  0  0  0  0  0  0  0  0
  -12.1785    3.5690   -8.8261 N   0  0  0  0  0  0  0  0  0  0  0  0
  1  6  1  0  0  0  0
  2  1  1  0  0  0  0
  3  4  1  0  0  0  0
  3  2  2  0  0  0  0
  4  5  2  0  0  0  0
  5  8  1  0  0  0  0
  5  6  1  0  0  0  0
  6  7  2  0  0  0  0
  8  9  1  0  0  0  0
  9 10  1  0  0  0  0
 11  8  2  0  0  0  0
 12  4  1  0  0  0  0
 12 11  1  0  0  0  0
 13  2  1  0  0  0  0
M  END
>  <CHROM.1>
-51.11476867,4.58196348,-8.77208805,4.45074269,-7.47249960,2.63721554,-0.00631944
-2.24053686

>  <Name>
lig.pdb

>  <RI>
1.17462e+07

>  <Rbt.Current_Directory>
/home/itssahil/PROJECTS/Mol_Feturizer/New_Systems/rnas/2miy

>  <Rbt.Executable>
rbdock ($Id: //depot/dev/client3/rdock/2013.1/src/exe/rbdock.cxx#4 $)

>  <Rbt.Library>
libRbt.so (2013.1, Build901 2013/11/27)

>  <Rbt.Parameter_File>
/export/apps/rDock/src/rDock_2013.1_src/data/scripts/dock_solv.prm

>  <Rbt.Receptor>
prm/blind_docking_40.prm

>  <SCORE>
-47.4667

>  <SCORE.INTER>
-49.0012

>  <SCORE.INTER.CONST>
1

>  <SCORE.INTER.POLAR>
-5.68426

>  <SCORE.INTER.ROT>
2

>  <SCORE.INTER.SOLV>
19.7397

>  <SCORE.INTER.VDW>
-25.2332

>  <SCORE.INTER.norm>
-3.76932

>  <SCORE.INTRA>
1.53027

>  <SCORE.INTRA.DIHEDRAL>
-0.206506

>  <SCORE.INTRA.DIHEDRAL.0>
1.76676

>  <SCORE.INTRA.POLAR>
0.472211

>  <SCORE.INTRA.POLAR.0>
-0.472211

>  <SCORE.INTRA.REPUL>
0

>  <SCORE.INTRA.REPUL.0>
0

>  <SCORE.INTRA.SOLV>
-0.0736161

>  <SCORE.INTRA.SOLV.lig_0>
-22.5855

>  <SCORE.INTRA.VDW>
0.0648121

>  <SCORE.INTRA.VDW.0>
-0.733656

>  <SCORE.INTRA.norm>
0.117713

>  <SCORE.RESTR>
0.00420529

>  <SCORE.RESTR.CAVITY>
0.00420529

>  <SCORE.RESTR.norm>
0.000323484

>  <SCORE.SYSTEM>
0

>  <SCORE.SYSTEM.CONST>
0

>  <SCORE.SYSTEM.DIHEDRAL>
0

>  <SCORE.SYSTEM.SOLV>
0

>  <SCORE.SYSTEM.norm>
0

>  <SCORE.heavy>
13

>  <SCORE.norm>
-3.65129

>  <RMSD>
0.718

$$$$
lig.pdb
 OpenBabel11021811453D
libRbt.so/2013.1/901 2013/11/27
 13 14  0  0  0  0  0  0  0  0999 V2000
  -10.8094    4.5472   -7.1855 N   0  0  0  0  0  0  0  0  0  0  0  0
  -10.9406    3.7664   -8.2988 C   0  0  0  0  0  0  0  0  0  0  0  0
   -9.8689    3.3141   -8.9248 N   0  0  0  0  0  0  0  0  0  0  0  0
   -8.6013    3.6018   -8.4981 C   0  0  0  0  0  0  0  0  0  0  0  0
   -8.4075    4.4117   -7.3528 C   0  0  0  0  0  0  0  0  0  0  0  0
   -9.5713    4.8951   -6.6822 C   0  0  0  0  0  0  0  0  0  0  0  0
   -9.4749    5.5982   -5.6916 O   0  0  0  0  0  0  0  0  0  0  0  0
   -6.9565    4.5369   -7.1712 C   0  0  0  0  0  0  0  0  0  0  0  0
   -6.2263    5.3126   -6.1069 C   0  0  0  0  0  0  0  0  0  0  0  0
   -6.9573    5.2129   -4.8367 N   0  0  0  0  0  0  0  0  0  0  0  0
   -6.3972    3.8206   -8.1542 C   0  0  0  0  0  0  0  0  0  0  0  0
   -7.3635    3.2669   -8.9511 N   0  0  0  0  0  0  0  0  0  0  0  0
  -12.1907    3.4527   -8.7665 N   0  0  0  0  0  0  0  0  0  0  0  0
  1  6  1  0  0  0  0
  2  1  1  0  0  0  0
  3  4  1  0  0  0  0
  3  2  2  0  0  0  0
  4  5  2  0  0  0  0
  5  8  1  0  0  0  0
  5  6  1  0  0  0  0
  6  7  2  0  0  0  0
  8  9  1  0  0  0  0
  9 10  1  0  0  0  0
 11  8  2  0  0  0  0
 12  4  1  0  0  0  0
 12 11  1  0  0  0  0
 13  2  1  0  0  0  0
M  END
>  <CHROM.1>
37.06262897,119.12833010,-8.79749638,4.30091575,-7.39129692,2.62451325,0.02453961
-2.11176659

>  <Name>
lig.pdb

>  <RI>
1.82164e+07

>  <Rbt.Current_Directory>
/home/itssahil/PROJECTS/Mol_Feturizer/New_Systems/rnas/2miy

>  <Rbt.Executable>
rbdock ($Id: //depot/dev/client3/rdock/2013.1/src/exe/rbdock.cxx#4 $)

>  <Rbt.Library>
libRbt.so (2013.1, Build901 2013/11/27)

>  <Rbt.Parameter_File>
/export/apps/rDock/src/rDock_2013.1_src/data/scripts/dock_solv.prm

>  <Rbt.Receptor>
prm/blind_docking_80.prm

>  <SCORE>
-48.7041

>  <SCORE.INTER>
-48.0554

>  <SCORE.INTER.CONST>
1

>  <SCORE.INTER.POLAR>
-5.39668

>  <SCORE.INTER.ROT>
2

>  <SCORE.INTER.SOLV>
17.7017

>  <SCORE.INTER.VDW>
-24.8819

>  <SCORE.INTER.norm>
-3.69657

>  <SCORE.INTRA>
-0.701612

>  <SCORE.INTRA.DIHEDRAL>
0.384805

>  <SCORE.INTRA.DIHEDRAL.0>
1.76676

>  <SCORE.INTRA.POLAR>
-0.322603

>  <SCORE.INTRA.POLAR.0>
-0.472211

>  <SCORE.INTRA.REPUL>
0

>  <SCORE.INTRA.REPUL.0>
0

>  <SCORE.INTRA.SOLV>
0.0762849

>  <SCORE.INTRA.SOLV.lig_0>
-22.5855

>  <SCORE.INTRA.VDW>
0.164695

>  <SCORE.INTRA.VDW.0>
-0.733656

>  <SCORE.INTRA.norm>
-0.0539701

>  <SCORE.RESTR>
0.0529057

>  <SCORE.RESTR.CAVITY>
0.0529057

>  <SCORE.RESTR.norm>
0.00406967

>  <SCORE.SYSTEM>
0

>  <SCORE.SYSTEM.CONST>
0

>  <SCORE.SYSTEM.DIHEDRAL>
0

>  <SCORE.SYSTEM.SOLV>
0

>  <SCORE.SYSTEM.norm>
0

>  <SCORE.heavy>
13

>  <SCORE.norm>
-3.74647

>  <RMSD>
0.718

$$$$
lig.pdb
 OpenBabel11021811453D
libRbt.so/2013.1/901 2013/11/27
 13 14  0  0  0  0  0  0  0  0999 V2000
  -10.8103    4.5388   -7.1872 N   0  0  0  0  0  0  0  0  0  0  0  0
  -10.9383    3.7582   -8.3011 C   0  0  0  0  0  0  0  0  0  0  0  0
   -9.8648    3.3101   -8.9269 N   0  0  0  0  0  0  0  0  0  0  0  0
   -8.5984    3.6018   -8.4995 C   0  0  0  0  0  0  0  0  0  0  0  0
   -8.4078    4.4117   -7.3536 C   0  0  0  0  0  0  0  0  0  0  0  0
   -9.5735    4.8906   -6.6832 C   0  0  0  0  0  0  0  0  0  0  0  0
   -9.4799    5.5934   -5.6921 O   0  0  0  0  0  0  0  0  0  0  0  0
   -6.9573    4.5417   -7.1714 C   0  0  0  0  0  0  0  0  0  0  0  0
   -6.2302    5.3193   -6.1063 C   0  0  0  0  0  0  0  0  0  0  0  0
   -6.9560    5.2080   -4.8341 N   0  0  0  0  0  0  0  0  0  0  0  0
   -6.3952    3.8281   -8.1547 C   0  0  0  0  0  0  0  0  0  0  0  0
   -7.3593    3.2715   -8.9523 N   0  0  0  0  0  0  0  0  0  0  0  0
  -12.1872    3.4406   -8.7694 N   0  0  0  0  0  0  0  0  0  0  0  0
  1  6  1  0  0  0  0
  2  1  1  0  0  0  0
  3  4  1  0  0  0  0
  3  2  2  0  0  0  0
  4  5  2  0  0  0  0
  5  8  1  0  0  0  0
  5  6  1  0  0  0  0
  6  7  2  0  0  0  0
  8  9  1  0  0  0  0
  9 10  1  0  0  0  0
 11  8  2  0  0  0  0
 12  4  1  0  0  0  0
 12 11  1  0  0  0  0
 13  2  1  0  0  0  0
M  END
>  <CHROM.1>
37.48205399,-60.97829788,-8.79684208,4.29894763,-7.39208168,2.62257216,0.02204186
-2.11045934

>  <Name>
lig.pdb

>  <RI>
1.51961e+07

>  <Rbt.Current_Directory>
/home/itssahil/PROJECTS/Mol_Feturizer/New_Systems/rnas/2miy

>  <Rbt.Executable>
rbdock ($Id: //depot/dev/client3/rdock/2013.1/src/exe/rbdock.cxx#4 $)

>  <Rbt.Library>
libRbt.so (2013.1, Build901 2013/11/27)

>  <Rbt.Parameter_File>
/export/apps/rDock/src/rDock_2013.1_src/data/scripts/dock_solv.prm

>  <Rbt.Receptor>
prm/pocket_docking_3.prm

>  <SCORE>
-48.7066

>  <SCORE.INTER>
-48.0508

>  <SCORE.INTER.CONST>
1

>  <SCORE.INTER.POLAR>
-5.35488

>  <SCORE.INTER.ROT>
2

>  <SCORE.INTER.SOLV>
17.7028

>  <SCORE.INTER.VDW>
-25.0185

>  <SCORE.INTER.norm>
-3.69621

>  <SCORE.INTRA>
-0.704305

>  <SCORE.INTRA.DIHEDRAL>
0.363699

>  <SCORE.INTRA.DIHEDRAL.0>
1.76676

>  <SCORE.INTRA.POLAR>
-0.314846

>  <SCORE.INTRA.POLAR.0>
-0.472211

>  <SCORE.INTRA.REPUL>
0

>  <SCORE.INTRA.REPUL.0>
0

>  <SCORE.INTRA.SOLV>
0.0712932

>  <SCORE.INTRA.SOLV.lig_0>
-22.5855

>  <SCORE.INTRA.VDW>
0.148675

>  <SCORE.INTRA.VDW.0>
-0.733656

>  <SCORE.INTRA.norm>
-0.0541773

>  <SCORE.RESTR>
0.0485182

>  <SCORE.RESTR.CAVITY>
0.0485182

>  <SCORE.RESTR.norm>
0.00373217

>  <SCORE.SYSTEM>
0

>  <SCORE.SYSTEM.CONST>
0

>  <SCORE.SYSTEM.DIHEDRAL>
0

>  <SCORE.SYSTEM.SOLV>
0

>  <SCORE.SYSTEM.norm>
0

>  <SCORE.heavy>
13

>  <SCORE.norm>
-3.74666

>  <RMSD>
0.718

$$$$
lig.pdb
 OpenBabel11021811453D
libRbt.so/2013.1/901 2013/11/27
 13 14  0  0  0  0  0  0  0  0999 V2000
  -10.8051    4.5551   -7.1946 N   0  0  0  0  0  0  0  0  0  0  0  0
  -10.9202    3.8573   -8.3634 C   0  0  0  0  0  0  0  0  0  0  0  0
   -9.8402    3.4298   -8.9925 N   0  0  0  0  0  0  0  0  0  0  0  0
   -8.5797    3.6622   -8.5145 C   0  0  0  0  0  0  0  0  0  0  0  0
   -8.4023    4.3855   -7.3102 C   0  0  0  0  0  0  0  0  0  0  0  0
   -9.5749    4.8427   -6.6367 C   0  0  0  0  0  0  0  0  0  0  0  0
   -9.4927    5.4724   -5.5966 O   0  0  0  0  0  0  0  0  0  0  0  0
   -6.9547    4.4696   -7.0835 C   0  0  0  0  0  0  0  0  0  0  0  0
   -6.2397    5.1542   -5.9487 C   0  0  0  0  0  0  0  0  0  0  0  0
   -6.6677    6.5573   -5.8727 N   0  0  0  0  0  0  0  0  0  0  0  0
   -6.3820    3.8137   -8.1004 C   0  0  0  0  0  0  0  0  0  0  0  0
   -7.3363    3.3362   -8.9587 N   0  0  0  0  0  0  0  0  0  0  0  0
  -12.1627    3.6016   -8.8836 N   0  0  0  0  0  0  0  0  0  0  0  0
  1  6  1  0  0  0  0
  2  1  1  0  0  0  0
  3  4  1  0  0  0  0
  3  2  2  0  0  0  0
  4  5  2  0  0  0  0
  5  8  1  0  0  0  0
  5  6  1  0  0  0  0
  6  7  2  0  0  0  0
  8  9  1  0  0  0  0
  9 10  1  0  0  0  0
 11  8  2  0  0  0  0
 12  4  1  0  0  0  0
 12 11  1  0  0  0  0
 13  2  1  0  0  0  0
M  END
>  <CHROM.1>
-54.87975334,-175.03668658,-8.76150390,4.43247432,-7.47489620,2.63639108
0.00427249,-2.22415150

>  <Name>
lig.pdb

>  <RI>
4.2128e+07

>  <Rbt.Current_Directory>
/home/itssahil/PROJECTS/Mol_Feturizer/New_Systems/rnas/2miy

>  <Rbt.Executable>
rbdock ($Id: //depot/dev/client3/rdock/2013.1/src/exe/rbdock.cxx#4 $)

>  <Rbt.Library>
libRbt.so (2013.1, Build901 2013/11/27)

>  <Rbt.Parameter_File>
/export/apps/rDock/src/rDock_2013.1_src/data/scripts/dock_solv.prm

>  <Rbt.Receptor>
prm/pocket_docking_5.prm

>  <SCORE>
-47.3333

>  <SCORE.INTER>
-48.8385

>  <SCORE.INTER.CONST>
1

>  <SCORE.INTER.POLAR>
-5.65115

>  <SCORE.INTER.ROT>
2

>  <SCORE.INTER.SOLV>
19.7446

>  <SCORE.INTER.VDW>
-25.2367

>  <SCORE.INTER.norm>
-3.75681

>  <SCORE.INTRA>
1.46505

>  <SCORE.INTRA.DIHEDRAL>
-0.29869

>  <SCORE.INTRA.DIHEDRAL.0>
1.76676

>  <SCORE.INTRA.POLAR>
0.472211

>  <SCORE.INTRA.POLAR.0>
-0.472211

>  <SCORE.INTRA.REPUL>
0

>  <SCORE.INTRA.REPUL.0>
0

>  <SCORE.INTRA.SOLV>
-0.114523

>  <SCORE.INTRA.SOLV.lig_0>
-22.5855

>  <SCORE.INTRA.VDW>
0.0661429

>  <SCORE.INTRA.VDW.0>
-0.733656

>  <SCORE.INTRA.norm>
0.112696

>  <SCORE.RESTR>
0.0400927

>  <SCORE.RESTR.CAVITY>
0.0400927

>  <SCORE.RESTR.norm>
0.00308405

>  <SCORE.SYSTEM>
0

>  <SCORE.SYSTEM.CONST>
0

>  <SCORE.SYSTEM.DIHEDRAL>
0

>  <SCORE.SYSTEM.SOLV>
0

>  <SCORE.SYSTEM.norm>
0

>  <SCORE.heavy>
13

>  <SCORE.norm>
-3.64103

>  <RMSD>
0.718

$$$$
lig.pdb
 OpenBabel11021811453D
libRbt.so/2013.1/901 2013/11/27
 13 14  0  0  0  0  0  0  0  0999 V2000
  -10.8102    4.5408   -7.1892 N   0  0  0  0  0  0  0  0  0  0  0  0
  -10.9393    3.7585   -8.3017 C   0  0  0  0  0  0  0  0  0  0  0  0
   -9.8664    3.3096   -8.9280 N   0  0  0  0  0  0  0  0  0  0  0  0
   -8.5996    3.6023   -8.5025 C   0  0  0  0  0  0  0  0  0  0  0  0
   -8.4079    4.4140   -7.3581 C   0  0  0  0  0  0  0  0  0  0  0  0
   -9.5730    4.8937   -6.6871 C   0  0  0  0  0  0  0  0  0  0  0  0
   -9.4784    5.5981   -5.6972 O   0  0  0  0  0  0  0  0  0  0  0  0
   -6.9573    4.5446   -7.1777 C   0  0  0  0  0  0  0  0  0  0  0  0
   -6.2291    5.3240   -6.1146 C   0  0  0  0  0  0  0  0  0  0  0  0
   -6.9608    5.2258   -4.8447 N   0  0  0  0  0  0  0  0  0  0  0  0
   -6.3961    3.8295   -8.1605 C   0  0  0  0  0  0  0  0  0  0  0  0
   -7.3610    3.2715   -8.9561 N   0  0  0  0  0  0  0  0  0  0  0  0
  -12.1887    3.4398   -8.7681 N   0  0  0  0  0  0  0  0  0  0  0  0
  1  6  1  0  0  0  0
  2  1  1  0  0  0  0
  3  4  1  0  0  0  0
  3  2  2  0  0  0  0
  4  5  2  0  0  0  0
  5  8  1  0  0  0  0
  5  6  1  0  0  0  0
  6  7  2  0  0  0  0
  8  9  1  0  0  0  0
  9 10  1  0  0  0  0
 11  8  2  0  0  0  0
 12  4  1  0  0  0  0
 12 11  1  0  0  0  0
 13  2  1  0  0  0  0
M  END
>  <CHROM.1>
36.91084482,119.24954681,-8.79773568,4.30198993,-7.39630184,2.62313696,0.02091550
-2.11290207

>  <Name>
lig.pdb

>  <RI>
4.2128e+07

>  <Rbt.Current_Directory>
/home/itssahil/PROJECTS/Mol_Feturizer/New_Systems/rnas/2miy

>  <Rbt.Executable>
rbdock ($Id: //depot/dev/client3/rdock/2013.1/src/exe/rbdock.cxx#4 $)

>  <Rbt.Library>
libRbt.so (2013.1, Build901 2013/11/27)

>  <Rbt.Parameter_File>
/export/apps/rDock/src/rDock_2013.1_src/data/scripts/dock_solv.prm

>  <Rbt.Receptor>
prm/pocket_docking_5.prm

>  <SCORE>
-48.6939

>  <SCORE.INTER>
-48.0444

>  <SCORE.INTER.CONST>
1

>  <SCORE.INTER.POLAR>
-5.35864

>  <SCORE.INTER.ROT>
2

>  <SCORE.INTER.SOLV>
17.7274

>  <SCORE.INTER.VDW>
-25.01

>  <SCORE.INTER.norm>
-3.69572

>  <SCORE.INTRA>
-0.69995

>  <SCORE.INTRA.DIHEDRAL>
0.39319

>  <SCORE.INTRA.DIHEDRAL.0>
1.76676

>  <SCORE.INTRA.POLAR>
-0.325038

>  <SCORE.INTRA.POLAR.0>
-0.472211

>  <SCORE.INTRA.REPUL>
0

>  <SCORE.INTRA.REPUL.0>
0

>  <SCORE.INTRA.SOLV>
0.0776875

>  <SCORE.INTRA.SOLV.lig_0>
-22.5855

>  <SCORE.INTRA.VDW>
0.169739

>  <SCORE.INTRA.VDW.0>
-0.733656

>  <SCORE.INTRA.norm>
-0.0538423

>  <SCORE.RESTR>
0.0504725

>  <SCORE.RESTR.CAVITY>
0.0504725

>  <SCORE.RESTR.norm>
0.0038825

>  <SCORE.SYSTEM>
0

>  <SCORE.SYSTEM.CONST>
0

>  <SCORE.SYSTEM.DIHEDRAL>
0

>  <SCORE.SYSTEM.SOLV>
0

>  <SCORE.SYSTEM.norm>
0

>  <SCORE.heavy>
13

>  <SCORE.norm>
-3.74568

>  <RMSD>
0.718

$$$$
lig.pdb
 OpenBabel11021811453D
libRbt.so/2013.1/901 2013/11/27
 13 14  0  0  0  0  0  0  0  0999 V2000
  -10.8094    4.5413   -7.1895 N   0  0  0  0  0  0  0  0  0  0  0  0
  -10.9380    3.7591   -8.3021 C   0  0  0  0  0  0  0  0  0  0  0  0
   -9.8649    3.3093   -8.9274 N   0  0  0  0  0  0  0  0  0  0  0  0
   -8.5983    3.6009   -8.5006 C   0  0  0  0  0  0  0  0  0  0  0  0
   -8.4070    4.4124   -7.3560 C   0  0  0  0  0  0  0  0  0  0  0  0
   -9.5723    4.8931   -6.6862 C   0  0  0  0  0  0  0  0  0  0  0  0
   -9.4782    5.5974   -5.6962 O   0  0  0  0  0  0  0  0  0  0  0  0
   -6.9564    4.5418   -7.1742 C   0  0  0  0  0  0  0  0  0  0  0  0
   -6.2286    5.3205   -6.1104 C   0  0  0  0  0  0  0  0  0  0  0  0
   -6.9600    5.2203   -4.8404 N   0  0  0  0  0  0  0  0  0  0  0  0
   -6.3949    3.8263   -8.1564 C   0  0  0  0  0  0  0  0  0  0  0  0
   -7.3594    3.2691   -8.9530 N   0  0  0  0  0  0  0  0  0  0  0  0
  -12.1872    3.4416   -8.7698 N   0  0  0  0  0  0  0  0  0  0  0  0
  1  6  1  0  0  0  0
  2  1  1  0  0  0  0
  3  4  1  0  0  0  0
  3  2  2  0  0  0  0
  4  5  2  0  0  0  0
  5  8  1  0  0  0  0
  5  6  1  0  0  0  0
  6  7  2  0  0  0  0
  8  9  1  0  0  0  0
  9 10  1  0  0  0  0
 11  8  2  0  0  0  0
 12  4  1  0  0  0  0
 12 11  1  0  0  0  0
 13  2  1  0  0  0  0
M  END
>  <CHROM.1>
37.04473375,-61.18406712,-8.79664643,4.30067838,-7.39448169,2.62265805,0.02224719
-2.11274441

>  <Name>
lig.pdb

>  <RI>
1.82164e+07

>  <Rbt.Current_Directory>
/home/itssahil/PROJECTS/Mol_Feturizer/New_Systems/rnas/2miy

>  <Rbt.Executable>
rbdock ($Id: //depot/dev/client3/rdock/2013.1/src/exe/rbdock.cxx#4 $)

>  <Rbt.Library>
libRbt.so (2013.1, Build901 2013/11/27)

>  <Rbt.Parameter_File>
/export/apps/rDock/src/rDock_2013.1_src/data/scripts/dock_solv.prm

>  <Rbt.Receptor>
prm/blind_docking_80.prm

>  <SCORE>
-48.7082

>  <SCORE.INTER>
-48.0576

>  <SCORE.INTER.CONST>
1

>  <SCORE.INTER.POLAR>
-5.36171

>  <SCORE.INTER.ROT>
2

>  <SCORE.INTER.SOLV>
17.7175

>  <SCORE.INTER.VDW>
-25.0052

>  <SCORE.INTER.norm>
-3.69674

>  <SCORE.INTRA>
-0.700991

>  <SCORE.INTRA.DIHEDRAL>
0.387501

>  <SCORE.INTRA.DIHEDRAL.0>
1.76676

>  <SCORE.INTRA.POLAR>
-0.321084

>  <SCORE.INTRA.POLAR.0>
-0.472211

>  <SCORE.INTRA.REPUL>
0

>  <SCORE.INTRA.REPUL.0>
0

>  <SCORE.INTRA.SOLV>
0.075191

>  <SCORE.INTRA.SOLV.lig_0>
-22.5855

>  <SCORE.INTRA.VDW>
0.159349

>  <SCORE.INTRA.VDW.0>
-0.733656

>  <SCORE.INTRA.norm>
-0.0539224

>  <SCORE.RESTR>
0.0503778

>  <SCORE.RESTR.CAVITY>
0.0503778

>  <SCORE.RESTR.norm>
0.00387521

>  <SCORE.SYSTEM>
0

>  <SCORE.SYSTEM.CONST>
0

>  <SCORE.SYSTEM.DIHEDRAL>
0

>  <SCORE.SYSTEM.SOLV>
0

>  <SCORE.SYSTEM.norm>
0

>  <SCORE.heavy>
13

>  <SCORE.norm>
-3.74678

>  <RMSD>
0.719

$$$$
lig.pdb
 OpenBabel11021811453D
libRbt.so/2013.1/901 2013/11/27
 13 14  0  0  0  0  0  0  0  0999 V2000
  -10.8062    4.5596   -7.1898 N   0  0  0  0  0  0  0  0  0  0  0  0
  -10.9233    3.8591   -8.3568 C   0  0  0  0  0  0  0  0  0  0  0  0
   -9.8445    3.4313   -8.9876 N   0  0  0  0  0  0  0  0  0  0  0  0
   -8.5830    3.6663   -8.5134 C   0  0  0  0  0  0  0  0  0  0  0  0
   -8.4034    4.3925   -7.3111 C   0  0  0  0  0  0  0  0  0  0  0  0
   -9.5749    4.8499   -6.6357 C   0  0  0  0  0  0  0  0  0  0  0  0
   -9.4908    5.4820   -5.5972 O   0  0  0  0  0  0  0  0  0  0  0  0
   -6.9554    4.4788   -7.0882 C   0  0  0  0  0  0  0  0  0  0  0  0
   -6.2382    5.1668   -5.9568 C   0  0  0  0  0  0  0  0  0  0  0  0
   -6.6700    6.5687   -5.8809 N   0  0  0  0  0  0  0  0  0  0  0  0
   -6.3845    3.8213   -8.1051 C   0  0  0  0  0  0  0  0  0  0  0  0
   -7.3404    3.3408   -8.9599 N   0  0  0  0  0  0  0  0  0  0  0  0
  -12.1669    3.6007   -8.8732 N   0  0  0  0  0  0  0  0  0  0  0  0
  1  6  1  0  0  0  0
  2  1  1  0  0  0  0
  3  4  1  0  0  0  0
  3  2  2  0  0  0  0
  4  5  2  0  0  0  0
  5  8  1  0  0  0  0
  5  6  1  0  0  0  0
  6  7  2  0  0  0  0
  8  9  1  0  0  0  0
  9 10  1  0  0  0  0
 11  8  2  0  0  0  0
 12  4  1  0  0  0  0
 12 11  1  0  0  0  0
 13  2  1  0  0  0  0
M  END
>  <CHROM.1>
-54.75094273,-175.47077816,-8.76331249,4.43864539,-7.47480789,2.63750808
0.00191892,-2.22627920

>  <Name>
lig.pdb

>  <RI>
4.2128e+07

>  <Rbt.Current_Directory>
/home/itssahil/PROJECTS/Mol_Feturizer/New_Systems/rnas/2miy

>  <Rbt.Executable>
rbdock ($Id: //depot/dev/client3/rdock/2013.1/src/exe/rbdock.cxx#4 $)

>  <Rbt.Library>
libRbt.so (2013.1, Build901 2013/11/27)

>  <Rbt.Parameter_File>
/export/apps/rDock/src/rDock_2013.1_src/data/scripts/dock_solv.prm

>  <Rbt.Receptor>
prm/pocket_docking_5.prm

>  <SCORE>
-47.3186

>  <SCORE.INTER>
-48.8323

>  <SCORE.INTER.CONST>
1

>  <SCORE.INTER.POLAR>
-5.67657

>  <SCORE.INTER.ROT>
2

>  <SCORE.INTER.SOLV>
19.7626

>  <SCORE.INTER.VDW>
-25.1538

>  <SCORE.INTER.norm>
-3.75633

>  <SCORE.INTRA>
1.46739

>  <SCORE.INTRA.DIHEDRAL>
-0.296105

>  <SCORE.INTRA.DIHEDRAL.0>
1.76676

>  <SCORE.INTRA.POLAR>
0.472211

>  <SCORE.INTRA.POLAR.0>
-0.472211

>  <SCORE.INTRA.REPUL>
0

>  <SCORE.INTRA.REPUL.0>
0

>  <SCORE.INTRA.SOLV>
-0.113081

>  <SCORE.INTRA.SOLV.lig_0>
-22.5855

>  <SCORE.INTRA.VDW>
0.0664672

>  <SCORE.INTRA.VDW.0>
-0.733656

>  <SCORE.INTRA.norm>
0.112876

>  <SCORE.RESTR>
0.0462738

>  <SCORE.RESTR.CAVITY>
0.0462738

>  <SCORE.RESTR.norm>
0.00355952

>  <SCORE.SYSTEM>
0

>  <SCORE.SYSTEM.CONST>
0

>  <SCORE.SYSTEM.DIHEDRAL>
0

>  <SCORE.SYSTEM.SOLV>
0

>  <SCORE.SYSTEM.norm>
0

>  <SCORE.heavy>
13

>  <SCORE.norm>
-3.63989

>  <RMSD>
0.719

$$$$
lig.pdb
 OpenBabel11021811453D
libRbt.so/2013.1/901 2013/11/27
 13 14  0  0  0  0  0  0  0  0999 V2000
  -10.8070    4.5718   -7.1737 N   0  0  0  0  0  0  0  0  0  0  0  0
  -10.9423    3.7945   -8.2889 C   0  0  0  0  0  0  0  0  0  0  0  0
   -9.8730    3.3430   -8.9194 N   0  0  0  0  0  0  0  0  0  0  0  0
   -8.6038    3.6280   -8.4957 C   0  0  0  0  0  0  0  0  0  0  0  0
   -8.4057    4.4343   -7.3485 C   0  0  0  0  0  0  0  0  0  0  0  0
   -9.5669    4.9169   -6.6731 C   0  0  0  0  0  0  0  0  0  0  0  0
   -9.4668    5.6170   -5.6807 O   0  0  0  0  0  0  0  0  0  0  0  0
   -6.9540    4.5573   -7.1709 C   0  0  0  0  0  0  0  0  0  0  0  0
   -6.2198    5.3290   -6.1065 C   0  0  0  0  0  0  0  0  0  0  0  0
   -6.9477    5.2273   -4.8347 N   0  0  0  0  0  0  0  0  0  0  0  0
   -6.3985    3.8434   -8.1578 C   0  0  0  0  0  0  0  0  0  0  0  0
   -7.3678    3.2931   -8.9534 N   0  0  0  0  0  0  0  0  0  0  0  0
  -12.1942    3.4836   -8.7538 N   0  0  0  0  0  0  0  0  0  0  0  0
  1  6  1  0  0  0  0
  2  1  1  0  0  0  0
  3  4  1  0  0  0  0
  3  2  2  0  0  0  0
  4  5  2  0  0  0  0
  5  8  1  0  0  0  0
  5  6  1  0  0  0  0
  6  7  2  0  0  0  0
  8  9  1  0  0  0  0
  9 10  1  0  0  0  0
 11  8  2  0  0  0  0
 12  4  1  0  0  0  0
 12 11  1  0  0  0  0
 13  2  1  0  0  0  0
M  END
>  <CHROM.1>
37.01777853,117.95551865,-8.79599269,4.32410247,-7.38624819,2.62762019,0.02393181
-2.10895688

>  <Name>
lig.pdb

>  <RI>
4.2128e+07

>  <Rbt.Current_Directory>
/home/itssahil/PROJECTS/Mol_Feturizer/New_Systems/rnas/2miy

>  <Rbt.Executable>
rbdock ($Id: //depot/dev/client3/rdock/2013.1/src/exe/rbdock.cxx#4 $)

>  <Rbt.Library>
libRbt.so (2013.1, Build901 2013/11/27)

>  <Rbt.Parameter_File>
/export/apps/rDock/src/rDock_2013.1_src/data/scripts/dock_solv.prm

>  <Rbt.Receptor>
prm/pocket_docking_5.prm

>  <SCORE>
-48.6827

>  <SCORE.INTER>
-48.0149

>  <SCORE.INTER.CONST>
1

>  <SCORE.INTER.POLAR>
-5.46256

>  <SCORE.INTER.ROT>
2

>  <SCORE.INTER.SOLV>
17.7326

>  <SCORE.INTER.VDW>
-24.6456

>  <SCORE.INTER.norm>
-3.69346

>  <SCORE.INTRA>
-0.705784

>  <SCORE.INTRA.DIHEDRAL>
0.385362

>  <SCORE.INTRA.DIHEDRAL.0>
1.76676

>  <SCORE.INTRA.POLAR>
-0.322231

>  <SCORE.INTRA.POLAR.0>
-0.472211

>  <SCORE.INTRA.REPUL>
0

>  <SCORE.INTRA.REPUL.0>
0

>  <SCORE.INTRA.SOLV>
0.0763777

>  <SCORE.INTRA.SOLV.lig_0>
-22.5855

>  <SCORE.INTRA.VDW>
0.158933

>  <SCORE.INTRA.VDW.0>
-0.733656

>  <SCORE.INTRA.norm>
-0.054291

>  <SCORE.RESTR>
0.0379881

>  <SCORE.RESTR.CAVITY>
0.0379881

>  <SCORE.RESTR.norm>
0.00292216

>  <SCORE.SYSTEM>
0

>  <SCORE.SYSTEM.CONST>
0

>  <SCORE.SYSTEM.DIHEDRAL>
0

>  <SCORE.SYSTEM.SOLV>
0

>  <SCORE.SYSTEM.norm>
0

>  <SCORE.heavy>
13

>  <SCORE.norm>
-3.74482

>  <RMSD>
0.720

$$$$
lig.pdb
 OpenBabel11021811453D
libRbt.so/2013.1/901 2013/11/27
 13 14  0  0  0  0  0  0  0  0999 V2000
  -10.8086    4.5584   -7.1742 N   0  0  0  0  0  0  0  0  0  0  0  0
  -10.9510    3.7564   -8.2709 C   0  0  0  0  0  0  0  0  0  0  0  0
   -9.8857    3.2900   -8.8974 N   0  0  0  0  0  0  0  0  0  0  0  0
   -8.6139    3.5833   -8.4876 C   0  0  0  0  0  0  0  0  0  0  0  0
   -8.4084    4.4149   -7.3600 C   0  0  0  0  0  0  0  0  0  0  0  0
   -9.5654    4.9135   -6.6887 C   0  0  0  0  0  0  0  0  0  0  0  0
   -9.4589    5.6356   -5.7129 O   0  0  0  0  0  0  0  0  0  0  0  0
   -6.9557    4.5407   -7.1937 C   0  0  0  0  0  0  0  0  0  0  0  0
   -6.2146    5.3355   -6.1512 C   0  0  0  0  0  0  0  0  0  0  0  0
   -6.9326    5.2591   -4.8720 N   0  0  0  0  0  0  0  0  0  0  0  0
   -6.4064    3.8044   -8.1676 C   0  0  0  0  0  0  0  0  0  0  0  0
   -7.3808    3.2372   -8.9449 N   0  0  0  0  0  0  0  0  0  0  0  0
  -12.2058    3.4362   -8.7213 N   0  0  0  0  0  0  0  0  0  0  0  0
  1  6  1  0  0  0  0
  2  1  1  0  0  0  0
  3  4  1  0  0  0  0
  3  2  2  0  0  0  0
  4  5  2  0  0  0  0
  5  8  1  0  0  0  0
  5  6  1  0  0  0  0
  6  7  2  0  0  0  0
  8  9  1  0  0  0  0
  9 10  1  0  0  0  0
 11  8  2  0  0  0  0
 12  4  1  0  0  0  0
 12 11  1  0  0  0  0
 13  2  1  0  0  0  0
M  END
>  <CHROM.1>
37.21216009,-60.31421634,-8.79874529,4.30407454,-7.39278633,2.63300355,0.02160389
-2.13121814

>  <Name>
lig.pdb

>  <RI>
9.06885e+06

>  <Rbt.Current_Directory>
/home/itssahil/PROJECTS/Mol_Feturizer/New_Systems/rnas/2miy

>  <Rbt.Executable>
rbdock ($Id: //depot/dev/client3/rdock/2013.1/src/exe/rbdock.cxx#4 $)

>  <Rbt.Library>
libRbt.so (2013.1, Build901 2013/11/27)

>  <Rbt.Parameter_File>
/export/apps/rDock/src/rDock_2013.1_src/data/scripts/dock_solv.prm

>  <Rbt.Receptor>
prm/pocket_docking_6.prm

>  <SCORE>
-48.8184

>  <SCORE.INTER>
-48.1173

>  <SCORE.INTER.CONST>
1

>  <SCORE.INTER.POLAR>
-5.49497

>  <SCORE.INTER.ROT>
2

>  <SCORE.INTER.SOLV>
17.815

>  <SCORE.INTER.VDW>
-24.6333

>  <SCORE.INTER.norm>
-3.70133

>  <SCORE.INTRA>
-0.701098

>  <SCORE.INTRA.DIHEDRAL>
0.377107

>  <SCORE.INTRA.DIHEDRAL.0>
1.76676

>  <SCORE.INTRA.POLAR>
-0.319533

>  <SCORE.INTRA.POLAR.0>
-0.472211

>  <SCORE.INTRA.REPUL>
0

>  <SCORE.INTRA.REPUL.0>
0

>  <SCORE.INTRA.SOLV>
0.0739419

>  <SCORE.INTRA.SOLV.lig_0>
-22.5855

>  <SCORE.INTRA.VDW>
0.15979

>  <SCORE.INTRA.VDW.0>
-0.733656

>  <SCORE.INTRA.norm>
-0.0539307

>  <SCORE.RESTR>
0

>  <SCORE.RESTR.CAVITY>
0

>  <SCORE.RESTR.norm>
0

>  <SCORE.SYSTEM>
0

>  <SCORE.SYSTEM.CONST>
0

>  <SCORE.SYSTEM.DIHEDRAL>
0

>  <SCORE.SYSTEM.SOLV>
0

>  <SCORE.SYSTEM.norm>
0

>  <SCORE.heavy>
13

>  <SCORE.norm>
-3.75526

>  <RMSD>
0.720

$$$$
lig.pdb
 OpenBabel11021811453D
libRbt.so/2013.1/901 2013/11/27
 13 14  0  0  0  0  0  0  0  0999 V2000
  -10.8100    4.5506   -7.1797 N   0  0  0  0  0  0  0  0  0  0  0  0
  -10.9495    3.7467   -8.2754 C   0  0  0  0  0  0  0  0  0  0  0  0
   -9.8825    3.2821   -8.9004 N   0  0  0  0  0  0  0  0  0  0  0  0
   -8.6118    3.5791   -8.4899 C   0  0  0  0  0  0  0  0  0  0  0  0
   -8.4093    4.4128   -7.3633 C   0  0  0  0  0  0  0  0  0  0  0  0
   -9.5680    4.9095   -6.6937 C   0  0  0  0  0  0  0  0  0  0  0  0
   -9.4642    5.6331   -5.7187 O   0  0  0  0  0  0  0  0  0  0  0  0
   -6.9570    4.5424   -7.1960 C   0  0  0  0  0  0  0  0  0  0  0  0
   -6.2188    5.3405   -6.1539 C   0  0  0  0  0  0  0  0  0  0  0  0
   -6.9369    5.2627   -4.8748 N   0  0  0  0  0  0  0  0  0  0  0  0
   -6.4051    3.8061   -8.1683 C   0  0  0  0  0  0  0  0  0  0  0  0
   -7.3775    3.2355   -8.9457 N   0  0  0  0  0  0  0  0  0  0  0  0
  -12.2031    3.4228   -8.7264 N   0  0  0  0  0  0  0  0  0  0  0  0
  1  6  1  0  0  0  0
  2  1  1  0  0  0  0
  3  4  1  0  0  0  0
  3  2  2  0  0  0  0
  4  5  2  0  0  0  0
  5  8  1  0  0  0  0
  5  6  1  0  0  0  0
  6  7  2  0  0  0  0
  8  9  1  0  0  0  0
  9 10  1  0  0  0  0
 11  8  2  0  0  0  0
 12  4  1  0  0  0  0
 12 11  1  0  0  0  0
 13  2  1  0  0  0  0
M  END
>  <CHROM.1>
37.27572746,118.34964089,-8.79932647,4.30067287,-7.39624677,2.63122167,0.02003231
-2.13238806

>  <Name>
lig.pdb

>  <RI>
9.06885e+06

>  <Rbt.Current_Directory>
/home/itssahil/PROJECTS/Mol_Feturizer/New_Systems/rnas/2miy

>  <Rbt.Executable>
rbdock ($Id: //depot/dev/client3/rdock/2013.1/src/exe/rbdock.cxx#4 $)

>  <Rbt.Library>
libRbt.so (2013.1, Build901 2013/11/27)

>  <Rbt.Parameter_File>
/export/apps/rDock/src/rDock_2013.1_src/data/scripts/dock_solv.prm

>  <Rbt.Receptor>
prm/pocket_docking_6.prm

>  <SCORE>
-48.8207

>  <SCORE.INTER>
-48.1137

>  <SCORE.INTER.CONST>
1

>  <SCORE.INTER.POLAR>
-5.46059

>  <SCORE.INTER.ROT>
2

>  <SCORE.INTER.SOLV>
17.8232

>  <SCORE.INTER.VDW>
-24.7483

>  <SCORE.INTER.norm>
-3.70106

>  <SCORE.INTRA>
-0.706954

>  <SCORE.INTRA.DIHEDRAL>
0.372108

>  <SCORE.INTRA.DIHEDRAL.0>
1.76676

>  <SCORE.INTRA.POLAR>
-0.318891

>  <SCORE.INTRA.POLAR.0>
-0.472211

>  <SCORE.INTRA.REPUL>
0

>  <SCORE.INTRA.REPUL.0>
0

>  <SCORE.INTRA.SOLV>
0.0741468

>  <SCORE.INTRA.SOLV.lig_0>
-22.5855

>  <SCORE.INTRA.VDW>
0.154149

>  <SCORE.INTRA.VDW.0>
-0.733656

>  <SCORE.INTRA.norm>
-0.0543811

>  <SCORE.RESTR>
0

>  <SCORE.RESTR.CAVITY>
0

>  <SCORE.RESTR.norm>
0

>  <SCORE.SYSTEM>
0

>  <SCORE.SYSTEM.CONST>
0

>  <SCORE.SYSTEM.DIHEDRAL>
0

>  <SCORE.SYSTEM.SOLV>
0

>  <SCORE.SYSTEM.norm>
0

>  <SCORE.heavy>
13

>  <SCORE.norm>
-3.75544

>  <RMSD>
0.720

$$$$
lig.pdb
 OpenBabel11021811453D
libRbt.so/2013.1/901 2013/11/27
 13 14  0  0  0  0  0  0  0  0999 V2000
  -10.8067    4.5731   -7.1737 N   0  0  0  0  0  0  0  0  0  0  0  0
  -10.9408    3.7977   -8.2904 C   0  0  0  0  0  0  0  0  0  0  0  0
   -9.8707    3.3489   -8.9216 N   0  0  0  0  0  0  0  0  0  0  0  0
   -8.6021    3.6349   -8.4972 C   0  0  0  0  0  0  0  0  0  0  0  0
   -8.4052    4.4393   -7.3485 C   0  0  0  0  0  0  0  0  0  0  0  0
   -9.5672    4.9189   -6.6723 C   0  0  0  0  0  0  0  0  0  0  0  0
   -9.4682    5.6173   -5.6785 O   0  0  0  0  0  0  0  0  0  0  0  0
   -6.9538    4.5641   -7.1705 C   0  0  0  0  0  0  0  0  0  0  0  0
   -6.2207    5.3349   -6.1045 C   0  0  0  0  0  0  0  0  0  0  0  0
   -6.9475    5.2279   -4.8325 N   0  0  0  0  0  0  0  0  0  0  0  0
   -6.3970    3.8529   -8.1586 C   0  0  0  0  0  0  0  0  0  0  0  0
   -7.3655    3.3027   -8.9554 N   0  0  0  0  0  0  0  0  0  0  0  0
  -12.1922    3.4859   -8.7560 N   0  0  0  0  0  0  0  0  0  0  0  0
  1  6  1  0  0  0  0
  2  1  1  0  0  0  0
  3  4  1  0  0  0  0
  3  2  2  0  0  0  0
  4  5  2  0  0  0  0
  5  8  1  0  0  0  0
  5  6  1  0  0  0  0
  6  7  2  0  0  0  0
  8  9  1  0  0  0  0
  9 10  1  0  0  0  0
 11  8  2  0  0  0  0
 12  4  1  0  0  0  0
 12 11  1  0  0  0  0
 13  2  1  0  0  0  0
M  END
>  <CHROM.1>
37.10600933,-60.82485529,-8.79518604,4.32861311,-7.38638511,2.62666650,0.02277631
-2.10695708

>  <Name>
lig.pdb

>  <RI>
1.51961e+07

>  <Rbt.Current_Directory>
/home/itssahil/PROJECTS/Mol_Feturizer/New_Systems/rnas/2miy

>  <Rbt.Executable>
rbdock ($Id: //depot/dev/client3/rdock/2013.1/src/exe/rbdock.cxx#4 $)

>  <Rbt.Library>
libRbt.so (2013.1, Build901 2013/11/27)

>  <Rbt.Parameter_File>
/export/apps/rDock/src/rDock_2013.1_src/data/scripts/dock_solv.prm

>  <Rbt.Receptor>
prm/pocket_docking_3.prm

>  <SCORE>
-48.6575

>  <SCORE.INTER>
-47.9873

>  <SCORE.INTER.CONST>
1

>  <SCORE.INTER.POLAR>
-5.45043

>  <SCORE.INTER.ROT>
2

>  <SCORE.INTER.SOLV>
17.7373

>  <SCORE.INTER.VDW>
-24.6692

>  <SCORE.INTER.norm>
-3.69133

>  <SCORE.INTRA>
-0.701615

>  <SCORE.INTRA.DIHEDRAL>
0.383628

>  <SCORE.INTRA.DIHEDRAL.0>
1.76676

>  <SCORE.INTRA.POLAR>
-0.320744

>  <SCORE.INTRA.POLAR.0>
-0.472211

>  <SCORE.INTRA.REPUL>
0

>  <SCORE.INTRA.REPUL.0>
0

>  <SCORE.INTRA.SOLV>
0.0747473

>  <SCORE.INTRA.SOLV.lig_0>
-22.5855

>  <SCORE.INTRA.VDW>
0.159726

>  <SCORE.INTRA.VDW.0>
-0.733656

>  <SCORE.INTRA.norm>
-0.0539704

>  <SCORE.RESTR>
0.0313895

>  <SCORE.RESTR.CAVITY>
0.0313895

>  <SCORE.RESTR.norm>
0.00241458

>  <SCORE.SYSTEM>
0

>  <SCORE.SYSTEM.CONST>
0

>  <SCORE.SYSTEM.DIHEDRAL>
0

>  <SCORE.SYSTEM.SOLV>
0

>  <SCORE.SYSTEM.norm>
0

>  <SCORE.heavy>
13

>  <SCORE.norm>
-3.74288

>  <RMSD>
0.721

$$$$
lig.pdb
 OpenBabel11021811453D
libRbt.so/2013.1/901 2013/11/27
 13 14  0  0  0  0  0  0  0  0999 V2000
  -10.8087    4.5489   -7.1940 N   0  0  0  0  0  0  0  0  0  0  0  0
  -10.9422    3.7574   -8.2995 C   0  0  0  0  0  0  0  0  0  0  0  0
   -9.8718    3.2960   -8.9211 N   0  0  0  0  0  0  0  0  0  0  0  0
   -8.6035    3.5843   -8.4974 C   0  0  0  0  0  0  0  0  0  0  0  0
   -8.4072    4.4050   -7.3602 C   0  0  0  0  0  0  0  0  0  0  0  0
   -9.5695    4.8982   -6.6944 C   0  0  0  0  0  0  0  0  0  0  0  0
   -9.4710    5.6109   -5.7108 O   0  0  0  0  0  0  0  0  0  0  0  0
   -6.9558    4.5279   -7.1801 C   0  0  0  0  0  0  0  0  0  0  0  0
   -6.2233    5.3121   -6.1236 C   0  0  0  0  0  0  0  0  0  0  0  0
   -6.9559    5.2295   -4.8531 N   0  0  0  0  0  0  0  0  0  0  0  0
   -6.3987    3.8004   -8.1560 C   0  0  0  0  0  0  0  0  0  0  0  0
   -7.3667    3.2415   -8.9472 N   0  0  0  0  0  0  0  0  0  0  0  0
  -12.1933    3.4427   -8.7639 N   0  0  0  0  0  0  0  0  0  0  0  0
  1  6  1  0  0  0  0
  2  1  1  0  0  0  0
  3  4  1  0  0  0  0
  3  2  2  0  0  0  0
  4  5  2  0  0  0  0
  5  8  1  0  0  0  0
  5  6  1  0  0  0  0
  6  7  2  0  0  0  0
  8  9  1  0  0  0  0
  9 10  1  0  0  0  0
 11  8  2  0  0  0  0
 12  4  1  0  0  0  0
 12 11  1  0  0  0  0
 13  2  1  0  0  0  0
M  END
>  <CHROM.1>
36.94221431,-59.81456663,-8.79759157,4.29531657,-7.39761583,2.62578945,0.02674719
-2.12198098

>  <Name>
lig.pdb

>  <RI>
2.95488e+07

>  <Rbt.Current_Directory>
/home/itssahil/PROJECTS/Mol_Feturizer/New_Systems/rnas/2miy

>  <Rbt.Executable>
rbdock ($Id: //depot/dev/client3/rdock/2013.1/src/exe/rbdock.cxx#4 $)

>  <Rbt.Library>
libRbt.so (2013.1, Build901 2013/11/27)

>  <Rbt.Parameter_File>
/export/apps/rDock/src/rDock_2013.1_src/data/scripts/dock_solv.prm

>  <Rbt.Receptor>
prm/blind_docking_20.prm

>  <SCORE>
-48.8134

>  <SCORE.INTER>
-48.1224

>  <SCORE.INTER.CONST>
1

>  <SCORE.INTER.POLAR>
-5.41936

>  <SCORE.INTER.ROT>
2

>  <SCORE.INTER.SOLV>
17.7474

>  <SCORE.INTER.VDW>
-24.8662

>  <SCORE.INTER.norm>
-3.70172

>  <SCORE.INTRA>
-0.697336

>  <SCORE.INTRA.DIHEDRAL>
0.390858

>  <SCORE.INTRA.DIHEDRAL.0>
1.76676

>  <SCORE.INTRA.POLAR>
-0.323939

>  <SCORE.INTRA.POLAR.0>
-0.472211

>  <SCORE.INTRA.REPUL>
0

>  <SCORE.INTRA.REPUL.0>
0

>  <SCORE.INTRA.SOLV>
0.0765268

>  <SCORE.INTRA.SOLV.lig_0>
-22.5855

>  <SCORE.INTRA.VDW>
0.170364

>  <SCORE.INTRA.VDW.0>
-0.733656

>  <SCORE.INTRA.norm>
-0.0536412

>  <SCORE.RESTR>
0.00635693

>  <SCORE.RESTR.CAVITY>
0.00635693

>  <SCORE.RESTR.norm>
0.000488995

>  <SCORE.SYSTEM>
0

>  <SCORE.SYSTEM.CONST>
0

>  <SCORE.SYSTEM.DIHEDRAL>
0

>  <SCORE.SYSTEM.SOLV>
0

>  <SCORE.SYSTEM.norm>
0

>  <SCORE.heavy>
13

>  <SCORE.norm>
-3.75487

>  <RMSD>
0.722

$$$$
lig.pdb
 OpenBabel11021811453D
libRbt.so/2013.1/901 2013/11/27
 13 14  0  0  0  0  0  0  0  0999 V2000
  -10.8093    4.5633   -7.1797 N   0  0  0  0  0  0  0  0  0  0  0  0
  -10.9526    3.7575   -8.2736 C   0  0  0  0  0  0  0  0  0  0  0  0
   -9.8879    3.2880   -8.8986 N   0  0  0  0  0  0  0  0  0  0  0  0
   -8.6157    3.5817   -8.4901 C   0  0  0  0  0  0  0  0  0  0  0  0
   -8.4093    4.4171   -7.3655 C   0  0  0  0  0  0  0  0  0  0  0  0
   -9.5657    4.9191   -6.6958 C   0  0  0  0  0  0  0  0  0  0  0  0
   -9.4584    5.6445   -5.7225 O   0  0  0  0  0  0  0  0  0  0  0  0
   -6.9564    4.5423   -7.2000 C   0  0  0  0  0  0  0  0  0  0  0  0
   -6.2145    5.3401   -6.1604 C   0  0  0  0  0  0  0  0  0  0  0  0
   -6.9388    5.2790   -4.8840 N   0  0  0  0  0  0  0  0  0  0  0  0
   -6.4080    3.8020   -8.1713 C   0  0  0  0  0  0  0  0  0  0  0  0
   -7.3830    3.2329   -8.9465 N   0  0  0  0  0  0  0  0  0  0  0  0
  -12.2078    3.4368   -8.7226 N   0  0  0  0  0  0  0  0  0  0  0  0
  1  6  1  0  0  0  0
  2  1  1  0  0  0  0
  3  4  1  0  0  0  0
  3  2  2  0  0  0  0
  4  5  2  0  0  0  0
  5  8  1  0  0  0  0
  5  6  1  0  0  0  0
  6  7  2  0  0  0  0
  8  9  1  0  0  0  0
  9 10  1  0  0  0  0
 11  8  2  0  0  0  0
 12  4  1  0  0  0  0
 12 11  1  0  0  0  0
 13  2  1  0  0  0  0
M  END
>  <CHROM.1>
36.69583988,-60.88757034,-8.80034766,4.30741951,-7.39813068,2.63321363,0.02188501
-2.13566594

>  <Name>
lig.pdb

>  <RI>
0

>  <Rbt.Current_Directory>
/home/itssahil/PROJECTS/Mol_Feturizer/New_Systems/rnas/2miy

>  <Rbt.Executable>
rbdock ($Id: //depot/dev/client3/rdock/2013.1/src/exe/rbdock.cxx#4 $)

>  <Rbt.Library>
libRbt.so (2013.1, Build901 2013/11/27)

>  <Rbt.Parameter_File>
/export/apps/rDock/src/rDock_2013.1_src/data/scripts/dock_solv.prm

>  <Rbt.Receptor>
prm/pocket_docking_2.prm

>  <SCORE>
-48.8678

>  <SCORE.INTER>
-48.1705

>  <SCORE.INTER.CONST>
1

>  <SCORE.INTER.POLAR>
-5.50951

>  <SCORE.INTER.ROT>
2

>  <SCORE.INTER.SOLV>
17.8473

>  <SCORE.INTER.VDW>
-24.6311

>  <SCORE.INTER.norm>
-3.70543

>  <SCORE.INTRA>
-0.697258

>  <SCORE.INTRA.DIHEDRAL>
0.405904

>  <SCORE.INTRA.DIHEDRAL.0>
1.76676

>  <SCORE.INTRA.POLAR>
-0.326542

>  <SCORE.INTRA.POLAR.0>
-0.472211

>  <SCORE.INTRA.REPUL>
0

>  <SCORE.INTRA.REPUL.0>
0

>  <SCORE.INTRA.SOLV>
0.0784155

>  <SCORE.INTRA.SOLV.lig_0>
-22.5855

>  <SCORE.INTRA.VDW>
0.170825

>  <SCORE.INTRA.VDW.0>
-0.733656

>  <SCORE.INTRA.norm>
-0.0536352

>  <SCORE.RESTR>
0

>  <SCORE.RESTR.CAVITY>
0

>  <SCORE.RESTR.norm>
0

>  <SCORE.SYSTEM>
0

>  <SCORE.SYSTEM.CONST>
0

>  <SCORE.SYSTEM.DIHEDRAL>
0

>  <SCORE.SYSTEM.SOLV>
0

>  <SCORE.SYSTEM.norm>
0

>  <SCORE.heavy>
13

>  <SCORE.norm>
-3.75906

>  <RMSD>
0.722

$$$$
lig.pdb
 OpenBabel11021811453D
libRbt.so/2013.1/901 2013/11/27
 13 14  0  0  0  0  0  0  0  0999 V2000
  -10.8062    4.5753   -7.1752 N   0  0  0  0  0  0  0  0  0  0  0  0
  -10.9408    3.7990   -8.2912 C   0  0  0  0  0  0  0  0  0  0  0  0
   -9.8710    3.3488   -8.9220 N   0  0  0  0  0  0  0  0  0  0  0  0
   -8.6022    3.6343   -8.4977 C   0  0  0  0  0  0  0  0  0  0  0  0
   -8.4048    4.4396   -7.3497 C   0  0  0  0  0  0  0  0  0  0  0  0
   -9.5665    4.9207   -6.6740 C   0  0  0  0  0  0  0  0  0  0  0  0
   -9.4671    5.6199   -5.6809 O   0  0  0  0  0  0  0  0  0  0  0  0
   -6.9533    4.5635   -7.1717 C   0  0  0  0  0  0  0  0  0  0  0  0
   -6.2197    5.3346   -6.1064 C   0  0  0  0  0  0  0  0  0  0  0  0
   -6.9464    5.2289   -4.8342 N   0  0  0  0  0  0  0  0  0  0  0  0
   -6.3970    3.8509   -8.1591 C   0  0  0  0  0  0  0  0  0  0  0  0
   -7.3658    3.3007   -8.9555 N   0  0  0  0  0  0  0  0  0  0  0  0
  -12.1924    3.4877   -8.7566 N   0  0  0  0  0  0  0  0  0  0  0  0
  1  6  1  0  0  0  0
  2  1  1  0  0  0  0
  3  4  1  0  0  0  0
  3  2  2  0  0  0  0
  4  5  2  0  0  0  0
  5  8  1  0  0  0  0
  5  6  1  0  0  0  0
  6  7  2  0  0  0  0
  8  9  1  0  0  0  0
  9 10  1  0  0  0  0
 11  8  2  0  0  0  0
 12  4  1  0  0  0  0
 12 11  1  0  0  0  0
 13  2  1  0  0  0  0
M  END
>  <CHROM.1>
37.13077560,119.05821015,-8.79488682,4.32898280,-7.38755000,2.62718329,0.02348887
-2.10774387

>  <Name>
lig.pdb

>  <RI>
1.51961e+07

>  <Rbt.Current_Directory>
/home/itssahil/PROJECTS/Mol_Feturizer/New_Systems/rnas/2miy

>  <Rbt.Executable>
rbdock ($Id: //depot/dev/client3/rdock/2013.1/src/exe/rbdock.cxx#4 $)

>  <Rbt.Library>
libRbt.so (2013.1, Build901 2013/11/27)

>  <Rbt.Parameter_File>
/export/apps/rDock/src/rDock_2013.1_src/data/scripts/dock_solv.prm

>  <Rbt.Receptor>
prm/pocket_docking_3.prm

>  <SCORE>
-48.6633

>  <SCORE.INTER>
-47.9937

>  <SCORE.INTER.CONST>
1

>  <SCORE.INTER.POLAR>
-5.45764

>  <SCORE.INTER.ROT>
2

>  <SCORE.INTER.SOLV>
17.745

>  <SCORE.INTER.VDW>
-24.652

>  <SCORE.INTER.norm>
-3.69182

>  <SCORE.INTRA>
-0.702412

>  <SCORE.INTRA.DIHEDRAL>
0.381023

>  <SCORE.INTRA.DIHEDRAL.0>
1.76676

>  <SCORE.INTRA.POLAR>
-0.321502

>  <SCORE.INTRA.POLAR.0>
-0.472211

>  <SCORE.INTRA.REPUL>
0

>  <SCORE.INTRA.REPUL.0>
0

>  <SCORE.INTRA.SOLV>
0.0756496

>  <SCORE.INTRA.SOLV.lig_0>
-22.5855

>  <SCORE.INTRA.VDW>
0.162359

>  <SCORE.INTRA.VDW.0>
-0.733656

>  <SCORE.INTRA.norm>
-0.0540317

>  <SCORE.RESTR>
0.0328146

>  <SCORE.RESTR.CAVITY>
0.0328146

>  <SCORE.RESTR.norm>
0.0025242

>  <SCORE.SYSTEM>
0

>  <SCORE.SYSTEM.CONST>
0

>  <SCORE.SYSTEM.DIHEDRAL>
0

>  <SCORE.SYSTEM.SOLV>
0

>  <SCORE.SYSTEM.norm>
0

>  <SCORE.heavy>
13

>  <SCORE.norm>
-3.74333

>  <RMSD>
0.722

$$$$
lig.pdb
 OpenBabel11021811453D
libRbt.so/2013.1/901 2013/11/27
 13 14  0  0  0  0  0  0  0  0999 V2000
  -10.8101    4.5602   -7.1758 N   0  0  0  0  0  0  0  0  0  0  0  0
  -10.9533    3.7546   -8.2698 C   0  0  0  0  0  0  0  0  0  0  0  0
   -9.8885    3.2858   -8.8953 N   0  0  0  0  0  0  0  0  0  0  0  0
   -8.6164    3.5802   -8.4871 C   0  0  0  0  0  0  0  0  0  0  0  0
   -8.4101    4.4155   -7.3625 C   0  0  0  0  0  0  0  0  0  0  0  0
   -9.5665    4.9166   -6.6922 C   0  0  0  0  0  0  0  0  0  0  0  0
   -9.4593    5.6419   -5.7188 O   0  0  0  0  0  0  0  0  0  0  0  0
   -6.9572    4.5415   -7.1974 C   0  0  0  0  0  0  0  0  0  0  0  0
   -6.2154    5.3395   -6.1579 C   0  0  0  0  0  0  0  0  0  0  0  0
   -6.9238    5.2539   -4.8740 N   0  0  0  0  0  0  0  0  0  0  0  0
   -6.4087    3.8018   -8.1691 C   0  0  0  0  0  0  0  0  0  0  0  0
   -7.3836    3.2323   -8.9440 N   0  0  0  0  0  0  0  0  0  0  0  0
  -12.2085    3.4333   -8.7184 N   0  0  0  0  0  0  0  0  0  0  0  0
  1  6  1  0  0  0  0
  2  1  1  0  0  0  0
  3  4  1  0  0  0  0
  3  2  2  0  0  0  0
  4  5  2  0  0  0  0
  5  8  1  0  0  0  0
  5  6  1  0  0  0  0
  6  7  2  0  0  0  0
  8  9  1  0  0  0  0
  9 10  1  0  0  0  0
 11  8  2  0  0  0  0
 12  4  1  0  0  0  0
 12 11  1  0  0  0  0
 13  2  1  0  0  0  0
M  END
>  <CHROM.1>
37.90521899,117.60026156,-8.79966087,4.30322496,-7.39431359,2.63437336,0.02204963
-2.13335298

>  <Name>
lig.pdb

>  <RI>
9.06885e+06

>  <Rbt.Current_Directory>
/home/itssahil/PROJECTS/Mol_Feturizer/New_Systems/rnas/2miy

>  <Rbt.Executable>
rbdock ($Id: //depot/dev/client3/rdock/2013.1/src/exe/rbdock.cxx#4 $)

>  <Rbt.Library>
libRbt.so (2013.1, Build901 2013/11/27)

>  <Rbt.Parameter_File>
/export/apps/rDock/src/rDock_2013.1_src/data/scripts/dock_solv.prm

>  <Rbt.Receptor>
prm/pocket_docking_6.prm

>  <SCORE>
-48.8452

>  <SCORE.INTER>
-48.1331

>  <SCORE.INTER.CONST>
1

>  <SCORE.INTER.POLAR>
-5.50896

>  <SCORE.INTER.ROT>
2

>  <SCORE.INTER.SOLV>
17.8378

>  <SCORE.INTER.VDW>
-24.6048

>  <SCORE.INTER.norm>
-3.70255

>  <SCORE.INTRA>
-0.712058

>  <SCORE.INTRA.DIHEDRAL>
0.337362

>  <SCORE.INTRA.DIHEDRAL.0>
1.76676

>  <SCORE.INTRA.POLAR>
-0.308312

>  <SCORE.INTRA.POLAR.0>
-0.472211

>  <SCORE.INTRA.REPUL>
0

>  <SCORE.INTRA.REPUL.0>
0

>  <SCORE.INTRA.SOLV>
0.0681915

>  <SCORE.INTRA.SOLV.lig_0>
-22.5855

>  <SCORE.INTRA.VDW>
0.133425

>  <SCORE.INTRA.VDW.0>
-0.733656

>  <SCORE.INTRA.norm>
-0.0547737

>  <SCORE.RESTR>
0

>  <SCORE.RESTR.CAVITY>
0

>  <SCORE.RESTR.norm>
0

>  <SCORE.SYSTEM>
0

>  <SCORE.SYSTEM.CONST>
0

>  <SCORE.SYSTEM.DIHEDRAL>
0

>  <SCORE.SYSTEM.SOLV>
0

>  <SCORE.SYSTEM.norm>
0

>  <SCORE.heavy>
13

>  <SCORE.norm>
-3.75732

>  <RMSD>
0.722

$$$$
lig.pdb
 OpenBabel11021811453D
libRbt.so/2013.1/901 2013/11/27
 13 14  0  0  0  0  0  0  0  0999 V2000
  -10.8036    4.5757   -7.1836 N   0  0  0  0  0  0  0  0  0  0  0  0
  -10.9266    3.8582   -8.3397 C   0  0  0  0  0  0  0  0  0  0  0  0
   -9.8508    3.4236   -8.9711 N   0  0  0  0  0  0  0  0  0  0  0  0
   -8.5869    3.6679   -8.5080 C   0  0  0  0  0  0  0  0  0  0  0  0
   -8.4014    4.4117   -7.3174 C   0  0  0  0  0  0  0  0  0  0  0  0
   -9.5696    4.8764   -6.6414 C   0  0  0  0  0  0  0  0  0  0  0  0
   -9.4803    5.5235   -5.6127 O   0  0  0  0  0  0  0  0  0  0  0  0
   -6.9521    4.5041   -7.1049 C   0  0  0  0  0  0  0  0  0  0  0  0
   -6.2295    5.2097   -5.9879 C   0  0  0  0  0  0  0  0  0  0  0  0
   -6.7238    6.5884   -5.8759 N   0  0  0  0  0  0  0  0  0  0  0  0
   -6.3862    3.8332   -8.1157 C   0  0  0  0  0  0  0  0  0  0  0  0
   -7.3463    3.3385   -8.9576 N   0  0  0  0  0  0  0  0  0  0  0  0
  -12.1727    3.5900   -8.8447 N   0  0  0  0  0  0  0  0  0  0  0  0
  1  6  1  0  0  0  0
  2  1  1  0  0  0  0
  3  4  1  0  0  0  0
  3  2  2  0  0  0  0
  4  5  2  0  0  0  0
  5  8  1  0  0  0  0
  5  6  1  0  0  0  0
  6  7  2  0  0  0  0
  8  9  1  0  0  0  0
  9 10  1  0  0  0  0
 11  8  2  0  0  0  0
 12  4  1  0  0  0  0
 12 11  1  0  0  0  0
 13  2  1  0  0  0  0
M  END
>  <CHROM.1>
-51.27737371,3.69950170,-8.76783677,4.45261842,-7.47470089,2.63690063,-0.00055391
-2.23743152

>  <Name>
lig.pdb

>  <RI>
1.82164e+07

>  <Rbt.Current_Directory>
/home/itssahil/PROJECTS/Mol_Feturizer/New_Systems/rnas/2miy

>  <Rbt.Executable>
rbdock ($Id: //depot/dev/client3/rdock/2013.1/src/exe/rbdock.cxx#4 $)

>  <Rbt.Library>
libRbt.so (2013.1, Build901 2013/11/27)

>  <Rbt.Parameter_File>
/export/apps/rDock/src/rDock_2013.1_src/data/scripts/dock_solv.prm

>  <Rbt.Receptor>
prm/blind_docking_80.prm

>  <SCORE>
-47.4631

>  <SCORE.INTER>
-48.9915

>  <SCORE.INTER.CONST>
1

>  <SCORE.INTER.POLAR>
-5.69445

>  <SCORE.INTER.ROT>
2

>  <SCORE.INTER.SOLV>
19.7413

>  <SCORE.INTER.VDW>
-25.1933

>  <SCORE.INTER.norm>
-3.76858

>  <SCORE.INTRA>
1.52603

>  <SCORE.INTRA.DIHEDRAL>
-0.211953

>  <SCORE.INTRA.DIHEDRAL.0>
1.76676

>  <SCORE.INTRA.POLAR>
0.472211

>  <SCORE.INTRA.POLAR.0>
-0.472211

>  <SCORE.INTRA.REPUL>
0

>  <SCORE.INTRA.REPUL.0>
0

>  <SCORE.INTRA.SOLV>
-0.0755597

>  <SCORE.INTRA.SOLV.lig_0>
-22.5855

>  <SCORE.INTRA.VDW>
0.0642641

>  <SCORE.INTRA.VDW.0>
-0.733656

>  <SCORE.INTRA.norm>
0.117387

>  <SCORE.RESTR>
0.00237865

>  <SCORE.RESTR.CAVITY>
0.00237865

>  <SCORE.RESTR.norm>
0.000182973

>  <SCORE.SYSTEM>
0

>  <SCORE.SYSTEM.CONST>
0

>  <SCORE.SYSTEM.DIHEDRAL>
0

>  <SCORE.SYSTEM.SOLV>
0

>  <SCORE.SYSTEM.norm>
0

>  <SCORE.heavy>
13

>  <SCORE.norm>
-3.65101

>  <RMSD>
0.723

$$$$
lig.pdb
 OpenBabel11021811453D
libRbt.so/2013.1/901 2013/11/27
 13 14  0  0  0  0  0  0  0  0999 V2000
  -10.8081    4.5671   -7.1803 N   0  0  0  0  0  0  0  0  0  0  0  0
  -10.9514    3.7600   -8.2732 C   0  0  0  0  0  0  0  0  0  0  0  0
   -9.8867    3.2894   -8.8974 N   0  0  0  0  0  0  0  0  0  0  0  0
   -8.6146    3.5833   -8.4891 C   0  0  0  0  0  0  0  0  0  0  0  0
   -8.4081    4.4202   -7.3656 C   0  0  0  0  0  0  0  0  0  0  0  0
   -9.5645    4.9233   -6.6967 C   0  0  0  0  0  0  0  0  0  0  0  0
   -9.4572    5.6499   -5.7243 O   0  0  0  0  0  0  0  0  0  0  0  0
   -6.9552    4.5452   -7.2000 C   0  0  0  0  0  0  0  0  0  0  0  0
   -6.2132    5.3442   -6.1614 C   0  0  0  0  0  0  0  0  0  0  0  0
   -6.9390    5.2868   -4.8856 N   0  0  0  0  0  0  0  0  0  0  0  0
   -6.4068    3.8036   -8.1703 C   0  0  0  0  0  0  0  0  0  0  0  0
   -7.3819    3.2337   -8.9449 N   0  0  0  0  0  0  0  0  0  0  0  0
  -12.2066    3.4390   -8.7219 N   0  0  0  0  0  0  0  0  0  0  0  0
  1  6  1  0  0  0  0
  2  1  1  0  0  0  0
  3  4  1  0  0  0  0
  3  2  2  0  0  0  0
  4  5  2  0  0  0  0
  5  8  1  0  0  0  0
  5  6  1  0  0  0  0
  6  7  2  0  0  0  0
  8  9  1  0  0  0  0
  9 10  1  0  0  0  0
 11  8  2  0  0  0  0
 12  4  1  0  0  0  0
 12 11  1  0  0  0  0
 13  2  1  0  0  0  0
M  END
>  <CHROM.1>
36.59934026,-60.21330949,-8.79926256,4.31069890,-7.39816861,2.63313301,0.02207776
-2.13711004

>  <Name>
lig.pdb

>  <RI>
0

>  <Rbt.Current_Directory>
/home/itssahil/PROJECTS/Mol_Feturizer/New_Systems/rnas/2miy

>  <Rbt.Executable>
rbdock ($Id: //depot/dev/client3/rdock/2013.1/src/exe/rbdock.cxx#4 $)

>  <Rbt.Library>
libRbt.so (2013.1, Build901 2013/11/27)

>  <Rbt.Parameter_File>
/export/apps/rDock/src/rDock_2013.1_src/data/scripts/dock_solv.prm

>  <Rbt.Receptor>
prm/pocket_docking_2.prm

>  <SCORE>
-48.8448

>  <SCORE.INTER>
-48.1489

>  <SCORE.INTER.CONST>
1

>  <SCORE.INTER.POLAR>
-5.51658

>  <SCORE.INTER.ROT>
2

>  <SCORE.INTER.SOLV>
17.8585

>  <SCORE.INTER.VDW>
-24.5969

>  <SCORE.INTER.norm>
-3.70376

>  <SCORE.INTRA>
-0.695868

>  <SCORE.INTRA.DIHEDRAL>
0.410074

>  <SCORE.INTRA.DIHEDRAL.0>
1.76676

>  <SCORE.INTRA.POLAR>
-0.328927

>  <SCORE.INTRA.POLAR.0>
-0.472211

>  <SCORE.INTRA.REPUL>
0

>  <SCORE.INTRA.REPUL.0>
0

>  <SCORE.INTRA.SOLV>
0.0794819

>  <SCORE.INTRA.SOLV.lig_0>
-22.5855

>  <SCORE.INTRA.VDW>
0.177707

>  <SCORE.INTRA.VDW.0>
-0.733656

>  <SCORE.INTRA.norm>
-0.0535283

>  <SCORE.RESTR>
0

>  <SCORE.RESTR.CAVITY>
0

>  <SCORE.RESTR.norm>
0

>  <SCORE.SYSTEM>
0

>  <SCORE.SYSTEM.CONST>
0

>  <SCORE.SYSTEM.DIHEDRAL>
0

>  <SCORE.SYSTEM.SOLV>
0

>  <SCORE.SYSTEM.norm>
0

>  <SCORE.heavy>
13

>  <SCORE.norm>
-3.75729

>  <RMSD>
0.723

$$$$
lig.pdb
 OpenBabel11021811453D
libRbt.so/2013.1/901 2013/11/27
 13 14  0  0  0  0  0  0  0  0999 V2000
  -10.8060    4.5745   -7.1770 N   0  0  0  0  0  0  0  0  0  0  0  0
  -10.9415    3.7944   -8.2902 C   0  0  0  0  0  0  0  0  0  0  0  0
   -9.8723    3.3410   -8.9196 N   0  0  0  0  0  0  0  0  0  0  0  0
   -8.6031    3.6269   -8.4966 C   0  0  0  0  0  0  0  0  0  0  0  0
   -8.4048    4.4360   -7.3515 C   0  0  0  0  0  0  0  0  0  0  0  0
   -9.5659    4.9206   -6.6773 C   0  0  0  0  0  0  0  0  0  0  0  0
   -9.4656    5.6232   -5.6867 O   0  0  0  0  0  0  0  0  0  0  0  0
   -6.9531    4.5593   -7.1743 C   0  0  0  0  0  0  0  0  0  0  0  0
   -6.2186    5.3336   -6.1118 C   0  0  0  0  0  0  0  0  0  0  0  0
   -6.9421    5.2282   -4.8378 N   0  0  0  0  0  0  0  0  0  0  0  0
   -6.3976    3.8428   -8.1593 C   0  0  0  0  0  0  0  0  0  0  0  0
   -7.3671    3.2906   -8.9535 N   0  0  0  0  0  0  0  0  0  0  0  0
  -12.1935    3.4825   -8.7542 N   0  0  0  0  0  0  0  0  0  0  0  0
  1  6  1  0  0  0  0
  2  1  1  0  0  0  0
  3  4  1  0  0  0  0
  3  2  2  0  0  0  0
  4  5  2  0  0  0  0
  5  8  1  0  0  0  0
  5  6  1  0  0  0  0
  6  7  2  0  0  0  0
  8  9  1  0  0  0  0
  9 10  1  0  0  0  0
 11  8  2  0  0  0  0
 12  4  1  0  0  0  0
 12 11  1  0  0  0  0
 13  2  1  0  0  0  0
M  END
>  <CHROM.1>
37.37009128,-60.56754095,-8.79459275,4.32534791,-7.38871252,2.62782491,0.02427010
-2.11096263

>  <Name>
lig.pdb

>  <RI>
1.51961e+07

>  <Rbt.Current_Directory>
/home/itssahil/PROJECTS/Mol_Feturizer/New_Systems/rnas/2miy

>  <Rbt.Executable>
rbdock ($Id: //depot/dev/client3/rdock/2013.1/src/exe/rbdock.cxx#4 $)

>  <Rbt.Library>
libRbt.so (2013.1, Build901 2013/11/27)

>  <Rbt.Parameter_File>
/export/apps/rDock/src/rDock_2013.1_src/data/scripts/dock_solv.prm

>  <Rbt.Receptor>
prm/pocket_docking_3.prm

>  <SCORE>
-48.687

>  <SCORE.INTER>
-48.0236

>  <SCORE.INTER.CONST>
1

>  <SCORE.INTER.POLAR>
-5.46473

>  <SCORE.INTER.ROT>
2

>  <SCORE.INTER.SOLV>
17.7577

>  <SCORE.INTER.VDW>
-24.6526

>  <SCORE.INTER.norm>
-3.69413

>  <SCORE.INTRA>
-0.702757

>  <SCORE.INTRA.DIHEDRAL>
0.369036

>  <SCORE.INTRA.DIHEDRAL.0>
1.76676

>  <SCORE.INTRA.POLAR>
-0.31691

>  <SCORE.INTRA.POLAR.0>
-0.472211

>  <SCORE.INTRA.REPUL>
0

>  <SCORE.INTRA.REPUL.0>
0

>  <SCORE.INTRA.SOLV>
0.0724346

>  <SCORE.INTRA.SOLV.lig_0>
-22.5855

>  <SCORE.INTRA.VDW>
0.154002

>  <SCORE.INTRA.VDW.0>
-0.733656

>  <SCORE.INTRA.norm>
-0.0540582

>  <SCORE.RESTR>
0.0394377

>  <SCORE.RESTR.CAVITY>
0.0394377

>  <SCORE.RESTR.norm>
0.00303367

>  <SCORE.SYSTEM>
0

>  <SCORE.SYSTEM.CONST>
0

>  <SCORE.SYSTEM.DIHEDRAL>
0

>  <SCORE.SYSTEM.SOLV>
0

>  <SCORE.SYSTEM.norm>
0

>  <SCORE.heavy>
13

>  <SCORE.norm>
-3.74515

>  <RMSD>
0.723

$$$$
lig.pdb
 OpenBabel11021811453D
libRbt.so/2013.1/901 2013/11/27
 13 14  0  0  0  0  0  0  0  0999 V2000
  -10.8062    4.5749   -7.1739 N   0  0  0  0  0  0  0  0  0  0  0  0
  -10.9406    3.7997   -8.2908 C   0  0  0  0  0  0  0  0  0  0  0  0
   -9.8707    3.3508   -8.9222 N   0  0  0  0  0  0  0  0  0  0  0  0
   -8.6019    3.6366   -8.4979 C   0  0  0  0  0  0  0  0  0  0  0  0
   -8.4047    4.4407   -7.3491 C   0  0  0  0  0  0  0  0  0  0  0  0
   -9.5666    4.9205   -6.6726 C   0  0  0  0  0  0  0  0  0  0  0  0
   -9.4674    5.6186   -5.6788 O   0  0  0  0  0  0  0  0  0  0  0  0
   -6.9533    4.5653   -7.1713 C   0  0  0  0  0  0  0  0  0  0  0  0
   -6.2200    5.3358   -6.1053 C   0  0  0  0  0  0  0  0  0  0  0  0
   -6.9387    5.2165   -4.8298 N   0  0  0  0  0  0  0  0  0  0  0  0
   -6.3968    3.8542   -8.1596 C   0  0  0  0  0  0  0  0  0  0  0  0
   -7.3654    3.3042   -8.9564 N   0  0  0  0  0  0  0  0  0  0  0  0
  -12.1921    3.4881   -8.7562 N   0  0  0  0  0  0  0  0  0  0  0  0
  1  6  1  0  0  0  0
  2  1  1  0  0  0  0
  3  4  1  0  0  0  0
  3  2  2  0  0  0  0
  4  5  2  0  0  0  0
  5  8  1  0  0  0  0
  5  6  1  0  0  0  0
  6  7  2  0  0  0  0
  8  9  1  0  0  0  0
  9 10  1  0  0  0  0
 11  8  2  0  0  0  0
 12  4  1  0  0  0  0
 12 11  1  0  0  0  0
 13  2  1  0  0  0  0
M  END
>  <CHROM.1>
37.72619601,-62.27890458,-8.79400080,4.32899841,-7.38663441,2.62738130,0.02327393
-2.10578323

>  <Name>
lig.pdb

>  <RI>
1.51961e+07

>  <Rbt.Current_Directory>
/home/itssahil/PROJECTS/Mol_Feturizer/New_Systems/rnas/2miy

>  <Rbt.Executable>
rbdock ($Id: //depot/dev/client3/rdock/2013.1/src/exe/rbdock.cxx#4 $)

>  <Rbt.Library>
libRbt.so (2013.1, Build901 2013/11/27)

>  <Rbt.Parameter_File>
/export/apps/rDock/src/rDock_2013.1_src/data/scripts/dock_solv.prm

>  <Rbt.Receptor>
prm/pocket_docking_3.prm

>  <SCORE>
-48.6542

>  <SCORE.INTER>
-47.9803

>  <SCORE.INTER.CONST>
1

>  <SCORE.INTER.POLAR>
-5.45325

>  <SCORE.INTER.ROT>
2

>  <SCORE.INTER.SOLV>
17.7454

>  <SCORE.INTER.VDW>
-24.6578

>  <SCORE.INTER.norm>
-3.69079

>  <SCORE.INTRA>
-0.704505

>  <SCORE.INTRA.DIHEDRAL>
0.352749

>  <SCORE.INTRA.DIHEDRAL.0>
1.76676

>  <SCORE.INTRA.POLAR>
-0.309018

>  <SCORE.INTRA.POLAR.0>
-0.472211

>  <SCORE.INTRA.REPUL>
0

>  <SCORE.INTRA.REPUL.0>
0

>  <SCORE.INTRA.SOLV>
0.0686974

>  <SCORE.INTRA.SOLV.lig_0>
-22.5855

>  <SCORE.INTRA.VDW>
0.135433

>  <SCORE.INTRA.VDW.0>
-0.733656

>  <SCORE.INTRA.norm>
-0.0541927

>  <SCORE.RESTR>
0.0305773

>  <SCORE.RESTR.CAVITY>
0.0305773

>  <SCORE.RESTR.norm>
0.0023521

>  <SCORE.SYSTEM>
0

>  <SCORE.SYSTEM.CONST>
0

>  <SCORE.SYSTEM.DIHEDRAL>
0

>  <SCORE.SYSTEM.SOLV>
0

>  <SCORE.SYSTEM.norm>
0

>  <SCORE.heavy>
13

>  <SCORE.norm>
-3.74263

>  <RMSD>
0.723

$$$$
lig.pdb
 OpenBabel11021811453D
libRbt.so/2013.1/901 2013/11/27
 13 14  0  0  0  0  0  0  0  0999 V2000
  -10.8044    4.5711   -7.1762 N   0  0  0  0  0  0  0  0  0  0  0  0
  -10.9436    3.7770   -8.2791 C   0  0  0  0  0  0  0  0  0  0  0  0
   -9.8765    3.3166   -8.9070 N   0  0  0  0  0  0  0  0  0  0  0  0
   -8.6059    3.6086   -8.4926 C   0  0  0  0  0  0  0  0  0  0  0  0
   -8.4037    4.4322   -7.3585 C   0  0  0  0  0  0  0  0  0  0  0  0
   -9.5625    4.9243   -6.6858 C   0  0  0  0  0  0  0  0  0  0  0  0
   -9.4589    5.6393   -5.7044 O   0  0  0  0  0  0  0  0  0  0  0  0
   -6.9514    4.5586   -7.1885 C   0  0  0  0  0  0  0  0  0  0  0  0
   -6.2134    5.3467   -6.1388 C   0  0  0  0  0  0  0  0  0  0  0  0
   -6.9439    5.2757   -4.8663 N   0  0  0  0  0  0  0  0  0  0  0  0
   -6.3993    3.8303   -8.1667 C   0  0  0  0  0  0  0  0  0  0  0  0
   -7.3715    3.2675   -8.9501 N   0  0  0  0  0  0  0  0  0  0  0  0
  -12.1972    3.4585   -8.7343 N   0  0  0  0  0  0  0  0  0  0  0  0
  1  6  1  0  0  0  0
  2  1  1  0  0  0  0
  3  4  1  0  0  0  0
  3  2  2  0  0  0  0
  4  5  2  0  0  0  0
  5  8  1  0  0  0  0
  5  6  1  0  0  0  0
  6  7  2  0  0  0  0
  8  9  1  0  0  0  0
  9 10  1  0  0  0  0
 11  8  2  0  0  0  0
 12  4  1  0  0  0  0
 12 11  1  0  0  0  0
 13  2  1  0  0  0  0
M  END
>  <CHROM.1>
36.40874908,117.97821428,-8.79478687,4.32236924,-7.39336470,2.63023983,0.02100463
-2.12511061

>  <Name>
lig.pdb

>  <RI>
1.51961e+07

>  <Rbt.Current_Directory>
/home/itssahil/PROJECTS/Mol_Feturizer/New_Systems/rnas/2miy

>  <Rbt.Executable>
rbdock ($Id: //depot/dev/client3/rdock/2013.1/src/exe/rbdock.cxx#4 $)

>  <Rbt.Library>
libRbt.so (2013.1, Build901 2013/11/27)

>  <Rbt.Parameter_File>
/export/apps/rDock/src/rDock_2013.1_src/data/scripts/dock_solv.prm

>  <Rbt.Receptor>
prm/pocket_docking_3.prm

>  <SCORE>
-48.7134

>  <SCORE.INTER>
-48.0713

>  <SCORE.INTER.CONST>
1

>  <SCORE.INTER.POLAR>
-5.47582

>  <SCORE.INTER.ROT>
2

>  <SCORE.INTER.SOLV>
17.8202

>  <SCORE.INTER.VDW>
-24.6682

>  <SCORE.INTER.norm>
-3.69779

>  <SCORE.INTRA>
-0.697564

>  <SCORE.INTRA.DIHEDRAL>
0.418441

>  <SCORE.INTRA.DIHEDRAL.0>
1.76676

>  <SCORE.INTRA.POLAR>
-0.330586

>  <SCORE.INTRA.POLAR.0>
-0.472211

>  <SCORE.INTRA.REPUL>
0

>  <SCORE.INTRA.REPUL.0>
0

>  <SCORE.INTRA.SOLV>
0.0818523

>  <SCORE.INTRA.SOLV.lig_0>
-22.5855

>  <SCORE.INTRA.VDW>
0.176281

>  <SCORE.INTRA.VDW.0>
-0.733656

>  <SCORE.INTRA.norm>
-0.0536588

>  <SCORE.RESTR>
0.0554829

>  <SCORE.RESTR.CAVITY>
0.0554829

>  <SCORE.RESTR.norm>
0.00426792

>  <SCORE.SYSTEM>
0

>  <SCORE.SYSTEM.CONST>
0

>  <SCORE.SYSTEM.DIHEDRAL>
0

>  <SCORE.SYSTEM.SOLV>
0

>  <SCORE.SYSTEM.norm>
0

>  <SCORE.heavy>
13

>  <SCORE.norm>
-3.74718

>  <RMSD>
0.723

$$$$
lig.pdb
 OpenBabel11021811453D
libRbt.so/2013.1/901 2013/11/27
 13 14  0  0  0  0  0  0  0  0999 V2000
  -10.8064    4.5750   -7.1757 N   0  0  0  0  0  0  0  0  0  0  0  0
  -10.9416    3.7955   -8.2895 C   0  0  0  0  0  0  0  0  0  0  0  0
   -9.8721    3.3436   -8.9195 N   0  0  0  0  0  0  0  0  0  0  0  0
   -8.6031    3.6302   -8.4967 C   0  0  0  0  0  0  0  0  0  0  0  0
   -8.4051    4.4387   -7.3511 C   0  0  0  0  0  0  0  0  0  0  0  0
   -9.5664    4.9217   -6.6761 C   0  0  0  0  0  0  0  0  0  0  0  0
   -9.4665    5.6237   -5.6850 O   0  0  0  0  0  0  0  0  0  0  0  0
   -6.9535    4.5630   -7.1742 C   0  0  0  0  0  0  0  0  0  0  0  0
   -6.2194    5.3372   -6.1114 C   0  0  0  0  0  0  0  0  0  0  0  0
   -6.9431    5.2315   -4.8375 N   0  0  0  0  0  0  0  0  0  0  0  0
   -6.3977    3.8477   -8.1599 C   0  0  0  0  0  0  0  0  0  0  0  0
   -7.3669    3.2954   -8.9542 N   0  0  0  0  0  0  0  0  0  0  0  0
  -12.1934    3.4830   -8.7533 N   0  0  0  0  0  0  0  0  0  0  0  0
  1  6  1  0  0  0  0
  2  1  1  0  0  0  0
  3  4  1  0  0  0  0
  3  2  2  0  0  0  0
  4  5  2  0  0  0  0
  5  8  1  0  0  0  0
  5  6  1  0  0  0  0
  6  7  2  0  0  0  0
  8  9  1  0  0  0  0
  9 10  1  0  0  0  0
 11  8  2  0  0  0  0
 12  4  1  0  0  0  0
 12 11  1  0  0  0  0
 13  2  1  0  0  0  0
M  END
>  <CHROM.1>
37.30992406,-61.33356403,-8.79490995,4.32781513,-7.38825016,2.62760291,0.02335530
-2.11033651

>  <Name>
lig.pdb

>  <RI>
1.51961e+07

>  <Rbt.Current_Directory>
/home/itssahil/PROJECTS/Mol_Feturizer/New_Systems/rnas/2miy

>  <Rbt.Executable>
rbdock ($Id: //depot/dev/client3/rdock/2013.1/src/exe/rbdock.cxx#4 $)

>  <Rbt.Library>
libRbt.so (2013.1, Build901 2013/11/27)

>  <Rbt.Parameter_File>
/export/apps/rDock/src/rDock_2013.1_src/data/scripts/dock_solv.prm

>  <Rbt.Receptor>
prm/pocket_docking_3.prm

>  <SCORE>
-48.6771

>  <SCORE.INTER>
-48.0102

>  <SCORE.INTER.CONST>
1

>  <SCORE.INTER.POLAR>
-5.46112

>  <SCORE.INTER.ROT>
2

>  <SCORE.INTER.SOLV>
17.7593

>  <SCORE.INTER.VDW>
-24.6562

>  <SCORE.INTER.norm>
-3.69309

>  <SCORE.INTRA>
-0.703322

>  <SCORE.INTRA.DIHEDRAL>
0.373478

>  <SCORE.INTRA.DIHEDRAL.0>
1.76676

>  <SCORE.INTRA.POLAR>
-0.316983

>  <SCORE.INTRA.POLAR.0>
-0.472211

>  <SCORE.INTRA.REPUL>
0

>  <SCORE.INTRA.REPUL.0>
0

>  <SCORE.INTRA.SOLV>
0.072748

>  <SCORE.INTRA.SOLV.lig_0>
-22.5855

>  <SCORE.INTRA.VDW>
0.151309

>  <SCORE.INTRA.VDW.0>
-0.733656

>  <SCORE.INTRA.norm>
-0.0541017

>  <SCORE.RESTR>
0.0364257

>  <SCORE.RESTR.CAVITY>
0.0364257

>  <SCORE.RESTR.norm>
0.00280197

>  <SCORE.SYSTEM>
0

>  <SCORE.SYSTEM.CONST>
0

>  <SCORE.SYSTEM.DIHEDRAL>
0

>  <SCORE.SYSTEM.SOLV>
0

>  <SCORE.SYSTEM.norm>
0

>  <SCORE.heavy>
13

>  <SCORE.norm>
-3.74439

>  <RMSD>
0.723

$$$$
lig.pdb
 OpenBabel11021811453D
libRbt.so/2013.1/901 2013/11/27
 13 14  0  0  0  0  0  0  0  0999 V2000
  -10.8453    4.4493   -7.1108 N   0  0  0  0  0  0  0  0  0  0  0  0
  -10.9686    3.7032   -8.2486 C   0  0  0  0  0  0  0  0  0  0  0  0
   -9.8925    3.2956   -8.8973 N   0  0  0  0  0  0  0  0  0  0  0  0
   -8.6280    3.5967   -8.4707 C   0  0  0  0  0  0  0  0  0  0  0  0
   -8.4424    4.3722   -7.3005 C   0  0  0  0  0  0  0  0  0  0  0  0
   -9.6108    4.8073   -6.6055 C   0  0  0  0  0  0  0  0  0  0  0  0
   -9.5216    5.4791   -5.5928 O   0  0  0  0  0  0  0  0  0  0  0  0
   -6.9930    4.5231   -7.1257 C   0  0  0  0  0  0  0  0  0  0  0  0
   -6.2711    5.2788   -6.0416 C   0  0  0  0  0  0  0  0  0  0  0  0
   -6.6408    4.7306   -4.7300 N   0  0  0  0  0  0  0  0  0  0  0  0
   -6.4264    3.8523   -8.1363 C   0  0  0  0  0  0  0  0  0  0  0  0
   -7.3870    3.3043   -8.9440 N   0  0  0  0  0  0  0  0  0  0  0  0
  -12.2154    3.3779   -8.7170 N   0  0  0  0  0  0  0  0  0  0  0  0
  1  6  1  0  0  0  0
  2  1  1  0  0  0  0
  3  4  1  0  0  0  0
  3  2  2  0  0  0  0
  4  5  2  0  0  0  0
  5  8  1  0  0  0  0
  5  6  1  0  0  0  0
  6  7  2  0  0  0  0
  8  9  1  0  0  0  0
  9 10  1  0  0  0  0
 11  8  2  0  0  0  0
 12  4  1  0  0  0  0
 12 11  1  0  0  0  0
 13  2  1  0  0  0  0
M  END
>  <CHROM.1>
58.92350875,-25.55377868,-8.79770180,4.21791011,-7.33600994,2.64286716,0.01732763
-2.05128444

>  <Name>
lig.pdb

>  <RI>
2.60406e+07

>  <Rbt.Current_Directory>
/home/itssahil/PROJECTS/Mol_Feturizer/New_Systems/rnas/2miy

>  <Rbt.Executable>
rbdock ($Id: //depot/dev/client3/rdock/2013.1/src/exe/rbdock.cxx#4 $)

>  <Rbt.Library>
libRbt.so (2013.1, Build901 2013/11/27)

>  <Rbt.Parameter_File>
/export/apps/rDock/src/rDock_2013.1_src/data/scripts/dock_solv.prm

>  <Rbt.Receptor>
prm/pocket_docking_7.prm

>  <SCORE>
-45.9494

>  <SCORE.INTER>
-47.5019

>  <SCORE.INTER.CONST>
1

>  <SCORE.INTER.POLAR>
-5.21732

>  <SCORE.INTER.ROT>
2

>  <SCORE.INTER.SOLV>
17.5995

>  <SCORE.INTER.VDW>
-25.0767

>  <SCORE.INTER.norm>
-3.65399

>  <SCORE.INTRA>
1.40465

>  <SCORE.INTRA.DIHEDRAL>
-0.353691

>  <SCORE.INTRA.DIHEDRAL.0>
1.76676

>  <SCORE.INTRA.POLAR>
0.472211

>  <SCORE.INTRA.POLAR.0>
-0.472211

>  <SCORE.INTRA.REPUL>
0

>  <SCORE.INTRA.REPUL.0>
0

>  <SCORE.INTRA.SOLV>
-0.140631

>  <SCORE.INTRA.SOLV.lig_0>
-22.5855

>  <SCORE.INTRA.VDW>
0.0462936

>  <SCORE.INTRA.VDW.0>
-0.733656

>  <SCORE.INTRA.norm>
0.10805

>  <SCORE.RESTR>
0.1479

>  <SCORE.RESTR.CAVITY>
0.1479

>  <SCORE.RESTR.norm>
0.0113769

>  <SCORE.SYSTEM>
0

>  <SCORE.SYSTEM.CONST>
0

>  <SCORE.SYSTEM.DIHEDRAL>
0

>  <SCORE.SYSTEM.SOLV>
0

>  <SCORE.SYSTEM.norm>
0

>  <SCORE.heavy>
13

>  <SCORE.norm>
-3.53457

>  <RMSD>
0.723

$$$$
lig.pdb
 OpenBabel11021811453D
libRbt.so/2013.1/901 2013/11/27
 13 14  0  0  0  0  0  0  0  0999 V2000
  -10.8785    4.3847   -7.1495 N   0  0  0  0  0  0  0  0  0  0  0  0
  -10.9771    3.6329   -8.2859 C   0  0  0  0  0  0  0  0  0  0  0  0
   -9.8876    3.2473   -8.9257 N   0  0  0  0  0  0  0  0  0  0  0  0
   -8.6332    3.5773   -8.4908 C   0  0  0  0  0  0  0  0  0  0  0  0
   -8.4732    4.3599   -7.3216 C   0  0  0  0  0  0  0  0  0  0  0  0
   -9.6560    4.7712   -6.6363 C   0  0  0  0  0  0  0  0  0  0  0  0
   -9.5889    5.4476   -5.6249 O   0  0  0  0  0  0  0  0  0  0  0  0
   -7.0288    4.5431   -7.1367 C   0  0  0  0  0  0  0  0  0  0  0  0
   -6.3316    5.3175   -6.0496 C   0  0  0  0  0  0  0  0  0  0  0  0
   -6.6132    4.6993   -4.7472 N   0  0  0  0  0  0  0  0  0  0  0  0
   -6.4403    3.8822   -8.1412 C   0  0  0  0  0  0  0  0  0  0  0  0
   -7.3827    3.3109   -8.9542 N   0  0  0  0  0  0  0  0  0  0  0  0
  -12.2131    3.2790   -8.7625 N   0  0  0  0  0  0  0  0  0  0  0  0
  1  6  1  0  0  0  0
  2  1  1  0  0  0  0
  3  4  1  0  0  0  0
  3  2  2  0  0  0  0
  4  5  2  0  0  0  0
  5  8  1  0  0  0  0
  5  6  1  0  0  0  0
  6  7  2  0  0  0  0
  8  9  1  0  0  0  0
  9 10  1  0  0  0  0
 11  8  2  0  0  0  0
 12  4  1  0  0  0  0
 12 11  1  0  0  0  0
 13  2  1  0  0  0  0
M  END
>  <CHROM.1>
63.39957449,94.79879661,-8.81681933,4.19150617,-7.35999541,2.63415568,0.00666580
-2.05208318

>  <Name>
lig.pdb

>  <RI>
2.60406e+07

>  <Rbt.Current_Directory>
/home/itssahil/PROJECTS/Mol_Feturizer/New_Systems/rnas/2miy

>  <Rbt.Executable>
rbdock ($Id: //depot/dev/client3/rdock/2013.1/src/exe/rbdock.cxx#4 $)

>  <Rbt.Library>
libRbt.so (2013.1, Build901 2013/11/27)

>  <Rbt.Parameter_File>
/export/apps/rDock/src/rDock_2013.1_src/data/scripts/dock_solv.prm

>  <Rbt.Receptor>
prm/pocket_docking_7.prm

>  <SCORE>
-46.1056

>  <SCORE.INTER>
-47.5671

>  <SCORE.INTER.CONST>
1

>  <SCORE.INTER.POLAR>
-5.12466

>  <SCORE.INTER.ROT>
2

>  <SCORE.INTER.SOLV>
17.7202

>  <SCORE.INTER.VDW>
-25.4693

>  <SCORE.INTER.norm>
-3.65901

>  <SCORE.INTRA>
1.35585

>  <SCORE.INTRA.DIHEDRAL>
-0.340345

>  <SCORE.INTRA.DIHEDRAL.0>
1.76676

>  <SCORE.INTRA.POLAR>
0.472211

>  <SCORE.INTRA.POLAR.0>
-0.472211

>  <SCORE.INTRA.REPUL>
0

>  <SCORE.INTRA.REPUL.0>
0

>  <SCORE.INTRA.SOLV>
-0.181845

>  <SCORE.INTRA.SOLV.lig_0>
-22.5855

>  <SCORE.INTRA.VDW>
0.0114323

>  <SCORE.INTRA.VDW.0>
-0.733656

>  <SCORE.INTRA.norm>
0.104297

>  <SCORE.RESTR>
0.105635

>  <SCORE.RESTR.CAVITY>
0.105635

>  <SCORE.RESTR.norm>
0.0081258

>  <SCORE.SYSTEM>
0

>  <SCORE.SYSTEM.CONST>
0

>  <SCORE.SYSTEM.DIHEDRAL>
0

>  <SCORE.SYSTEM.SOLV>
0

>  <SCORE.SYSTEM.norm>
0

>  <SCORE.heavy>
13

>  <SCORE.norm>
-3.54659

>  <RMSD>
0.723

$$$$
lig.pdb
 OpenBabel11021811453D
libRbt.so/2013.1/901 2013/11/27
 13 14  0  0  0  0  0  0  0  0999 V2000
  -10.8052    4.5789   -7.1783 N   0  0  0  0  0  0  0  0  0  0  0  0
  -10.9401    3.7990   -8.2919 C   0  0  0  0  0  0  0  0  0  0  0  0
   -9.8706    3.3465   -8.9213 N   0  0  0  0  0  0  0  0  0  0  0  0
   -8.6016    3.6329   -8.4981 C   0  0  0  0  0  0  0  0  0  0  0  0
   -8.4038    4.4418   -7.3528 C   0  0  0  0  0  0  0  0  0  0  0  0
   -9.5653    4.9254   -6.6784 C   0  0  0  0  0  0  0  0  0  0  0  0
   -9.4655    5.6277   -5.6875 O   0  0  0  0  0  0  0  0  0  0  0  0
   -6.9522    4.5658   -7.1754 C   0  0  0  0  0  0  0  0  0  0  0  0
   -6.2183    5.3401   -6.1126 C   0  0  0  0  0  0  0  0  0  0  0  0
   -6.9475    5.2428   -4.8412 N   0  0  0  0  0  0  0  0  0  0  0  0
   -6.3963    3.8499   -8.1606 C   0  0  0  0  0  0  0  0  0  0  0  0
   -7.3654    3.2975   -8.9551 N   0  0  0  0  0  0  0  0  0  0  0  0
  -12.1919    3.4867   -8.7561 N   0  0  0  0  0  0  0  0  0  0  0  0
  1  6  1  0  0  0  0
  2  1  1  0  0  0  0
  3  4  1  0  0  0  0
  3  2  2  0  0  0  0
  4  5  2  0  0  0  0
  5  8  1  0  0  0  0
  5  6  1  0  0  0  0
  6  7  2  0  0  0  0
  8  9  1  0  0  0  0
  9 10  1  0  0  0  0
 11  8  2  0  0  0  0
 12  4  1  0  0  0  0
 12 11  1  0  0  0  0
 13  2  1  0  0  0  0
M  END
>  <CHROM.1>
36.91787553,118.30159884,-8.79419891,4.33158971,-7.39030824,2.62731218,0.02355974
-2.11130479

>  <Name>
lig.pdb

>  <RI>
1.17462e+07

>  <Rbt.Current_Directory>
/home/itssahil/PROJECTS/Mol_Feturizer/New_Systems/rnas/2miy

>  <Rbt.Executable>
rbdock ($Id: //depot/dev/client3/rdock/2013.1/src/exe/rbdock.cxx#4 $)

>  <Rbt.Library>
libRbt.so (2013.1, Build901 2013/11/27)

>  <Rbt.Parameter_File>
/export/apps/rDock/src/rDock_2013.1_src/data/scripts/dock_solv.prm

>  <Rbt.Receptor>
prm/blind_docking_40.prm

>  <SCORE>
-48.6686

>  <SCORE.INTER>
-47.999

>  <SCORE.INTER.CONST>
1

>  <SCORE.INTER.POLAR>
-5.46196

>  <SCORE.INTER.ROT>
2

>  <SCORE.INTER.SOLV>
17.7717

>  <SCORE.INTER.VDW>
-24.65

>  <SCORE.INTER.norm>
-3.69223

>  <SCORE.INTRA>
-0.704272

>  <SCORE.INTRA.DIHEDRAL>
0.391305

>  <SCORE.INTRA.DIHEDRAL.0>
1.76676

>  <SCORE.INTRA.POLAR>
-0.324221

>  <SCORE.INTRA.POLAR.0>
-0.472211

>  <SCORE.INTRA.REPUL>
0

>  <SCORE.INTRA.REPUL.0>
0

>  <SCORE.INTRA.SOLV>
0.0773726

>  <SCORE.INTRA.SOLV.lig_0>
-22.5855

>  <SCORE.INTRA.VDW>
0.16374

>  <SCORE.INTRA.VDW.0>
-0.733656

>  <SCORE.INTRA.norm>
-0.0541748

>  <SCORE.RESTR>
0.0346878

>  <SCORE.RESTR.CAVITY>
0.0346878

>  <SCORE.RESTR.norm>
0.00266829

>  <SCORE.SYSTEM>
0

>  <SCORE.SYSTEM.CONST>
0

>  <SCORE.SYSTEM.DIHEDRAL>
0

>  <SCORE.SYSTEM.SOLV>
0

>  <SCORE.SYSTEM.norm>
0

>  <SCORE.heavy>
13

>  <SCORE.norm>
-3.74374

>  <RMSD>
0.724

$$$$
lig.pdb
 OpenBabel11021811453D
libRbt.so/2013.1/901 2013/11/27
 13 14  0  0  0  0  0  0  0  0999 V2000
  -10.8052    4.5707   -7.1725 N   0  0  0  0  0  0  0  0  0  0  0  0
  -10.9432    3.7809   -8.2786 C   0  0  0  0  0  0  0  0  0  0  0  0
   -9.8754    3.3254   -8.9088 N   0  0  0  0  0  0  0  0  0  0  0  0
   -8.6052    3.6184   -8.4937 C   0  0  0  0  0  0  0  0  0  0  0  0
   -8.4043    4.4376   -7.3563 C   0  0  0  0  0  0  0  0  0  0  0  0
   -9.5640    4.9244   -6.6810 C   0  0  0  0  0  0  0  0  0  0  0  0
   -9.4615    5.6355   -5.6968 O   0  0  0  0  0  0  0  0  0  0  0  0
   -6.9523    4.5665   -7.1863 C   0  0  0  0  0  0  0  0  0  0  0  0
   -6.2155    5.3517   -6.1335 C   0  0  0  0  0  0  0  0  0  0  0  0
   -6.9250    5.2424   -4.8520 N   0  0  0  0  0  0  0  0  0  0  0  0
   -6.3990    3.8434   -8.1678 C   0  0  0  0  0  0  0  0  0  0  0  0
   -7.3703    3.2819   -8.9531 N   0  0  0  0  0  0  0  0  0  0  0  0
  -12.1963    3.4616   -8.7346 N   0  0  0  0  0  0  0  0  0  0  0  0
  1  6  1  0  0  0  0
  2  1  1  0  0  0  0
  3  4  1  0  0  0  0
  3  2  2  0  0  0  0
  4  5  2  0  0  0  0
  5  8  1  0  0  0  0
  5  6  1  0  0  0  0
  6  7  2  0  0  0  0
  8  9  1  0  0  0  0
  9 10  1  0  0  0  0
 11  8  2  0  0  0  0
 12  4  1  0  0  0  0
 12 11  1  0  0  0  0
 13  2  1  0  0  0  0
M  END
>  <CHROM.1>
38.00497539,117.08130383,-8.79330865,4.32419758,-7.39056177,2.63075314,0.02004976
-2.11825062

>  <Name>
lig.pdb

>  <RI>
1.51961e+07

>  <Rbt.Current_Directory>
/home/itssahil/PROJECTS/Mol_Feturizer/New_Systems/rnas/2miy

>  <Rbt.Executable>
rbdock ($Id: //depot/dev/client3/rdock/2013.1/src/exe/rbdock.cxx#4 $)

>  <Rbt.Library>
libRbt.so (2013.1, Build901 2013/11/27)

>  <Rbt.Parameter_File>
/export/apps/rDock/src/rDock_2013.1_src/data/scripts/dock_solv.prm

>  <Rbt.Receptor>
prm/pocket_docking_3.prm

>  <SCORE>
-48.6904

>  <SCORE.INTER>
-48.0236

>  <SCORE.INTER.CONST>
1

>  <SCORE.INTER.POLAR>
-5.46296

>  <SCORE.INTER.ROT>
2

>  <SCORE.INTER.SOLV>
17.8164

>  <SCORE.INTER.VDW>
-24.678

>  <SCORE.INTER.norm>
-3.69412

>  <SCORE.INTRA>
-0.713209

>  <SCORE.INTRA.DIHEDRAL>
0.331266

>  <SCORE.INTRA.DIHEDRAL.0>
1.76676

>  <SCORE.INTRA.POLAR>
-0.30607

>  <SCORE.INTRA.POLAR.0>
-0.472211

>  <SCORE.INTRA.REPUL>
0

>  <SCORE.INTRA.REPUL.0>
0

>  <SCORE.INTRA.SOLV>
0.067132

>  <SCORE.INTRA.SOLV.lig_0>
-22.5855

>  <SCORE.INTRA.VDW>
0.128229

>  <SCORE.INTRA.VDW.0>
-0.733656

>  <SCORE.INTRA.norm>
-0.0548622

>  <SCORE.RESTR>
0.0463928

>  <SCORE.RESTR.CAVITY>
0.0463928

>  <SCORE.RESTR.norm>
0.00356868

>  <SCORE.SYSTEM>
0

>  <SCORE.SYSTEM.CONST>
0

>  <SCORE.SYSTEM.DIHEDRAL>
0

>  <SCORE.SYSTEM.SOLV>
0

>  <SCORE.SYSTEM.norm>
0

>  <SCORE.heavy>
13

>  <SCORE.norm>
-3.74542

>  <RMSD>
0.724

$$$$
lig.pdb
 OpenBabel11021811453D
libRbt.so/2013.1/901 2013/11/27
 13 14  0  0  0  0  0  0  0  0999 V2000
  -10.8077    4.5666   -7.1884 N   0  0  0  0  0  0  0  0  0  0  0  0
  -10.9485    3.7731   -8.2914 C   0  0  0  0  0  0  0  0  0  0  0  0
   -9.8823    3.3072   -8.9169 N   0  0  0  0  0  0  0  0  0  0  0  0
   -8.6112    3.5929   -8.4997 C   0  0  0  0  0  0  0  0  0  0  0  0
   -8.4073    4.4156   -7.3654 C   0  0  0  0  0  0  0  0  0  0  0  0
   -9.5652    4.9136   -6.6953 C   0  0  0  0  0  0  0  0  0  0  0  0
   -9.4601    5.6282   -5.7138 O   0  0  0  0  0  0  0  0  0  0  0  0
   -6.9548    4.5347   -7.1922 C   0  0  0  0  0  0  0  0  0  0  0  0
   -6.2152    5.3192   -6.1409 C   0  0  0  0  0  0  0  0  0  0  0  0
   -6.9418    5.2411   -4.8667 N   0  0  0  0  0  0  0  0  0  0  0  0
   -6.4042    3.8034   -8.1690 C   0  0  0  0  0  0  0  0  0  0  0  0
   -7.3775    3.2455   -8.9545 N   0  0  0  0  0  0  0  0  0  0  0  0
  -12.2026    3.4608   -8.7493 N   0  0  0  0  0  0  0  0  0  0  0  0
  1  6  1  0  0  0  0
  2  1  1  0  0  0  0
  3  4  1  0  0  0  0
  3  2  2  0  0  0  0
  4  5  2  0  0  0  0
  5  8  1  0  0  0  0
  5  6  1  0  0  0  0
  6  7  2  0  0  0  0
  8  9  1  0  0  0  0
  9 10  1  0  0  0  0
 11  8  2  0  0  0  0
 12  4  1  0  0  0  0
 12 11  1  0  0  0  0
 13  2  1  0  0  0  0
M  END
>  <CHROM.1>
36.96699027,118.12474347,-8.79824214,4.30669724,-7.40071862,2.63145198,0.02680794
-2.12433358

>  <Name>
lig.pdb

>  <RI>
3.47783e+07

>  <Rbt.Current_Directory>
/home/itssahil/PROJECTS/Mol_Feturizer/New_Systems/rnas/2miy

>  <Rbt.Executable>
rbdock ($Id: //depot/dev/client3/rdock/2013.1/src/exe/rbdock.cxx#4 $)

>  <Rbt.Library>
libRbt.so (2013.1, Build901 2013/11/27)

>  <Rbt.Parameter_File>
/export/apps/rDock/src/rDock_2013.1_src/data/scripts/dock_solv.prm

>  <Rbt.Receptor>
prm/pocket_docking_8.prm

>  <SCORE>
-48.7959

>  <SCORE.INTER>
-48.0908

>  <SCORE.INTER.CONST>
1

>  <SCORE.INTER.POLAR>
-5.48945

>  <SCORE.INTER.ROT>
2

>  <SCORE.INTER.SOLV>
17.8046

>  <SCORE.INTER.VDW>
-24.6306

>  <SCORE.INTER.norm>
-3.6993

>  <SCORE.INTRA>
-0.705077

>  <SCORE.INTRA.DIHEDRAL>
0.388371

>  <SCORE.INTRA.DIHEDRAL.0>
1.76676

>  <SCORE.INTRA.POLAR>
-0.323244

>  <SCORE.INTRA.POLAR.0>
-0.472211

>  <SCORE.INTRA.REPUL>
0

>  <SCORE.INTRA.REPUL.0>
0

>  <SCORE.INTRA.SOLV>
0.076882

>  <SCORE.INTRA.SOLV.lig_0>
-22.5855

>  <SCORE.INTRA.VDW>
0.161325

>  <SCORE.INTRA.VDW.0>
-0.733656

>  <SCORE.INTRA.norm>
-0.0542367

>  <SCORE.RESTR>
0

>  <SCORE.RESTR.CAVITY>
0

>  <SCORE.RESTR.norm>
0

>  <SCORE.SYSTEM>
0

>  <SCORE.SYSTEM.CONST>
0

>  <SCORE.SYSTEM.DIHEDRAL>
0

>  <SCORE.SYSTEM.SOLV>
0

>  <SCORE.SYSTEM.norm>
0

>  <SCORE.heavy>
13

>  <SCORE.norm>
-3.75353

>  <RMSD>
0.725

$$$$
lig.pdb
 OpenBabel11021811453D
libRbt.so/2013.1/901 2013/11/27
 13 14  0  0  0  0  0  0  0  0999 V2000
  -10.8052    4.5773   -7.1786 N   0  0  0  0  0  0  0  0  0  0  0  0
  -10.9412    3.7952   -8.2905 C   0  0  0  0  0  0  0  0  0  0  0  0
   -9.8723    3.3399   -8.9190 N   0  0  0  0  0  0  0  0  0  0  0  0
   -8.6030    3.6257   -8.4966 C   0  0  0  0  0  0  0  0  0  0  0  0
   -8.4040    4.4368   -7.3530 C   0  0  0  0  0  0  0  0  0  0  0  0
   -9.5648    4.9234   -6.6796 C   0  0  0  0  0  0  0  0  0  0  0  0
   -9.4641    5.6277   -5.6903 O   0  0  0  0  0  0  0  0  0  0  0  0
   -6.9523    4.5594   -7.1760 C   0  0  0  0  0  0  0  0  0  0  0  0
   -6.2173    5.3351   -6.1150 C   0  0  0  0  0  0  0  0  0  0  0  0
   -6.9348    5.2233   -4.8381 N   0  0  0  0  0  0  0  0  0  0  0  0
   -6.3974    3.8407   -8.1597 C   0  0  0  0  0  0  0  0  0  0  0  0
   -7.3672    3.2877   -8.9529 N   0  0  0  0  0  0  0  0  0  0  0  0
  -12.1934    3.4833   -8.7539 N   0  0  0  0  0  0  0  0  0  0  0  0
  1  6  1  0  0  0  0
  2  1  1  0  0  0  0
  3  4  1  0  0  0  0
  3  2  2  0  0  0  0
  4  5  2  0  0  0  0
  5  8  1  0  0  0  0
  5  6  1  0  0  0  0
  6  7  2  0  0  0  0
  8  9  1  0  0  0  0
  9 10  1  0  0  0  0
 11  8  2  0  0  0  0
 12  4  1  0  0  0  0
 12 11  1  0  0  0  0
 13  2  1  0  0  0  0
M  END
>  <CHROM.1>
37.83945924,-61.79742651,-8.79340288,4.32545190,-7.38971799,2.62859004,0.02518894
-2.11205169

>  <Name>
lig.pdb

>  <RI>
4.2128e+07

>  <Rbt.Current_Directory>
/home/itssahil/PROJECTS/Mol_Feturizer/New_Systems/rnas/2miy

>  <Rbt.Executable>
rbdock ($Id: //depot/dev/client3/rdock/2013.1/src/exe/rbdock.cxx#4 $)

>  <Rbt.Library>
libRbt.so (2013.1, Build901 2013/11/27)

>  <Rbt.Parameter_File>
/export/apps/rDock/src/rDock_2013.1_src/data/scripts/dock_solv.prm

>  <Rbt.Receptor>
prm/pocket_docking_5.prm

>  <SCORE>
-48.6909

>  <SCORE.INTER>
-48.0258

>  <SCORE.INTER.CONST>
1

>  <SCORE.INTER.POLAR>
-5.471

>  <SCORE.INTER.ROT>
2

>  <SCORE.INTER.SOLV>
17.7734

>  <SCORE.INTER.VDW>
-24.6383

>  <SCORE.INTER.norm>
-3.69429

>  <SCORE.INTRA>
-0.706348

>  <SCORE.INTRA.DIHEDRAL>
0.345974

>  <SCORE.INTRA.DIHEDRAL.0>
1.76676

>  <SCORE.INTRA.POLAR>
-0.308298

>  <SCORE.INTRA.POLAR.0>
-0.472211

>  <SCORE.INTRA.REPUL>
0

>  <SCORE.INTRA.REPUL.0>
0

>  <SCORE.INTRA.SOLV>
0.0677805

>  <SCORE.INTRA.SOLV.lig_0>
-22.5855

>  <SCORE.INTRA.VDW>
0.134989

>  <SCORE.INTRA.VDW.0>
-0.733656

>  <SCORE.INTRA.norm>
-0.0543344

>  <SCORE.RESTR>
0.0412049

>  <SCORE.RESTR.CAVITY>
0.0412049

>  <SCORE.RESTR.norm>
0.00316961

>  <SCORE.SYSTEM>
0

>  <SCORE.SYSTEM.CONST>
0

>  <SCORE.SYSTEM.DIHEDRAL>
0

>  <SCORE.SYSTEM.SOLV>
0

>  <SCORE.SYSTEM.norm>
0

>  <SCORE.heavy>
13

>  <SCORE.norm>
-3.74545

>  <RMSD>
0.726

$$$$
lig.pdb
 OpenBabel11021811453D
libRbt.so/2013.1/901 2013/11/27
 13 14  0  0  0  0  0  0  0  0999 V2000
  -10.8059    4.5764   -7.1762 N   0  0  0  0  0  0  0  0  0  0  0  0
  -10.9428    3.7887   -8.2840 C   0  0  0  0  0  0  0  0  0  0  0  0
   -9.8743    3.3338   -8.9134 N   0  0  0  0  0  0  0  0  0  0  0  0
   -8.6046    3.6253   -8.4959 C   0  0  0  0  0  0  0  0  0  0  0  0
   -8.4049    4.4424   -7.3568 C   0  0  0  0  0  0  0  0  0  0  0  0
   -9.5652    4.9286   -6.6823 C   0  0  0  0  0  0  0  0  0  0  0  0
   -9.4637    5.6379   -5.6966 O   0  0  0  0  0  0  0  0  0  0  0  0
   -6.9530    4.5701   -7.1845 C   0  0  0  0  0  0  0  0  0  0  0  0
   -6.2173    5.3531   -6.1292 C   0  0  0  0  0  0  0  0  0  0  0  0
   -6.9308    5.2451   -4.8498 N   0  0  0  0  0  0  0  0  0  0  0  0
   -6.3987    3.8485   -8.1664 C   0  0  0  0  0  0  0  0  0  0  0  0
   -7.3691    3.2889   -8.9542 N   0  0  0  0  0  0  0  0  0  0  0  0
  -12.1953    3.4710   -8.7423 N   0  0  0  0  0  0  0  0  0  0  0  0
  1  6  1  0  0  0  0
  2  1  1  0  0  0  0
  3  4  1  0  0  0  0
  3  2  2  0  0  0  0
  4  5  2  0  0  0  0
  5  8  1  0  0  0  0
  5  6  1  0  0  0  0
  6  7  2  0  0  0  0
  8  9  1  0  0  0  0
  9 10  1  0  0  0  0
 11  8  2  0  0  0  0
 12  4  1  0  0  0  0
 12 11  1  0  0  0  0
 13  2  1  0  0  0  0
M  END
>  <CHROM.1>
37.84137776,117.50621150,-8.79404356,4.32955372,-7.39190530,2.62966950,0.02115771
-2.11670039

>  <Name>
lig.pdb

>  <RI>
4.2128e+07

>  <Rbt.Current_Directory>
/home/itssahil/PROJECTS/Mol_Feturizer/New_Systems/rnas/2miy

>  <Rbt.Executable>
rbdock ($Id: //depot/dev/client3/rdock/2013.1/src/exe/rbdock.cxx#4 $)

>  <Rbt.Library>
libRbt.so (2013.1, Build901 2013/11/27)

>  <Rbt.Parameter_File>
/export/apps/rDock/src/rDock_2013.1_src/data/scripts/dock_solv.prm

>  <Rbt.Receptor>
prm/pocket_docking_5.prm

>  <SCORE>
-48.6896

>  <SCORE.INTER>
-48.019

>  <SCORE.INTER.CONST>
1

>  <SCORE.INTER.POLAR>
-5.46823

>  <SCORE.INTER.ROT>
2

>  <SCORE.INTER.SOLV>
17.8175

>  <SCORE.INTER.VDW>
-24.6578

>  <SCORE.INTER.norm>
-3.69377

>  <SCORE.INTRA>
-0.712085

>  <SCORE.INTRA.DIHEDRAL>
0.340596

>  <SCORE.INTRA.DIHEDRAL.0>
1.76676

>  <SCORE.INTRA.POLAR>
-0.309212

>  <SCORE.INTRA.POLAR.0>
-0.472211

>  <SCORE.INTRA.REPUL>
0

>  <SCORE.INTRA.REPUL.0>
0

>  <SCORE.INTRA.SOLV>
0.0687528

>  <SCORE.INTRA.SOLV.lig_0>
-22.5855

>  <SCORE.INTRA.VDW>
0.134561

>  <SCORE.INTRA.VDW.0>
-0.733656

>  <SCORE.INTRA.norm>
-0.0547757

>  <SCORE.RESTR>
0.0415518

>  <SCORE.RESTR.CAVITY>
0.0415518

>  <SCORE.RESTR.norm>
0.00319629

>  <SCORE.SYSTEM>
0

>  <SCORE.SYSTEM.CONST>
0

>  <SCORE.SYSTEM.DIHEDRAL>
0

>  <SCORE.SYSTEM.SOLV>
0

>  <SCORE.SYSTEM.norm>
0

>  <SCORE.heavy>
13

>  <SCORE.norm>
-3.74535

>  <RMSD>
0.726

$$$$
lig.pdb
 OpenBabel11021811453D
libRbt.so/2013.1/901 2013/11/27
 13 14  0  0  0  0  0  0  0  0999 V2000
  -10.9055    4.3686   -7.1736 N   0  0  0  0  0  0  0  0  0  0  0  0
  -10.9927    3.6260   -8.3170 C   0  0  0  0  0  0  0  0  0  0  0  0
   -9.8969    3.2471   -8.9499 N   0  0  0  0  0  0  0  0  0  0  0  0
   -8.6470    3.5753   -8.5010 C   0  0  0  0  0  0  0  0  0  0  0  0
   -8.4987    4.3485   -7.3239 C   0  0  0  0  0  0  0  0  0  0  0  0
   -9.6883    4.7525   -6.6461 C   0  0  0  0  0  0  0  0  0  0  0  0
   -9.6314    5.4207   -5.6286 O   0  0  0  0  0  0  0  0  0  0  0  0
   -7.0564    4.5321   -7.1245 C   0  0  0  0  0  0  0  0  0  0  0  0
   -6.3701    5.2986   -6.0248 C   0  0  0  0  0  0  0  0  0  0  0  0
   -6.6121    4.6343   -4.7372 N   0  0  0  0  0  0  0  0  0  0  0  0
   -6.4577    3.8803   -8.1289 C   0  0  0  0  0  0  0  0  0  0  0  0
   -7.3919    3.3144   -8.9551 N   0  0  0  0  0  0  0  0  0  0  0  0
  -12.2238    3.2743   -8.8076 N   0  0  0  0  0  0  0  0  0  0  0  0
  1  6  1  0  0  0  0
  2  1  1  0  0  0  0
  3  4  1  0  0  0  0
  3  2  2  0  0  0  0
  4  5  2  0  0  0  0
  5  8  1  0  0  0  0
  5  6  1  0  0  0  0
  6  7  2  0  0  0  0
  8  9  1  0  0  0  0
  9 10  1  0  0  0  0
 11  8  2  0  0  0  0
 12  4  1  0  0  0  0
 12 11  1  0  0  0  0
 13  2  1  0  0  0  0
M  END
>  <CHROM.1>
65.96252787,90.85814372,-8.83701828,4.17668092,-7.36753191,2.62918948,0.01191441
-2.04283871

>  <Name>
lig.pdb

>  <RI>
2.60406e+07

>  <Rbt.Current_Directory>
/home/itssahil/PROJECTS/Mol_Feturizer/New_Systems/rnas/2miy

>  <Rbt.Executable>
rbdock ($Id: //depot/dev/client3/rdock/2013.1/src/exe/rbdock.cxx#4 $)

>  <Rbt.Library>
libRbt.so (2013.1, Build901 2013/11/27)

>  <Rbt.Parameter_File>
/export/apps/rDock/src/rDock_2013.1_src/data/scripts/dock_solv.prm

>  <Rbt.Receptor>
prm/pocket_docking_7.prm

>  <SCORE>
-45.8088

>  <SCORE.INTER>
-47.2235

>  <SCORE.INTER.CONST>
1

>  <SCORE.INTER.POLAR>
-5.0815

>  <SCORE.INTER.ROT>
2

>  <SCORE.INTER.SOLV>
17.7

>  <SCORE.INTER.VDW>
-25.3774

>  <SCORE.INTER.norm>
-3.63258

>  <SCORE.INTRA>
1.37165

>  <SCORE.INTRA.DIHEDRAL>
-0.306991

>  <SCORE.INTRA.DIHEDRAL.0>
1.76676

>  <SCORE.INTRA.POLAR>
0.472211

>  <SCORE.INTRA.POLAR.0>
-0.472211

>  <SCORE.INTRA.REPUL>
0

>  <SCORE.INTRA.REPUL.0>
0

>  <SCORE.INTRA.SOLV>
-0.207831

>  <SCORE.INTRA.SOLV.lig_0>
-22.5855

>  <SCORE.INTRA.VDW>
0.023546

>  <SCORE.INTRA.VDW.0>
-0.733656

>  <SCORE.INTRA.norm>
0.105512

>  <SCORE.RESTR>
0.0430813

>  <SCORE.RESTR.CAVITY>
0.0430813

>  <SCORE.RESTR.norm>
0.00331394

>  <SCORE.SYSTEM>
0

>  <SCORE.SYSTEM.CONST>
0

>  <SCORE.SYSTEM.DIHEDRAL>
0

>  <SCORE.SYSTEM.SOLV>
0

>  <SCORE.SYSTEM.norm>
0

>  <SCORE.heavy>
13

>  <SCORE.norm>
-3.52375

>  <RMSD>
0.726

$$$$
lig.pdb
 OpenBabel11021811453D
libRbt.so/2013.1/901 2013/11/27
 13 14  0  0  0  0  0  0  0  0999 V2000
  -10.8078    4.5500   -7.1942 N   0  0  0  0  0  0  0  0  0  0  0  0
  -10.9421    3.7531   -8.2957 C   0  0  0  0  0  0  0  0  0  0  0  0
   -9.8722    3.2915   -8.9179 N   0  0  0  0  0  0  0  0  0  0  0  0
   -8.6035    3.5848   -8.4987 C   0  0  0  0  0  0  0  0  0  0  0  0
   -8.4063    4.4112   -7.3658 C   0  0  0  0  0  0  0  0  0  0  0  0
   -9.5682    4.9047   -6.6993 C   0  0  0  0  0  0  0  0  0  0  0  0
   -9.4690    5.6221   -5.7193 O   0  0  0  0  0  0  0  0  0  0  0  0
   -6.9549    4.5385   -7.1899 C   0  0  0  0  0  0  0  0  0  0  0  0
   -6.2216    5.3293   -6.1389 C   0  0  0  0  0  0  0  0  0  0  0  0
   -6.9387    5.2321   -4.8606 N   0  0  0  0  0  0  0  0  0  0  0  0
   -6.3984    3.8078   -8.1639 C   0  0  0  0  0  0  0  0  0  0  0  0
   -7.3670    3.2429   -8.9501 N   0  0  0  0  0  0  0  0  0  0  0  0
  -12.1936    3.4332   -8.7555 N   0  0  0  0  0  0  0  0  0  0  0  0
  1  6  1  0  0  0  0
  2  1  1  0  0  0  0
  3  4  1  0  0  0  0
  3  2  2  0  0  0  0
  4  5  2  0  0  0  0
  5  8  1  0  0  0  0
  5  6  1  0  0  0  0
  6  7  2  0  0  0  0
  8  9  1  0  0  0  0
  9 10  1  0  0  0  0
 11  8  2  0  0  0  0
 12  4  1  0  0  0  0
 12 11  1  0  0  0  0
 13  2  1  0  0  0  0
M  END
>  <CHROM.1>
37.88961048,-61.48430558,-8.79544748,4.29864292,-7.40118574,2.62744259,0.02401640
-2.12506586

>  <Name>
lig.pdb

>  <RI>
3.47783e+07

>  <Rbt.Current_Directory>
/home/itssahil/PROJECTS/Mol_Feturizer/New_Systems/rnas/2miy

>  <Rbt.Executable>
rbdock ($Id: //depot/dev/client3/rdock/2013.1/src/exe/rbdock.cxx#4 $)

>  <Rbt.Library>
libRbt.so (2013.1, Build901 2013/11/27)

>  <Rbt.Parameter_File>
/export/apps/rDock/src/rDock_2013.1_src/data/scripts/dock_solv.prm

>  <Rbt.Receptor>
prm/pocket_docking_8.prm

>  <SCORE>
-48.789

>  <SCORE.INTER>
-48.0825

>  <SCORE.INTER.CONST>
1

>  <SCORE.INTER.POLAR>
-5.41638

>  <SCORE.INTER.ROT>
2

>  <SCORE.INTER.SOLV>
17.8039

>  <SCORE.INTER.VDW>
-24.8684

>  <SCORE.INTER.norm>
-3.69865

>  <SCORE.INTRA>
-0.706548

>  <SCORE.INTRA.DIHEDRAL>
0.342819

>  <SCORE.INTRA.DIHEDRAL.0>
1.76676

>  <SCORE.INTRA.POLAR>
-0.30794

>  <SCORE.INTRA.POLAR.0>
-0.472211

>  <SCORE.INTRA.REPUL>
0

>  <SCORE.INTRA.REPUL.0>
0

>  <SCORE.INTRA.SOLV>
0.0674169

>  <SCORE.INTRA.SOLV.lig_0>
-22.5855

>  <SCORE.INTRA.VDW>
0.135329

>  <SCORE.INTRA.VDW.0>
-0.733656

>  <SCORE.INTRA.norm>
-0.0543498

>  <SCORE.RESTR>
0

>  <SCORE.RESTR.CAVITY>
0

>  <SCORE.RESTR.norm>
0

>  <SCORE.SYSTEM>
0

>  <SCORE.SYSTEM.CONST>
0

>  <SCORE.SYSTEM.DIHEDRAL>
0

>  <SCORE.SYSTEM.SOLV>
0

>  <SCORE.SYSTEM.norm>
0

>  <SCORE.heavy>
13

>  <SCORE.norm>
-3.753

>  <RMSD>
0.726

$$$$
lig.pdb
 OpenBabel11021811453D
libRbt.so/2013.1/901 2013/11/27
 13 14  0  0  0  0  0  0  0  0999 V2000
  -10.8089    4.5617   -7.1802 N   0  0  0  0  0  0  0  0  0  0  0  0
  -10.9523    3.7563   -8.2743 C   0  0  0  0  0  0  0  0  0  0  0  0
   -9.8876    3.2872   -8.8997 N   0  0  0  0  0  0  0  0  0  0  0  0
   -8.6154    3.5810   -8.4913 C   0  0  0  0  0  0  0  0  0  0  0  0
   -8.4090    4.4160   -7.3665 C   0  0  0  0  0  0  0  0  0  0  0  0
   -9.5653    4.9175   -6.6963 C   0  0  0  0  0  0  0  0  0  0  0  0
   -9.4580    5.6426   -5.7228 O   0  0  0  0  0  0  0  0  0  0  0  0
   -6.9561    4.5414   -7.2012 C   0  0  0  0  0  0  0  0  0  0  0  0
   -6.2141    5.3390   -6.1615 C   0  0  0  0  0  0  0  0  0  0  0  0
   -6.9137    5.2398   -4.8737 N   0  0  0  0  0  0  0  0  0  0  0  0
   -6.4077    3.8016   -8.1729 C   0  0  0  0  0  0  0  0  0  0  0  0
   -7.3828    3.2326   -8.9481 N   0  0  0  0  0  0  0  0  0  0  0  0
  -12.2075    3.4356   -8.7231 N   0  0  0  0  0  0  0  0  0  0  0  0
  1  6  1  0  0  0  0
  2  1  1  0  0  0  0
  3  4  1  0  0  0  0
  3  2  2  0  0  0  0
  4  5  2  0  0  0  0
  5  8  1  0  0  0  0
  5  6  1  0  0  0  0
  6  7  2  0  0  0  0
  8  9  1  0  0  0  0
  9 10  1  0  0  0  0
 11  8  2  0  0  0  0
 12  4  1  0  0  0  0
 12 11  1  0  0  0  0
 13  2  1  0  0  0  0
M  END
>  <CHROM.1>
38.60368464,117.01894618,-8.79774558,4.30265413,-7.39804949,2.63505047,0.02295882
-2.13207685

>  <Name>
lig.pdb

>  <RI>
3.47783e+07

>  <Rbt.Current_Directory>
/home/itssahil/PROJECTS/Mol_Feturizer/New_Systems/rnas/2miy

>  <Rbt.Executable>
rbdock ($Id: //depot/dev/client3/rdock/2013.1/src/exe/rbdock.cxx#4 $)

>  <Rbt.Library>
libRbt.so (2013.1, Build901 2013/11/27)

>  <Rbt.Parameter_File>
/export/apps/rDock/src/rDock_2013.1_src/data/scripts/dock_solv.prm

>  <Rbt.Receptor>
prm/pocket_docking_8.prm

>  <SCORE>
-48.8653

>  <SCORE.INTER>
-48.1515

>  <SCORE.INTER.CONST>
1

>  <SCORE.INTER.POLAR>
-5.50358

>  <SCORE.INTER.ROT>
2

>  <SCORE.INTER.SOLV>
17.8576

>  <SCORE.INTER.VDW>
-24.6416

>  <SCORE.INTER.norm>
-3.70396

>  <SCORE.INTRA>
-0.713761

>  <SCORE.INTRA.DIHEDRAL>
0.299759

>  <SCORE.INTRA.DIHEDRAL.0>
1.76676

>  <SCORE.INTRA.POLAR>
-0.296394

>  <SCORE.INTRA.POLAR.0>
-0.472211

>  <SCORE.INTRA.REPUL>
0

>  <SCORE.INTRA.REPUL.0>
0

>  <SCORE.INTRA.SOLV>
0.0615664

>  <SCORE.INTRA.SOLV.lig_0>
-22.5855

>  <SCORE.INTRA.VDW>
0.113314

>  <SCORE.INTRA.VDW.0>
-0.733656

>  <SCORE.INTRA.norm>
-0.0549047

>  <SCORE.RESTR>
0

>  <SCORE.RESTR.CAVITY>
0

>  <SCORE.RESTR.norm>
0

>  <SCORE.SYSTEM>
0

>  <SCORE.SYSTEM.CONST>
0

>  <SCORE.SYSTEM.DIHEDRAL>
0

>  <SCORE.SYSTEM.SOLV>
0

>  <SCORE.SYSTEM.norm>
0

>  <SCORE.heavy>
13

>  <SCORE.norm>
-3.75887

>  <RMSD>
0.726

$$$$
lig.pdb
 OpenBabel11021811453D
libRbt.so/2013.1/901 2013/11/27
 13 14  0  0  0  0  0  0  0  0999 V2000
  -10.8096    4.5595   -7.1805 N   0  0  0  0  0  0  0  0  0  0  0  0
  -10.9519    3.7531   -8.2741 C   0  0  0  0  0  0  0  0  0  0  0  0
   -9.8866    3.2845   -8.8988 N   0  0  0  0  0  0  0  0  0  0  0  0
   -8.6148    3.5797   -8.4902 C   0  0  0  0  0  0  0  0  0  0  0  0
   -8.4094    4.4158   -7.3659 C   0  0  0  0  0  0  0  0  0  0  0  0
   -9.5664    4.9167   -6.6966 C   0  0  0  0  0  0  0  0  0  0  0  0
   -9.4601    5.6427   -5.7235 O   0  0  0  0  0  0  0  0  0  0  0  0
   -6.9567    4.5425   -7.2002 C   0  0  0  0  0  0  0  0  0  0  0  0
   -6.2157    5.3415   -6.1609 C   0  0  0  0  0  0  0  0  0  0  0  0
   -6.9117    5.2368   -4.8716 N   0  0  0  0  0  0  0  0  0  0  0  0
   -6.4073    3.8025   -8.1712 C   0  0  0  0  0  0  0  0  0  0  0  0
   -7.3817    3.2321   -8.9463 N   0  0  0  0  0  0  0  0  0  0  0  0
  -12.2067    3.4309   -8.7232 N   0  0  0  0  0  0  0  0  0  0  0  0
  1  6  1  0  0  0  0
  2  1  1  0  0  0  0
  3  4  1  0  0  0  0
  3  2  2  0  0  0  0
  4  5  2  0  0  0  0
  5  8  1  0  0  0  0
  5  6  1  0  0  0  0
  6  7  2  0  0  0  0
  8  9  1  0  0  0  0
  9 10  1  0  0  0  0
 11  8  2  0  0  0  0
 12  4  1  0  0  0  0
 12 11  1  0  0  0  0
 13  2  1  0  0  0  0
M  END
>  <CHROM.1>
38.90497779,114.78404093,-8.79774196,4.30145560,-7.39739607,2.63457079,0.02265498
-2.13239202

>  <Name>
lig.pdb

>  <RI>
3.47783e+07

>  <Rbt.Current_Directory>
/home/itssahil/PROJECTS/Mol_Feturizer/New_Systems/rnas/2miy

>  <Rbt.Executable>
rbdock ($Id: //depot/dev/client3/rdock/2013.1/src/exe/rbdock.cxx#4 $)

>  <Rbt.Library>
libRbt.so (2013.1, Build901 2013/11/27)

>  <Rbt.Parameter_File>
/export/apps/rDock/src/rDock_2013.1_src/data/scripts/dock_solv.prm

>  <Rbt.Receptor>
prm/pocket_docking_8.prm

>  <SCORE>
-48.8553

>  <SCORE.INTER>
-48.1462

>  <SCORE.INTER.CONST>
1

>  <SCORE.INTER.POLAR>
-5.49548

>  <SCORE.INTER.ROT>
2

>  <SCORE.INTER.SOLV>
17.8578

>  <SCORE.INTER.VDW>
-24.6651

>  <SCORE.INTER.norm>
-3.70355

>  <SCORE.INTRA>
-0.709093

>  <SCORE.INTRA.DIHEDRAL>
0.28064

>  <SCORE.INTRA.DIHEDRAL.0>
1.76676

>  <SCORE.INTRA.POLAR>
-0.286834

>  <SCORE.INTRA.POLAR.0>
-0.472211

>  <SCORE.INTRA.REPUL>
0

>  <SCORE.INTRA.REPUL.0>
0

>  <SCORE.INTRA.SOLV>
0.0584553

>  <SCORE.INTRA.SOLV.lig_0>
-22.5855

>  <SCORE.INTRA.VDW>
0.0965935

>  <SCORE.INTRA.VDW.0>
-0.733656

>  <SCORE.INTRA.norm>
-0.0545456

>  <SCORE.RESTR>
0

>  <SCORE.RESTR.CAVITY>
0

>  <SCORE.RESTR.norm>
0

>  <SCORE.SYSTEM>
0

>  <SCORE.SYSTEM.CONST>
0

>  <SCORE.SYSTEM.DIHEDRAL>
0

>  <SCORE.SYSTEM.SOLV>
0

>  <SCORE.SYSTEM.norm>
0

>  <SCORE.heavy>
13

>  <SCORE.norm>
-3.7581

>  <RMSD>
0.726

$$$$
lig.pdb
 OpenBabel11021811453D
libRbt.so/2013.1/901 2013/11/27
 13 14  0  0  0  0  0  0  0  0999 V2000
  -10.8052    4.5786   -7.1798 N   0  0  0  0  0  0  0  0  0  0  0  0
  -10.9406    3.7937   -8.2898 C   0  0  0  0  0  0  0  0  0  0  0  0
   -9.8714    3.3395   -8.9185 N   0  0  0  0  0  0  0  0  0  0  0  0
   -8.6022    3.6290   -8.4979 C   0  0  0  0  0  0  0  0  0  0  0  0
   -8.4039    4.4431   -7.3564 C   0  0  0  0  0  0  0  0  0  0  0  0
   -9.5651    4.9286   -6.6828 C   0  0  0  0  0  0  0  0  0  0  0  0
   -9.4648    5.6353   -5.6952 O   0  0  0  0  0  0  0  0  0  0  0  0
   -6.9522    4.5692   -7.1812 C   0  0  0  0  0  0  0  0  0  0  0  0
   -6.2179    5.3490   -6.1226 C   0  0  0  0  0  0  0  0  0  0  0  0
   -6.9355    5.2410   -4.8455 N   0  0  0  0  0  0  0  0  0  0  0  0
   -6.3967    3.8496   -8.1639 C   0  0  0  0  0  0  0  0  0  0  0  0
   -7.3662    3.2928   -8.9548 N   0  0  0  0  0  0  0  0  0  0  0  0
  -12.1926    3.4781   -8.7512 N   0  0  0  0  0  0  0  0  0  0  0  0
  1  6  1  0  0  0  0
  2  1  1  0  0  0  0
  3  4  1  0  0  0  0
  3  2  2  0  0  0  0
  4  5  2  0  0  0  0
  5  8  1  0  0  0  0
  5  6  1  0  0  0  0
  6  7  2  0  0  0  0
  8  9  1  0  0  0  0
  9 10  1  0  0  0  0
 11  8  2  0  0  0  0
 12  4  1  0  0  0  0
 12 11  1  0  0  0  0
 13  2  1  0  0  0  0
M  END
>  <CHROM.1>
37.70552145,118.55348749,-8.79326498,4.33088004,-7.39256482,2.62840304,0.02265963
-2.11437124

>  <Name>
lig.pdb

>  <RI>
1.82164e+07

>  <Rbt.Current_Directory>
/home/itssahil/PROJECTS/Mol_Feturizer/New_Systems/rnas/2miy

>  <Rbt.Executable>
rbdock ($Id: //depot/dev/client3/rdock/2013.1/src/exe/rbdock.cxx#4 $)

>  <Rbt.Library>
libRbt.so (2013.1, Build901 2013/11/27)

>  <Rbt.Parameter_File>
/export/apps/rDock/src/rDock_2013.1_src/data/scripts/dock_solv.prm

>  <Rbt.Receptor>
prm/blind_docking_80.prm

>  <SCORE>
-48.6964

>  <SCORE.INTER>
-48.0272

>  <SCORE.INTER.CONST>
1

>  <SCORE.INTER.POLAR>
-5.46015

>  <SCORE.INTER.ROT>
2

>  <SCORE.INTER.SOLV>
17.8061

>  <SCORE.INTER.VDW>
-24.6863

>  <SCORE.INTER.norm>
-3.6944

>  <SCORE.INTRA>
-0.707277

>  <SCORE.INTRA.DIHEDRAL>
0.349469

>  <SCORE.INTRA.DIHEDRAL.0>
1.76676

>  <SCORE.INTRA.POLAR>
-0.312046

>  <SCORE.INTRA.POLAR.0>
-0.472211

>  <SCORE.INTRA.REPUL>
0

>  <SCORE.INTRA.REPUL.0>
0

>  <SCORE.INTRA.SOLV>
0.0702803

>  <SCORE.INTRA.SOLV.lig_0>
-22.5855

>  <SCORE.INTRA.VDW>
0.143806

>  <SCORE.INTRA.VDW.0>
-0.733656

>  <SCORE.INTRA.norm>
-0.0544059

>  <SCORE.RESTR>
0.0380341

>  <SCORE.RESTR.CAVITY>
0.0380341

>  <SCORE.RESTR.norm>
0.0029257

>  <SCORE.SYSTEM>
0

>  <SCORE.SYSTEM.CONST>
0

>  <SCORE.SYSTEM.DIHEDRAL>
0

>  <SCORE.SYSTEM.SOLV>
0

>  <SCORE.SYSTEM.norm>
0

>  <SCORE.heavy>
13

>  <SCORE.norm>
-3.74588

>  <RMSD>
0.727

$$$$
lig.pdb
 OpenBabel11021811453D
libRbt.so/2013.1/901 2013/11/27
 13 14  0  0  0  0  0  0  0  0999 V2000
  -10.8060    4.5691   -7.1814 N   0  0  0  0  0  0  0  0  0  0  0  0
  -10.9496    3.7593   -8.2722 C   0  0  0  0  0  0  0  0  0  0  0  0
   -9.8851    3.2883   -8.8965 N   0  0  0  0  0  0  0  0  0  0  0  0
   -8.6128    3.5844   -8.4902 C   0  0  0  0  0  0  0  0  0  0  0  0
   -8.4061    4.4241   -7.3688 C   0  0  0  0  0  0  0  0  0  0  0  0
   -9.5622    4.9276   -6.6999 C   0  0  0  0  0  0  0  0  0  0  0  0
   -9.4546    5.6566   -5.7293 O   0  0  0  0  0  0  0  0  0  0  0  0
   -6.9531    4.5509   -7.2050 C   0  0  0  0  0  0  0  0  0  0  0  0
   -6.2109    5.3531   -6.1690 C   0  0  0  0  0  0  0  0  0  0  0  0
   -6.9291    5.2884   -4.8893 N   0  0  0  0  0  0  0  0  0  0  0  0
   -6.4050    3.8076   -8.1742 C   0  0  0  0  0  0  0  0  0  0  0  0
   -7.3802    3.2350   -8.9464 N   0  0  0  0  0  0  0  0  0  0  0  0
  -12.2050    3.4360   -8.7190 N   0  0  0  0  0  0  0  0  0  0  0  0
  1  6  1  0  0  0  0
  2  1  1  0  0  0  0
  3  4  1  0  0  0  0
  3  2  2  0  0  0  0
  4  5  2  0  0  0  0
  5  8  1  0  0  0  0
  5  6  1  0  0  0  0
  6  7  2  0  0  0  0
  8  9  1  0  0  0  0
  9 10  1  0  0  0  0
 11  8  2  0  0  0  0
 12  4  1  0  0  0  0
 12 11  1  0  0  0  0
 13  2  1  0  0  0  0
M  END
>  <CHROM.1>
37.08149299,119.21356145,-8.79661554,4.31310651,-7.40050069,2.63404074,0.02102277
-2.13851773

>  <Name>
lig.pdb

>  <RI>
0

>  <Rbt.Current_Directory>
/home/itssahil/PROJECTS/Mol_Feturizer/New_Systems/rnas/2miy

>  <Rbt.Executable>
rbdock ($Id: //depot/dev/client3/rdock/2013.1/src/exe/rbdock.cxx#4 $)

>  <Rbt.Library>
libRbt.so (2013.1, Build901 2013/11/27)

>  <Rbt.Parameter_File>
/export/apps/rDock/src/rDock_2013.1_src/data/scripts/dock_solv.prm

>  <Rbt.Receptor>
prm/pocket_docking_2.prm

>  <SCORE>
-48.8597

>  <SCORE.INTER>
-48.1586

>  <SCORE.INTER.CONST>
1

>  <SCORE.INTER.POLAR>
-5.51098

>  <SCORE.INTER.ROT>
2

>  <SCORE.INTER.SOLV>
17.8909

>  <SCORE.INTER.VDW>
-24.6327

>  <SCORE.INTER.norm>
-3.70451

>  <SCORE.INTRA>
-0.701086

>  <SCORE.INTRA.DIHEDRAL>
0.383924

>  <SCORE.INTRA.DIHEDRAL.0>
1.76676

>  <SCORE.INTRA.POLAR>
-0.322297

>  <SCORE.INTRA.POLAR.0>
-0.472211

>  <SCORE.INTRA.REPUL>
0

>  <SCORE.INTRA.REPUL.0>
0

>  <SCORE.INTRA.SOLV>
0.0761367

>  <SCORE.INTRA.SOLV.lig_0>
-22.5855

>  <SCORE.INTRA.VDW>
0.164692

>  <SCORE.INTRA.VDW.0>
-0.733656

>  <SCORE.INTRA.norm>
-0.0539297

>  <SCORE.RESTR>
0

>  <SCORE.RESTR.CAVITY>
0

>  <SCORE.RESTR.norm>
0

>  <SCORE.SYSTEM>
0

>  <SCORE.SYSTEM.CONST>
0

>  <SCORE.SYSTEM.DIHEDRAL>
0

>  <SCORE.SYSTEM.SOLV>
0

>  <SCORE.SYSTEM.norm>
0

>  <SCORE.heavy>
13

>  <SCORE.norm>
-3.75844

>  <RMSD>
0.727

$$$$
lig.pdb
 OpenBabel11021811453D
libRbt.so/2013.1/901 2013/11/27
 13 14  0  0  0  0  0  0  0  0999 V2000
  -10.8013    4.5692   -7.1710 N   0  0  0  0  0  0  0  0  0  0  0  0
  -10.9410    3.7756   -8.2742 C   0  0  0  0  0  0  0  0  0  0  0  0
   -9.8741    3.3176   -8.9042 N   0  0  0  0  0  0  0  0  0  0  0  0
   -8.6033    3.6116   -8.4916 C   0  0  0  0  0  0  0  0  0  0  0  0
   -8.4007    4.4347   -7.3573 C   0  0  0  0  0  0  0  0  0  0  0  0
   -9.5593    4.9242   -6.6823 C   0  0  0  0  0  0  0  0  0  0  0  0
   -9.4554    5.6387   -5.7006 O   0  0  0  0  0  0  0  0  0  0  0  0
   -6.9484    4.5636   -7.1896 C   0  0  0  0  0  0  0  0  0  0  0  0
   -6.2101    5.3522   -6.1405 C   0  0  0  0  0  0  0  0  0  0  0  0
   -6.9109    5.2370   -4.8547 N   0  0  0  0  0  0  0  0  0  0  0  0
   -6.3966    3.8369   -8.1693 C   0  0  0  0  0  0  0  0  0  0  0  0
   -7.3690    3.2730   -8.9515 N   0  0  0  0  0  0  0  0  0  0  0  0
  -12.1947    3.4553   -8.7275 N   0  0  0  0  0  0  0  0  0  0  0  0
  1  6  1  0  0  0  0
  2  1  1  0  0  0  0
  3  4  1  0  0  0  0
  3  2  2  0  0  0  0
  4  5  2  0  0  0  0
  5  8  1  0  0  0  0
  5  6  1  0  0  0  0
  6  7  2  0  0  0  0
  8  9  1  0  0  0  0
  9 10  1  0  0  0  0
 11  8  2  0  0  0  0
 12  4  1  0  0  0  0
 12 11  1  0  0  0  0
 13  2  1  0  0  0  0
M  END
>  <CHROM.1>
38.54390327,116.28124520,-8.78911600,4.32027337,-7.39045152,2.63246407,0.02008000
-2.12085742

>  <Name>
lig.pdb

>  <RI>
1.51961e+07

>  <Rbt.Current_Directory>
/home/itssahil/PROJECTS/Mol_Feturizer/New_Systems/rnas/2miy

>  <Rbt.Executable>
rbdock ($Id: //depot/dev/client3/rdock/2013.1/src/exe/rbdock.cxx#4 $)

>  <Rbt.Library>
libRbt.so (2013.1, Build901 2013/11/27)

>  <Rbt.Parameter_File>
/export/apps/rDock/src/rDock_2013.1_src/data/scripts/dock_solv.prm

>  <Rbt.Receptor>
prm/pocket_docking_3.prm

>  <SCORE>
-48.7042

>  <SCORE.INTER>
-48.0412

>  <SCORE.INTER.CONST>
1

>  <SCORE.INTER.POLAR>
-5.46013

>  <SCORE.INTER.ROT>
2

>  <SCORE.INTER.SOLV>
17.8363

>  <SCORE.INTER.VDW>
-24.7058

>  <SCORE.INTER.norm>
-3.69548

>  <SCORE.INTRA>
-0.714296

>  <SCORE.INTRA.DIHEDRAL>
0.301716

>  <SCORE.INTRA.DIHEDRAL.0>
1.76676

>  <SCORE.INTRA.POLAR>
-0.296303

>  <SCORE.INTRA.POLAR.0>
-0.472211

>  <SCORE.INTRA.REPUL>
0

>  <SCORE.INTRA.REPUL.0>
0

>  <SCORE.INTRA.SOLV>
0.0619929

>  <SCORE.INTRA.SOLV.lig_0>
-22.5855

>  <SCORE.INTRA.VDW>
0.111279

>  <SCORE.INTRA.VDW.0>
-0.733656

>  <SCORE.INTRA.norm>
-0.0549458

>  <SCORE.RESTR>
0.0512613

>  <SCORE.RESTR.CAVITY>
0.0512613

>  <SCORE.RESTR.norm>
0.00394318

>  <SCORE.SYSTEM>
0

>  <SCORE.SYSTEM.CONST>
0

>  <SCORE.SYSTEM.DIHEDRAL>
0

>  <SCORE.SYSTEM.SOLV>
0

>  <SCORE.SYSTEM.norm>
0

>  <SCORE.heavy>
13

>  <SCORE.norm>
-3.74648

>  <RMSD>
0.727

$$$$
lig.pdb
 OpenBabel11021811453D
libRbt.so/2013.1/901 2013/11/27
 13 14  0  0  0  0  0  0  0  0999 V2000
  -10.8045    4.5718   -7.1772 N   0  0  0  0  0  0  0  0  0  0  0  0
  -10.9438    3.7785   -8.2807 C   0  0  0  0  0  0  0  0  0  0  0  0
   -9.8768    3.3173   -8.9081 N   0  0  0  0  0  0  0  0  0  0  0  0
   -8.6062    3.6078   -8.4926 C   0  0  0  0  0  0  0  0  0  0  0  0
   -8.4039    4.4305   -7.3580 C   0  0  0  0  0  0  0  0  0  0  0  0
   -9.5626    4.9235   -6.6858 C   0  0  0  0  0  0  0  0  0  0  0  0
   -9.4589    5.6378   -5.7040 O   0  0  0  0  0  0  0  0  0  0  0  0
   -6.9516    4.5554   -7.1870 C   0  0  0  0  0  0  0  0  0  0  0  0
   -6.2134    5.3421   -6.1363 C   0  0  0  0  0  0  0  0  0  0  0  0
   -6.9232    5.2376   -4.8545 N   0  0  0  0  0  0  0  0  0  0  0  0
   -6.3996    3.8270   -8.1652 C   0  0  0  0  0  0  0  0  0  0  0  0
   -7.3718    3.2657   -8.9496 N   0  0  0  0  0  0  0  0  0  0  0  0
  -12.1974    3.4616   -8.7368 N   0  0  0  0  0  0  0  0  0  0  0  0
  1  6  1  0  0  0  0
  2  1  1  0  0  0  0
  3  4  1  0  0  0  0
  3  2  2  0  0  0  0
  4  5  2  0  0  0  0
  5  8  1  0  0  0  0
  5  6  1  0  0  0  0
  6  7  2  0  0  0  0
  8  9  1  0  0  0  0
  9 10  1  0  0  0  0
 11  8  2  0  0  0  0
 12  4  1  0  0  0  0
 12 11  1  0  0  0  0
 13  2  1  0  0  0  0
M  END
>  <CHROM.1>
38.11171568,-61.75459443,-8.79295411,4.31814716,-7.39218773,2.63140958,0.02335116
-2.12177613

>  <Name>
lig.pdb

>  <RI>
1.51961e+07

>  <Rbt.Current_Directory>
/home/itssahil/PROJECTS/Mol_Feturizer/New_Systems/rnas/2miy

>  <Rbt.Executable>
rbdock ($Id: //depot/dev/client3/rdock/2013.1/src/exe/rbdock.cxx#4 $)

>  <Rbt.Library>
libRbt.so (2013.1, Build901 2013/11/27)

>  <Rbt.Parameter_File>
/export/apps/rDock/src/rDock_2013.1_src/data/scripts/dock_solv.prm

>  <Rbt.Receptor>
prm/pocket_docking_3.prm

>  <SCORE>
-48.7261

>  <SCORE.INTER>
-48.0755

>  <SCORE.INTER.CONST>
1

>  <SCORE.INTER.POLAR>
-5.4814

>  <SCORE.INTER.ROT>
2

>  <SCORE.INTER.SOLV>
17.8198

>  <SCORE.INTER.VDW>
-24.6523

>  <SCORE.INTER.norm>
-3.69811

>  <SCORE.INTRA>
-0.707233

>  <SCORE.INTRA.DIHEDRAL>
0.331513

>  <SCORE.INTRA.DIHEDRAL.0>
1.76676

>  <SCORE.INTRA.POLAR>
-0.304112

>  <SCORE.INTRA.POLAR.0>
-0.472211

>  <SCORE.INTRA.REPUL>
0

>  <SCORE.INTRA.REPUL.0>
0

>  <SCORE.INTRA.SOLV>
0.065293

>  <SCORE.INTRA.SOLV.lig_0>
-22.5855

>  <SCORE.INTRA.VDW>
0.128346

>  <SCORE.INTRA.VDW.0>
-0.733656

>  <SCORE.INTRA.norm>
-0.0544025

>  <SCORE.RESTR>
0.056664

>  <SCORE.RESTR.CAVITY>
0.056664

>  <SCORE.RESTR.norm>
0.00435877

>  <SCORE.SYSTEM>
0

>  <SCORE.SYSTEM.CONST>
0

>  <SCORE.SYSTEM.DIHEDRAL>
0

>  <SCORE.SYSTEM.SOLV>
0

>  <SCORE.SYSTEM.norm>
0

>  <SCORE.heavy>
13

>  <SCORE.norm>
-3.74816

>  <RMSD>
0.727

$$$$
lig.pdb
 OpenBabel11021811453D
libRbt.so/2013.1/901 2013/11/27
 13 14  0  0  0  0  0  0  0  0999 V2000
  -10.8050    4.5728   -7.1797 N   0  0  0  0  0  0  0  0  0  0  0  0
  -10.9443    3.7784   -8.2824 C   0  0  0  0  0  0  0  0  0  0  0  0
   -9.8773    3.3163   -8.9090 N   0  0  0  0  0  0  0  0  0  0  0  0
   -8.6067    3.6067   -8.4935 C   0  0  0  0  0  0  0  0  0  0  0  0
   -8.4044    4.4305   -7.3596 C   0  0  0  0  0  0  0  0  0  0  0  0
   -9.5632    4.9244   -6.6882 C   0  0  0  0  0  0  0  0  0  0  0  0
   -9.4595    5.6397   -5.7070 O   0  0  0  0  0  0  0  0  0  0  0  0
   -6.9521    4.5550   -7.1883 C   0  0  0  0  0  0  0  0  0  0  0  0
   -6.2140    5.3425   -6.1381 C   0  0  0  0  0  0  0  0  0  0  0  0
   -6.9289    5.2466   -4.8585 N   0  0  0  0  0  0  0  0  0  0  0  0
   -6.4001    3.8255   -8.1657 C   0  0  0  0  0  0  0  0  0  0  0  0
   -7.3723    3.2638   -8.9498 N   0  0  0  0  0  0  0  0  0  0  0  0
  -12.1979    3.4615   -8.7386 N   0  0  0  0  0  0  0  0  0  0  0  0
  1  6  1  0  0  0  0
  2  1  1  0  0  0  0
  3  4  1  0  0  0  0
  3  2  2  0  0  0  0
  4  5  2  0  0  0  0
  5  8  1  0  0  0  0
  5  6  1  0  0  0  0
  6  7  2  0  0  0  0
  8  9  1  0  0  0  0
  9 10  1  0  0  0  0
 11  8  2  0  0  0  0
 12  4  1  0  0  0  0
 12 11  1  0  0  0  0
 13  2  1  0  0  0  0
M  END
>  <CHROM.1>
37.74508781,-61.28020900,-8.79396094,4.31887338,-7.39399973,2.63103309,0.02352836
-2.12331509

>  <Name>
lig.pdb

>  <RI>
2.68696e+07

>  <Rbt.Current_Directory>
/home/itssahil/PROJECTS/Mol_Feturizer/New_Systems/rnas/2miy

>  <Rbt.Executable>
rbdock ($Id: //depot/dev/client3/rdock/2013.1/src/exe/rbdock.cxx#4 $)

>  <Rbt.Library>
libRbt.so (2013.1, Build901 2013/11/27)

>  <Rbt.Parameter_File>
/export/apps/rDock/src/rDock_2013.1_src/data/scripts/dock_solv.prm

>  <Rbt.Receptor>
prm/pocket_docking_4.prm

>  <SCORE>
-48.7884

>  <SCORE.INTER>
-48.0826

>  <SCORE.INTER.CONST>
1

>  <SCORE.INTER.POLAR>
-5.48548

>  <SCORE.INTER.ROT>
2

>  <SCORE.INTER.SOLV>
17.825

>  <SCORE.INTER.VDW>
-24.6451

>  <SCORE.INTER.norm>
-3.69866

>  <SCORE.INTRA>
-0.705869

>  <SCORE.INTRA.DIHEDRAL>
0.350162

>  <SCORE.INTRA.DIHEDRAL.0>
1.76676

>  <SCORE.INTRA.POLAR>
-0.310433

>  <SCORE.INTRA.POLAR.0>
-0.472211

>  <SCORE.INTRA.REPUL>
0

>  <SCORE.INTRA.REPUL.0>
0

>  <SCORE.INTRA.SOLV>
0.0688025

>  <SCORE.INTRA.SOLV.lig_0>
-22.5855

>  <SCORE.INTRA.VDW>
0.140121

>  <SCORE.INTRA.VDW.0>
-0.733656

>  <SCORE.INTRA.norm>
-0.0542976

>  <SCORE.RESTR>
0

>  <SCORE.RESTR.CAVITY>
0

>  <SCORE.RESTR.norm>
0

>  <SCORE.SYSTEM>
0

>  <SCORE.SYSTEM.CONST>
0

>  <SCORE.SYSTEM.DIHEDRAL>
0

>  <SCORE.SYSTEM.SOLV>
0

>  <SCORE.SYSTEM.norm>
0

>  <SCORE.heavy>
13

>  <SCORE.norm>
-3.75296

>  <RMSD>
0.727

$$$$
lig.pdb
 OpenBabel11021811453D
libRbt.so/2013.1/901 2013/11/27
 13 14  0  0  0  0  0  0  0  0999 V2000
  -10.8042    4.5779   -7.1787 N   0  0  0  0  0  0  0  0  0  0  0  0
  -10.9415    3.7897   -8.2861 C   0  0  0  0  0  0  0  0  0  0  0  0
   -9.8733    3.3327   -8.9145 N   0  0  0  0  0  0  0  0  0  0  0  0
   -8.6034    3.6225   -8.4963 C   0  0  0  0  0  0  0  0  0  0  0  0
   -8.4032    4.4399   -7.3575 C   0  0  0  0  0  0  0  0  0  0  0  0
   -9.5633    4.9284   -6.6842 C   0  0  0  0  0  0  0  0  0  0  0  0
   -9.4614    5.6382   -5.6989 O   0  0  0  0  0  0  0  0  0  0  0  0
   -6.9512    4.5655   -7.1843 C   0  0  0  0  0  0  0  0  0  0  0  0
   -6.2151    5.3479   -6.1290 C   0  0  0  0  0  0  0  0  0  0  0  0
   -6.9321    5.2457   -4.8511 N   0  0  0  0  0  0  0  0  0  0  0  0
   -6.3974    3.8424   -8.1654 C   0  0  0  0  0  0  0  0  0  0  0  0
   -7.3682    3.2838   -8.9535 N   0  0  0  0  0  0  0  0  0  0  0  0
  -12.1942    3.4737   -8.7452 N   0  0  0  0  0  0  0  0  0  0  0  0
  1  6  1  0  0  0  0
  2  1  1  0  0  0  0
  3  4  1  0  0  0  0
  3  2  2  0  0  0  0
  4  5  2  0  0  0  0
  5  8  1  0  0  0  0
  5  6  1  0  0  0  0
  6  7  2  0  0  0  0
  8  9  1  0  0  0  0
  9 10  1  0  0  0  0
 11  8  2  0  0  0  0
 12  4  1  0  0  0  0
 12 11  1  0  0  0  0
 13  2  1  0  0  0  0
M  END
>  <CHROM.1>
37.64809857,116.68039041,-8.79278401,4.32804578,-7.39297605,2.62973359,0.02276751
-2.11767833

>  <Name>
lig.pdb

>  <RI>
4.2128e+07

>  <Rbt.Current_Directory>
/home/itssahil/PROJECTS/Mol_Feturizer/New_Systems/rnas/2miy

>  <Rbt.Executable>
rbdock ($Id: //depot/dev/client3/rdock/2013.1/src/exe/rbdock.cxx#4 $)

>  <Rbt.Library>
libRbt.so (2013.1, Build901 2013/11/27)

>  <Rbt.Parameter_File>
/export/apps/rDock/src/rDock_2013.1_src/data/scripts/dock_solv.prm

>  <Rbt.Receptor>
prm/pocket_docking_5.prm

>  <SCORE>
-48.6948

>  <SCORE.INTER>
-48.0287

>  <SCORE.INTER.CONST>
1

>  <SCORE.INTER.POLAR>
-5.47262

>  <SCORE.INTER.ROT>
2

>  <SCORE.INTER.SOLV>
17.8174

>  <SCORE.INTER.VDW>
-24.6495

>  <SCORE.INTER.norm>
-3.69451

>  <SCORE.INTRA>
-0.710467

>  <SCORE.INTRA.DIHEDRAL>
0.349564

>  <SCORE.INTRA.DIHEDRAL.0>
1.76676

>  <SCORE.INTRA.POLAR>
-0.310492

>  <SCORE.INTRA.POLAR.0>
-0.472211

>  <SCORE.INTRA.REPUL>
0

>  <SCORE.INTRA.REPUL.0>
0

>  <SCORE.INTRA.SOLV>
0.0703603

>  <SCORE.INTRA.SOLV.lig_0>
-22.5855

>  <SCORE.INTRA.VDW>
0.135245

>  <SCORE.INTRA.VDW.0>
-0.733656

>  <SCORE.INTRA.norm>
-0.0546513

>  <SCORE.RESTR>
0.0443714

>  <SCORE.RESTR.CAVITY>
0.0443714

>  <SCORE.RESTR.norm>
0.00341319

>  <SCORE.SYSTEM>
0

>  <SCORE.SYSTEM.CONST>
0

>  <SCORE.SYSTEM.DIHEDRAL>
0

>  <SCORE.SYSTEM.SOLV>
0

>  <SCORE.SYSTEM.norm>
0

>  <SCORE.heavy>
13

>  <SCORE.norm>
-3.74575

>  <RMSD>
0.727

$$$$
lig.pdb
 OpenBabel11021811453D
libRbt.so/2013.1/901 2013/11/27
 13 14  0  0  0  0  0  0  0  0999 V2000
  -10.8054    4.5791   -7.1809 N   0  0  0  0  0  0  0  0  0  0  0  0
  -10.9416    3.7932   -8.2900 C   0  0  0  0  0  0  0  0  0  0  0  0
   -9.8728    3.3371   -8.9181 N   0  0  0  0  0  0  0  0  0  0  0  0
   -8.6033    3.6256   -8.4977 C   0  0  0  0  0  0  0  0  0  0  0  0
   -8.4042    4.4407   -7.3570 C   0  0  0  0  0  0  0  0  0  0  0  0
   -9.5649    4.9282   -6.6842 C   0  0  0  0  0  0  0  0  0  0  0  0
   -9.4640    5.6359   -5.6973 O   0  0  0  0  0  0  0  0  0  0  0  0
   -6.9524    4.5654   -7.1818 C   0  0  0  0  0  0  0  0  0  0  0  0
   -6.2173    5.3454   -6.1240 C   0  0  0  0  0  0  0  0  0  0  0  0
   -6.9401    5.2473   -4.8490 N   0  0  0  0  0  0  0  0  0  0  0  0
   -6.3976    3.8441   -8.1637 C   0  0  0  0  0  0  0  0  0  0  0  0
   -7.3676    3.2875   -8.9541 N   0  0  0  0  0  0  0  0  0  0  0  0
  -12.1939    3.4785   -8.7512 N   0  0  0  0  0  0  0  0  0  0  0  0
  1  6  1  0  0  0  0
  2  1  1  0  0  0  0
  3  4  1  0  0  0  0
  3  2  2  0  0  0  0
  4  5  2  0  0  0  0
  5  8  1  0  0  0  0
  5  6  1  0  0  0  0
  6  7  2  0  0  0  0
  8  9  1  0  0  0  0
  9 10  1  0  0  0  0
 11  8  2  0  0  0  0
 12  4  1  0  0  0  0
 12 11  1  0  0  0  0
 13  2  1  0  0  0  0
M  END
>  <CHROM.1>
37.31891596,118.29787772,-8.79417295,4.32960219,-7.39335685,2.62858098,0.02342827
-2.11612438

>  <Name>
lig.pdb

>  <RI>
4.2128e+07

>  <Rbt.Current_Directory>
/home/itssahil/PROJECTS/Mol_Feturizer/New_Systems/rnas/2miy

>  <Rbt.Executable>
rbdock ($Id: //depot/dev/client3/rdock/2013.1/src/exe/rbdock.cxx#4 $)

>  <Rbt.Library>
libRbt.so (2013.1, Build901 2013/11/27)

>  <Rbt.Parameter_File>
/export/apps/rDock/src/rDock_2013.1_src/data/scripts/dock_solv.prm

>  <Rbt.Receptor>
prm/pocket_docking_5.prm

>  <SCORE>
-48.7151

>  <SCORE.INTER>
-48.0496

>  <SCORE.INTER.CONST>
1

>  <SCORE.INTER.POLAR>
-5.47068

>  <SCORE.INTER.ROT>
2

>  <SCORE.INTER.SOLV>
17.8052

>  <SCORE.INTER.VDW>
-24.6659

>  <SCORE.INTER.norm>
-3.69613

>  <SCORE.INTRA>
-0.707402

>  <SCORE.INTRA.DIHEDRAL>
0.369709

>  <SCORE.INTRA.DIHEDRAL.0>
1.76676

>  <SCORE.INTRA.POLAR>
-0.318178

>  <SCORE.INTRA.POLAR.0>
-0.472211

>  <SCORE.INTRA.REPUL>
0

>  <SCORE.INTRA.REPUL.0>
0

>  <SCORE.INTRA.SOLV>
0.0737405

>  <SCORE.INTRA.SOLV.lig_0>
-22.5855

>  <SCORE.INTRA.VDW>
0.152678

>  <SCORE.INTRA.VDW.0>
-0.733656

>  <SCORE.INTRA.norm>
-0.0544155

>  <SCORE.RESTR>
0.0418978

>  <SCORE.RESTR.CAVITY>
0.0418978

>  <SCORE.RESTR.norm>
0.0032229

>  <SCORE.SYSTEM>
0

>  <SCORE.SYSTEM.CONST>
0

>  <SCORE.SYSTEM.DIHEDRAL>
0

>  <SCORE.SYSTEM.SOLV>
0

>  <SCORE.SYSTEM.norm>
0

>  <SCORE.heavy>
13

>  <SCORE.norm>
-3.74732

>  <RMSD>
0.727

$$$$
lig.pdb
 OpenBabel11021811453D
libRbt.so/2013.1/901 2013/11/27
 13 14  0  0  0  0  0  0  0  0999 V2000
  -10.8063    4.5587   -7.1971 N   0  0  0  0  0  0  0  0  0  0  0  0
  -10.9419    3.7626   -8.2989 C   0  0  0  0  0  0  0  0  0  0  0  0
   -9.8729    3.2966   -8.9193 N   0  0  0  0  0  0  0  0  0  0  0  0
   -8.6037    3.5846   -8.4978 C   0  0  0  0  0  0  0  0  0  0  0  0
   -8.4051    4.4100   -7.3645 C   0  0  0  0  0  0  0  0  0  0  0  0
   -9.5661    4.9082   -6.6999 C   0  0  0  0  0  0  0  0  0  0  0  0
   -9.4656    5.6251   -5.7196 O   0  0  0  0  0  0  0  0  0  0  0  0
   -6.9534    4.5312   -7.1860 C   0  0  0  0  0  0  0  0  0  0  0  0
   -6.2187    5.3189   -6.1335 C   0  0  0  0  0  0  0  0  0  0  0  0
   -6.9436    5.2323   -4.8589 N   0  0  0  0  0  0  0  0  0  0  0  0
   -6.3982    3.7984   -8.1591 C   0  0  0  0  0  0  0  0  0  0  0  0
   -7.3678    3.2377   -8.9471 N   0  0  0  0  0  0  0  0  0  0  0  0
  -12.1939    3.4479   -8.7609 N   0  0  0  0  0  0  0  0  0  0  0  0
  1  6  1  0  0  0  0
  2  1  1  0  0  0  0
  3  4  1  0  0  0  0
  3  2  2  0  0  0  0
  4  5  2  0  0  0  0
  5  8  1  0  0  0  0
  5  6  1  0  0  0  0
  6  7  2  0  0  0  0
  8  9  1  0  0  0  0
  9 10  1  0  0  0  0
 11  8  2  0  0  0  0
 12  4  1  0  0  0  0
 12 11  1  0  0  0  0
 13  2  1  0  0  0  0
M  END
>  <CHROM.1>
37.49031896,117.36598868,-8.79514511,4.29965102,-7.40080259,2.62799376,0.02822311
-2.12555018

>  <Name>
lig.pdb

>  <RI>
2.95488e+07

>  <Rbt.Current_Directory>
/home/itssahil/PROJECTS/Mol_Feturizer/New_Systems/rnas/2miy

>  <Rbt.Executable>
rbdock ($Id: //depot/dev/client3/rdock/2013.1/src/exe/rbdock.cxx#4 $)

>  <Rbt.Library>
libRbt.so (2013.1, Build901 2013/11/27)

>  <Rbt.Parameter_File>
/export/apps/rDock/src/rDock_2013.1_src/data/scripts/dock_solv.prm

>  <Rbt.Receptor>
prm/blind_docking_20.prm

>  <SCORE>
-48.819

>  <SCORE.INTER>
-48.1168

>  <SCORE.INTER.CONST>
1

>  <SCORE.INTER.POLAR>
-5.447

>  <SCORE.INTER.ROT>
2

>  <SCORE.INTER.SOLV>
17.7933

>  <SCORE.INTER.VDW>
-24.7856

>  <SCORE.INTER.norm>
-3.70129

>  <SCORE.INTRA>
-0.710228

>  <SCORE.INTRA.DIHEDRAL>
0.35906

>  <SCORE.INTRA.DIHEDRAL.0>
1.76676

>  <SCORE.INTRA.POLAR>
-0.314307

>  <SCORE.INTRA.POLAR.0>
-0.472211

>  <SCORE.INTRA.REPUL>
0

>  <SCORE.INTRA.REPUL.0>
0

>  <SCORE.INTRA.SOLV>
0.071928

>  <SCORE.INTRA.SOLV.lig_0>
-22.5855

>  <SCORE.INTRA.VDW>
0.14292

>  <SCORE.INTRA.VDW.0>
-0.733656

>  <SCORE.INTRA.norm>
-0.0546329

>  <SCORE.RESTR>
0.00800412

>  <SCORE.RESTR.CAVITY>
0.00800412

>  <SCORE.RESTR.norm>
0.000615701

>  <SCORE.SYSTEM>
0

>  <SCORE.SYSTEM.CONST>
0

>  <SCORE.SYSTEM.DIHEDRAL>
0

>  <SCORE.SYSTEM.SOLV>
0

>  <SCORE.SYSTEM.norm>
0

>  <SCORE.heavy>
13

>  <SCORE.norm>
-3.75531

>  <RMSD>
0.728

$$$$
lig.pdb
 OpenBabel11021811453D
libRbt.so/2013.1/901 2013/11/27
 13 14  0  0  0  0  0  0  0  0999 V2000
  -10.8072    4.5642   -7.1929 N   0  0  0  0  0  0  0  0  0  0  0  0
  -10.9451    3.7680   -8.2945 C   0  0  0  0  0  0  0  0  0  0  0  0
   -9.8774    3.3003   -8.9157 N   0  0  0  0  0  0  0  0  0  0  0  0
   -8.6073    3.5865   -8.4956 C   0  0  0  0  0  0  0  0  0  0  0  0
   -8.4064    4.4119   -7.3627 C   0  0  0  0  0  0  0  0  0  0  0  0
   -9.5660    4.9120   -6.6971 C   0  0  0  0  0  0  0  0  0  0  0  0
   -9.4635    5.6290   -5.7171 O   0  0  0  0  0  0  0  0  0  0  0  0
   -6.9544    4.5310   -7.1856 C   0  0  0  0  0  0  0  0  0  0  0  0
   -6.2174    5.3178   -6.1341 C   0  0  0  0  0  0  0  0  0  0  0  0
   -6.9358    5.2244   -4.8563 N   0  0  0  0  0  0  0  0  0  0  0  0
   -6.4012    3.7972   -8.1591 C   0  0  0  0  0  0  0  0  0  0  0  0
   -7.3724    3.2376   -8.9460 N   0  0  0  0  0  0  0  0  0  0  0  0
  -12.1980    3.4551   -8.7551 N   0  0  0  0  0  0  0  0  0  0  0  0
  1  6  1  0  0  0  0
  2  1  1  0  0  0  0
  3  4  1  0  0  0  0
  3  2  2  0  0  0  0
  4  5  2  0  0  0  0
  5  8  1  0  0  0  0
  5  6  1  0  0  0  0
  6  7  2  0  0  0  0
  8  9  1  0  0  0  0
  9 10  1  0  0  0  0
 11  8  2  0  0  0  0
 12  4  1  0  0  0  0
 12 11  1  0  0  0  0
 13  2  1  0  0  0  0
M  END
>  <CHROM.1>
37.91384382,-60.45765615,-8.79607951,4.30152252,-7.39831419,2.62975999,0.02919438
-2.12516625

>  <Name>
lig.pdb

>  <RI>
2.95488e+07

>  <Rbt.Current_Directory>
/home/itssahil/PROJECTS/Mol_Feturizer/New_Systems/rnas/2miy

>  <Rbt.Executable>
rbdock ($Id: //depot/dev/client3/rdock/2013.1/src/exe/rbdock.cxx#4 $)

>  <Rbt.Library>
libRbt.so (2013.1, Build901 2013/11/27)

>  <Rbt.Parameter_File>
/export/apps/rDock/src/rDock_2013.1_src/data/scripts/dock_solv.prm

>  <Rbt.Receptor>
prm/blind_docking_20.prm

>  <SCORE>
-48.8119

>  <SCORE.INTER>
-48.1162

>  <SCORE.INTER.CONST>
1

>  <SCORE.INTER.POLAR>
-5.47679

>  <SCORE.INTER.ROT>
2

>  <SCORE.INTER.SOLV>
17.7944

>  <SCORE.INTER.VDW>
-24.6863

>  <SCORE.INTER.norm>
-3.70125

>  <SCORE.INTRA>
-0.703008

>  <SCORE.INTRA.DIHEDRAL>
0.339905

>  <SCORE.INTRA.DIHEDRAL.0>
1.76676

>  <SCORE.INTRA.POLAR>
-0.30792

>  <SCORE.INTRA.POLAR.0>
-0.472211

>  <SCORE.INTRA.REPUL>
0

>  <SCORE.INTRA.REPUL.0>
0

>  <SCORE.INTRA.SOLV>
0.0675054

>  <SCORE.INTRA.SOLV.lig_0>
-22.5855

>  <SCORE.INTRA.VDW>
0.140215

>  <SCORE.INTRA.VDW.0>
-0.733656

>  <SCORE.INTRA.norm>
-0.0540775

>  <SCORE.RESTR>
0.00731806

>  <SCORE.RESTR.CAVITY>
0.00731806

>  <SCORE.RESTR.norm>
0.000562928

>  <SCORE.SYSTEM>
0

>  <SCORE.SYSTEM.CONST>
0

>  <SCORE.SYSTEM.DIHEDRAL>
0

>  <SCORE.SYSTEM.SOLV>
0

>  <SCORE.SYSTEM.norm>
0

>  <SCORE.heavy>
13

>  <SCORE.norm>
-3.75476

>  <RMSD>
0.728

$$$$
lig.pdb
 OpenBabel11021811453D
libRbt.so/2013.1/901 2013/11/27
 13 14  0  0  0  0  0  0  0  0999 V2000
  -10.8059    4.5589   -7.1971 N   0  0  0  0  0  0  0  0  0  0  0  0
  -10.9415    3.7651   -8.3007 C   0  0  0  0  0  0  0  0  0  0  0  0
   -9.8724    3.2998   -8.9215 N   0  0  0  0  0  0  0  0  0  0  0  0
   -8.6032    3.5862   -8.4988 C   0  0  0  0  0  0  0  0  0  0  0  0
   -8.4047    4.4092   -7.3637 C   0  0  0  0  0  0  0  0  0  0  0  0
   -9.5657    4.9067   -6.6987 C   0  0  0  0  0  0  0  0  0  0  0  0
   -9.4653    5.6215   -5.7169 O   0  0  0  0  0  0  0  0  0  0  0  0
   -6.9530    4.5292   -7.1842 C   0  0  0  0  0  0  0  0  0  0  0  0
   -6.2184    5.3142   -6.1298 C   0  0  0  0  0  0  0  0  0  0  0  0
   -6.9429    5.2240   -4.8553 N   0  0  0  0  0  0  0  0  0  0  0  0
   -6.3978    3.7981   -8.1586 C   0  0  0  0  0  0  0  0  0  0  0  0
   -7.3673    3.2395   -8.9482 N   0  0  0  0  0  0  0  0  0  0  0  0
  -12.1934    3.4521   -8.7639 N   0  0  0  0  0  0  0  0  0  0  0  0
  1  6  1  0  0  0  0
  2  1  1  0  0  0  0
  3  4  1  0  0  0  0
  3  2  2  0  0  0  0
  4  5  2  0  0  0  0
  5  8  1  0  0  0  0
  5  6  1  0  0  0  0
  6  7  2  0  0  0  0
  8  9  1  0  0  0  0
  9 10  1  0  0  0  0
 11  8  2  0  0  0  0
 12  4  1  0  0  0  0
 12 11  1  0  0  0  0
 13  2  1  0  0  0  0
M  END
>  <CHROM.1>
37.56962358,117.58722163,-8.79469451,4.29898312,-7.40039443,2.62795264,0.02902199
-2.12336029

>  <Name>
lig.pdb

>  <RI>
2.95488e+07

>  <Rbt.Current_Directory>
/home/itssahil/PROJECTS/Mol_Feturizer/New_Systems/rnas/2miy

>  <Rbt.Executable>
rbdock ($Id: //depot/dev/client3/rdock/2013.1/src/exe/rbdock.cxx#4 $)

>  <Rbt.Library>
libRbt.so (2013.1, Build901 2013/11/27)

>  <Rbt.Parameter_File>
/export/apps/rDock/src/rDock_2013.1_src/data/scripts/dock_solv.prm

>  <Rbt.Receptor>
prm/blind_docking_20.prm

>  <SCORE>
-48.8178

>  <SCORE.INTER>
-48.1148

>  <SCORE.INTER.CONST>
1

>  <SCORE.INTER.POLAR>
-5.44676

>  <SCORE.INTER.ROT>
2

>  <SCORE.INTER.SOLV>
17.7823

>  <SCORE.INTER.VDW>
-24.7814

>  <SCORE.INTER.norm>
-3.70114

>  <SCORE.INTRA>
-0.710654

>  <SCORE.INTRA.DIHEDRAL>
0.355176

>  <SCORE.INTRA.DIHEDRAL.0>
1.76676

>  <SCORE.INTRA.POLAR>
-0.313501

>  <SCORE.INTRA.POLAR.0>
-0.472211

>  <SCORE.INTRA.REPUL>
0

>  <SCORE.INTRA.REPUL.0>
0

>  <SCORE.INTRA.SOLV>
0.0712642

>  <SCORE.INTRA.SOLV.lig_0>
-22.5855

>  <SCORE.INTRA.VDW>
0.142031

>  <SCORE.INTRA.VDW.0>
-0.733656

>  <SCORE.INTRA.norm>
-0.0546657

>  <SCORE.RESTR>
0.00762937

>  <SCORE.RESTR.CAVITY>
0.00762937

>  <SCORE.RESTR.norm>
0.000586875

>  <SCORE.SYSTEM>
0

>  <SCORE.SYSTEM.CONST>
0

>  <SCORE.SYSTEM.DIHEDRAL>
0

>  <SCORE.SYSTEM.SOLV>
0

>  <SCORE.SYSTEM.norm>
0

>  <SCORE.heavy>
13

>  <SCORE.norm>
-3.75521

>  <RMSD>
0.728

$$$$
lig.pdb
 OpenBabel11021811453D
libRbt.so/2013.1/901 2013/11/27
 13 14  0  0  0  0  0  0  0  0999 V2000
  -10.8043    4.5793   -7.1801 N   0  0  0  0  0  0  0  0  0  0  0  0
  -10.9397    3.7964   -8.2914 C   0  0  0  0  0  0  0  0  0  0  0  0
   -9.8704    3.3426   -8.9203 N   0  0  0  0  0  0  0  0  0  0  0  0
   -8.6013    3.6306   -8.4987 C   0  0  0  0  0  0  0  0  0  0  0  0
   -8.4030    4.4427   -7.3557 C   0  0  0  0  0  0  0  0  0  0  0  0
   -9.5642    4.9277   -6.6819 C   0  0  0  0  0  0  0  0  0  0  0  0
   -9.4640    5.6327   -5.6930 O   0  0  0  0  0  0  0  0  0  0  0  0
   -6.9514    4.5676   -7.1796 C   0  0  0  0  0  0  0  0  0  0  0  0
   -6.2170    5.3451   -6.1194 C   0  0  0  0  0  0  0  0  0  0  0  0
   -6.9365    5.2373   -4.8433 N   0  0  0  0  0  0  0  0  0  0  0  0
   -6.3958    3.8493   -8.1632 C   0  0  0  0  0  0  0  0  0  0  0  0
   -7.3652    3.2944   -8.9556 N   0  0  0  0  0  0  0  0  0  0  0  0
  -12.1917    3.4823   -8.7539 N   0  0  0  0  0  0  0  0  0  0  0  0
  1  6  1  0  0  0  0
  2  1  1  0  0  0  0
  3  4  1  0  0  0  0
  3  2  2  0  0  0  0
  4  5  2  0  0  0  0
  5  8  1  0  0  0  0
  5  6  1  0  0  0  0
  6  7  2  0  0  0  0
  8  9  1  0  0  0  0
  9 10  1  0  0  0  0
 11  8  2  0  0  0  0
 12  4  1  0  0  0  0
 12 11  1  0  0  0  0
 13  2  1  0  0  0  0
M  END
>  <CHROM.1>
37.61329302,-61.37137765,-8.79249351,4.33106747,-7.39226352,2.62805207,0.02335436
-2.11294003

>  <Name>
lig.pdb

>  <RI>
1.82164e+07

>  <Rbt.Current_Directory>
/home/itssahil/PROJECTS/Mol_Feturizer/New_Systems/rnas/2miy

>  <Rbt.Executable>
rbdock ($Id: //depot/dev/client3/rdock/2013.1/src/exe/rbdock.cxx#4 $)

>  <Rbt.Library>
libRbt.so (2013.1, Build901 2013/11/27)

>  <Rbt.Parameter_File>
/export/apps/rDock/src/rDock_2013.1_src/data/scripts/dock_solv.prm

>  <Rbt.Receptor>
prm/blind_docking_80.prm

>  <SCORE>
-48.6747

>  <SCORE.INTER>
-48.0062

>  <SCORE.INTER.CONST>
1

>  <SCORE.INTER.POLAR>
-5.46158

>  <SCORE.INTER.ROT>
2

>  <SCORE.INTER.SOLV>
17.798

>  <SCORE.INTER.VDW>
-24.6649

>  <SCORE.INTER.norm>
-3.69278

>  <SCORE.INTRA>
-0.70536

>  <SCORE.INTRA.DIHEDRAL>
0.35732

>  <SCORE.INTRA.DIHEDRAL.0>
1.76676

>  <SCORE.INTRA.POLAR>
-0.312375

>  <SCORE.INTRA.POLAR.0>
-0.472211

>  <SCORE.INTRA.REPUL>
0

>  <SCORE.INTRA.REPUL.0>
0

>  <SCORE.INTRA.SOLV>
0.0699782

>  <SCORE.INTRA.SOLV.lig_0>
-22.5855

>  <SCORE.INTRA.VDW>
0.143065

>  <SCORE.INTRA.VDW.0>
-0.733656

>  <SCORE.INTRA.norm>
-0.0542585

>  <SCORE.RESTR>
0.0368365

>  <SCORE.RESTR.CAVITY>
0.0368365

>  <SCORE.RESTR.norm>
0.00283357

>  <SCORE.SYSTEM>
0

>  <SCORE.SYSTEM.CONST>
0

>  <SCORE.SYSTEM.DIHEDRAL>
0

>  <SCORE.SYSTEM.SOLV>
0

>  <SCORE.SYSTEM.norm>
0

>  <SCORE.heavy>
13

>  <SCORE.norm>
-3.74421

>  <RMSD>
0.728

$$$$
lig.pdb
 OpenBabel11021811453D
libRbt.so/2013.1/901 2013/11/27
 13 14  0  0  0  0  0  0  0  0999 V2000
  -10.8061    4.5674   -7.1815 N   0  0  0  0  0  0  0  0  0  0  0  0
  -10.9496    3.7577   -8.2724 C   0  0  0  0  0  0  0  0  0  0  0  0
   -9.8849    3.2874   -8.8970 N   0  0  0  0  0  0  0  0  0  0  0  0
   -8.6127    3.5842   -8.4908 C   0  0  0  0  0  0  0  0  0  0  0  0
   -8.4062    4.4237   -7.3693 C   0  0  0  0  0  0  0  0  0  0  0  0
   -9.5625    4.9265   -6.7001 C   0  0  0  0  0  0  0  0  0  0  0  0
   -9.4551    5.6553   -5.7294 O   0  0  0  0  0  0  0  0  0  0  0  0
   -6.9533    4.5513   -7.2057 C   0  0  0  0  0  0  0  0  0  0  0  0
   -6.2113    5.3536   -6.1697 C   0  0  0  0  0  0  0  0  0  0  0  0
   -6.9220    5.2772   -4.8865 N   0  0  0  0  0  0  0  0  0  0  0  0
   -6.4049    3.8085   -8.1751 C   0  0  0  0  0  0  0  0  0  0  0  0
   -7.3800    3.2355   -8.9473 N   0  0  0  0  0  0  0  0  0  0  0  0
  -12.2048    3.4339   -8.7190 N   0  0  0  0  0  0  0  0  0  0  0  0
  1  6  1  0  0  0  0
  2  1  1  0  0  0  0
  3  4  1  0  0  0  0
  3  2  2  0  0  0  0
  4  5  2  0  0  0  0
  5  8  1  0  0  0  0
  5  6  1  0  0  0  0
  6  7  2  0  0  0  0
  8  9  1  0  0  0  0
  9 10  1  0  0  0  0
 11  8  2  0  0  0  0
 12  4  1  0  0  0  0
 12 11  1  0  0  0  0
 13  2  1  0  0  0  0
M  END
>  <CHROM.1>
37.65042520,-61.47422003,-8.79593773,4.31165182,-7.40058639,2.63419132,0.02087264
-2.13747290

>  <Name>
lig.pdb

>  <RI>
0

>  <Rbt.Current_Directory>
/home/itssahil/PROJECTS/Mol_Feturizer/New_Systems/rnas/2miy

>  <Rbt.Executable>
rbdock ($Id: //depot/dev/client3/rdock/2013.1/src/exe/rbdock.cxx#4 $)

>  <Rbt.Library>
libRbt.so (2013.1, Build901 2013/11/27)

>  <Rbt.Parameter_File>
/export/apps/rDock/src/rDock_2013.1_src/data/scripts/dock_solv.prm

>  <Rbt.Receptor>
prm/pocket_docking_2.prm

>  <SCORE>
-48.8554

>  <SCORE.INTER>
-48.1498

>  <SCORE.INTER.CONST>
1

>  <SCORE.INTER.POLAR>
-5.5044

>  <SCORE.INTER.ROT>
2

>  <SCORE.INTER.SOLV>
17.8952

>  <SCORE.INTER.VDW>
-24.6503

>  <SCORE.INTER.norm>
-3.70383

>  <SCORE.INTRA>
-0.705565

>  <SCORE.INTRA.DIHEDRAL>
0.355505

>  <SCORE.INTRA.DIHEDRAL.0>
1.76676

>  <SCORE.INTRA.POLAR>
-0.311667

>  <SCORE.INTRA.POLAR.0>
-0.472211

>  <SCORE.INTRA.REPUL>
0

>  <SCORE.INTRA.REPUL.0>
0

>  <SCORE.INTRA.SOLV>
0.069608

>  <SCORE.INTRA.SOLV.lig_0>
-22.5855

>  <SCORE.INTRA.VDW>
0.141546

>  <SCORE.INTRA.VDW.0>
-0.733656

>  <SCORE.INTRA.norm>
-0.0542743

>  <SCORE.RESTR>
0

>  <SCORE.RESTR.CAVITY>
0

>  <SCORE.RESTR.norm>
0

>  <SCORE.SYSTEM>
0

>  <SCORE.SYSTEM.CONST>
0

>  <SCORE.SYSTEM.DIHEDRAL>
0

>  <SCORE.SYSTEM.SOLV>
0

>  <SCORE.SYSTEM.norm>
0

>  <SCORE.heavy>
13

>  <SCORE.norm>
-3.7581

>  <RMSD>
0.728

$$$$
lig.pdb
 OpenBabel11021811453D
libRbt.so/2013.1/901 2013/11/27
 13 14  0  0  0  0  0  0  0  0999 V2000
  -10.8033    4.5650   -7.1760 N   0  0  0  0  0  0  0  0  0  0  0  0
  -10.9473    3.7573   -8.2684 C   0  0  0  0  0  0  0  0  0  0  0  0
   -9.8829    3.2878   -8.8942 N   0  0  0  0  0  0  0  0  0  0  0  0
   -8.6105    3.5835   -8.4878 C   0  0  0  0  0  0  0  0  0  0  0  0
   -8.4034    4.4209   -7.3649 C   0  0  0  0  0  0  0  0  0  0  0  0
   -9.5594    4.9227   -6.6943 C   0  0  0  0  0  0  0  0  0  0  0  0
   -9.4515    5.6498   -5.7224 O   0  0  0  0  0  0  0  0  0  0  0  0
   -6.9505    4.5477   -7.2015 C   0  0  0  0  0  0  0  0  0  0  0  0
   -6.2079    5.3479   -6.1642 C   0  0  0  0  0  0  0  0  0  0  0  0
   -6.9114    5.2588   -4.8777 N   0  0  0  0  0  0  0  0  0  0  0  0
   -6.4026    3.8065   -8.1724 C   0  0  0  0  0  0  0  0  0  0  0  0
   -7.3781    3.2352   -8.9453 N   0  0  0  0  0  0  0  0  0  0  0  0
  -12.2028    3.4347   -8.7152 N   0  0  0  0  0  0  0  0  0  0  0  0
  1  6  1  0  0  0  0
  2  1  1  0  0  0  0
  3  4  1  0  0  0  0
  3  2  2  0  0  0  0
  4  5  2  0  0  0  0
  5  8  1  0  0  0  0
  5  6  1  0  0  0  0
  6  7  2  0  0  0  0
  8  9  1  0  0  0  0
  9 10  1  0  0  0  0
 11  8  2  0  0  0  0
 12  4  1  0  0  0  0
 12 11  1  0  0  0  0
 13  2  1  0  0  0  0
M  END
>  <CHROM.1>
38.18848324,117.16208381,-8.79267576,4.30785398,-7.39596294,2.63524352,0.02137902
-2.13471506

>  <Name>
lig.pdb

>  <RI>
2.68696e+07

>  <Rbt.Current_Directory>
/home/itssahil/PROJECTS/Mol_Feturizer/New_Systems/rnas/2miy

>  <Rbt.Executable>
rbdock ($Id: //depot/dev/client3/rdock/2013.1/src/exe/rbdock.cxx#4 $)

>  <Rbt.Library>
libRbt.so (2013.1, Build901 2013/11/27)

>  <Rbt.Parameter_File>
/export/apps/rDock/src/rDock_2013.1_src/data/scripts/dock_solv.prm

>  <Rbt.Receptor>
prm/pocket_docking_4.prm

>  <SCORE>
-48.8513

>  <SCORE.INTER>
-48.1377

>  <SCORE.INTER.CONST>
1

>  <SCORE.INTER.POLAR>
-5.49735

>  <SCORE.INTER.ROT>
2

>  <SCORE.INTER.SOLV>
17.8752

>  <SCORE.INTER.VDW>
-24.6591

>  <SCORE.INTER.norm>
-3.7029

>  <SCORE.INTRA>
-0.713584

>  <SCORE.INTRA.DIHEDRAL>
0.32172

>  <SCORE.INTRA.DIHEDRAL.0>
1.76676

>  <SCORE.INTRA.POLAR>
-0.303307

>  <SCORE.INTRA.POLAR.0>
-0.472211

>  <SCORE.INTRA.REPUL>
0

>  <SCORE.INTRA.REPUL.0>
0

>  <SCORE.INTRA.SOLV>
0.0654602

>  <SCORE.INTRA.SOLV.lig_0>
-22.5855

>  <SCORE.INTRA.VDW>
0.124071

>  <SCORE.INTRA.VDW.0>
-0.733656

>  <SCORE.INTRA.norm>
-0.0548911

>  <SCORE.RESTR>
0

>  <SCORE.RESTR.CAVITY>
0

>  <SCORE.RESTR.norm>
0

>  <SCORE.SYSTEM>
0

>  <SCORE.SYSTEM.CONST>
0

>  <SCORE.SYSTEM.DIHEDRAL>
0

>  <SCORE.SYSTEM.SOLV>
0

>  <SCORE.SYSTEM.norm>
0

>  <SCORE.heavy>
13

>  <SCORE.norm>
-3.75779

>  <RMSD>
0.728

$$$$
lig.pdb
 OpenBabel11021811453D
libRbt.so/2013.1/901 2013/11/27
 13 14  0  0  0  0  0  0  0  0999 V2000
  -10.8050    4.5804   -7.1782 N   0  0  0  0  0  0  0  0  0  0  0  0
  -10.9408    3.7965   -8.2888 C   0  0  0  0  0  0  0  0  0  0  0  0
   -9.8717    3.3430   -8.9184 N   0  0  0  0  0  0  0  0  0  0  0  0
   -8.6024    3.6324   -8.4981 C   0  0  0  0  0  0  0  0  0  0  0  0
   -8.4037    4.4455   -7.3559 C   0  0  0  0  0  0  0  0  0  0  0  0
   -9.5647    4.9302   -6.6815 C   0  0  0  0  0  0  0  0  0  0  0  0
   -9.4642    5.6361   -5.6933 O   0  0  0  0  0  0  0  0  0  0  0  0
   -6.9520    4.5717   -7.1812 C   0  0  0  0  0  0  0  0  0  0  0  0
   -6.2173    5.3507   -6.1223 C   0  0  0  0  0  0  0  0  0  0  0  0
   -6.9315    5.2371   -4.8437 N   0  0  0  0  0  0  0  0  0  0  0  0
   -6.3968    3.8531   -8.1648 C   0  0  0  0  0  0  0  0  0  0  0  0
   -7.3665    3.2968   -8.9558 N   0  0  0  0  0  0  0  0  0  0  0  0
  -12.1929    3.4811   -8.7500 N   0  0  0  0  0  0  0  0  0  0  0  0
  1  6  1  0  0  0  0
  2  1  1  0  0  0  0
  3  4  1  0  0  0  0
  3  2  2  0  0  0  0
  4  5  2  0  0  0  0
  5  8  1  0  0  0  0
  5  6  1  0  0  0  0
  6  7  2  0  0  0  0
  8  9  1  0  0  0  0
  9 10  1  0  0  0  0
 11  8  2  0  0  0  0
 12  4  1  0  0  0  0
 12 11  1  0  0  0  0
 13  2  1  0  0  0  0
M  END
>  <CHROM.1>
37.92997868,-61.68195608,-8.79275975,4.33298622,-7.39189430,2.62868677,0.02243995
-2.11322764

>  <Name>
lig.pdb

>  <RI>
4.2128e+07

>  <Rbt.Current_Directory>
/home/itssahil/PROJECTS/Mol_Feturizer/New_Systems/rnas/2miy

>  <Rbt.Executable>
rbdock ($Id: //depot/dev/client3/rdock/2013.1/src/exe/rbdock.cxx#4 $)

>  <Rbt.Library>
libRbt.so (2013.1, Build901 2013/11/27)

>  <Rbt.Parameter_File>
/export/apps/rDock/src/rDock_2013.1_src/data/scripts/dock_solv.prm

>  <Rbt.Receptor>
prm/pocket_docking_5.prm

>  <SCORE>
-48.6961

>  <SCORE.INTER>
-48.0252

>  <SCORE.INTER.CONST>
1

>  <SCORE.INTER.POLAR>
-5.46482

>  <SCORE.INTER.ROT>
2

>  <SCORE.INTER.SOLV>
17.8096

>  <SCORE.INTER.VDW>
-24.6706

>  <SCORE.INTER.norm>
-3.69424

>  <SCORE.INTRA>
-0.706759

>  <SCORE.INTRA.DIHEDRAL>
0.340995

>  <SCORE.INTRA.DIHEDRAL.0>
1.76676

>  <SCORE.INTRA.POLAR>
-0.307068

>  <SCORE.INTRA.POLAR.0>
-0.472211

>  <SCORE.INTRA.REPUL>
0

>  <SCORE.INTRA.REPUL.0>
0

>  <SCORE.INTRA.SOLV>
0.066986

>  <SCORE.INTRA.SOLV.lig_0>
-22.5855

>  <SCORE.INTRA.VDW>
0.133281

>  <SCORE.INTRA.VDW.0>
-0.733656

>  <SCORE.INTRA.norm>
-0.0543661

>  <SCORE.RESTR>
0.0358056

>  <SCORE.RESTR.CAVITY>
0.0358056

>  <SCORE.RESTR.norm>
0.00275428

>  <SCORE.SYSTEM>
0

>  <SCORE.SYSTEM.CONST>
0

>  <SCORE.SYSTEM.DIHEDRAL>
0

>  <SCORE.SYSTEM.SOLV>
0

>  <SCORE.SYSTEM.norm>
0

>  <SCORE.heavy>
13

>  <SCORE.norm>
-3.74585

>  <RMSD>
0.728

$$$$
lig.pdb
 OpenBabel11021811453D
libRbt.so/2013.1/901 2013/11/27
 13 14  0  0  0  0  0  0  0  0999 V2000
  -10.8050    4.5658   -7.1793 N   0  0  0  0  0  0  0  0  0  0  0  0
  -10.9484    3.7577   -8.2714 C   0  0  0  0  0  0  0  0  0  0  0  0
   -9.8836    3.2879   -8.8963 N   0  0  0  0  0  0  0  0  0  0  0  0
   -8.6115    3.5836   -8.4893 C   0  0  0  0  0  0  0  0  0  0  0  0
   -8.4051    4.4215   -7.3665 C   0  0  0  0  0  0  0  0  0  0  0  0
   -9.5614    4.9237   -6.6970 C   0  0  0  0  0  0  0  0  0  0  0  0
   -9.4541    5.6512   -5.7252 O   0  0  0  0  0  0  0  0  0  0  0  0
   -6.9522    4.5484   -7.2023 C   0  0  0  0  0  0  0  0  0  0  0  0
   -6.2102    5.3490   -6.1649 C   0  0  0  0  0  0  0  0  0  0  0  0
   -6.9168    5.2639   -4.8799 N   0  0  0  0  0  0  0  0  0  0  0  0
   -6.4037    3.8068   -8.1726 C   0  0  0  0  0  0  0  0  0  0  0  0
   -7.3788    3.2352   -8.9459 N   0  0  0  0  0  0  0  0  0  0  0  0
  -12.2036    3.4349   -8.7189 N   0  0  0  0  0  0  0  0  0  0  0  0
  1  6  1  0  0  0  0
  2  1  1  0  0  0  0
  3  4  1  0  0  0  0
  3  2  2  0  0  0  0
  4  5  2  0  0  0  0
  5  8  1  0  0  0  0
  5  6  1  0  0  0  0
  6  7  2  0  0  0  0
  8  9  1  0  0  0  0
  9 10  1  0  0  0  0
 11  8  2  0  0  0  0
 12  4  1  0  0  0  0
 12 11  1  0  0  0  0
 13  2  1  0  0  0  0
M  END
>  <CHROM.1>
38.01042898,-61.50579670,-8.79443847,4.30898225,-7.39790392,2.63438847,0.02157698
-2.13546569

>  <Name>
lig.pdb

>  <RI>
9.06885e+06

>  <Rbt.Current_Directory>
/home/itssahil/PROJECTS/Mol_Feturizer/New_Systems/rnas/2miy

>  <Rbt.Executable>
rbdock ($Id: //depot/dev/client3/rdock/2013.1/src/exe/rbdock.cxx#4 $)

>  <Rbt.Library>
libRbt.so (2013.1, Build901 2013/11/27)

>  <Rbt.Parameter_File>
/export/apps/rDock/src/rDock_2013.1_src/data/scripts/dock_solv.prm

>  <Rbt.Receptor>
prm/pocket_docking_6.prm

>  <SCORE>
-48.8574

>  <SCORE.INTER>
-48.1505

>  <SCORE.INTER.CONST>
1

>  <SCORE.INTER.POLAR>
-5.5003

>  <SCORE.INTER.ROT>
2

>  <SCORE.INTER.SOLV>
17.8796

>  <SCORE.INTER.VDW>
-24.6592

>  <SCORE.INTER.norm>
-3.70389

>  <SCORE.INTRA>
-0.70685

>  <SCORE.INTRA.DIHEDRAL>
0.336463

>  <SCORE.INTRA.DIHEDRAL.0>
1.76676

>  <SCORE.INTRA.POLAR>
-0.305995

>  <SCORE.INTRA.POLAR.0>
-0.472211

>  <SCORE.INTRA.REPUL>
0

>  <SCORE.INTRA.REPUL.0>
0

>  <SCORE.INTRA.SOLV>
0.0663011

>  <SCORE.INTRA.SOLV.lig_0>
-22.5855

>  <SCORE.INTRA.VDW>
0.132152

>  <SCORE.INTRA.VDW.0>
-0.733656

>  <SCORE.INTRA.norm>
-0.0543731

>  <SCORE.RESTR>
0

>  <SCORE.RESTR.CAVITY>
0

>  <SCORE.RESTR.norm>
0

>  <SCORE.SYSTEM>
0

>  <SCORE.SYSTEM.CONST>
0

>  <SCORE.SYSTEM.DIHEDRAL>
0

>  <SCORE.SYSTEM.SOLV>
0

>  <SCORE.SYSTEM.norm>
0

>  <SCORE.heavy>
13

>  <SCORE.norm>
-3.75826

>  <RMSD>
0.728

$$$$
lig.pdb
 OpenBabel11021811453D
libRbt.so/2013.1/901 2013/11/27
 13 14  0  0  0  0  0  0  0  0999 V2000
  -10.8029    4.5843   -7.1840 N   0  0  0  0  0  0  0  0  0  0  0  0
  -10.9389    3.7988   -8.2934 C   0  0  0  0  0  0  0  0  0  0  0  0
   -9.8699    3.3423   -8.9210 N   0  0  0  0  0  0  0  0  0  0  0  0
   -8.6006    3.6300   -8.4998 C   0  0  0  0  0  0  0  0  0  0  0  0
   -8.4017    4.4447   -7.3588 C   0  0  0  0  0  0  0  0  0  0  0  0
   -9.5626    4.9326   -6.6864 C   0  0  0  0  0  0  0  0  0  0  0  0
   -9.4618    5.6400   -5.6993 O   0  0  0  0  0  0  0  0  0  0  0  0
   -6.9500    4.5686   -7.1826 C   0  0  0  0  0  0  0  0  0  0  0  0
   -6.2150    5.3479   -6.1242 C   0  0  0  0  0  0  0  0  0  0  0  0
   -6.9455    5.2605   -4.8528 N   0  0  0  0  0  0  0  0  0  0  0  0
   -6.3950    3.8472   -8.1644 C   0  0  0  0  0  0  0  0  0  0  0  0
   -7.3648    3.2914   -8.9556 N   0  0  0  0  0  0  0  0  0  0  0  0
  -12.1910    3.4849   -8.7555 N   0  0  0  0  0  0  0  0  0  0  0  0
  1  6  1  0  0  0  0
  2  1  1  0  0  0  0
  3  4  1  0  0  0  0
  3  2  2  0  0  0  0
  4  5  2  0  0  0  0
  5  8  1  0  0  0  0
  5  6  1  0  0  0  0
  6  7  2  0  0  0  0
  8  9  1  0  0  0  0
  9 10  1  0  0  0  0
 11  8  2  0  0  0  0
 12  4  1  0  0  0  0
 12 11  1  0  0  0  0
 13  2  1  0  0  0  0
M  END
>  <CHROM.1>
36.77649775,-60.68478513,-8.79228179,4.33493345,-7.39559419,2.62772698,0.02380001
-2.11681580

>  <Name>
lig.pdb

>  <RI>
1.51961e+07

>  <Rbt.Current_Directory>
/home/itssahil/PROJECTS/Mol_Feturizer/New_Systems/rnas/2miy

>  <Rbt.Executable>
rbdock ($Id: //depot/dev/client3/rdock/2013.1/src/exe/rbdock.cxx#4 $)

>  <Rbt.Library>
libRbt.so (2013.1, Build901 2013/11/27)

>  <Rbt.Parameter_File>
/export/apps/rDock/src/rDock_2013.1_src/data/scripts/dock_solv.prm

>  <Rbt.Receptor>
prm/pocket_docking_3.prm

>  <SCORE>
-48.6713

>  <SCORE.INTER>
-48.0116

>  <SCORE.INTER.CONST>
1

>  <SCORE.INTER.POLAR>
-5.47028

>  <SCORE.INTER.ROT>
2

>  <SCORE.INTER.SOLV>
17.8191

>  <SCORE.INTER.VDW>
-24.6465

>  <SCORE.INTER.norm>
-3.6932

>  <SCORE.INTRA>
-0.698328

>  <SCORE.INTRA.DIHEDRAL>
0.401207

>  <SCORE.INTRA.DIHEDRAL.0>
1.76676

>  <SCORE.INTRA.POLAR>
-0.325752

>  <SCORE.INTRA.POLAR.0>
-0.472211

>  <SCORE.INTRA.REPUL>
0

>  <SCORE.INTRA.REPUL.0>
0

>  <SCORE.INTRA.SOLV>
0.0777543

>  <SCORE.INTRA.SOLV.lig_0>
-22.5855

>  <SCORE.INTRA.VDW>
0.16975

>  <SCORE.INTRA.VDW.0>
-0.733656

>  <SCORE.INTRA.norm>
-0.0537175

>  <SCORE.RESTR>
0.0386802

>  <SCORE.RESTR.CAVITY>
0.0386802

>  <SCORE.RESTR.norm>
0.0029754

>  <SCORE.SYSTEM>
0

>  <SCORE.SYSTEM.CONST>
0

>  <SCORE.SYSTEM.DIHEDRAL>
0

>  <SCORE.SYSTEM.SOLV>
0

>  <SCORE.SYSTEM.norm>
0

>  <SCORE.heavy>
13

>  <SCORE.norm>
-3.74394

>  <RMSD>
0.729

$$$$
lig.pdb
 OpenBabel11021811453D
libRbt.so/2013.1/901 2013/11/27
 13 14  0  0  0  0  0  0  0  0999 V2000
  -10.8048    4.5750   -7.1853 N   0  0  0  0  0  0  0  0  0  0  0  0
  -10.9394    3.7861   -8.2924 C   0  0  0  0  0  0  0  0  0  0  0  0
   -9.8696    3.3309   -8.9196 N   0  0  0  0  0  0  0  0  0  0  0  0
   -8.6007    3.6235   -8.5002 C   0  0  0  0  0  0  0  0  0  0  0  0
   -8.4034    4.4419   -7.3616 C   0  0  0  0  0  0  0  0  0  0  0  0
   -9.5651    4.9283   -6.6896 C   0  0  0  0  0  0  0  0  0  0  0  0
   -9.4656    5.6387   -5.7045 O   0  0  0  0  0  0  0  0  0  0  0  0
   -6.9518    4.5704   -7.1869 C   0  0  0  0  0  0  0  0  0  0  0  0
   -6.2183    5.3548   -6.1312 C   0  0  0  0  0  0  0  0  0  0  0  0
   -6.9348    5.2491   -4.8532 N   0  0  0  0  0  0  0  0  0  0  0  0
   -6.3955    3.8480   -8.1671 C   0  0  0  0  0  0  0  0  0  0  0  0
   -7.3643    3.2872   -8.9560 N   0  0  0  0  0  0  0  0  0  0  0  0
  -12.1910    3.4673   -8.7526 N   0  0  0  0  0  0  0  0  0  0  0  0
  1  6  1  0  0  0  0
  2  1  1  0  0  0  0
  3  4  1  0  0  0  0
  3  2  2  0  0  0  0
  4  5  2  0  0  0  0
  5  8  1  0  0  0  0
  5  6  1  0  0  0  0
  6  7  2  0  0  0  0
  8  9  1  0  0  0  0
  9 10  1  0  0  0  0
 11  8  2  0  0  0  0
 12  4  1  0  0  0  0
 12 11  1  0  0  0  0
 13  2  1  0  0  0  0
M  END
>  <CHROM.1>
37.77985615,-62.64019769,-8.79243216,4.32905575,-7.39721921,2.62773166,0.02162327
-2.11791924

>  <Name>
lig.pdb

>  <RI>
1.51961e+07

>  <Rbt.Current_Directory>
/home/itssahil/PROJECTS/Mol_Feturizer/New_Systems/rnas/2miy

>  <Rbt.Executable>
rbdock ($Id: //depot/dev/client3/rdock/2013.1/src/exe/rbdock.cxx#4 $)

>  <Rbt.Library>
libRbt.so (2013.1, Build901 2013/11/27)

>  <Rbt.Parameter_File>
/export/apps/rDock/src/rDock_2013.1_src/data/scripts/dock_solv.prm

>  <Rbt.Receptor>
prm/pocket_docking_3.prm

>  <SCORE>
-48.6831

>  <SCORE.INTER>
-48.0212

>  <SCORE.INTER.CONST>
1

>  <SCORE.INTER.POLAR>
-5.44368

>  <SCORE.INTER.ROT>
2

>  <SCORE.INTER.SOLV>
17.8353

>  <SCORE.INTER.VDW>
-24.747

>  <SCORE.INTER.norm>
-3.69394

>  <SCORE.INTRA>
-0.703291

>  <SCORE.INTRA.DIHEDRAL>
0.35047

>  <SCORE.INTRA.DIHEDRAL.0>
1.76676

>  <SCORE.INTRA.POLAR>
-0.30732

>  <SCORE.INTRA.POLAR.0>
-0.472211

>  <SCORE.INTRA.REPUL>
0

>  <SCORE.INTRA.REPUL.0>
0

>  <SCORE.INTRA.SOLV>
0.068158

>  <SCORE.INTRA.SOLV.lig_0>
-22.5855

>  <SCORE.INTRA.VDW>
0.132282

>  <SCORE.INTRA.VDW.0>
-0.733656

>  <SCORE.INTRA.norm>
-0.0540993

>  <SCORE.RESTR>
0.0414405

>  <SCORE.RESTR.CAVITY>
0.0414405

>  <SCORE.RESTR.norm>
0.00318773

>  <SCORE.SYSTEM>
0

>  <SCORE.SYSTEM.CONST>
0

>  <SCORE.SYSTEM.DIHEDRAL>
0

>  <SCORE.SYSTEM.SOLV>
0

>  <SCORE.SYSTEM.norm>
0

>  <SCORE.heavy>
13

>  <SCORE.norm>
-3.74485

>  <RMSD>
0.729

$$$$
lig.pdb
 OpenBabel11021811453D
libRbt.so/2013.1/901 2013/11/27
 13 14  0  0  0  0  0  0  0  0999 V2000
  -10.8022    4.5720   -7.1859 N   0  0  0  0  0  0  0  0  0  0  0  0
  -10.9447    3.7698   -8.2824 C   0  0  0  0  0  0  0  0  0  0  0  0
   -9.8796    3.2992   -8.9060 N   0  0  0  0  0  0  0  0  0  0  0  0
   -8.6078    3.5884   -8.4933 C   0  0  0  0  0  0  0  0  0  0  0  0
   -8.4021    4.4201   -7.3658 C   0  0  0  0  0  0  0  0  0  0  0  0
   -9.5589    4.9231   -6.6976 C   0  0  0  0  0  0  0  0  0  0  0  0
   -9.4523    5.6455   -5.7220 O   0  0  0  0  0  0  0  0  0  0  0  0
   -6.9494    4.5409   -7.1961 C   0  0  0  0  0  0  0  0  0  0  0  0
   -6.2081    5.3338   -6.1522 C   0  0  0  0  0  0  0  0  0  0  0  0
   -6.9320    5.2647   -4.8760 N   0  0  0  0  0  0  0  0  0  0  0  0
   -6.4003    3.8021   -8.1681 C   0  0  0  0  0  0  0  0  0  0  0  0
   -7.3748    3.2378   -8.9475 N   0  0  0  0  0  0  0  0  0  0  0  0
  -12.1996    3.4537   -8.7356 N   0  0  0  0  0  0  0  0  0  0  0  0
  1  6  1  0  0  0  0
  2  1  1  0  0  0  0
  3  4  1  0  0  0  0
  3  2  2  0  0  0  0
  4  5  2  0  0  0  0
  5  8  1  0  0  0  0
  5  6  1  0  0  0  0
  6  7  2  0  0  0  0
  8  9  1  0  0  0  0
  9 10  1  0  0  0  0
 11  8  2  0  0  0  0
 12  4  1  0  0  0  0
 12 11  1  0  0  0  0
 13  2  1  0  0  0  0
M  END
>  <CHROM.1>
37.00767988,-60.98828954,-8.79297744,4.31091531,-7.39954732,2.63264336,0.02571442
-2.13222181

>  <Name>
lig.pdb

>  <RI>
2.68696e+07

>  <Rbt.Current_Directory>
/home/itssahil/PROJECTS/Mol_Feturizer/New_Systems/rnas/2miy

>  <Rbt.Executable>
rbdock ($Id: //depot/dev/client3/rdock/2013.1/src/exe/rbdock.cxx#4 $)

>  <Rbt.Library>
libRbt.so (2013.1, Build901 2013/11/27)

>  <Rbt.Parameter_File>
/export/apps/rDock/src/rDock_2013.1_src/data/scripts/dock_solv.prm

>  <Rbt.Receptor>
prm/pocket_docking_4.prm

>  <SCORE>
-48.8388

>  <SCORE.INTER>
-48.138

>  <SCORE.INTER.CONST>
1

>  <SCORE.INTER.POLAR>
-5.50334

>  <SCORE.INTER.ROT>
2

>  <SCORE.INTER.SOLV>
17.8507

>  <SCORE.INTER.VDW>
-24.6311

>  <SCORE.INTER.norm>
-3.70292

>  <SCORE.INTRA>
-0.70076

>  <SCORE.INTRA.DIHEDRAL>
0.389188

>  <SCORE.INTRA.DIHEDRAL.0>
1.76676

>  <SCORE.INTRA.POLAR>
-0.321953

>  <SCORE.INTRA.POLAR.0>
-0.472211

>  <SCORE.INTRA.REPUL>
0

>  <SCORE.INTRA.REPUL.0>
0

>  <SCORE.INTRA.SOLV>
0.0755845

>  <SCORE.INTRA.SOLV.lig_0>
-22.5855

>  <SCORE.INTRA.VDW>
0.161494

>  <SCORE.INTRA.VDW.0>
-0.733656

>  <SCORE.INTRA.norm>
-0.0539046

>  <SCORE.RESTR>
0

>  <SCORE.RESTR.CAVITY>
0

>  <SCORE.RESTR.norm>
0

>  <SCORE.SYSTEM>
0

>  <SCORE.SYSTEM.CONST>
0

>  <SCORE.SYSTEM.DIHEDRAL>
0

>  <SCORE.SYSTEM.SOLV>
0

>  <SCORE.SYSTEM.norm>
0

>  <SCORE.heavy>
13

>  <SCORE.norm>
-3.75683

>  <RMSD>
0.729

$$$$
lig.pdb
 OpenBabel11021811453D
libRbt.so/2013.1/901 2013/11/27
 13 14  0  0  0  0  0  0  0  0999 V2000
  -10.8044    4.5813   -7.1826 N   0  0  0  0  0  0  0  0  0  0  0  0
  -10.9403    3.7960   -8.2922 C   0  0  0  0  0  0  0  0  0  0  0  0
   -9.8713    3.3401   -8.9201 N   0  0  0  0  0  0  0  0  0  0  0  0
   -8.6019    3.6283   -8.4991 C   0  0  0  0  0  0  0  0  0  0  0  0
   -8.4032    4.4427   -7.3579 C   0  0  0  0  0  0  0  0  0  0  0  0
   -9.5641    4.9301   -6.6852 C   0  0  0  0  0  0  0  0  0  0  0  0
   -9.4634    5.6372   -5.6979 O   0  0  0  0  0  0  0  0  0  0  0  0
   -6.9514    4.5672   -7.1820 C   0  0  0  0  0  0  0  0  0  0  0  0
   -6.2166    5.3466   -6.1236 C   0  0  0  0  0  0  0  0  0  0  0  0
   -6.9346    5.2396   -4.8466 N   0  0  0  0  0  0  0  0  0  0  0  0
   -6.3964    3.8463   -8.1641 C   0  0  0  0  0  0  0  0  0  0  0  0
   -7.3661    3.2902   -8.9552 N   0  0  0  0  0  0  0  0  0  0  0  0
  -12.1924    3.4817   -8.7541 N   0  0  0  0  0  0  0  0  0  0  0  0
  1  6  1  0  0  0  0
  2  1  1  0  0  0  0
  3  4  1  0  0  0  0
  3  2  2  0  0  0  0
  4  5  2  0  0  0  0
  5  8  1  0  0  0  0
  5  6  1  0  0  0  0
  6  7  2  0  0  0  0
  8  9  1  0  0  0  0
  9 10  1  0  0  0  0
 11  8  2  0  0  0  0
 12  4  1  0  0  0  0
 12 11  1  0  0  0  0
 13  2  1  0  0  0  0
M  END
>  <CHROM.1>
37.73857593,116.37008926,-8.79262510,4.33094522,-7.39420593,2.62867780,0.02405712
-2.11495455

>  <Name>
lig.pdb

>  <RI>
4.2128e+07

>  <Rbt.Current_Directory>
/home/itssahil/PROJECTS/Mol_Feturizer/New_Systems/rnas/2miy

>  <Rbt.Executable>
rbdock ($Id: //depot/dev/client3/rdock/2013.1/src/exe/rbdock.cxx#4 $)

>  <Rbt.Library>
libRbt.so (2013.1, Build901 2013/11/27)

>  <Rbt.Parameter_File>
/export/apps/rDock/src/rDock_2013.1_src/data/scripts/dock_solv.prm

>  <Rbt.Receptor>
prm/pocket_docking_5.prm

>  <SCORE>
-48.685

>  <SCORE.INTER>
-48.0146

>  <SCORE.INTER.CONST>
1

>  <SCORE.INTER.POLAR>
-5.46951

>  <SCORE.INTER.ROT>
2

>  <SCORE.INTER.SOLV>
17.8132

>  <SCORE.INTER.VDW>
-24.6491

>  <SCORE.INTER.norm>
-3.69343

>  <SCORE.INTRA>
-0.710194

>  <SCORE.INTRA.DIHEDRAL>
0.344264

>  <SCORE.INTRA.DIHEDRAL.0>
1.76676

>  <SCORE.INTRA.POLAR>
-0.308371

>  <SCORE.INTRA.POLAR.0>
-0.472211

>  <SCORE.INTRA.REPUL>
0

>  <SCORE.INTRA.REPUL.0>
0

>  <SCORE.INTRA.SOLV>
0.0694975

>  <SCORE.INTRA.SOLV.lig_0>
-22.5855

>  <SCORE.INTRA.VDW>
0.131387

>  <SCORE.INTRA.VDW.0>
-0.733656

>  <SCORE.INTRA.norm>
-0.0546303

>  <SCORE.RESTR>
0.0398157

>  <SCORE.RESTR.CAVITY>
0.0398157

>  <SCORE.RESTR.norm>
0.00306275

>  <SCORE.SYSTEM>
0

>  <SCORE.SYSTEM.CONST>
0

>  <SCORE.SYSTEM.DIHEDRAL>
0

>  <SCORE.SYSTEM.SOLV>
0

>  <SCORE.SYSTEM.norm>
0

>  <SCORE.heavy>
13

>  <SCORE.norm>
-3.745

>  <RMSD>
0.729

$$$$
lig.pdb
 OpenBabel11021811453D
libRbt.so/2013.1/901 2013/11/27
 13 14  0  0  0  0  0  0  0  0999 V2000
  -10.8047    4.5778   -7.1815 N   0  0  0  0  0  0  0  0  0  0  0  0
  -10.9405    3.7930   -8.2915 C   0  0  0  0  0  0  0  0  0  0  0  0
   -9.8714    3.3372   -8.9194 N   0  0  0  0  0  0  0  0  0  0  0  0
   -8.6022    3.6250   -8.4980 C   0  0  0  0  0  0  0  0  0  0  0  0
   -8.4035    4.4389   -7.3563 C   0  0  0  0  0  0  0  0  0  0  0  0
   -9.5645    4.9261   -6.6837 C   0  0  0  0  0  0  0  0  0  0  0  0
   -9.4640    5.6328   -5.6960 O   0  0  0  0  0  0  0  0  0  0  0  0
   -6.9518    4.5630   -7.1801 C   0  0  0  0  0  0  0  0  0  0  0  0
   -6.2171    5.3418   -6.1211 C   0  0  0  0  0  0  0  0  0  0  0  0
   -6.9308    5.2274   -4.8424 N   0  0  0  0  0  0  0  0  0  0  0  0
   -6.3966    3.8425   -8.1624 C   0  0  0  0  0  0  0  0  0  0  0  0
   -7.3663    3.2870   -8.9539 N   0  0  0  0  0  0  0  0  0  0  0  0
  -12.1926    3.4791   -8.7538 N   0  0  0  0  0  0  0  0  0  0  0  0
  1  6  1  0  0  0  0
  2  1  1  0  0  0  0
  3  4  1  0  0  0  0
  3  2  2  0  0  0  0
  4  5  2  0  0  0  0
  5  8  1  0  0  0  0
  5  6  1  0  0  0  0
  6  7  2  0  0  0  0
  8  9  1  0  0  0  0
  9 10  1  0  0  0  0
 11  8  2  0  0  0  0
 12  4  1  0  0  0  0
 12 11  1  0  0  0  0
 13  2  1  0  0  0  0
M  END
>  <CHROM.1>
38.08953554,116.70726347,-8.79256302,4.32651546,-7.39260278,2.62886044,0.02453246
-2.11388605

>  <Name>
lig.pdb

>  <RI>
4.2128e+07

>  <Rbt.Current_Directory>
/home/itssahil/PROJECTS/Mol_Feturizer/New_Systems/rnas/2miy

>  <Rbt.Executable>
rbdock ($Id: //depot/dev/client3/rdock/2013.1/src/exe/rbdock.cxx#4 $)

>  <Rbt.Library>
libRbt.so (2013.1, Build901 2013/11/27)

>  <Rbt.Parameter_File>
/export/apps/rDock/src/rDock_2013.1_src/data/scripts/dock_solv.prm

>  <Rbt.Receptor>
prm/pocket_docking_5.prm

>  <SCORE>
-48.6909

>  <SCORE.INTER>
-48.0191

>  <SCORE.INTER.CONST>
1

>  <SCORE.INTER.POLAR>
-5.46527

>  <SCORE.INTER.ROT>
2

>  <SCORE.INTER.SOLV>
17.7986

>  <SCORE.INTER.VDW>
-24.6614

>  <SCORE.INTER.norm>
-3.69378

>  <SCORE.INTRA>
-0.713458

>  <SCORE.INTRA.DIHEDRAL>
0.326215

>  <SCORE.INTRA.DIHEDRAL.0>
1.76676

>  <SCORE.INTRA.POLAR>
-0.304108

>  <SCORE.INTRA.POLAR.0>
-0.472211

>  <SCORE.INTRA.REPUL>
0

>  <SCORE.INTRA.REPUL.0>
0

>  <SCORE.INTRA.SOLV>
0.0662752

>  <SCORE.INTRA.SOLV.lig_0>
-22.5855

>  <SCORE.INTRA.VDW>
0.124265

>  <SCORE.INTRA.VDW.0>
-0.733656

>  <SCORE.INTRA.norm>
-0.0548813

>  <SCORE.RESTR>
0.0416863

>  <SCORE.RESTR.CAVITY>
0.0416863

>  <SCORE.RESTR.norm>
0.00320664

>  <SCORE.SYSTEM>
0

>  <SCORE.SYSTEM.CONST>
0

>  <SCORE.SYSTEM.DIHEDRAL>
0

>  <SCORE.SYSTEM.SOLV>
0

>  <SCORE.SYSTEM.norm>
0

>  <SCORE.heavy>
13

>  <SCORE.norm>
-3.74546

>  <RMSD>
0.729

$$$$
lig.pdb
 OpenBabel11021811453D
libRbt.so/2013.1/901 2013/11/27
 13 14  0  0  0  0  0  0  0  0999 V2000
  -10.8040    4.5733   -7.1877 N   0  0  0  0  0  0  0  0  0  0  0  0
  -10.9454    3.7750   -8.2872 C   0  0  0  0  0  0  0  0  0  0  0  0
   -9.8795    3.3063   -8.9111 N   0  0  0  0  0  0  0  0  0  0  0  0
   -8.6082    3.5937   -8.4958 C   0  0  0  0  0  0  0  0  0  0  0  0
   -8.4037    4.4214   -7.3651 C   0  0  0  0  0  0  0  0  0  0  0  0
   -9.5612    4.9224   -6.6967 C   0  0  0  0  0  0  0  0  0  0  0  0
   -9.4557    5.6413   -5.7184 O   0  0  0  0  0  0  0  0  0  0  0  0
   -6.9511    4.5412   -7.1931 C   0  0  0  0  0  0  0  0  0  0  0  0
   -6.2110    5.3302   -6.1456 C   0  0  0  0  0  0  0  0  0  0  0  0
   -6.9325    5.2505   -4.8686 N   0  0  0  0  0  0  0  0  0  0  0  0
   -6.4011    3.8056   -8.1670 C   0  0  0  0  0  0  0  0  0  0  0  0
   -7.3747    3.2443   -8.9496 N   0  0  0  0  0  0  0  0  0  0  0  0
  -12.1997    3.4608   -8.7431 N   0  0  0  0  0  0  0  0  0  0  0  0
  1  6  1  0  0  0  0
  2  1  1  0  0  0  0
  3  4  1  0  0  0  0
  3  2  2  0  0  0  0
  4  5  2  0  0  0  0
  5  8  1  0  0  0  0
  5  6  1  0  0  0  0
  6  7  2  0  0  0  0
  8  9  1  0  0  0  0
  9 10  1  0  0  0  0
 11  8  2  0  0  0  0
 12  4  1  0  0  0  0
 12 11  1  0  0  0  0
 13  2  1  0  0  0  0
M  END
>  <CHROM.1>
37.32978795,117.79906826,-8.79425177,4.31170120,-7.39961188,2.63216283,0.02686988
-2.12811223

>  <Name>
lig.pdb

>  <RI>
9.06885e+06

>  <Rbt.Current_Directory>
/home/itssahil/PROJECTS/Mol_Feturizer/New_Systems/rnas/2miy

>  <Rbt.Executable>
rbdock ($Id: //depot/dev/client3/rdock/2013.1/src/exe/rbdock.cxx#4 $)

>  <Rbt.Library>
libRbt.so (2013.1, Build901 2013/11/27)

>  <Rbt.Parameter_File>
/export/apps/rDock/src/rDock_2013.1_src/data/scripts/dock_solv.prm

>  <Rbt.Receptor>
prm/pocket_docking_6.prm

>  <SCORE>
-48.8222

>  <SCORE.INTER>
-48.1135

>  <SCORE.INTER.CONST>
1

>  <SCORE.INTER.POLAR>
-5.50184

>  <SCORE.INTER.ROT>
2

>  <SCORE.INTER.SOLV>
17.8364

>  <SCORE.INTER.VDW>
-24.615

>  <SCORE.INTER.norm>
-3.70104

>  <SCORE.INTRA>
-0.708744

>  <SCORE.INTRA.DIHEDRAL>
0.368336

>  <SCORE.INTRA.DIHEDRAL.0>
1.76676

>  <SCORE.INTRA.POLAR>
-0.317418

>  <SCORE.INTRA.POLAR.0>
-0.472211

>  <SCORE.INTRA.REPUL>
0

>  <SCORE.INTRA.REPUL.0>
0

>  <SCORE.INTRA.SOLV>
0.0735075

>  <SCORE.INTRA.SOLV.lig_0>
-22.5855

>  <SCORE.INTRA.VDW>
0.149555

>  <SCORE.INTRA.VDW.0>
-0.733656

>  <SCORE.INTRA.norm>
-0.0545187

>  <SCORE.RESTR>
0

>  <SCORE.RESTR.CAVITY>
0

>  <SCORE.RESTR.norm>
0

>  <SCORE.SYSTEM>
0

>  <SCORE.SYSTEM.CONST>
0

>  <SCORE.SYSTEM.DIHEDRAL>
0

>  <SCORE.SYSTEM.SOLV>
0

>  <SCORE.SYSTEM.norm>
0

>  <SCORE.heavy>
13

>  <SCORE.norm>
-3.75556

>  <RMSD>
0.729

$$$$
lig.pdb
 OpenBabel11021811453D
libRbt.so/2013.1/901 2013/11/27
 13 14  0  0  0  0  0  0  0  0999 V2000
  -10.8044    4.5601   -7.2027 N   0  0  0  0  0  0  0  0  0  0  0  0
  -10.9384    3.7643   -8.3050 C   0  0  0  0  0  0  0  0  0  0  0  0
   -9.8684    3.2992   -8.9244 N   0  0  0  0  0  0  0  0  0  0  0  0
   -8.5998    3.5878   -8.5014 C   0  0  0  0  0  0  0  0  0  0  0  0
   -8.4030    4.4129   -7.3675 C   0  0  0  0  0  0  0  0  0  0  0  0
   -9.5650    4.9101   -6.7041 C   0  0  0  0  0  0  0  0  0  0  0  0
   -9.4660    5.6266   -5.7234 O   0  0  0  0  0  0  0  0  0  0  0  0
   -6.9516    4.5349   -7.1874 C   0  0  0  0  0  0  0  0  0  0  0  0
   -6.2185    5.3225   -6.1339 C   0  0  0  0  0  0  0  0  0  0  0  0
   -6.9507    5.2444   -4.8629 N   0  0  0  0  0  0  0  0  0  0  0  0
   -6.3949    3.8028   -8.1602 C   0  0  0  0  0  0  0  0  0  0  0  0
   -7.3633    3.2418   -8.9495 N   0  0  0  0  0  0  0  0  0  0  0  0
  -12.1898    3.4491   -8.7685 N   0  0  0  0  0  0  0  0  0  0  0  0
  1  6  1  0  0  0  0
  2  1  1  0  0  0  0
  3  4  1  0  0  0  0
  3  2  2  0  0  0  0
  4  5  2  0  0  0  0
  5  8  1  0  0  0  0
  5  6  1  0  0  0  0
  6  7  2  0  0  0  0
  8  9  1  0  0  0  0
  9 10  1  0  0  0  0
 11  8  2  0  0  0  0
 12  4  1  0  0  0  0
 12 11  1  0  0  0  0
 13  2  1  0  0  0  0
M  END
>  <CHROM.1>
37.01325992,-62.01818824,-8.79342817,4.30331843,-7.40457102,2.62620465,0.02796775
-2.12598174

>  <Name>
lig.pdb

>  <RI>
2.95488e+07

>  <Rbt.Current_Directory>
/home/itssahil/PROJECTS/Mol_Feturizer/New_Systems/rnas/2miy

>  <Rbt.Executable>
rbdock ($Id: //depot/dev/client3/rdock/2013.1/src/exe/rbdock.cxx#4 $)

>  <Rbt.Library>
libRbt.so (2013.1, Build901 2013/11/27)

>  <Rbt.Parameter_File>
/export/apps/rDock/src/rDock_2013.1_src/data/scripts/dock_solv.prm

>  <Rbt.Receptor>
prm/blind_docking_20.prm

>  <SCORE>
-48.7996

>  <SCORE.INTER>
-48.1121

>  <SCORE.INTER.CONST>
1

>  <SCORE.INTER.POLAR>
-5.42954

>  <SCORE.INTER.ROT>
2

>  <SCORE.INTER.SOLV>
17.8078

>  <SCORE.INTER.VDW>
-24.8455

>  <SCORE.INTER.norm>
-3.70093

>  <SCORE.INTRA>
-0.69784

>  <SCORE.INTRA.DIHEDRAL>
0.390521

>  <SCORE.INTRA.DIHEDRAL.0>
1.76676

>  <SCORE.INTRA.POLAR>
-0.3195

>  <SCORE.INTRA.POLAR.0>
-0.472211

>  <SCORE.INTRA.REPUL>
0

>  <SCORE.INTRA.REPUL.0>
0

>  <SCORE.INTRA.SOLV>
0.0752481

>  <SCORE.INTRA.SOLV.lig_0>
-22.5855

>  <SCORE.INTRA.VDW>
0.155576

>  <SCORE.INTRA.VDW.0>
-0.733656

>  <SCORE.INTRA.norm>
-0.05368

>  <SCORE.RESTR>
0.0103222

>  <SCORE.RESTR.CAVITY>
0.0103222

>  <SCORE.RESTR.norm>
0.000794013

>  <SCORE.SYSTEM>
0

>  <SCORE.SYSTEM.CONST>
0

>  <SCORE.SYSTEM.DIHEDRAL>
0

>  <SCORE.SYSTEM.SOLV>
0

>  <SCORE.SYSTEM.norm>
0

>  <SCORE.heavy>
13

>  <SCORE.norm>
-3.75382

>  <RMSD>
0.730

$$$$
lig.pdb
 OpenBabel11021811453D
libRbt.so/2013.1/901 2013/11/27
 13 14  0  0  0  0  0  0  0  0999 V2000
  -10.8049    4.5644   -7.1998 N   0  0  0  0  0  0  0  0  0  0  0  0
  -10.9412    3.7681   -8.3015 C   0  0  0  0  0  0  0  0  0  0  0  0
   -9.8724    3.3002   -8.9210 N   0  0  0  0  0  0  0  0  0  0  0  0
   -8.6030    3.5865   -8.4989 C   0  0  0  0  0  0  0  0  0  0  0  0
   -8.4039    4.4120   -7.3657 C   0  0  0  0  0  0  0  0  0  0  0  0
   -9.5645    4.9122   -6.7020 C   0  0  0  0  0  0  0  0  0  0  0  0
   -9.4635    5.6292   -5.7219 O   0  0  0  0  0  0  0  0  0  0  0  0
   -6.9521    4.5310   -7.1864 C   0  0  0  0  0  0  0  0  0  0  0  0
   -6.2168    5.3178   -6.1338 C   0  0  0  0  0  0  0  0  0  0  0  0
   -6.9434    5.2341   -4.8599 N   0  0  0  0  0  0  0  0  0  0  0  0
   -6.3975    3.7970   -8.1589 C   0  0  0  0  0  0  0  0  0  0  0  0
   -7.3675    3.2375   -8.9473 N   0  0  0  0  0  0  0  0  0  0  0  0
  -12.1934    3.4552   -8.7641 N   0  0  0  0  0  0  0  0  0  0  0  0
  1  6  1  0  0  0  0
  2  1  1  0  0  0  0
  3  4  1  0  0  0  0
  3  2  2  0  0  0  0
  4  5  2  0  0  0  0
  5  8  1  0  0  0  0
  5  6  1  0  0  0  0
  6  7  2  0  0  0  0
  8  9  1  0  0  0  0
  9 10  1  0  0  0  0
 11  8  2  0  0  0  0
 12  4  1  0  0  0  0
 12 11  1  0  0  0  0
 13  2  1  0  0  0  0
M  END
>  <CHROM.1>
37.42895773,117.35799578,-8.79416672,4.30230460,-7.40228374,2.62824559,0.02982194
-2.12600391

>  <Name>
lig.pdb

>  <RI>
2.95488e+07

>  <Rbt.Current_Directory>
/home/itssahil/PROJECTS/Mol_Feturizer/New_Systems/rnas/2miy

>  <Rbt.Executable>
rbdock ($Id: //depot/dev/client3/rdock/2013.1/src/exe/rbdock.cxx#4 $)

>  <Rbt.Library>
libRbt.so (2013.1, Build901 2013/11/27)

>  <Rbt.Parameter_File>
/export/apps/rDock/src/rDock_2013.1_src/data/scripts/dock_solv.prm

>  <Rbt.Receptor>
prm/blind_docking_20.prm

>  <SCORE>
-48.8267

>  <SCORE.INTER>
-48.1246

>  <SCORE.INTER.CONST>
1

>  <SCORE.INTER.POLAR>
-5.45921

>  <SCORE.INTER.ROT>
2

>  <SCORE.INTER.SOLV>
17.8032

>  <SCORE.INTER.VDW>
-24.7534

>  <SCORE.INTER.norm>
-3.70189

>  <SCORE.INTRA>
-0.709729

>  <SCORE.INTRA.DIHEDRAL>
0.362328

>  <SCORE.INTRA.DIHEDRAL.0>
1.76676

>  <SCORE.INTRA.POLAR>
-0.315185

>  <SCORE.INTRA.POLAR.0>
-0.472211

>  <SCORE.INTRA.REPUL>
0

>  <SCORE.INTRA.REPUL.0>
0

>  <SCORE.INTRA.SOLV>
0.0724852

>  <SCORE.INTRA.SOLV.lig_0>
-22.5855

>  <SCORE.INTRA.VDW>
0.144494

>  <SCORE.INTRA.VDW.0>
-0.733656

>  <SCORE.INTRA.norm>
-0.0545945

>  <SCORE.RESTR>
0.00761114

>  <SCORE.RESTR.CAVITY>
0.00761114

>  <SCORE.RESTR.norm>
0.000585473

>  <SCORE.SYSTEM>
0

>  <SCORE.SYSTEM.CONST>
0

>  <SCORE.SYSTEM.DIHEDRAL>
0

>  <SCORE.SYSTEM.SOLV>
0

>  <SCORE.SYSTEM.norm>
0

>  <SCORE.heavy>
13

>  <SCORE.norm>
-3.7559

>  <RMSD>
0.731

$$$$
lig.pdb
 OpenBabel11021811453D
libRbt.so/2013.1/901 2013/11/27
 13 14  0  0  0  0  0  0  0  0999 V2000
  -10.8051    4.5694   -7.1929 N   0  0  0  0  0  0  0  0  0  0  0  0
  -10.9447    3.7665   -8.2894 C   0  0  0  0  0  0  0  0  0  0  0  0
   -9.8778    3.2973   -8.9111 N   0  0  0  0  0  0  0  0  0  0  0  0
   -8.6071    3.5885   -8.4963 C   0  0  0  0  0  0  0  0  0  0  0  0
   -8.4046    4.4208   -7.3688 C   0  0  0  0  0  0  0  0  0  0  0  0
   -9.5632    4.9224   -6.7027 C   0  0  0  0  0  0  0  0  0  0  0  0
   -9.4592    5.6453   -5.7272 O   0  0  0  0  0  0  0  0  0  0  0  0
   -6.9522    4.5438   -7.1967 C   0  0  0  0  0  0  0  0  0  0  0  0
   -6.2138    5.3381   -6.1519 C   0  0  0  0  0  0  0  0  0  0  0  0
   -6.9345    5.2602   -4.8743 N   0  0  0  0  0  0  0  0  0  0  0  0
   -6.4005    3.8054   -8.1675 C   0  0  0  0  0  0  0  0  0  0  0  0
   -7.3729    3.2394   -8.9483 N   0  0  0  0  0  0  0  0  0  0  0  0
  -12.1983    3.4485   -8.7446 N   0  0  0  0  0  0  0  0  0  0  0  0
  1  6  1  0  0  0  0
  2  1  1  0  0  0  0
  3  4  1  0  0  0  0
  3  2  2  0  0  0  0
  4  5  2  0  0  0  0
  5  8  1  0  0  0  0
  5  6  1  0  0  0  0
  6  7  2  0  0  0  0
  8  9  1  0  0  0  0
  9 10  1  0  0  0  0
 11  8  2  0  0  0  0
 12  4  1  0  0  0  0
 12 11  1  0  0  0  0
 13  2  1  0  0  0  0
M  END
>  <CHROM.1>
37.42773805,-61.39433623,-8.79469446,4.31030570,-7.40292620,2.63081161,0.02567481
-2.13183395

>  <Name>
lig.pdb

>  <RI>
0

>  <Rbt.Current_Directory>
/home/itssahil/PROJECTS/Mol_Feturizer/New_Systems/rnas/2miy

>  <Rbt.Executable>
rbdock ($Id: //depot/dev/client3/rdock/2013.1/src/exe/rbdock.cxx#4 $)

>  <Rbt.Library>
libRbt.so (2013.1, Build901 2013/11/27)

>  <Rbt.Parameter_File>
/export/apps/rDock/src/rDock_2013.1_src/data/scripts/dock_solv.prm

>  <Rbt.Receptor>
prm/pocket_docking_2.prm

>  <SCORE>
-48.8392

>  <SCORE.INTER>
-48.135

>  <SCORE.INTER.CONST>
1

>  <SCORE.INTER.POLAR>
-5.485

>  <SCORE.INTER.ROT>
2

>  <SCORE.INTER.SOLV>
17.8585

>  <SCORE.INTER.VDW>
-24.6928

>  <SCORE.INTER.norm>
-3.70269

>  <SCORE.INTRA>
-0.704194

>  <SCORE.INTRA.DIHEDRAL>
0.367264

>  <SCORE.INTRA.DIHEDRAL.0>
1.76676

>  <SCORE.INTRA.POLAR>
-0.315143

>  <SCORE.INTRA.POLAR.0>
-0.472211

>  <SCORE.INTRA.REPUL>
0

>  <SCORE.INTRA.REPUL.0>
0

>  <SCORE.INTRA.SOLV>
0.0716603

>  <SCORE.INTRA.SOLV.lig_0>
-22.5855

>  <SCORE.INTRA.VDW>
0.147831

>  <SCORE.INTRA.VDW.0>
-0.733656

>  <SCORE.INTRA.norm>
-0.0541688

>  <SCORE.RESTR>
0

>  <SCORE.RESTR.CAVITY>
0

>  <SCORE.RESTR.norm>
0

>  <SCORE.SYSTEM>
0

>  <SCORE.SYSTEM.CONST>
0

>  <SCORE.SYSTEM.DIHEDRAL>
0

>  <SCORE.SYSTEM.SOLV>
0

>  <SCORE.SYSTEM.norm>
0

>  <SCORE.heavy>
13

>  <SCORE.norm>
-3.75686

>  <RMSD>
0.731

$$$$
lig.pdb
 OpenBabel11021811453D
libRbt.so/2013.1/901 2013/11/27
 13 14  0  0  0  0  0  0  0  0999 V2000
  -10.8067    4.5669   -7.1947 N   0  0  0  0  0  0  0  0  0  0  0  0
  -10.9482    3.7678   -8.2937 C   0  0  0  0  0  0  0  0  0  0  0  0
   -9.8825    3.2986   -8.9173 N   0  0  0  0  0  0  0  0  0  0  0  0
   -8.6111    3.5861   -8.5021 C   0  0  0  0  0  0  0  0  0  0  0  0
   -8.4065    4.4144   -7.3720 C   0  0  0  0  0  0  0  0  0  0  0  0
   -9.5639    4.9161   -6.7039 C   0  0  0  0  0  0  0  0  0  0  0  0
   -9.4583    5.6356   -5.7261 O   0  0  0  0  0  0  0  0  0  0  0  0
   -6.9539    4.5341   -7.2001 C   0  0  0  0  0  0  0  0  0  0  0  0
   -6.2136    5.3237   -6.1531 C   0  0  0  0  0  0  0  0  0  0  0  0
   -6.9302    5.2372   -4.8737 N   0  0  0  0  0  0  0  0  0  0  0  0
   -6.4039    3.7978   -8.1735 C   0  0  0  0  0  0  0  0  0  0  0  0
   -7.3776    3.2361   -8.9557 N   0  0  0  0  0  0  0  0  0  0  0  0
  -12.2026    3.4536   -8.7495 N   0  0  0  0  0  0  0  0  0  0  0  0
  1  6  1  0  0  0  0
  2  1  1  0  0  0  0
  3  4  1  0  0  0  0
  3  2  2  0  0  0  0
  4  5  2  0  0  0  0
  5  8  1  0  0  0  0
  5  6  1  0  0  0  0
  6  7  2  0  0  0  0
  8  9  1  0  0  0  0
  9 10  1  0  0  0  0
 11  8  2  0  0  0  0
 12  4  1  0  0  0  0
 12 11  1  0  0  0  0
 13  2  1  0  0  0  0
M  END
>  <CHROM.1>
37.72240303,-61.19092970,-8.79651905,4.30419541,-7.40618698,2.63236721,0.02724742
-2.12815655

>  <Name>
lig.pdb

>  <RI>
2.68696e+07

>  <Rbt.Current_Directory>
/home/itssahil/PROJECTS/Mol_Feturizer/New_Systems/rnas/2miy

>  <Rbt.Executable>
rbdock ($Id: //depot/dev/client3/rdock/2013.1/src/exe/rbdock.cxx#4 $)

>  <Rbt.Library>
libRbt.so (2013.1, Build901 2013/11/27)

>  <Rbt.Parameter_File>
/export/apps/rDock/src/rDock_2013.1_src/data/scripts/dock_solv.prm

>  <Rbt.Receptor>
prm/pocket_docking_4.prm

>  <SCORE>
-48.8026

>  <SCORE.INTER>
-48.0969

>  <SCORE.INTER.CONST>
1

>  <SCORE.INTER.POLAR>
-5.4883

>  <SCORE.INTER.ROT>
2

>  <SCORE.INTER.SOLV>
17.846

>  <SCORE.INTER.VDW>
-24.6522

>  <SCORE.INTER.norm>
-3.69976

>  <SCORE.INTRA>
-0.705662

>  <SCORE.INTRA.DIHEDRAL>
0.351226

>  <SCORE.INTRA.DIHEDRAL.0>
1.76676

>  <SCORE.INTRA.POLAR>
-0.310877

>  <SCORE.INTRA.POLAR.0>
-0.472211

>  <SCORE.INTRA.REPUL>
0

>  <SCORE.INTRA.REPUL.0>
0

>  <SCORE.INTRA.SOLV>
0.0690371

>  <SCORE.INTRA.SOLV.lig_0>
-22.5855

>  <SCORE.INTRA.VDW>
0.141188

>  <SCORE.INTRA.VDW.0>
-0.733656

>  <SCORE.INTRA.norm>
-0.0542817

>  <SCORE.RESTR>
0

>  <SCORE.RESTR.CAVITY>
0

>  <SCORE.RESTR.norm>
0

>  <SCORE.SYSTEM>
0

>  <SCORE.SYSTEM.CONST>
0

>  <SCORE.SYSTEM.DIHEDRAL>
0

>  <SCORE.SYSTEM.SOLV>
0

>  <SCORE.SYSTEM.norm>
0

>  <SCORE.heavy>
13

>  <SCORE.norm>
-3.75404

>  <RMSD>
0.731

$$$$
lig.pdb
 OpenBabel11021811453D
libRbt.so/2013.1/901 2013/11/27
 13 14  0  0  0  0  0  0  0  0999 V2000
  -10.8038    4.5806   -7.1851 N   0  0  0  0  0  0  0  0  0  0  0  0
  -10.9418    3.7903   -8.2909 C   0  0  0  0  0  0  0  0  0  0  0  0
   -9.8740    3.3286   -8.9166 N   0  0  0  0  0  0  0  0  0  0  0  0
   -8.6039    3.6156   -8.4971 C   0  0  0  0  0  0  0  0  0  0  0  0
   -8.4030    4.4350   -7.3599 C   0  0  0  0  0  0  0  0  0  0  0  0
   -9.5626    4.9285   -6.6894 C   0  0  0  0  0  0  0  0  0  0  0  0
   -9.4601    5.6401   -5.7055 O   0  0  0  0  0  0  0  0  0  0  0  0
   -6.9509    4.5566   -7.1847 C   0  0  0  0  0  0  0  0  0  0  0  0
   -6.2141    5.3392   -6.1300 C   0  0  0  0  0  0  0  0  0  0  0  0
   -6.9295    5.2360   -4.8512 N   0  0  0  0  0  0  0  0  0  0  0  0
   -6.3978    3.8296   -8.1633 C   0  0  0  0  0  0  0  0  0  0  0  0
   -7.3690    3.2722   -8.9516 N   0  0  0  0  0  0  0  0  0  0  0  0
  -12.1948    3.4770   -8.7512 N   0  0  0  0  0  0  0  0  0  0  0  0
  1  6  1  0  0  0  0
  2  1  1  0  0  0  0
  3  4  1  0  0  0  0
  3  2  2  0  0  0  0
  4  5  2  0  0  0  0
  5  8  1  0  0  0  0
  5  6  1  0  0  0  0
  6  7  2  0  0  0  0
  8  9  1  0  0  0  0
  9 10  1  0  0  0  0
 11  8  2  0  0  0  0
 12  4  1  0  0  0  0
 12 11  1  0  0  0  0
 13  2  1  0  0  0  0
M  END
>  <CHROM.1>
37.95324734,117.83010202,-8.79249108,4.32363116,-7.39548132,2.63021782,0.02631359
-2.11938712

>  <Name>
lig.pdb

>  <RI>
4.2128e+07

>  <Rbt.Current_Directory>
/home/itssahil/PROJECTS/Mol_Feturizer/New_Systems/rnas/2miy

>  <Rbt.Executable>
rbdock ($Id: //depot/dev/client3/rdock/2013.1/src/exe/rbdock.cxx#4 $)

>  <Rbt.Library>
libRbt.so (2013.1, Build901 2013/11/27)

>  <Rbt.Parameter_File>
/export/apps/rDock/src/rDock_2013.1_src/data/scripts/dock_solv.prm

>  <Rbt.Receptor>
prm/pocket_docking_5.prm

>  <SCORE>
-48.7102

>  <SCORE.INTER>
-48.0506

>  <SCORE.INTER.CONST>
1

>  <SCORE.INTER.POLAR>
-5.48852

>  <SCORE.INTER.ROT>
2

>  <SCORE.INTER.SOLV>
17.8213

>  <SCORE.INTER.VDW>
-24.6125

>  <SCORE.INTER.norm>
-3.6962

>  <SCORE.INTRA>
-0.711367

>  <SCORE.INTRA.DIHEDRAL>
0.335184

>  <SCORE.INTRA.DIHEDRAL.0>
1.76676

>  <SCORE.INTRA.POLAR>
-0.307729

>  <SCORE.INTRA.POLAR.0>
-0.472211

>  <SCORE.INTRA.REPUL>
0

>  <SCORE.INTRA.REPUL.0>
0

>  <SCORE.INTRA.SOLV>
0.0678117

>  <SCORE.INTRA.SOLV.lig_0>
-22.5855

>  <SCORE.INTRA.VDW>
0.133416

>  <SCORE.INTRA.VDW.0>
-0.733656

>  <SCORE.INTRA.norm>
-0.0547205

>  <SCORE.RESTR>
0.0518426

>  <SCORE.RESTR.CAVITY>
0.0518426

>  <SCORE.RESTR.norm>
0.00398789

>  <SCORE.SYSTEM>
0

>  <SCORE.SYSTEM.CONST>
0

>  <SCORE.SYSTEM.DIHEDRAL>
0

>  <SCORE.SYSTEM.SOLV>
0

>  <SCORE.SYSTEM.norm>
0

>  <SCORE.heavy>
13

>  <SCORE.norm>
-3.74694

>  <RMSD>
0.731

$$$$
lig.pdb
 OpenBabel11021811453D
libRbt.so/2013.1/901 2013/11/27
 13 14  0  0  0  0  0  0  0  0999 V2000
  -10.8038    4.5789   -7.1940 N   0  0  0  0  0  0  0  0  0  0  0  0
  -10.9449    3.7795   -8.2928 C   0  0  0  0  0  0  0  0  0  0  0  0
   -9.8790    3.3068   -8.9135 N   0  0  0  0  0  0  0  0  0  0  0  0
   -8.6078    3.5909   -8.4955 C   0  0  0  0  0  0  0  0  0  0  0  0
   -8.4036    4.4194   -7.3654 C   0  0  0  0  0  0  0  0  0  0  0  0
   -9.5612    4.9248   -6.7004 C   0  0  0  0  0  0  0  0  0  0  0  0
   -9.4558    5.6446   -5.7228 O   0  0  0  0  0  0  0  0  0  0  0  0
   -6.9510    4.5350   -7.1900 C   0  0  0  0  0  0  0  0  0  0  0  0
   -6.2110    5.3232   -6.1417 C   0  0  0  0  0  0  0  0  0  0  0  0
   -6.9358    5.2471   -4.8663 N   0  0  0  0  0  0  0  0  0  0  0  0
   -6.4008    3.7965   -8.1616 C   0  0  0  0  0  0  0  0  0  0  0  0
   -7.3742    3.2371   -8.9458 N   0  0  0  0  0  0  0  0  0  0  0  0
  -12.1991    3.4685   -8.7514 N   0  0  0  0  0  0  0  0  0  0  0  0
  1  6  1  0  0  0  0
  2  1  1  0  0  0  0
  3  4  1  0  0  0  0
  3  2  2  0  0  0  0
  4  5  2  0  0  0  0
  5  8  1  0  0  0  0
  5  6  1  0  0  0  0
  6  7  2  0  0  0  0
  8  9  1  0  0  0  0
  9 10  1  0  0  0  0
 11  8  2  0  0  0  0
 12  4  1  0  0  0  0
 12 11  1  0  0  0  0
 13  2  1  0  0  0  0
M  END
>  <CHROM.1>
37.34041345,-60.86332958,-8.79425640,4.31098056,-7.40063965,2.63151639,0.03069731
-2.12942768

>  <Name>
lig.pdb

>  <RI>
2.95488e+07

>  <Rbt.Current_Directory>
/home/itssahil/PROJECTS/Mol_Feturizer/New_Systems/rnas/2miy

>  <Rbt.Executable>
rbdock ($Id: //depot/dev/client3/rdock/2013.1/src/exe/rbdock.cxx#4 $)

>  <Rbt.Library>
libRbt.so (2013.1, Build901 2013/11/27)

>  <Rbt.Parameter_File>
/export/apps/rDock/src/rDock_2013.1_src/data/scripts/dock_solv.prm

>  <Rbt.Receptor>
prm/blind_docking_20.prm

>  <SCORE>
-48.8503

>  <SCORE.INTER>
-48.1558

>  <SCORE.INTER.CONST>
1

>  <SCORE.INTER.POLAR>
-5.52024

>  <SCORE.INTER.ROT>
2

>  <SCORE.INTER.SOLV>
17.8338

>  <SCORE.INTER.VDW>
-24.581

>  <SCORE.INTER.norm>
-3.7043

>  <SCORE.INTRA>
-0.703336

>  <SCORE.INTRA.DIHEDRAL>
0.371097

>  <SCORE.INTRA.DIHEDRAL.0>
1.76676

>  <SCORE.INTRA.POLAR>
-0.317149

>  <SCORE.INTRA.POLAR.0>
-0.472211

>  <SCORE.INTRA.REPUL>
0

>  <SCORE.INTRA.REPUL.0>
0

>  <SCORE.INTRA.SOLV>
0.0726146

>  <SCORE.INTRA.SOLV.lig_0>
-22.5855

>  <SCORE.INTRA.VDW>
0.153117

>  <SCORE.INTRA.VDW.0>
-0.733656

>  <SCORE.INTRA.norm>
-0.0541027

>  <SCORE.RESTR>
0.0088854

>  <SCORE.RESTR.CAVITY>
0.0088854

>  <SCORE.RESTR.norm>
0.000683492

>  <SCORE.SYSTEM>
0

>  <SCORE.SYSTEM.CONST>
0

>  <SCORE.SYSTEM.DIHEDRAL>
0

>  <SCORE.SYSTEM.SOLV>
0

>  <SCORE.SYSTEM.norm>
0

>  <SCORE.heavy>
13

>  <SCORE.norm>
-3.75771

>  <RMSD>
0.732

$$$$
lig.pdb
 OpenBabel11021811453D
libRbt.so/2013.1/901 2013/11/27
 13 14  0  0  0  0  0  0  0  0999 V2000
  -10.8034    4.5818   -7.1968 N   0  0  0  0  0  0  0  0  0  0  0  0
  -10.9449    3.7780   -8.2924 C   0  0  0  0  0  0  0  0  0  0  0  0
   -9.8792    3.3040   -8.9124 N   0  0  0  0  0  0  0  0  0  0  0  0
   -8.6078    3.5910   -8.4969 C   0  0  0  0  0  0  0  0  0  0  0  0
   -8.4032    4.4241   -7.3703 C   0  0  0  0  0  0  0  0  0  0  0  0
   -9.5606    4.9309   -6.7060 C   0  0  0  0  0  0  0  0  0  0  0  0
   -9.4549    5.6547   -5.7313 O   0  0  0  0  0  0  0  0  0  0  0  0
   -6.9506    4.5419   -7.1970 C   0  0  0  0  0  0  0  0  0  0  0  0
   -6.2102    5.3349   -6.1526 C   0  0  0  0  0  0  0  0  0  0  0  0
   -6.9467    5.2841   -4.8827 N   0  0  0  0  0  0  0  0  0  0  0  0
   -6.4007    3.8002   -8.1663 C   0  0  0  0  0  0  0  0  0  0  0  0
   -7.3745    3.2368   -8.9473 N   0  0  0  0  0  0  0  0  0  0  0  0
  -12.1993    3.4640   -8.7483 N   0  0  0  0  0  0  0  0  0  0  0  0
  1  6  1  0  0  0  0
  2  1  1  0  0  0  0
  3  4  1  0  0  0  0
  3  2  2  0  0  0  0
  4  5  2  0  0  0  0
  5  8  1  0  0  0  0
  5  6  1  0  0  0  0
  6  7  2  0  0  0  0
  8  9  1  0  0  0  0
  9 10  1  0  0  0  0
 11  8  2  0  0  0  0
 12  4  1  0  0  0  0
 12 11  1  0  0  0  0
 13  2  1  0  0  0  0
M  END
>  <CHROM.1>
36.27791607,-58.84314123,-8.79507506,4.31712322,-7.40528920,2.63106374,0.02847745
-2.13508568

>  <Name>
lig.pdb

>  <RI>
0

>  <Rbt.Current_Directory>
/home/itssahil/PROJECTS/Mol_Feturizer/New_Systems/rnas/2miy

>  <Rbt.Executable>
rbdock ($Id: //depot/dev/client3/rdock/2013.1/src/exe/rbdock.cxx#4 $)

>  <Rbt.Library>
libRbt.so (2013.1, Build901 2013/11/27)

>  <Rbt.Parameter_File>
/export/apps/rDock/src/rDock_2013.1_src/data/scripts/dock_solv.prm

>  <Rbt.Receptor>
prm/pocket_docking_2.prm

>  <SCORE>
-48.8454

>  <SCORE.INTER>
-48.1591

>  <SCORE.INTER.CONST>
1

>  <SCORE.INTER.POLAR>
-5.52083

>  <SCORE.INTER.ROT>
2

>  <SCORE.INTER.SOLV>
17.8708

>  <SCORE.INTER.VDW>
-24.5936

>  <SCORE.INTER.norm>
-3.70455

>  <SCORE.INTRA>
-0.68628

>  <SCORE.INTRA.DIHEDRAL>
0.425428

>  <SCORE.INTRA.DIHEDRAL.0>
1.76676

>  <SCORE.INTRA.POLAR>
-0.3343

>  <SCORE.INTRA.POLAR.0>
-0.472211

>  <SCORE.INTRA.REPUL>
0

>  <SCORE.INTRA.REPUL.0>
0

>  <SCORE.INTRA.SOLV>
0.0827503

>  <SCORE.INTRA.SOLV.lig_0>
-22.5855

>  <SCORE.INTRA.VDW>
0.19625

>  <SCORE.INTRA.VDW.0>
-0.733656

>  <SCORE.INTRA.norm>
-0.0527907

>  <SCORE.RESTR>
0

>  <SCORE.RESTR.CAVITY>
0

>  <SCORE.RESTR.norm>
0

>  <SCORE.SYSTEM>
0

>  <SCORE.SYSTEM.CONST>
0

>  <SCORE.SYSTEM.DIHEDRAL>
0

>  <SCORE.SYSTEM.SOLV>
0

>  <SCORE.SYSTEM.norm>
0

>  <SCORE.heavy>
13

>  <SCORE.norm>
-3.75734

>  <RMSD>
0.733

$$$$
lig.pdb
 OpenBabel11021811453D
libRbt.so/2013.1/901 2013/11/27
 13 14  0  0  0  0  0  0  0  0999 V2000
  -10.8044    4.5708   -7.2028 N   0  0  0  0  0  0  0  0  0  0  0  0
  -10.9447    3.7653   -8.2973 C   0  0  0  0  0  0  0  0  0  0  0  0
   -9.8782    3.2918   -8.9165 N   0  0  0  0  0  0  0  0  0  0  0  0
   -8.6073    3.5811   -8.5011 C   0  0  0  0  0  0  0  0  0  0  0  0
   -8.4040    4.4160   -7.3756 C   0  0  0  0  0  0  0  0  0  0  0  0
   -9.5622    4.9223   -6.7122 C   0  0  0  0  0  0  0  0  0  0  0  0
   -9.4576    5.6475   -5.7385 O   0  0  0  0  0  0  0  0  0  0  0  0
   -6.9516    4.5360   -7.2022 C   0  0  0  0  0  0  0  0  0  0  0  0
   -6.2124    5.3314   -6.1588 C   0  0  0  0  0  0  0  0  0  0  0  0
   -6.9448    5.2745   -4.8867 N   0  0  0  0  0  0  0  0  0  0  0  0
   -6.4005    3.7937   -8.1704 C   0  0  0  0  0  0  0  0  0  0  0  0
   -7.3734    3.2279   -8.9507 N   0  0  0  0  0  0  0  0  0  0  0  0
  -12.1985    3.4490   -8.7530 N   0  0  0  0  0  0  0  0  0  0  0  0
  1  6  1  0  0  0  0
  2  1  1  0  0  0  0
  3  4  1  0  0  0  0
  3  2  2  0  0  0  0
  4  5  2  0  0  0  0
  5  8  1  0  0  0  0
  5  6  1  0  0  0  0
  6  7  2  0  0  0  0
  8  9  1  0  0  0  0
  9 10  1  0  0  0  0
 11  8  2  0  0  0  0
 12  4  1  0  0  0  0
 12 11  1  0  0  0  0
 13  2  1  0  0  0  0
M  END
>  <CHROM.1>
36.62735709,-60.49801327,-8.79529479,4.30786485,-7.41033633,2.63048511,0.02774986
-2.13591404

>  <Name>
lig.pdb

>  <RI>
2.68696e+07

>  <Rbt.Current_Directory>
/home/itssahil/PROJECTS/Mol_Feturizer/New_Systems/rnas/2miy

>  <Rbt.Executable>
rbdock ($Id: //depot/dev/client3/rdock/2013.1/src/exe/rbdock.cxx#4 $)

>  <Rbt.Library>
libRbt.so (2013.1, Build901 2013/11/27)

>  <Rbt.Parameter_File>
/export/apps/rDock/src/rDock_2013.1_src/data/scripts/dock_solv.prm

>  <Rbt.Receptor>
prm/pocket_docking_4.prm

>  <SCORE>
-48.8414

>  <SCORE.INTER>
-48.1448

>  <SCORE.INTER.CONST>
1

>  <SCORE.INTER.POLAR>
-5.48762

>  <SCORE.INTER.ROT>
2

>  <SCORE.INTER.SOLV>
17.8767

>  <SCORE.INTER.VDW>
-24.6967

>  <SCORE.INTER.norm>
-3.70345

>  <SCORE.INTRA>
-0.696527

>  <SCORE.INTRA.DIHEDRAL>
0.409004

>  <SCORE.INTRA.DIHEDRAL.0>
1.76676

>  <SCORE.INTRA.POLAR>
-0.328159

>  <SCORE.INTRA.POLAR.0>
-0.472211

>  <SCORE.INTRA.REPUL>
0

>  <SCORE.INTRA.REPUL.0>
0

>  <SCORE.INTRA.SOLV>
0.079146

>  <SCORE.INTRA.SOLV.lig_0>
-22.5855

>  <SCORE.INTRA.VDW>
0.175137

>  <SCORE.INTRA.VDW.0>
-0.733656

>  <SCORE.INTRA.norm>
-0.053579

>  <SCORE.RESTR>
0

>  <SCORE.RESTR.CAVITY>
0

>  <SCORE.RESTR.norm>
0

>  <SCORE.SYSTEM>
0

>  <SCORE.SYSTEM.CONST>
0

>  <SCORE.SYSTEM.DIHEDRAL>
0

>  <SCORE.SYSTEM.SOLV>
0

>  <SCORE.SYSTEM.norm>
0

>  <SCORE.heavy>
13

>  <SCORE.norm>
-3.75703

>  <RMSD>
0.733

$$$$
lig.pdb
 OpenBabel11021811453D
libRbt.so/2013.1/901 2013/11/27
 13 14  0  0  0  0  0  0  0  0999 V2000
  -10.8049    4.5675   -7.2033 N   0  0  0  0  0  0  0  0  0  0  0  0
  -10.9434    3.7628   -8.2986 C   0  0  0  0  0  0  0  0  0  0  0  0
   -9.8760    3.2915   -8.9177 N   0  0  0  0  0  0  0  0  0  0  0  0
   -8.6057    3.5823   -8.5015 C   0  0  0  0  0  0  0  0  0  0  0  0
   -8.4042    4.4165   -7.3752 C   0  0  0  0  0  0  0  0  0  0  0  0
   -9.5634    4.9204   -6.7118 C   0  0  0  0  0  0  0  0  0  0  0  0
   -9.4603    5.6449   -5.7374 O   0  0  0  0  0  0  0  0  0  0  0  0
   -6.9520    4.5385   -7.2010 C   0  0  0  0  0  0  0  0  0  0  0  0
   -6.2145    5.3341   -6.1565 C   0  0  0  0  0  0  0  0  0  0  0  0
   -6.9380    5.2603   -4.8803 N   0  0  0  0  0  0  0  0  0  0  0  0
   -6.3994    3.7978   -8.1696 C   0  0  0  0  0  0  0  0  0  0  0  0
   -7.3710    3.2313   -8.9509 N   0  0  0  0  0  0  0  0  0  0  0  0
  -12.1966    3.4450   -8.7552 N   0  0  0  0  0  0  0  0  0  0  0  0
  1  6  1  0  0  0  0
  2  1  1  0  0  0  0
  3  4  1  0  0  0  0
  3  2  2  0  0  0  0
  4  5  2  0  0  0  0
  5  8  1  0  0  0  0
  5  6  1  0  0  0  0
  6  7  2  0  0  0  0
  8  9  1  0  0  0  0
  9 10  1  0  0  0  0
 11  8  2  0  0  0  0
 12  4  1  0  0  0  0
 12 11  1  0  0  0  0
 13  2  1  0  0  0  0
M  END
>  <CHROM.1>
37.36816513,-61.01484630,-8.79440422,4.30638708,-7.40974521,2.62989666,0.02721660
-2.13371275

>  <Name>
lig.pdb

>  <RI>
2.68696e+07

>  <Rbt.Current_Directory>
/home/itssahil/PROJECTS/Mol_Feturizer/New_Systems/rnas/2miy

>  <Rbt.Executable>
rbdock ($Id: //depot/dev/client3/rdock/2013.1/src/exe/rbdock.cxx#4 $)

>  <Rbt.Library>
libRbt.so (2013.1, Build901 2013/11/27)

>  <Rbt.Parameter_File>
/export/apps/rDock/src/rDock_2013.1_src/data/scripts/dock_solv.prm

>  <Rbt.Receptor>
prm/pocket_docking_4.prm

>  <SCORE>
-48.8417

>  <SCORE.INTER>
-48.138

>  <SCORE.INTER.CONST>
1

>  <SCORE.INTER.POLAR>
-5.469

>  <SCORE.INTER.ROT>
2

>  <SCORE.INTER.SOLV>
17.8745

>  <SCORE.INTER.VDW>
-24.7535

>  <SCORE.INTER.norm>
-3.70292

>  <SCORE.INTRA>
-0.703711

>  <SCORE.INTRA.DIHEDRAL>
0.36985

>  <SCORE.INTRA.DIHEDRAL.0>
1.76676

>  <SCORE.INTRA.POLAR>
-0.316562

>  <SCORE.INTRA.POLAR.0>
-0.472211

>  <SCORE.INTRA.REPUL>
0

>  <SCORE.INTRA.REPUL.0>
0

>  <SCORE.INTRA.SOLV>
0.0723168

>  <SCORE.INTRA.SOLV.lig_0>
-22.5855

>  <SCORE.INTRA.VDW>
0.151517

>  <SCORE.INTRA.VDW.0>
-0.733656

>  <SCORE.INTRA.norm>
-0.0541316

>  <SCORE.RESTR>
0

>  <SCORE.RESTR.CAVITY>
0

>  <SCORE.RESTR.norm>
0

>  <SCORE.SYSTEM>
0

>  <SCORE.SYSTEM.CONST>
0

>  <SCORE.SYSTEM.DIHEDRAL>
0

>  <SCORE.SYSTEM.SOLV>
0

>  <SCORE.SYSTEM.norm>
0

>  <SCORE.heavy>
13

>  <SCORE.norm>
-3.75706

>  <RMSD>
0.734

$$$$
lig.pdb
 OpenBabel11021811453D
libRbt.so/2013.1/901 2013/11/27
 13 14  0  0  0  0  0  0  0  0999 V2000
  -10.8028    4.5829   -7.1972 N   0  0  0  0  0  0  0  0  0  0  0  0
  -10.9439    3.7833   -8.2959 C   0  0  0  0  0  0  0  0  0  0  0  0
   -9.8779    3.3097   -8.9159 N   0  0  0  0  0  0  0  0  0  0  0  0
   -8.6067    3.5932   -8.4973 C   0  0  0  0  0  0  0  0  0  0  0  0
   -8.4026    4.4219   -7.3673 C   0  0  0  0  0  0  0  0  0  0  0  0
   -9.5602    4.9282   -6.7031 C   0  0  0  0  0  0  0  0  0  0  0  0
   -9.4549    5.6483   -5.7256 O   0  0  0  0  0  0  0  0  0  0  0  0
   -6.9501    4.5367   -7.1912 C   0  0  0  0  0  0  0  0  0  0  0  0
   -6.2101    5.3247   -6.1428 C   0  0  0  0  0  0  0  0  0  0  0  0
   -6.9392    5.2551   -4.8695 N   0  0  0  0  0  0  0  0  0  0  0  0
   -6.3999    3.7975   -8.1623 C   0  0  0  0  0  0  0  0  0  0  0  0
   -7.3732    3.2385   -8.9469 N   0  0  0  0  0  0  0  0  0  0  0  0
  -12.1980    3.4730   -8.7550 N   0  0  0  0  0  0  0  0  0  0  0  0
  1  6  1  0  0  0  0
  2  1  1  0  0  0  0
  3  4  1  0  0  0  0
  3  2  2  0  0  0  0
  4  5  2  0  0  0  0
  5  8  1  0  0  0  0
  5  6  1  0  0  0  0
  6  7  2  0  0  0  0
  8  9  1  0  0  0  0
  9 10  1  0  0  0  0
 11  8  2  0  0  0  0
 12  4  1  0  0  0  0
 12 11  1  0  0  0  0
 13  2  1  0  0  0  0
M  END
>  <CHROM.1>
37.05314986,-60.65639094,-8.79369195,4.31423242,-7.40290381,2.63118312,0.03131332
-2.13021110

>  <Name>
lig.pdb

>  <RI>
9.06885e+06

>  <Rbt.Current_Directory>
/home/itssahil/PROJECTS/Mol_Feturizer/New_Systems/rnas/2miy

>  <Rbt.Executable>
rbdock ($Id: //depot/dev/client3/rdock/2013.1/src/exe/rbdock.cxx#4 $)

>  <Rbt.Library>
libRbt.so (2013.1, Build901 2013/11/27)

>  <Rbt.Parameter_File>
/export/apps/rDock/src/rDock_2013.1_src/data/scripts/dock_solv.prm

>  <Rbt.Receptor>
prm/pocket_docking_6.prm

>  <SCORE>
-48.8592

>  <SCORE.INTER>
-48.1583

>  <SCORE.INTER.CONST>
1

>  <SCORE.INTER.POLAR>
-5.52283

>  <SCORE.INTER.ROT>
2

>  <SCORE.INTER.SOLV>
17.8458

>  <SCORE.INTER.VDW>
-24.578

>  <SCORE.INTER.norm>
-3.70448

>  <SCORE.INTRA>
-0.700979

>  <SCORE.INTRA.DIHEDRAL>
0.386209

>  <SCORE.INTRA.DIHEDRAL.0>
1.76676

>  <SCORE.INTRA.POLAR>
-0.321732

>  <SCORE.INTRA.POLAR.0>
-0.472211

>  <SCORE.INTRA.REPUL>
0

>  <SCORE.INTRA.REPUL.0>
0

>  <SCORE.INTRA.SOLV>
0.0752752

>  <SCORE.INTRA.SOLV.lig_0>
-22.5855

>  <SCORE.INTRA.VDW>
0.162167

>  <SCORE.INTRA.VDW.0>
-0.733656

>  <SCORE.INTRA.norm>
-0.0539215

>  <SCORE.RESTR>
0

>  <SCORE.RESTR.CAVITY>
0

>  <SCORE.RESTR.norm>
0

>  <SCORE.SYSTEM>
0

>  <SCORE.SYSTEM.CONST>
0

>  <SCORE.SYSTEM.DIHEDRAL>
0

>  <SCORE.SYSTEM.SOLV>
0

>  <SCORE.SYSTEM.norm>
0

>  <SCORE.heavy>
13

>  <SCORE.norm>
-3.7584

>  <RMSD>
0.734

$$$$
lig.pdb
 OpenBabel11021811453D
libRbt.so/2013.1/901 2013/11/27
 13 14  0  0  0  0  0  0  0  0999 V2000
  -10.8064    4.5662   -7.2021 N   0  0  0  0  0  0  0  0  0  0  0  0
  -10.9456    3.7609   -8.2968 C   0  0  0  0  0  0  0  0  0  0  0  0
   -9.8785    3.2907   -8.9174 N   0  0  0  0  0  0  0  0  0  0  0  0
   -8.6080    3.5833   -8.5032 C   0  0  0  0  0  0  0  0  0  0  0  0
   -8.4058    4.4182   -7.3775 C   0  0  0  0  0  0  0  0  0  0  0  0
   -9.5647    4.9209   -6.7126 C   0  0  0  0  0  0  0  0  0  0  0  0
   -9.4611    5.6459   -5.7387 O   0  0  0  0  0  0  0  0  0  0  0  0
   -6.9535    4.5421   -7.2056 C   0  0  0  0  0  0  0  0  0  0  0  0
   -6.2155    5.3390   -6.1625 C   0  0  0  0  0  0  0  0  0  0  0  0
   -6.9249    5.2464   -4.8796 N   0  0  0  0  0  0  0  0  0  0  0  0
   -6.4015    3.8018   -8.1747 C   0  0  0  0  0  0  0  0  0  0  0  0
   -7.3736    3.2337   -8.9543 N   0  0  0  0  0  0  0  0  0  0  0  0
  -12.1991    3.4414   -8.7514 N   0  0  0  0  0  0  0  0  0  0  0  0
  1  6  1  0  0  0  0
  2  1  1  0  0  0  0
  3  4  1  0  0  0  0
  3  2  2  0  0  0  0
  4  5  2  0  0  0  0
  5  8  1  0  0  0  0
  5  6  1  0  0  0  0
  6  7  2  0  0  0  0
  8  9  1  0  0  0  0
  9 10  1  0  0  0  0
 11  8  2  0  0  0  0
 12  4  1  0  0  0  0
 12 11  1  0  0  0  0
 13  2  1  0  0  0  0
M  END
>  <CHROM.1>
38.30615281,-62.02061351,-8.79484609,4.30587154,-7.41093414,2.63127377,0.02598520
-2.13259287

>  <Name>
lig.pdb

>  <RI>
2.68696e+07

>  <Rbt.Current_Directory>
/home/itssahil/PROJECTS/Mol_Feturizer/New_Systems/rnas/2miy

>  <Rbt.Executable>
rbdock ($Id: //depot/dev/client3/rdock/2013.1/src/exe/rbdock.cxx#4 $)

>  <Rbt.Library>
libRbt.so (2013.1, Build901 2013/11/27)

>  <Rbt.Parameter_File>
/export/apps/rDock/src/rDock_2013.1_src/data/scripts/dock_solv.prm

>  <Rbt.Receptor>
prm/pocket_docking_4.prm

>  <SCORE>
-48.826

>  <SCORE.INTER>
-48.1185

>  <SCORE.INTER.CONST>
1

>  <SCORE.INTER.POLAR>
-5.46553

>  <SCORE.INTER.ROT>
2

>  <SCORE.INTER.SOLV>
17.8929

>  <SCORE.INTER.VDW>
-24.7582

>  <SCORE.INTER.norm>
-3.70142

>  <SCORE.INTRA>
-0.707531

>  <SCORE.INTRA.DIHEDRAL>
0.321711

>  <SCORE.INTRA.DIHEDRAL.0>
1.76676

>  <SCORE.INTRA.POLAR>
-0.300686

>  <SCORE.INTRA.POLAR.0>
-0.472211

>  <SCORE.INTRA.REPUL>
0

>  <SCORE.INTRA.REPUL.0>
0

>  <SCORE.INTRA.SOLV>
0.0634172

>  <SCORE.INTRA.SOLV.lig_0>
-22.5855

>  <SCORE.INTRA.VDW>
0.122238

>  <SCORE.INTRA.VDW.0>
-0.733656

>  <SCORE.INTRA.norm>
-0.0544255

>  <SCORE.RESTR>
0

>  <SCORE.RESTR.CAVITY>
0

>  <SCORE.RESTR.norm>
0

>  <SCORE.SYSTEM>
0

>  <SCORE.SYSTEM.CONST>
0

>  <SCORE.SYSTEM.DIHEDRAL>
0

>  <SCORE.SYSTEM.SOLV>
0

>  <SCORE.SYSTEM.norm>
0

>  <SCORE.heavy>
13

>  <SCORE.norm>
-3.75585

>  <RMSD>
0.735

$$$$
lig.pdb
 OpenBabel11021811453D
libRbt.so/2013.1/901 2013/11/27
 13 14  0  0  0  0  0  0  0  0999 V2000
  -10.8016    4.5864   -7.1999 N   0  0  0  0  0  0  0  0  0  0  0  0
  -10.9430    3.7827   -8.2956 C   0  0  0  0  0  0  0  0  0  0  0  0
   -9.8772    3.3080   -8.9149 N   0  0  0  0  0  0  0  0  0  0  0  0
   -8.6059    3.5941   -8.4985 C   0  0  0  0  0  0  0  0  0  0  0  0
   -8.4015    4.4269   -7.3717 C   0  0  0  0  0  0  0  0  0  0  0  0
   -9.5589    4.9346   -6.7082 C   0  0  0  0  0  0  0  0  0  0  0  0
   -9.4534    5.6582   -5.7334 O   0  0  0  0  0  0  0  0  0  0  0  0
   -6.9489    4.5437   -7.1974 C   0  0  0  0  0  0  0  0  0  0  0  0
   -6.2087    5.3361   -6.1525 C   0  0  0  0  0  0  0  0  0  0  0  0
   -6.9403    5.2765   -4.8801 N   0  0  0  0  0  0  0  0  0  0  0  0
   -6.3989    3.8016   -8.1664 C   0  0  0  0  0  0  0  0  0  0  0  0
   -7.3725    3.2389   -8.9480 N   0  0  0  0  0  0  0  0  0  0  0  0
  -12.1973    3.4697   -8.7524 N   0  0  0  0  0  0  0  0  0  0  0  0
  1  6  1  0  0  0  0
  2  1  1  0  0  0  0
  3  4  1  0  0  0  0
  3  2  2  0  0  0  0
  4  5  2  0  0  0  0
  5  8  1  0  0  0  0
  5  6  1  0  0  0  0
  6  7  2  0  0  0  0
  8  9  1  0  0  0  0
  9 10  1  0  0  0  0
 11  8  2  0  0  0  0
 12  4  1  0  0  0  0
 12 11  1  0  0  0  0
 13  2  1  0  0  0  0
M  END
>  <CHROM.1>
36.74522031,118.31132886,-8.79290084,4.31924074,-7.40675474,2.63144956,0.02984783
-2.13421899

>  <Name>
lig.pdb

>  <RI>
3.47783e+07

>  <Rbt.Current_Directory>
/home/itssahil/PROJECTS/Mol_Feturizer/New_Systems/rnas/2miy

>  <Rbt.Executable>
rbdock ($Id: //depot/dev/client3/rdock/2013.1/src/exe/rbdock.cxx#4 $)

>  <Rbt.Library>
libRbt.so (2013.1, Build901 2013/11/27)

>  <Rbt.Parameter_File>
/export/apps/rDock/src/rDock_2013.1_src/data/scripts/dock_solv.prm

>  <Rbt.Receptor>
prm/pocket_docking_8.prm

>  <SCORE>
-48.8635

>  <SCORE.INTER>
-48.1611

>  <SCORE.INTER.CONST>
1

>  <SCORE.INTER.POLAR>
-5.52309

>  <SCORE.INTER.ROT>
2

>  <SCORE.INTER.SOLV>
17.884

>  <SCORE.INTER.VDW>
-24.5918

>  <SCORE.INTER.norm>
-3.7047

>  <SCORE.INTRA>
-0.70239

>  <SCORE.INTRA.DIHEDRAL>
0.400667

>  <SCORE.INTRA.DIHEDRAL.0>
1.76676

>  <SCORE.INTRA.POLAR>
-0.32672

>  <SCORE.INTRA.POLAR.0>
-0.472211

>  <SCORE.INTRA.REPUL>
0

>  <SCORE.INTRA.REPUL.0>
0

>  <SCORE.INTRA.SOLV>
0.0789293

>  <SCORE.INTRA.SOLV.lig_0>
-22.5855

>  <SCORE.INTRA.VDW>
0.168661

>  <SCORE.INTRA.VDW.0>
-0.733656

>  <SCORE.INTRA.norm>
-0.05403

>  <SCORE.RESTR>
0

>  <SCORE.RESTR.CAVITY>
0

>  <SCORE.RESTR.norm>
0

>  <SCORE.SYSTEM>
0

>  <SCORE.SYSTEM.CONST>
0

>  <SCORE.SYSTEM.DIHEDRAL>
0

>  <SCORE.SYSTEM.SOLV>
0

>  <SCORE.SYSTEM.norm>
0

>  <SCORE.heavy>
13

>  <SCORE.norm>
-3.75873

>  <RMSD>
0.737

$$$$
lig.pdb
 OpenBabel11021811453D
libRbt.so/2013.1/901 2013/11/27
 13 14  0  0  0  0  0  0  0  0999 V2000
  -10.8017    4.5876   -7.1989 N   0  0  0  0  0  0  0  0  0  0  0  0
  -10.9439    3.7829   -8.2937 C   0  0  0  0  0  0  0  0  0  0  0  0
   -9.8787    3.3076   -8.9135 N   0  0  0  0  0  0  0  0  0  0  0  0
   -8.6070    3.5940   -8.4984 C   0  0  0  0  0  0  0  0  0  0  0  0
   -8.4016    4.4280   -7.3725 C   0  0  0  0  0  0  0  0  0  0  0  0
   -9.5585    4.9362   -6.7085 C   0  0  0  0  0  0  0  0  0  0  0  0
   -9.4522    5.6608   -5.7345 O   0  0  0  0  0  0  0  0  0  0  0  0
   -6.9489    4.5449   -7.1995 C   0  0  0  0  0  0  0  0  0  0  0  0
   -6.2078    5.3383   -6.1560 C   0  0  0  0  0  0  0  0  0  0  0  0
   -6.9369    5.2775   -4.8822 N   0  0  0  0  0  0  0  0  0  0  0  0
   -6.3997    3.8019   -8.1683 C   0  0  0  0  0  0  0  0  0  0  0  0
   -7.3739    3.2385   -8.9486 N   0  0  0  0  0  0  0  0  0  0  0  0
  -12.1986    3.4694   -8.7492 N   0  0  0  0  0  0  0  0  0  0  0  0
  1  6  1  0  0  0  0
  2  1  1  0  0  0  0
  3  4  1  0  0  0  0
  3  2  2  0  0  0  0
  4  5  2  0  0  0  0
  5  8  1  0  0  0  0
  5  6  1  0  0  0  0
  6  7  2  0  0  0  0
  8  9  1  0  0  0  0
  9 10  1  0  0  0  0
 11  8  2  0  0  0  0
 12  4  1  0  0  0  0
 12 11  1  0  0  0  0
 13  2  1  0  0  0  0
M  END
>  <CHROM.1>
36.86570266,117.93827578,-8.79294523,4.32002522,-7.40709083,2.63224392,0.02950324
-2.13499155

>  <Name>
lig.pdb

>  <RI>
3.47783e+07

>  <Rbt.Current_Directory>
/home/itssahil/PROJECTS/Mol_Feturizer/New_Systems/rnas/2miy

>  <Rbt.Executable>
rbdock ($Id: //depot/dev/client3/rdock/2013.1/src/exe/rbdock.cxx#4 $)

>  <Rbt.Library>
libRbt.so (2013.1, Build901 2013/11/27)

>  <Rbt.Parameter_File>
/export/apps/rDock/src/rDock_2013.1_src/data/scripts/dock_solv.prm

>  <Rbt.Receptor>
prm/pocket_docking_8.prm

>  <SCORE>
-48.8634

>  <SCORE.INTER>
-48.1593

>  <SCORE.INTER.CONST>
1

>  <SCORE.INTER.POLAR>
-5.52953

>  <SCORE.INTER.ROT>
2

>  <SCORE.INTER.SOLV>
17.894

>  <SCORE.INTER.VDW>
-24.5725

>  <SCORE.INTER.norm>
-3.70456

>  <SCORE.INTRA>
-0.704098

>  <SCORE.INTRA.DIHEDRAL>
0.39355

>  <SCORE.INTRA.DIHEDRAL.0>
1.76676

>  <SCORE.INTRA.POLAR>
-0.324353

>  <SCORE.INTRA.POLAR.0>
-0.472211

>  <SCORE.INTRA.REPUL>
0

>  <SCORE.INTRA.REPUL.0>
0

>  <SCORE.INTRA.SOLV>
0.077745

>  <SCORE.INTRA.SOLV.lig_0>
-22.5855

>  <SCORE.INTRA.VDW>
0.163053

>  <SCORE.INTRA.VDW.0>
-0.733656

>  <SCORE.INTRA.norm>
-0.0541614

>  <SCORE.RESTR>
0

>  <SCORE.RESTR.CAVITY>
0

>  <SCORE.RESTR.norm>
0

>  <SCORE.SYSTEM>
0

>  <SCORE.SYSTEM.CONST>
0

>  <SCORE.SYSTEM.DIHEDRAL>
0

>  <SCORE.SYSTEM.SOLV>
0

>  <SCORE.SYSTEM.norm>
0

>  <SCORE.heavy>
13

>  <SCORE.norm>
-3.75872

>  <RMSD>
0.737

$$$$
lig.pdb
 OpenBabel11021811453D
libRbt.so/2013.1/901 2013/11/27
 13 14  0  0  0  0  0  0  0  0999 V2000
  -10.8020    4.5816   -7.1973 N   0  0  0  0  0  0  0  0  0  0  0  0
  -10.9435    3.7774   -8.2926 C   0  0  0  0  0  0  0  0  0  0  0  0
   -9.8778    3.3033   -8.9125 N   0  0  0  0  0  0  0  0  0  0  0  0
   -8.6064    3.5906   -8.4971 C   0  0  0  0  0  0  0  0  0  0  0  0
   -8.4019    4.4241   -7.3708 C   0  0  0  0  0  0  0  0  0  0  0  0
   -9.5593    4.9310   -6.7066 C   0  0  0  0  0  0  0  0  0  0  0  0
   -9.4536    5.6551   -5.7321 O   0  0  0  0  0  0  0  0  0  0  0  0
   -6.9493    4.5421   -7.1976 C   0  0  0  0  0  0  0  0  0  0  0  0
   -6.2089    5.3355   -6.1534 C   0  0  0  0  0  0  0  0  0  0  0  0
   -6.9277    5.2572   -4.8748 N   0  0  0  0  0  0  0  0  0  0  0  0
   -6.3993    3.8001   -8.1667 C   0  0  0  0  0  0  0  0  0  0  0  0
   -7.3730    3.2363   -8.9474 N   0  0  0  0  0  0  0  0  0  0  0  0
  -12.1979    3.4632   -8.7484 N   0  0  0  0  0  0  0  0  0  0  0  0
  1  6  1  0  0  0  0
  2  1  1  0  0  0  0
  3  4  1  0  0  0  0
  3  2  2  0  0  0  0
  4  5  2  0  0  0  0
  5  8  1  0  0  0  0
  5  6  1  0  0  0  0
  6  7  2  0  0  0  0
  8  9  1  0  0  0  0
  9 10  1  0  0  0  0
 11  8  2  0  0  0  0
 12  4  1  0  0  0  0
 12 11  1  0  0  0  0
 13  2  1  0  0  0  0
M  END
>  <CHROM.1>
37.68482427,117.54685736,-8.79211940,4.31430433,-7.40497106,2.63237600,0.02941059
-2.13302553

>  <Name>
lig.pdb

>  <RI>
3.47783e+07

>  <Rbt.Current_Directory>
/home/itssahil/PROJECTS/Mol_Feturizer/New_Systems/rnas/2miy

>  <Rbt.Executable>
rbdock ($Id: //depot/dev/client3/rdock/2013.1/src/exe/rbdock.cxx#4 $)

>  <Rbt.Library>
libRbt.so (2013.1, Build901 2013/11/27)

>  <Rbt.Parameter_File>
/export/apps/rDock/src/rDock_2013.1_src/data/scripts/dock_solv.prm

>  <Rbt.Receptor>
prm/pocket_docking_8.prm

>  <SCORE>
-48.8584

>  <SCORE.INTER>
-48.147

>  <SCORE.INTER.CONST>
1

>  <SCORE.INTER.POLAR>
-5.51645

>  <SCORE.INTER.ROT>
2

>  <SCORE.INTER.SOLV>
17.8809

>  <SCORE.INTER.VDW>
-24.6035

>  <SCORE.INTER.norm>
-3.70362

>  <SCORE.INTRA>
-0.711344

>  <SCORE.INTRA.DIHEDRAL>
0.348975

>  <SCORE.INTRA.DIHEDRAL.0>
1.76676

>  <SCORE.INTRA.POLAR>
-0.311689

>  <SCORE.INTRA.POLAR.0>
-0.472211

>  <SCORE.INTRA.REPUL>
0

>  <SCORE.INTRA.REPUL.0>
0

>  <SCORE.INTRA.SOLV>
0.0701996

>  <SCORE.INTRA.SOLV.lig_0>
-22.5855

>  <SCORE.INTRA.VDW>
0.13881

>  <SCORE.INTRA.VDW.0>
-0.733656

>  <SCORE.INTRA.norm>
-0.0547188

>  <SCORE.RESTR>
0

>  <SCORE.RESTR.CAVITY>
0

>  <SCORE.RESTR.norm>
0

>  <SCORE.SYSTEM>
0

>  <SCORE.SYSTEM.CONST>
0

>  <SCORE.SYSTEM.DIHEDRAL>
0

>  <SCORE.SYSTEM.SOLV>
0

>  <SCORE.SYSTEM.norm>
0

>  <SCORE.heavy>
13

>  <SCORE.norm>
-3.75834

>  <RMSD>
0.737

$$$$
lig.pdb
 OpenBabel11021811453D
libRbt.so/2013.1/901 2013/11/27
 13 14  0  0  0  0  0  0  0  0999 V2000
  -10.8022    4.5855   -7.1977 N   0  0  0  0  0  0  0  0  0  0  0  0
  -10.9443    3.7815   -8.2931 C   0  0  0  0  0  0  0  0  0  0  0  0
   -9.8788    3.3070   -8.9132 N   0  0  0  0  0  0  0  0  0  0  0  0
   -8.6073    3.5936   -8.4979 C   0  0  0  0  0  0  0  0  0  0  0  0
   -8.4022    4.4268   -7.3714 C   0  0  0  0  0  0  0  0  0  0  0  0
   -9.5592    4.9342   -6.7071 C   0  0  0  0  0  0  0  0  0  0  0  0
   -9.4531    5.6580   -5.7325 O   0  0  0  0  0  0  0  0  0  0  0  0
   -6.9495    4.5440   -7.1984 C   0  0  0  0  0  0  0  0  0  0  0  0
   -6.2086    5.3369   -6.1542 C   0  0  0  0  0  0  0  0  0  0  0  0
   -6.9298    5.2625   -4.8767 N   0  0  0  0  0  0  0  0  0  0  0  0
   -6.4000    3.8019   -8.1677 C   0  0  0  0  0  0  0  0  0  0  0  0
   -7.3741    3.2387   -8.9484 N   0  0  0  0  0  0  0  0  0  0  0  0
  -12.1988    3.4679   -8.7488 N   0  0  0  0  0  0  0  0  0  0  0  0
  1  6  1  0  0  0  0
  2  1  1  0  0  0  0
  3  4  1  0  0  0  0
  3  2  2  0  0  0  0
  4  5  2  0  0  0  0
  5  8  1  0  0  0  0
  5  6  1  0  0  0  0
  6  7  2  0  0  0  0
  8  9  1  0  0  0  0
  9 10  1  0  0  0  0
 11  8  2  0  0  0  0
 12  4  1  0  0  0  0
 12 11  1  0  0  0  0
 13  2  1  0  0  0  0
M  END
>  <CHROM.1>
37.49511050,117.85924693,-8.79270705,4.31754685,-7.40572295,2.63257727,0.02963869
-2.13320505

>  <Name>
lig.pdb

>  <RI>
3.47783e+07

>  <Rbt.Current_Directory>
/home/itssahil/PROJECTS/Mol_Feturizer/New_Systems/rnas/2miy

>  <Rbt.Executable>
rbdock ($Id: //depot/dev/client3/rdock/2013.1/src/exe/rbdock.cxx#4 $)

>  <Rbt.Library>
libRbt.so (2013.1, Build901 2013/11/27)

>  <Rbt.Parameter_File>
/export/apps/rDock/src/rDock_2013.1_src/data/scripts/dock_solv.prm

>  <Rbt.Receptor>
prm/pocket_docking_8.prm

>  <SCORE>
-48.8699

>  <SCORE.INTER>
-48.1602

>  <SCORE.INTER.CONST>
1

>  <SCORE.INTER.POLAR>
-5.52657

>  <SCORE.INTER.ROT>
2

>  <SCORE.INTER.SOLV>
17.8875

>  <SCORE.INTER.VDW>
-24.5807

>  <SCORE.INTER.norm>
-3.70463

>  <SCORE.INTRA>
-0.709734

>  <SCORE.INTRA.DIHEDRAL>
0.359584

>  <SCORE.INTRA.DIHEDRAL.0>
1.76676

>  <SCORE.INTRA.POLAR>
-0.315005

>  <SCORE.INTRA.POLAR.0>
-0.472211

>  <SCORE.INTRA.REPUL>
0

>  <SCORE.INTRA.REPUL.0>
0

>  <SCORE.INTRA.SOLV>
0.072018

>  <SCORE.INTRA.SOLV.lig_0>
-22.5855

>  <SCORE.INTRA.VDW>
0.145482

>  <SCORE.INTRA.VDW.0>
-0.733656

>  <SCORE.INTRA.norm>
-0.0545949

>  <SCORE.RESTR>
0

>  <SCORE.RESTR.CAVITY>
0

>  <SCORE.RESTR.norm>
0

>  <SCORE.SYSTEM>
0

>  <SCORE.SYSTEM.CONST>
0

>  <SCORE.SYSTEM.DIHEDRAL>
0

>  <SCORE.SYSTEM.SOLV>
0

>  <SCORE.SYSTEM.norm>
0

>  <SCORE.heavy>
13

>  <SCORE.norm>
-3.75922

>  <RMSD>
0.737

$$$$
lig.pdb
 OpenBabel11021811453D
libRbt.so/2013.1/901 2013/11/27
 13 14  0  0  0  0  0  0  0  0999 V2000
  -10.8009    4.5831   -7.2088 N   0  0  0  0  0  0  0  0  0  0  0  0
  -10.9398    3.7818   -8.3065 C   0  0  0  0  0  0  0  0  0  0  0  0
   -9.8727    3.3071   -8.9236 N   0  0  0  0  0  0  0  0  0  0  0  0
   -8.6023    3.5911   -8.5028 C   0  0  0  0  0  0  0  0  0  0  0  0
   -8.4004    4.4215   -7.3737 C   0  0  0  0  0  0  0  0  0  0  0  0
   -9.5594    4.9290   -6.7127 C   0  0  0  0  0  0  0  0  0  0  0  0
   -9.4560    5.6506   -5.7361 O   0  0  0  0  0  0  0  0  0  0  0  0
   -6.9483    4.5365   -7.1949 C   0  0  0  0  0  0  0  0  0  0  0  0
   -6.2104    5.3261   -6.1461 C   0  0  0  0  0  0  0  0  0  0  0  0
   -6.9491    5.2699   -4.8778 N   0  0  0  0  0  0  0  0  0  0  0  0
   -6.3961    3.7958   -8.1637 C   0  0  0  0  0  0  0  0  0  0  0  0
   -7.3679    3.2356   -8.9494 N   0  0  0  0  0  0  0  0  0  0  0  0
  -12.1931    3.4709   -8.7677 N   0  0  0  0  0  0  0  0  0  0  0  0
  1  6  1  0  0  0  0
  2  1  1  0  0  0  0
  3  4  1  0  0  0  0
  3  2  2  0  0  0  0
  4  5  2  0  0  0  0
  5  8  1  0  0  0  0
  5  6  1  0  0  0  0
  6  7  2  0  0  0  0
  8  9  1  0  0  0  0
  9 10  1  0  0  0  0
 11  8  2  0  0  0  0
 12  4  1  0  0  0  0
 12 11  1  0  0  0  0
 13  2  1  0  0  0  0
M  END
>  <CHROM.1>
36.47956113,119.68112114,-8.79217044,4.31480391,-7.41034328,2.62922224,0.03209874
-2.13258335

>  <Name>
lig.pdb

>  <RI>
2.95488e+07

>  <Rbt.Current_Directory>
/home/itssahil/PROJECTS/Mol_Feturizer/New_Systems/rnas/2miy

>  <Rbt.Executable>
rbdock ($Id: //depot/dev/client3/rdock/2013.1/src/exe/rbdock.cxx#4 $)

>  <Rbt.Library>
libRbt.so (2013.1, Build901 2013/11/27)

>  <Rbt.Parameter_File>
/export/apps/rDock/src/rDock_2013.1_src/data/scripts/dock_solv.prm

>  <Rbt.Receptor>
prm/blind_docking_20.prm

>  <SCORE>
-48.8244

>  <SCORE.INTER>
-48.1414

>  <SCORE.INTER.CONST>
1

>  <SCORE.INTER.POLAR>
-5.49764

>  <SCORE.INTER.ROT>
2

>  <SCORE.INTER.SOLV>
17.8679

>  <SCORE.INTER.VDW>
-24.6581

>  <SCORE.INTER.norm>
-3.70319

>  <SCORE.INTRA>
-0.693712

>  <SCORE.INTRA.DIHEDRAL>
0.417284

>  <SCORE.INTRA.DIHEDRAL.0>
1.76676

>  <SCORE.INTRA.POLAR>
-0.331839

>  <SCORE.INTRA.POLAR.0>
-0.472211

>  <SCORE.INTRA.REPUL>
0

>  <SCORE.INTRA.REPUL.0>
0

>  <SCORE.INTRA.SOLV>
0.0816723

>  <SCORE.INTRA.SOLV.lig_0>
-22.5855

>  <SCORE.INTRA.VDW>
0.185063

>  <SCORE.INTRA.VDW.0>
-0.733656

>  <SCORE.INTRA.norm>
-0.0533624

>  <SCORE.RESTR>
0.0107175

>  <SCORE.RESTR.CAVITY>
0.0107175

>  <SCORE.RESTR.norm>
0.000824422

>  <SCORE.SYSTEM>
0

>  <SCORE.SYSTEM.CONST>
0

>  <SCORE.SYSTEM.DIHEDRAL>
0

>  <SCORE.SYSTEM.SOLV>
0

>  <SCORE.SYSTEM.norm>
0

>  <SCORE.heavy>
13

>  <SCORE.norm>
-3.75572

>  <RMSD>
0.738

$$$$
lig.pdb
 OpenBabel11021811453D
libRbt.so/2013.1/901 2013/11/27
 13 14  0  0  0  0  0  0  0  0999 V2000
  -10.8020    4.5812   -7.2000 N   0  0  0  0  0  0  0  0  0  0  0  0
  -10.9422    3.7816   -8.2988 C   0  0  0  0  0  0  0  0  0  0  0  0
   -9.8757    3.3079   -8.9178 N   0  0  0  0  0  0  0  0  0  0  0  0
   -8.6049    3.5912   -8.4981 C   0  0  0  0  0  0  0  0  0  0  0  0
   -8.4017    4.4200   -7.3680 C   0  0  0  0  0  0  0  0  0  0  0  0
   -9.5599    4.9264   -6.7048 C   0  0  0  0  0  0  0  0  0  0  0  0
   -9.4554    5.6465   -5.7273 O   0  0  0  0  0  0  0  0  0  0  0  0
   -6.9494    4.5347   -7.1906 C   0  0  0  0  0  0  0  0  0  0  0  0
   -6.2102    5.3226   -6.1415 C   0  0  0  0  0  0  0  0  0  0  0  0
   -6.9264    5.2313   -4.8623 N   0  0  0  0  0  0  0  0  0  0  0  0
   -6.3983    3.7954   -8.1612 C   0  0  0  0  0  0  0  0  0  0  0  0
   -7.3710    3.2365   -8.9466 N   0  0  0  0  0  0  0  0  0  0  0  0
  -12.1960    3.4713   -8.7590 N   0  0  0  0  0  0  0  0  0  0  0  0
  1  6  1  0  0  0  0
  2  1  1  0  0  0  0
  3  4  1  0  0  0  0
  3  2  2  0  0  0  0
  4  5  2  0  0  0  0
  5  8  1  0  0  0  0
  5  6  1  0  0  0  0
  6  7  2  0  0  0  0
  8  9  1  0  0  0  0
  9 10  1  0  0  0  0
 11  8  2  0  0  0  0
 12  4  1  0  0  0  0
 12 11  1  0  0  0  0
 13  2  1  0  0  0  0
M  END
>  <CHROM.1>
38.16610764,-61.93236633,-8.79145351,4.31031205,-7.40330225,2.63137893,0.03261141
-2.12838415

>  <Name>
lig.pdb

>  <RI>
2.95488e+07

>  <Rbt.Current_Directory>
/home/itssahil/PROJECTS/Mol_Feturizer/New_Systems/rnas/2miy

>  <Rbt.Executable>
rbdock ($Id: //depot/dev/client3/rdock/2013.1/src/exe/rbdock.cxx#4 $)

>  <Rbt.Library>
libRbt.so (2013.1, Build901 2013/11/27)

>  <Rbt.Parameter_File>
/export/apps/rDock/src/rDock_2013.1_src/data/scripts/dock_solv.prm

>  <Rbt.Receptor>
prm/blind_docking_20.prm

>  <SCORE>
-48.833

>  <SCORE.INTER>
-48.1343

>  <SCORE.INTER.CONST>
1

>  <SCORE.INTER.POLAR>
-5.51128

>  <SCORE.INTER.ROT>
2

>  <SCORE.INTER.SOLV>
17.8479

>  <SCORE.INTER.VDW>
-24.6012

>  <SCORE.INTER.norm>
-3.70264

>  <SCORE.INTRA>
-0.707349

>  <SCORE.INTRA.DIHEDRAL>
0.32893

>  <SCORE.INTRA.DIHEDRAL.0>
1.76676

>  <SCORE.INTRA.POLAR>
-0.303027

>  <SCORE.INTRA.POLAR.0>
-0.472211

>  <SCORE.INTRA.REPUL>
0

>  <SCORE.INTRA.REPUL.0>
0

>  <SCORE.INTRA.SOLV>
0.0647372

>  <SCORE.INTRA.SOLV.lig_0>
-22.5855

>  <SCORE.INTRA.VDW>
0.12611

>  <SCORE.INTRA.VDW.0>
-0.733656

>  <SCORE.INTRA.norm>
-0.0544115

>  <SCORE.RESTR>
0.00866461

>  <SCORE.RESTR.CAVITY>
0.00866461

>  <SCORE.RESTR.norm>
0.000666508

>  <SCORE.SYSTEM>
0

>  <SCORE.SYSTEM.CONST>
0

>  <SCORE.SYSTEM.DIHEDRAL>
0

>  <SCORE.SYSTEM.SOLV>
0

>  <SCORE.SYSTEM.norm>
0

>  <SCORE.heavy>
13

>  <SCORE.norm>
-3.75638

>  <RMSD>
0.738

$$$$
lig.pdb
 OpenBabel11021811453D
libRbt.so/2013.1/901 2013/11/27
 13 14  0  0  0  0  0  0  0  0999 V2000
  -10.8014    4.5867   -7.1988 N   0  0  0  0  0  0  0  0  0  0  0  0
  -10.9432    3.7837   -8.2949 C   0  0  0  0  0  0  0  0  0  0  0  0
   -9.8777    3.3085   -8.9144 N   0  0  0  0  0  0  0  0  0  0  0  0
   -8.6063    3.5935   -8.4977 C   0  0  0  0  0  0  0  0  0  0  0  0
   -8.4013    4.4257   -7.3705 C   0  0  0  0  0  0  0  0  0  0  0  0
   -9.5585    4.9338   -6.7068 C   0  0  0  0  0  0  0  0  0  0  0  0
   -9.4524    5.6569   -5.7316 O   0  0  0  0  0  0  0  0  0  0  0  0
   -6.9487    4.5414   -7.1961 C   0  0  0  0  0  0  0  0  0  0  0  0
   -6.2079    5.3328   -6.1507 C   0  0  0  0  0  0  0  0  0  0  0  0
   -6.9321    5.2611   -4.8747 N   0  0  0  0  0  0  0  0  0  0  0  0
   -6.3991    3.7994   -8.1654 C   0  0  0  0  0  0  0  0  0  0  0  0
   -7.3731    3.2378   -8.9474 N   0  0  0  0  0  0  0  0  0  0  0  0
  -12.1977    3.4717   -8.7519 N   0  0  0  0  0  0  0  0  0  0  0  0
  1  6  1  0  0  0  0
  2  1  1  0  0  0  0
  3  4  1  0  0  0  0
  3  2  2  0  0  0  0
  4  5  2  0  0  0  0
  5  8  1  0  0  0  0
  5  6  1  0  0  0  0
  6  7  2  0  0  0  0
  8  9  1  0  0  0  0
  9 10  1  0  0  0  0
 11  8  2  0  0  0  0
 12  4  1  0  0  0  0
 12 11  1  0  0  0  0
 13  2  1  0  0  0  0
M  END
>  <CHROM.1>
37.34777921,-60.96438538,-8.79204487,4.31733264,-7.40526080,2.63205288,0.03083710
-2.13278683

>  <Name>
lig.pdb

>  <RI>
2.68696e+07

>  <Rbt.Current_Directory>
/home/itssahil/PROJECTS/Mol_Feturizer/New_Systems/rnas/2miy

>  <Rbt.Executable>
rbdock ($Id: //depot/dev/client3/rdock/2013.1/src/exe/rbdock.cxx#4 $)

>  <Rbt.Library>
libRbt.so (2013.1, Build901 2013/11/27)

>  <Rbt.Parameter_File>
/export/apps/rDock/src/rDock_2013.1_src/data/scripts/dock_solv.prm

>  <Rbt.Receptor>
prm/pocket_docking_4.prm

>  <SCORE>
-48.8659

>  <SCORE.INTER>
-48.1624

>  <SCORE.INTER.CONST>
1

>  <SCORE.INTER.POLAR>
-5.52832

>  <SCORE.INTER.ROT>
2

>  <SCORE.INTER.SOLV>
17.8789

>  <SCORE.INTER.VDW>
-24.5735

>  <SCORE.INTER.norm>
-3.7048

>  <SCORE.INTRA>
-0.703526

>  <SCORE.INTRA.DIHEDRAL>
0.370862

>  <SCORE.INTRA.DIHEDRAL.0>
1.76676

>  <SCORE.INTRA.POLAR>
-0.316931

>  <SCORE.INTRA.POLAR.0>
-0.472211

>  <SCORE.INTRA.REPUL>
0

>  <SCORE.INTRA.REPUL.0>
0

>  <SCORE.INTRA.SOLV>
0.0725171

>  <SCORE.INTRA.SOLV.lig_0>
-22.5855

>  <SCORE.INTRA.VDW>
0.152348

>  <SCORE.INTRA.VDW.0>
-0.733656

>  <SCORE.INTRA.norm>
-0.0541174

>  <SCORE.RESTR>
0

>  <SCORE.RESTR.CAVITY>
0

>  <SCORE.RESTR.norm>
0

>  <SCORE.SYSTEM>
0

>  <SCORE.SYSTEM.CONST>
0

>  <SCORE.SYSTEM.DIHEDRAL>
0

>  <SCORE.SYSTEM.SOLV>
0

>  <SCORE.SYSTEM.norm>
0

>  <SCORE.heavy>
13

>  <SCORE.norm>
-3.75892

>  <RMSD>
0.738

$$$$
lig.pdb
 OpenBabel11021811453D
libRbt.so/2013.1/901 2013/11/27
 13 14  0  0  0  0  0  0  0  0999 V2000
  -10.8014    4.5862   -7.1982 N   0  0  0  0  0  0  0  0  0  0  0  0
  -10.9430    3.7834   -8.2944 C   0  0  0  0  0  0  0  0  0  0  0  0
   -9.8774    3.3088   -8.9141 N   0  0  0  0  0  0  0  0  0  0  0  0
   -8.6060    3.5943   -8.4976 C   0  0  0  0  0  0  0  0  0  0  0  0
   -8.4013    4.4263   -7.3702 C   0  0  0  0  0  0  0  0  0  0  0  0
   -9.5586    4.9338   -6.7063 C   0  0  0  0  0  0  0  0  0  0  0  0
   -9.4528    5.6567   -5.7310 O   0  0  0  0  0  0  0  0  0  0  0  0
   -6.9487    4.5426   -7.1959 C   0  0  0  0  0  0  0  0  0  0  0  0
   -6.2082    5.3341   -6.1505 C   0  0  0  0  0  0  0  0  0  0  0  0
   -6.9272    5.2541   -4.8721 N   0  0  0  0  0  0  0  0  0  0  0  0
   -6.3989    3.8011   -8.1655 C   0  0  0  0  0  0  0  0  0  0  0  0
   -7.3727    3.2392   -8.9474 N   0  0  0  0  0  0  0  0  0  0  0  0
  -12.1974    3.4709   -8.7514 N   0  0  0  0  0  0  0  0  0  0  0  0
  1  6  1  0  0  0  0
  2  1  1  0  0  0  0
  3  4  1  0  0  0  0
  3  2  2  0  0  0  0
  4  5  2  0  0  0  0
  5  8  1  0  0  0  0
  5  6  1  0  0  0  0
  6  7  2  0  0  0  0
  8  9  1  0  0  0  0
  9 10  1  0  0  0  0
 11  8  2  0  0  0  0
 12  4  1  0  0  0  0
 12 11  1  0  0  0  0
 13  2  1  0  0  0  0
M  END
>  <CHROM.1>
37.74452275,-62.00075394,-8.79150751,4.31705965,-7.40471162,2.63224004,0.03068208
-2.13193977

>  <Name>
lig.pdb

>  <RI>
9.06885e+06

>  <Rbt.Current_Directory>
/home/itssahil/PROJECTS/Mol_Feturizer/New_Systems/rnas/2miy

>  <Rbt.Executable>
rbdock ($Id: //depot/dev/client3/rdock/2013.1/src/exe/rbdock.cxx#4 $)

>  <Rbt.Library>
libRbt.so (2013.1, Build901 2013/11/27)

>  <Rbt.Parameter_File>
/export/apps/rDock/src/rDock_2013.1_src/data/scripts/dock_solv.prm

>  <Rbt.Receptor>
prm/pocket_docking_6.prm

>  <SCORE>
-48.865

>  <SCORE.INTER>
-48.1595

>  <SCORE.INTER.CONST>
1

>  <SCORE.INTER.POLAR>
-5.52454

>  <SCORE.INTER.ROT>
2

>  <SCORE.INTER.SOLV>
17.8809

>  <SCORE.INTER.VDW>
-24.5848

>  <SCORE.INTER.norm>
-3.70457

>  <SCORE.INTRA>
-0.70549

>  <SCORE.INTRA.DIHEDRAL>
0.351335

>  <SCORE.INTRA.DIHEDRAL.0>
1.76676

>  <SCORE.INTRA.POLAR>
-0.30936

>  <SCORE.INTRA.POLAR.0>
-0.472211

>  <SCORE.INTRA.REPUL>
0

>  <SCORE.INTRA.REPUL.0>
0

>  <SCORE.INTRA.SOLV>
0.0685868

>  <SCORE.INTRA.SOLV.lig_0>
-22.5855

>  <SCORE.INTRA.VDW>
0.136373

>  <SCORE.INTRA.VDW.0>
-0.733656

>  <SCORE.INTRA.norm>
-0.0542685

>  <SCORE.RESTR>
0

>  <SCORE.RESTR.CAVITY>
0

>  <SCORE.RESTR.norm>
0

>  <SCORE.SYSTEM>
0

>  <SCORE.SYSTEM.CONST>
0

>  <SCORE.SYSTEM.DIHEDRAL>
0

>  <SCORE.SYSTEM.SOLV>
0

>  <SCORE.SYSTEM.norm>
0

>  <SCORE.heavy>
13

>  <SCORE.norm>
-3.75884

>  <RMSD>
0.738

$$$$
lig.pdb
 OpenBabel11021811453D
libRbt.so/2013.1/901 2013/11/27
 13 14  0  0  0  0  0  0  0  0999 V2000
  -10.8014    4.5877   -7.2001 N   0  0  0  0  0  0  0  0  0  0  0  0
  -10.9426    3.7892   -8.2995 C   0  0  0  0  0  0  0  0  0  0  0  0
   -9.8767    3.3144   -8.9187 N   0  0  0  0  0  0  0  0  0  0  0  0
   -8.6055    3.5955   -8.4985 C   0  0  0  0  0  0  0  0  0  0  0  0
   -8.4013    4.4230   -7.3677 C   0  0  0  0  0  0  0  0  0  0  0  0
   -9.5588    4.9307   -6.7043 C   0  0  0  0  0  0  0  0  0  0  0  0
   -9.4534    5.6498   -5.7262 O   0  0  0  0  0  0  0  0  0  0  0  0
   -6.9488    4.5354   -7.1900 C   0  0  0  0  0  0  0  0  0  0  0  0
   -6.2087    5.3214   -6.1401 C   0  0  0  0  0  0  0  0  0  0  0  0
   -6.9253    5.2302   -4.8611 N   0  0  0  0  0  0  0  0  0  0  0  0
   -6.3987    3.7961   -8.1610 C   0  0  0  0  0  0  0  0  0  0  0  0
   -7.3721    3.2392   -8.9471 N   0  0  0  0  0  0  0  0  0  0  0  0
  -12.1967    3.4812   -8.7602 N   0  0  0  0  0  0  0  0  0  0  0  0
  1  6  1  0  0  0  0
  2  1  1  0  0  0  0
  3  4  1  0  0  0  0
  3  2  2  0  0  0  0
  4  5  2  0  0  0  0
  5  8  1  0  0  0  0
  5  6  1  0  0  0  0
  6  7  2  0  0  0  0
  8  9  1  0  0  0  0
  9 10  1  0  0  0  0
 11  8  2  0  0  0  0
 12  4  1  0  0  0  0
 12 11  1  0  0  0  0
 13  2  1  0  0  0  0
M  END
>  <CHROM.1>
38.15622925,117.21542815,-8.79126857,4.31384655,-7.40323214,2.63219528,0.03401235
-2.12755381

>  <Name>
lig.pdb

>  <RI>
2.95488e+07

>  <Rbt.Current_Directory>
/home/itssahil/PROJECTS/Mol_Feturizer/New_Systems/rnas/2miy

>  <Rbt.Executable>
rbdock ($Id: //depot/dev/client3/rdock/2013.1/src/exe/rbdock.cxx#4 $)

>  <Rbt.Library>
libRbt.so (2013.1, Build901 2013/11/27)

>  <Rbt.Parameter_File>
/export/apps/rDock/src/rDock_2013.1_src/data/scripts/dock_solv.prm

>  <Rbt.Receptor>
prm/blind_docking_20.prm

>  <SCORE>
-48.8583

>  <SCORE.INTER>
-48.1535

>  <SCORE.INTER.CONST>
1

>  <SCORE.INTER.POLAR>
-5.52997

>  <SCORE.INTER.ROT>
2

>  <SCORE.INTER.SOLV>
17.8506

>  <SCORE.INTER.VDW>
-24.5527

>  <SCORE.INTER.norm>
-3.70412

>  <SCORE.INTRA>
-0.713442

>  <SCORE.INTRA.DIHEDRAL>
0.323501

>  <SCORE.INTRA.DIHEDRAL.0>
1.76676

>  <SCORE.INTRA.POLAR>
-0.303887

>  <SCORE.INTRA.POLAR.0>
-0.472211

>  <SCORE.INTRA.REPUL>
0

>  <SCORE.INTRA.REPUL.0>
0

>  <SCORE.INTRA.SOLV>
0.0657729

>  <SCORE.INTRA.SOLV.lig_0>
-22.5855

>  <SCORE.INTRA.VDW>
0.125136

>  <SCORE.INTRA.VDW.0>
-0.733656

>  <SCORE.INTRA.norm>
-0.0548801

>  <SCORE.RESTR>
0.00867849

>  <SCORE.RESTR.CAVITY>
0.00867849

>  <SCORE.RESTR.norm>
0.000667576

>  <SCORE.SYSTEM>
0

>  <SCORE.SYSTEM.CONST>
0

>  <SCORE.SYSTEM.DIHEDRAL>
0

>  <SCORE.SYSTEM.SOLV>
0

>  <SCORE.SYSTEM.norm>
0

>  <SCORE.heavy>
13

>  <SCORE.norm>
-3.75833

>  <RMSD>
0.739

$$$$
lig.pdb
 OpenBabel11021811453D
libRbt.so/2013.1/901 2013/11/27
 13 14  0  0  0  0  0  0  0  0999 V2000
  -10.8002    4.5802   -7.2070 N   0  0  0  0  0  0  0  0  0  0  0  0
  -10.9375    3.7796   -8.3054 C   0  0  0  0  0  0  0  0  0  0  0  0
   -9.8695    3.3080   -8.9232 N   0  0  0  0  0  0  0  0  0  0  0  0
   -8.5996    3.5945   -8.5025 C   0  0  0  0  0  0  0  0  0  0  0  0
   -8.3993    4.4243   -7.3727 C   0  0  0  0  0  0  0  0  0  0  0  0
   -9.5592    4.9286   -6.7109 C   0  0  0  0  0  0  0  0  0  0  0  0
   -9.4572    5.6495   -5.7337 O   0  0  0  0  0  0  0  0  0  0  0  0
   -6.9474    4.5424   -7.1941 C   0  0  0  0  0  0  0  0  0  0  0  0
   -6.2110    5.3327   -6.1449 C   0  0  0  0  0  0  0  0  0  0  0  0
   -6.9375    5.2551   -4.8706 N   0  0  0  0  0  0  0  0  0  0  0  0
   -6.3938    3.8038   -8.1638 C   0  0  0  0  0  0  0  0  0  0  0  0
   -7.3646    3.2422   -8.9497 N   0  0  0  0  0  0  0  0  0  0  0  0
  -12.1902    3.4663   -8.7666 N   0  0  0  0  0  0  0  0  0  0  0  0
  1  6  1  0  0  0  0
  2  1  1  0  0  0  0
  3  4  1  0  0  0  0
  3  2  2  0  0  0  0
  4  5  2  0  0  0  0
  5  8  1  0  0  0  0
  5  6  1  0  0  0  0
  6  7  2  0  0  0  0
  8  9  1  0  0  0  0
  9 10  1  0  0  0  0
 11  8  2  0  0  0  0
 12  4  1  0  0  0  0
 12 11  1  0  0  0  0
 13  2  1  0  0  0  0
M  END
>  <CHROM.1>
37.42038422,117.42369307,-8.78974135,4.31499079,-7.40878436,2.62900794,0.03070170
-2.13010558

>  <Name>
lig.pdb

>  <RI>
1.82164e+07

>  <Rbt.Current_Directory>
/home/itssahil/PROJECTS/Mol_Feturizer/New_Systems/rnas/2miy

>  <Rbt.Executable>
rbdock ($Id: //depot/dev/client3/rdock/2013.1/src/exe/rbdock.cxx#4 $)

>  <Rbt.Library>
libRbt.so (2013.1, Build901 2013/11/27)

>  <Rbt.Parameter_File>
/export/apps/rDock/src/rDock_2013.1_src/data/scripts/dock_solv.prm

>  <Rbt.Receptor>
prm/blind_docking_80.prm

>  <SCORE>
-48.7743

>  <SCORE.INTER>
-48.1337

>  <SCORE.INTER.CONST>
1

>  <SCORE.INTER.POLAR>
-5.47503

>  <SCORE.INTER.ROT>
2

>  <SCORE.INTER.SOLV>
17.8725

>  <SCORE.INTER.VDW>
-24.7298

>  <SCORE.INTER.norm>
-3.70259

>  <SCORE.INTRA>
-0.709678

>  <SCORE.INTRA.DIHEDRAL>
0.36289

>  <SCORE.INTRA.DIHEDRAL.0>
1.76676

>  <SCORE.INTRA.POLAR>
-0.315438

>  <SCORE.INTRA.POLAR.0>
-0.472211

>  <SCORE.INTRA.REPUL>
0

>  <SCORE.INTRA.REPUL.0>
0

>  <SCORE.INTRA.SOLV>
0.0725812

>  <SCORE.INTRA.SOLV.lig_0>
-22.5855

>  <SCORE.INTRA.VDW>
0.145076

>  <SCORE.INTRA.VDW.0>
-0.733656

>  <SCORE.INTRA.norm>
-0.0545906

>  <SCORE.RESTR>
0.0690505

>  <SCORE.RESTR.CAVITY>
0.0690505

>  <SCORE.RESTR.norm>
0.00531158

>  <SCORE.SYSTEM>
0

>  <SCORE.SYSTEM.CONST>
0

>  <SCORE.SYSTEM.DIHEDRAL>
0

>  <SCORE.SYSTEM.SOLV>
0

>  <SCORE.SYSTEM.norm>
0

>  <SCORE.heavy>
13

>  <SCORE.norm>
-3.75187

>  <RMSD>
0.740

$$$$
lig.pdb
 OpenBabel11021811453D
libRbt.so/2013.1/901 2013/11/27
 13 14  0  0  0  0  0  0  0  0999 V2000
  -10.8022    4.5862   -7.2007 N   0  0  0  0  0  0  0  0  0  0  0  0
  -10.9439    3.7809   -8.2951 C   0  0  0  0  0  0  0  0  0  0  0  0
   -9.8783    3.3052   -8.9140 N   0  0  0  0  0  0  0  0  0  0  0  0
   -8.6068    3.5918   -8.4984 C   0  0  0  0  0  0  0  0  0  0  0  0
   -8.4021    4.4264   -7.3729 C   0  0  0  0  0  0  0  0  0  0  0  0
   -9.5593    4.9350   -6.7098 C   0  0  0  0  0  0  0  0  0  0  0  0
   -9.4534    5.6601   -5.7361 O   0  0  0  0  0  0  0  0  0  0  0  0
   -6.9494    4.5434   -7.1992 C   0  0  0  0  0  0  0  0  0  0  0  0
   -6.2089    5.3373   -6.1557 C   0  0  0  0  0  0  0  0  0  0  0  0
   -6.9211    5.2499   -4.8740 N   0  0  0  0  0  0  0  0  0  0  0  0
   -6.3997    3.7998   -8.1673 C   0  0  0  0  0  0  0  0  0  0  0  0
   -7.3736    3.2360   -8.9478 N   0  0  0  0  0  0  0  0  0  0  0  0
  -12.1983    3.4672   -8.7511 N   0  0  0  0  0  0  0  0  0  0  0  0
  1  6  1  0  0  0  0
  2  1  1  0  0  0  0
  3  4  1  0  0  0  0
  3  2  2  0  0  0  0
  4  5  2  0  0  0  0
  5  8  1  0  0  0  0
  5  6  1  0  0  0  0
  6  7  2  0  0  0  0
  8  9  1  0  0  0  0
  9 10  1  0  0  0  0
 11  8  2  0  0  0  0
 12  4  1  0  0  0  0
 12 11  1  0  0  0  0
 13  2  1  0  0  0  0
M  END
>  <CHROM.1>
38.25192094,118.24763269,-8.79171934,4.31587527,-7.40685890,2.63291842,0.03073352
-2.13320404

>  <Name>
lig.pdb

>  <RI>
0

>  <Rbt.Current_Directory>
/home/itssahil/PROJECTS/Mol_Feturizer/New_Systems/rnas/2miy

>  <Rbt.Executable>
rbdock ($Id: //depot/dev/client3/rdock/2013.1/src/exe/rbdock.cxx#4 $)

>  <Rbt.Library>
libRbt.so (2013.1, Build901 2013/11/27)

>  <Rbt.Parameter_File>
/export/apps/rDock/src/rDock_2013.1_src/data/scripts/dock_solv.prm

>  <Rbt.Receptor>
prm/pocket_docking_2.prm

>  <SCORE>
-48.8562

>  <SCORE.INTER>
-48.1479

>  <SCORE.INTER.CONST>
1

>  <SCORE.INTER.POLAR>
-5.52581

>  <SCORE.INTER.ROT>
2

>  <SCORE.INTER.SOLV>
17.8986

>  <SCORE.INTER.VDW>
-24.5788

>  <SCORE.INTER.norm>
-3.70369

>  <SCORE.INTRA>
-0.708598

>  <SCORE.INTRA.DIHEDRAL>
0.320102

>  <SCORE.INTRA.DIHEDRAL.0>
1.76676

>  <SCORE.INTRA.POLAR>
-0.302741

>  <SCORE.INTRA.POLAR.0>
-0.472211

>  <SCORE.INTRA.REPUL>
0

>  <SCORE.INTRA.REPUL.0>
0

>  <SCORE.INTRA.SOLV>
0.065166

>  <SCORE.INTRA.SOLV.lig_0>
-22.5855

>  <SCORE.INTRA.VDW>
0.128086

>  <SCORE.INTRA.VDW.0>
-0.733656

>  <SCORE.INTRA.norm>
-0.0545076

>  <SCORE.RESTR>
0.000274807

>  <SCORE.RESTR.CAVITY>
0.000274807

>  <SCORE.RESTR.norm>
2.1139e-05

>  <SCORE.SYSTEM>
0

>  <SCORE.SYSTEM.CONST>
0

>  <SCORE.SYSTEM.DIHEDRAL>
0

>  <SCORE.SYSTEM.SOLV>
0

>  <SCORE.SYSTEM.norm>
0

>  <SCORE.heavy>
13

>  <SCORE.norm>
-3.75817

>  <RMSD>
0.740

$$$$
lig.pdb
 OpenBabel11021811453D
libRbt.so/2013.1/901 2013/11/27
 13 14  0  0  0  0  0  0  0  0999 V2000
  -10.8018    4.5890   -7.2008 N   0  0  0  0  0  0  0  0  0  0  0  0
  -10.9442    3.7835   -8.2950 C   0  0  0  0  0  0  0  0  0  0  0  0
   -9.8789    3.3075   -8.9143 N   0  0  0  0  0  0  0  0  0  0  0  0
   -8.6073    3.5939   -8.4993 C   0  0  0  0  0  0  0  0  0  0  0  0
   -8.4018    4.4287   -7.3740 C   0  0  0  0  0  0  0  0  0  0  0  0
   -9.5587    4.9377   -6.7106 C   0  0  0  0  0  0  0  0  0  0  0  0
   -9.4522    5.6630   -5.7371 O   0  0  0  0  0  0  0  0  0  0  0  0
   -6.9491    4.5454   -7.2010 C   0  0  0  0  0  0  0  0  0  0  0  0
   -6.2079    5.3394   -6.1579 C   0  0  0  0  0  0  0  0  0  0  0  0
   -6.9246    5.2601   -4.8782 N   0  0  0  0  0  0  0  0  0  0  0  0
   -6.4000    3.8015   -8.1691 C   0  0  0  0  0  0  0  0  0  0  0  0
   -7.3742    3.2378   -8.9491 N   0  0  0  0  0  0  0  0  0  0  0  0
  -12.1989    3.4700   -8.7504 N   0  0  0  0  0  0  0  0  0  0  0  0
  1  6  1  0  0  0  0
  2  1  1  0  0  0  0
  3  4  1  0  0  0  0
  3  2  2  0  0  0  0
  4  5  2  0  0  0  0
  5  8  1  0  0  0  0
  5  6  1  0  0  0  0
  6  7  2  0  0  0  0
  8  9  1  0  0  0  0
  9 10  1  0  0  0  0
 11  8  2  0  0  0  0
 12  4  1  0  0  0  0
 12 11  1  0  0  0  0
 13  2  1  0  0  0  0
M  END
>  <CHROM.1>
37.86285023,118.21030925,-8.79198194,4.31897121,-7.40800607,2.63306929,0.03042321
-2.13406460

>  <Name>
lig.pdb

>  <RI>
9.06885e+06

>  <Rbt.Current_Directory>
/home/itssahil/PROJECTS/Mol_Feturizer/New_Systems/rnas/2miy

>  <Rbt.Executable>
rbdock ($Id: //depot/dev/client3/rdock/2013.1/src/exe/rbdock.cxx#4 $)

>  <Rbt.Library>
libRbt.so (2013.1, Build901 2013/11/27)

>  <Rbt.Parameter_File>
/export/apps/rDock/src/rDock_2013.1_src/data/scripts/dock_solv.prm

>  <Rbt.Receptor>
prm/pocket_docking_6.prm

>  <SCORE>
-48.8626

>  <SCORE.INTER>
-48.1531

>  <SCORE.INTER.CONST>
1

>  <SCORE.INTER.POLAR>
-5.53203

>  <SCORE.INTER.ROT>
2

>  <SCORE.INTER.SOLV>
17.9073

>  <SCORE.INTER.VDW>
-24.5644

>  <SCORE.INTER.norm>
-3.70408

>  <SCORE.INTRA>
-0.709464

>  <SCORE.INTRA.DIHEDRAL>
0.340572

>  <SCORE.INTRA.DIHEDRAL.0>
1.76676

>  <SCORE.INTRA.POLAR>
-0.309385

>  <SCORE.INTRA.POLAR.0>
-0.472211

>  <SCORE.INTRA.REPUL>
0

>  <SCORE.INTRA.REPUL.0>
0

>  <SCORE.INTRA.SOLV>
0.0687452

>  <SCORE.INTRA.SOLV.lig_0>
-22.5855

>  <SCORE.INTRA.VDW>
0.137787

>  <SCORE.INTRA.VDW.0>
-0.733656

>  <SCORE.INTRA.norm>
-0.0545742

>  <SCORE.RESTR>
0

>  <SCORE.RESTR.CAVITY>
0

>  <SCORE.RESTR.norm>
0

>  <SCORE.SYSTEM>
0

>  <SCORE.SYSTEM.CONST>
0

>  <SCORE.SYSTEM.DIHEDRAL>
0

>  <SCORE.SYSTEM.SOLV>
0

>  <SCORE.SYSTEM.norm>
0

>  <SCORE.heavy>
13

>  <SCORE.norm>
-3.75866

>  <RMSD>
0.740

$$$$
lig.pdb
 OpenBabel11021811453D
libRbt.so/2013.1/901 2013/11/27
 13 14  0  0  0  0  0  0  0  0999 V2000
  -10.8011    4.5862   -7.1997 N   0  0  0  0  0  0  0  0  0  0  0  0
  -10.9424    3.7832   -8.2958 C   0  0  0  0  0  0  0  0  0  0  0  0
   -9.8765    3.3089   -8.9154 N   0  0  0  0  0  0  0  0  0  0  0  0
   -8.6052    3.5948   -8.4989 C   0  0  0  0  0  0  0  0  0  0  0  0
   -8.4009    4.4271   -7.3716 C   0  0  0  0  0  0  0  0  0  0  0  0
   -9.5584    4.9342   -6.7078 C   0  0  0  0  0  0  0  0  0  0  0  0
   -9.4529    5.6573   -5.7326 O   0  0  0  0  0  0  0  0  0  0  0  0
   -6.9483    4.5439   -7.1972 C   0  0  0  0  0  0  0  0  0  0  0  0
   -6.2082    5.3358   -6.1518 C   0  0  0  0  0  0  0  0  0  0  0  0
   -6.9216    5.2471   -4.8709 N   0  0  0  0  0  0  0  0  0  0  0  0
   -6.3983    3.8025   -8.1666 C   0  0  0  0  0  0  0  0  0  0  0  0
   -7.3718    3.2401   -8.9486 N   0  0  0  0  0  0  0  0  0  0  0  0
  -12.1966    3.4702   -8.7528 N   0  0  0  0  0  0  0  0  0  0  0  0
  1  6  1  0  0  0  0
  2  1  1  0  0  0  0
  3  4  1  0  0  0  0
  3  2  2  0  0  0  0
  4  5  2  0  0  0  0
  5  8  1  0  0  0  0
  5  6  1  0  0  0  0
  6  7  2  0  0  0  0
  8  9  1  0  0  0  0
  9 10  1  0  0  0  0
 11  8  2  0  0  0  0
 12  4  1  0  0  0  0
 12 11  1  0  0  0  0
 13  2  1  0  0  0  0
M  END
>  <CHROM.1>
38.18341783,116.63363718,-8.79062994,4.31674497,-7.40588934,2.63255275,0.03075354
-2.13128855

>  <Name>
lig.pdb

>  <RI>
9.06885e+06

>  <Rbt.Current_Directory>
/home/itssahil/PROJECTS/Mol_Feturizer/New_Systems/rnas/2miy

>  <Rbt.Executable>
rbdock ($Id: //depot/dev/client3/rdock/2013.1/src/exe/rbdock.cxx#4 $)

>  <Rbt.Library>
libRbt.so (2013.1, Build901 2013/11/27)

>  <Rbt.Parameter_File>
/export/apps/rDock/src/rDock_2013.1_src/data/scripts/dock_solv.prm

>  <Rbt.Receptor>
prm/pocket_docking_6.prm

>  <SCORE>
-48.8668

>  <SCORE.INTER>
-48.1531

>  <SCORE.INTER.CONST>
1

>  <SCORE.INTER.POLAR>
-5.5195

>  <SCORE.INTER.ROT>
2

>  <SCORE.INTER.SOLV>
17.8896

>  <SCORE.INTER.VDW>
-24.6002

>  <SCORE.INTER.norm>
-3.70408

>  <SCORE.INTRA>
-0.713759

>  <SCORE.INTRA.DIHEDRAL>
0.321154

>  <SCORE.INTRA.DIHEDRAL.0>
1.76676

>  <SCORE.INTRA.POLAR>
-0.302539

>  <SCORE.INTRA.POLAR.0>
-0.472211

>  <SCORE.INTRA.REPUL>
0

>  <SCORE.INTRA.REPUL.0>
0

>  <SCORE.INTRA.SOLV>
0.0653948

>  <SCORE.INTRA.SOLV.lig_0>
-22.5855

>  <SCORE.INTRA.VDW>
0.121598

>  <SCORE.INTRA.VDW.0>
-0.733656

>  <SCORE.INTRA.norm>
-0.0549046

>  <SCORE.RESTR>
0

>  <SCORE.RESTR.CAVITY>
0

>  <SCORE.RESTR.norm>
0

>  <SCORE.SYSTEM>
0

>  <SCORE.SYSTEM.CONST>
0

>  <SCORE.SYSTEM.DIHEDRAL>
0

>  <SCORE.SYSTEM.SOLV>
0

>  <SCORE.SYSTEM.norm>
0

>  <SCORE.heavy>
13

>  <SCORE.norm>
-3.75899

>  <RMSD>
0.740

$$$$
lig.pdb
 OpenBabel11021811453D
libRbt.so/2013.1/901 2013/11/27
 13 14  0  0  0  0  0  0  0  0999 V2000
  -10.8016    4.5879   -7.2006 N   0  0  0  0  0  0  0  0  0  0  0  0
  -10.9433    3.7843   -8.2963 C   0  0  0  0  0  0  0  0  0  0  0  0
   -9.8777    3.3092   -8.9157 N   0  0  0  0  0  0  0  0  0  0  0  0
   -8.6062    3.5950   -8.4994 C   0  0  0  0  0  0  0  0  0  0  0  0
   -8.4015    4.4280   -7.3727 C   0  0  0  0  0  0  0  0  0  0  0  0
   -9.5588    4.9359   -6.7091 C   0  0  0  0  0  0  0  0  0  0  0  0
   -9.4529    5.6596   -5.7343 O   0  0  0  0  0  0  0  0  0  0  0  0
   -6.9489    4.5444   -7.1986 C   0  0  0  0  0  0  0  0  0  0  0  0
   -6.2083    5.3367   -6.1538 C   0  0  0  0  0  0  0  0  0  0  0  0
   -6.9221    5.2496   -4.8729 N   0  0  0  0  0  0  0  0  0  0  0  0
   -6.3991    3.8021   -8.1676 C   0  0  0  0  0  0  0  0  0  0  0  0
   -7.3730    3.2396   -8.9491 N   0  0  0  0  0  0  0  0  0  0  0  0
  -12.1977    3.4714   -8.7529 N   0  0  0  0  0  0  0  0  0  0  0  0
  1  6  1  0  0  0  0
  2  1  1  0  0  0  0
  3  4  1  0  0  0  0
  3  2  2  0  0  0  0
  4  5  2  0  0  0  0
  5  8  1  0  0  0  0
  5  6  1  0  0  0  0
  6  7  2  0  0  0  0
  8  9  1  0  0  0  0
  9 10  1  0  0  0  0
 11  8  2  0  0  0  0
 12  4  1  0  0  0  0
 12 11  1  0  0  0  0
 13  2  1  0  0  0  0
M  END
>  <CHROM.1>
38.15478665,116.24363113,-8.79130043,4.31775103,-7.40690877,2.63280641,0.03096625
-2.13199449

>  <Name>
lig.pdb

>  <RI>
3.47783e+07

>  <Rbt.Current_Directory>
/home/itssahil/PROJECTS/Mol_Feturizer/New_Systems/rnas/2miy

>  <Rbt.Executable>
rbdock ($Id: //depot/dev/client3/rdock/2013.1/src/exe/rbdock.cxx#4 $)

>  <Rbt.Library>
libRbt.so (2013.1, Build901 2013/11/27)

>  <Rbt.Parameter_File>
/export/apps/rDock/src/rDock_2013.1_src/data/scripts/dock_solv.prm

>  <Rbt.Receptor>
prm/pocket_docking_8.prm

>  <SCORE>
-48.8682

>  <SCORE.INTER>
-48.1553

>  <SCORE.INTER.CONST>
1

>  <SCORE.INTER.POLAR>
-5.52627

>  <SCORE.INTER.ROT>
2

>  <SCORE.INTER.SOLV>
17.8968

>  <SCORE.INTER.VDW>
-24.5816

>  <SCORE.INTER.norm>
-3.70426

>  <SCORE.INTRA>
-0.712838

>  <SCORE.INTRA.DIHEDRAL>
0.322049

>  <SCORE.INTRA.DIHEDRAL.0>
1.76676

>  <SCORE.INTRA.POLAR>
-0.302091

>  <SCORE.INTRA.POLAR.0>
-0.472211

>  <SCORE.INTRA.REPUL>
0

>  <SCORE.INTRA.REPUL.0>
0

>  <SCORE.INTRA.SOLV>
0.0656265

>  <SCORE.INTRA.SOLV.lig_0>
-22.5855

>  <SCORE.INTRA.VDW>
0.120434

>  <SCORE.INTRA.VDW.0>
-0.733656

>  <SCORE.INTRA.norm>
-0.0548337

>  <SCORE.RESTR>
0

>  <SCORE.RESTR.CAVITY>
0

>  <SCORE.RESTR.norm>
0

>  <SCORE.SYSTEM>
0

>  <SCORE.SYSTEM.CONST>
0

>  <SCORE.SYSTEM.DIHEDRAL>
0

>  <SCORE.SYSTEM.SOLV>
0

>  <SCORE.SYSTEM.norm>
0

>  <SCORE.heavy>
13

>  <SCORE.norm>
-3.75909

>  <RMSD>
0.740

$$$$
lig.pdb
 OpenBabel11021811453D
libRbt.so/2013.1/901 2013/11/27
 13 14  0  0  0  0  0  0  0  0999 V2000
  -10.7994    4.5890   -7.2024 N   0  0  0  0  0  0  0  0  0  0  0  0
  -10.9394    3.7898   -8.3016 C   0  0  0  0  0  0  0  0  0  0  0  0
   -9.8728    3.3173   -8.9213 N   0  0  0  0  0  0  0  0  0  0  0  0
   -8.6020    3.6014   -8.5019 C   0  0  0  0  0  0  0  0  0  0  0  0
   -8.3990    4.4297   -7.3715 C   0  0  0  0  0  0  0  0  0  0  0  0
   -9.5573    4.9349   -6.7076 C   0  0  0  0  0  0  0  0  0  0  0  0
   -9.4529    5.6546   -5.7297 O   0  0  0  0  0  0  0  0  0  0  0  0
   -6.9466    4.5455   -7.1947 C   0  0  0  0  0  0  0  0  0  0  0  0
   -6.2077    5.3335   -6.1455 C   0  0  0  0  0  0  0  0  0  0  0  0
   -6.9299    5.2512   -4.8691 N   0  0  0  0  0  0  0  0  0  0  0  0
   -6.3954    3.8071   -8.1659 C   0  0  0  0  0  0  0  0  0  0  0  0
   -7.3680    3.2478   -8.9511 N   0  0  0  0  0  0  0  0  0  0  0  0
  -12.1931    3.4788   -8.7614 N   0  0  0  0  0  0  0  0  0  0  0  0
  1  6  1  0  0  0  0
  2  1  1  0  0  0  0
  3  4  1  0  0  0  0
  3  2  2  0  0  0  0
  4  5  2  0  0  0  0
  5  8  1  0  0  0  0
  5  6  1  0  0  0  0
  6  7  2  0  0  0  0
  8  9  1  0  0  0  0
  9 10  1  0  0  0  0
 11  8  2  0  0  0  0
 12  4  1  0  0  0  0
 12 11  1  0  0  0  0
 13  2  1  0  0  0  0
M  END
>  <CHROM.1>
37.64178623,118.67657803,-8.78933968,4.32060130,-7.40704012,2.63107589,0.03137284
-2.12865147

>  <Name>
lig.pdb

>  <RI>
4.2128e+07

>  <Rbt.Current_Directory>
/home/itssahil/PROJECTS/Mol_Feturizer/New_Systems/rnas/2miy

>  <Rbt.Executable>
rbdock ($Id: //depot/dev/client3/rdock/2013.1/src/exe/rbdock.cxx#4 $)

>  <Rbt.Library>
libRbt.so (2013.1, Build901 2013/11/27)

>  <Rbt.Parameter_File>
/export/apps/rDock/src/rDock_2013.1_src/data/scripts/dock_solv.prm

>  <Rbt.Receptor>
prm/pocket_docking_5.prm

>  <SCORE>
-48.7532

>  <SCORE.INTER>
-48.1143

>  <SCORE.INTER.CONST>
1

>  <SCORE.INTER.POLAR>
-5.50763

>  <SCORE.INTER.ROT>
2

>  <SCORE.INTER.SOLV>
17.8798

>  <SCORE.INTER.VDW>
-24.6107

>  <SCORE.INTER.norm>
-3.7011

>  <SCORE.INTRA>
-0.706389

>  <SCORE.INTRA.DIHEDRAL>
0.353056

>  <SCORE.INTRA.DIHEDRAL.0>
1.76676

>  <SCORE.INTRA.POLAR>
-0.313105

>  <SCORE.INTRA.POLAR.0>
-0.472211

>  <SCORE.INTRA.REPUL>
0

>  <SCORE.INTRA.REPUL.0>
0

>  <SCORE.INTRA.SOLV>
0.0708965

>  <SCORE.INTRA.SOLV.lig_0>
-22.5855

>  <SCORE.INTRA.VDW>
0.146193

>  <SCORE.INTRA.VDW.0>
-0.733656

>  <SCORE.INTRA.norm>
-0.0543376

>  <SCORE.RESTR>
0.0674825

>  <SCORE.RESTR.CAVITY>
0.0674825

>  <SCORE.RESTR.norm>
0.00519096

>  <SCORE.SYSTEM>
0

>  <SCORE.SYSTEM.CONST>
0

>  <SCORE.SYSTEM.DIHEDRAL>
0

>  <SCORE.SYSTEM.SOLV>
0

>  <SCORE.SYSTEM.norm>
0

>  <SCORE.heavy>
13

>  <SCORE.norm>
-3.75024

>  <RMSD>
0.741

$$$$
lig.pdb
 OpenBabel11021811453D
libRbt.so/2013.1/901 2013/11/27
 13 14  0  0  0  0  0  0  0  0999 V2000
  -10.8013    4.5781   -7.2068 N   0  0  0  0  0  0  0  0  0  0  0  0
  -10.9391    3.7750   -8.3033 C   0  0  0  0  0  0  0  0  0  0  0  0
   -9.8713    3.3038   -8.9218 N   0  0  0  0  0  0  0  0  0  0  0  0
   -8.6012    3.5931   -8.5037 C   0  0  0  0  0  0  0  0  0  0  0  0
   -8.4005    4.4256   -7.3759 C   0  0  0  0  0  0  0  0  0  0  0  0
   -9.5601    4.9294   -6.7133 C   0  0  0  0  0  0  0  0  0  0  0  0
   -9.4577    5.6525   -5.7378 O   0  0  0  0  0  0  0  0  0  0  0  0
   -6.9484    4.5463   -7.1998 C   0  0  0  0  0  0  0  0  0  0  0  0
   -6.2116    5.3399   -6.1533 C   0  0  0  0  0  0  0  0  0  0  0  0
   -6.9252    5.2470   -4.8727 N   0  0  0  0  0  0  0  0  0  0  0  0
   -6.3952    3.8066   -8.1688 C   0  0  0  0  0  0  0  0  0  0  0  0
   -7.3663    3.2418   -8.9520 N   0  0  0  0  0  0  0  0  0  0  0  0
  -12.1920    3.4588   -8.7619 N   0  0  0  0  0  0  0  0  0  0  0  0
  1  6  1  0  0  0  0
  2  1  1  0  0  0  0
  3  4  1  0  0  0  0
  3  2  2  0  0  0  0
  4  5  2  0  0  0  0
  5  8  1  0  0  0  0
  5  6  1  0  0  0  0
  6  7  2  0  0  0  0
  8  9  1  0  0  0  0
  9 10  1  0  0  0  0
 11  8  2  0  0  0  0
 12  4  1  0  0  0  0
 12 11  1  0  0  0  0
 13  2  1  0  0  0  0
M  END
>  <CHROM.1>
38.27536002,-61.65395025,-8.78967361,4.31413255,-7.41061047,2.63000354,0.02909454
-2.13081273

>  <Name>
lig.pdb

>  <RI>
3.47783e+07

>  <Rbt.Current_Directory>
/home/itssahil/PROJECTS/Mol_Feturizer/New_Systems/rnas/2miy

>  <Rbt.Executable>
rbdock ($Id: //depot/dev/client3/rdock/2013.1/src/exe/rbdock.cxx#4 $)

>  <Rbt.Library>
libRbt.so (2013.1, Build901 2013/11/27)

>  <Rbt.Parameter_File>
/export/apps/rDock/src/rDock_2013.1_src/data/scripts/dock_solv.prm

>  <Rbt.Receptor>
prm/pocket_docking_8.prm

>  <SCORE>
-48.8397

>  <SCORE.INTER>
-48.1325

>  <SCORE.INTER.CONST>
1

>  <SCORE.INTER.POLAR>
-5.47287

>  <SCORE.INTER.ROT>
2

>  <SCORE.INTER.SOLV>
17.8985

>  <SCORE.INTER.VDW>
-24.7449

>  <SCORE.INTER.norm>
-3.7025

>  <SCORE.INTRA>
-0.70725

>  <SCORE.INTRA.DIHEDRAL>
0.322746

>  <SCORE.INTRA.DIHEDRAL.0>
1.76676

>  <SCORE.INTRA.POLAR>
-0.301567

>  <SCORE.INTRA.POLAR.0>
-0.472211

>  <SCORE.INTRA.REPUL>
0

>  <SCORE.INTRA.REPUL.0>
0

>  <SCORE.INTRA.SOLV>
0.0638144

>  <SCORE.INTRA.SOLV.lig_0>
-22.5855

>  <SCORE.INTRA.VDW>
0.124797

>  <SCORE.INTRA.VDW.0>
-0.733656

>  <SCORE.INTRA.norm>
-0.0544038

>  <SCORE.RESTR>
0

>  <SCORE.RESTR.CAVITY>
0

>  <SCORE.RESTR.norm>
0

>  <SCORE.SYSTEM>
0

>  <SCORE.SYSTEM.CONST>
0

>  <SCORE.SYSTEM.DIHEDRAL>
0

>  <SCORE.SYSTEM.SOLV>
0

>  <SCORE.SYSTEM.norm>
0

>  <SCORE.heavy>
13

>  <SCORE.norm>
-3.7569

>  <RMSD>
0.741

$$$$
lig.pdb
 OpenBabel11021811453D
libRbt.so/2013.1/901 2013/11/27
 13 14  0  0  0  0  0  0  0  0999 V2000
  -10.8005    4.5917   -7.2037 N   0  0  0  0  0  0  0  0  0  0  0  0
  -10.9418    3.7882   -8.2996 C   0  0  0  0  0  0  0  0  0  0  0  0
   -9.8760    3.3122   -8.9179 N   0  0  0  0  0  0  0  0  0  0  0  0
   -8.6047    3.5968   -8.5004 C   0  0  0  0  0  0  0  0  0  0  0  0
   -8.4004    4.4295   -7.3734 C   0  0  0  0  0  0  0  0  0  0  0  0
   -9.5578    4.9384   -6.7109 C   0  0  0  0  0  0  0  0  0  0  0  0
   -9.4523    5.6620   -5.7360 O   0  0  0  0  0  0  0  0  0  0  0  0
   -6.9478    4.5446   -7.1978 C   0  0  0  0  0  0  0  0  0  0  0  0
   -6.2076    5.3362   -6.1522 C   0  0  0  0  0  0  0  0  0  0  0  0
   -6.9252    5.2535   -4.8732 N   0  0  0  0  0  0  0  0  0  0  0  0
   -6.3978    3.8019   -8.1663 C   0  0  0  0  0  0  0  0  0  0  0  0
   -7.3713    3.2403   -8.9488 N   0  0  0  0  0  0  0  0  0  0  0  0
  -12.1960    3.4765   -8.7575 N   0  0  0  0  0  0  0  0  0  0  0  0
  1  6  1  0  0  0  0
  2  1  1  0  0  0  0
  3  4  1  0  0  0  0
  3  2  2  0  0  0  0
  4  5  2  0  0  0  0
  5  8  1  0  0  0  0
  5  6  1  0  0  0  0
  6  7  2  0  0  0  0
  8  9  1  0  0  0  0
  9 10  1  0  0  0  0
 11  8  2  0  0  0  0
 12  4  1  0  0  0  0
 12 11  1  0  0  0  0
 13  2  1  0  0  0  0
M  END
>  <CHROM.1>
37.95701903,117.13057181,-8.79045235,4.32001092,-7.40813143,2.63228110,0.03211821
-2.13221986

>  <Name>
lig.pdb

>  <RI>
2.68696e+07

>  <Rbt.Current_Directory>
/home/itssahil/PROJECTS/Mol_Feturizer/New_Systems/rnas/2miy

>  <Rbt.Executable>
rbdock ($Id: //depot/dev/client3/rdock/2013.1/src/exe/rbdock.cxx#4 $)

>  <Rbt.Library>
libRbt.so (2013.1, Build901 2013/11/27)

>  <Rbt.Parameter_File>
/export/apps/rDock/src/rDock_2013.1_src/data/scripts/dock_solv.prm

>  <Rbt.Receptor>
prm/pocket_docking_4.prm

>  <SCORE>
-48.8718

>  <SCORE.INTER>
-48.1588

>  <SCORE.INTER.CONST>
1

>  <SCORE.INTER.POLAR>
-5.52854

>  <SCORE.INTER.ROT>
2

>  <SCORE.INTER.SOLV>
17.9004

>  <SCORE.INTER.VDW>
-24.5775

>  <SCORE.INTER.norm>
-3.70452

>  <SCORE.INTRA>
-0.713

>  <SCORE.INTRA.DIHEDRAL>
0.333879

>  <SCORE.INTRA.DIHEDRAL.0>
1.76676

>  <SCORE.INTRA.POLAR>
-0.306887

>  <SCORE.INTRA.POLAR.0>
-0.472211

>  <SCORE.INTRA.REPUL>
0

>  <SCORE.INTRA.REPUL.0>
0

>  <SCORE.INTRA.SOLV>
0.0675872

>  <SCORE.INTRA.SOLV.lig_0>
-22.5855

>  <SCORE.INTRA.VDW>
0.129683

>  <SCORE.INTRA.VDW.0>
-0.733656

>  <SCORE.INTRA.norm>
-0.0548461

>  <SCORE.RESTR>
0

>  <SCORE.RESTR.CAVITY>
0

>  <SCORE.RESTR.norm>
0

>  <SCORE.SYSTEM>
0

>  <SCORE.SYSTEM.CONST>
0

>  <SCORE.SYSTEM.DIHEDRAL>
0

>  <SCORE.SYSTEM.SOLV>
0

>  <SCORE.SYSTEM.norm>
0

>  <SCORE.heavy>
13

>  <SCORE.norm>
-3.75937

>  <RMSD>
0.742

$$$$
lig.pdb
 OpenBabel11021811453D
libRbt.so/2013.1/901 2013/11/27
 13 14  0  0  0  0  0  0  0  0999 V2000
  -10.7982    4.5939   -7.2146 N   0  0  0  0  0  0  0  0  0  0  0  0
  -10.9365    3.7930   -8.3127 C   0  0  0  0  0  0  0  0  0  0  0  0
   -9.8690    3.3174   -8.9285 N   0  0  0  0  0  0  0  0  0  0  0  0
   -8.5989    3.5999   -8.5058 C   0  0  0  0  0  0  0  0  0  0  0  0
   -8.3977    4.4298   -7.3762 C   0  0  0  0  0  0  0  0  0  0  0  0
   -9.5570    4.9383   -6.7166 C   0  0  0  0  0  0  0  0  0  0  0  0
   -9.4541    5.6595   -5.7397 O   0  0  0  0  0  0  0  0  0  0  0  0
   -6.9456    4.5431   -7.1953 C   0  0  0  0  0  0  0  0  0  0  0  0
   -6.2083    5.3315   -6.1454 C   0  0  0  0  0  0  0  0  0  0  0  0
   -6.9527    5.2820   -4.8800 N   0  0  0  0  0  0  0  0  0  0  0  0
   -6.3930    3.8020   -8.1636 C   0  0  0  0  0  0  0  0  0  0  0  0
   -7.3643    3.2432   -8.9508 N   0  0  0  0  0  0  0  0  0  0  0  0
  -12.1894    3.4836   -8.7757 N   0  0  0  0  0  0  0  0  0  0  0  0
  1  6  1  0  0  0  0
  2  1  1  0  0  0  0
  3  4  1  0  0  0  0
  3  2  2  0  0  0  0
  4  5  2  0  0  0  0
  5  8  1  0  0  0  0
  5  6  1  0  0  0  0
  6  7  2  0  0  0  0
  8  9  1  0  0  0  0
  9 10  1  0  0  0  0
 11  8  2  0  0  0  0
 12  4  1  0  0  0  0
 12 11  1  0  0  0  0
 13  2  1  0  0  0  0
M  END
>  <CHROM.1>
36.16588965,118.31742887,-8.78984000,4.32403284,-7.41359791,2.62842028,0.03358440
-2.13285980

>  <Name>
lig.pdb

>  <RI>
2.68696e+07

>  <Rbt.Current_Directory>
/home/itssahil/PROJECTS/Mol_Feturizer/New_Systems/rnas/2miy

>  <Rbt.Executable>
rbdock ($Id: //depot/dev/client3/rdock/2013.1/src/exe/rbdock.cxx#4 $)

>  <Rbt.Library>
libRbt.so (2013.1, Build901 2013/11/27)

>  <Rbt.Parameter_File>
/export/apps/rDock/src/rDock_2013.1_src/data/scripts/dock_solv.prm

>  <Rbt.Receptor>
prm/pocket_docking_4.prm

>  <SCORE>
-48.821

>  <SCORE.INTER>
-48.1272

>  <SCORE.INTER.CONST>
1

>  <SCORE.INTER.POLAR>
-5.50215

>  <SCORE.INTER.ROT>
2

>  <SCORE.INTER.SOLV>
17.8924

>  <SCORE.INTER.VDW>
-24.6417

>  <SCORE.INTER.norm>
-3.70209

>  <SCORE.INTRA>
-0.693788

>  <SCORE.INTRA.DIHEDRAL>
0.432258

>  <SCORE.INTRA.DIHEDRAL.0>
1.76676

>  <SCORE.INTRA.POLAR>
-0.33455

>  <SCORE.INTRA.POLAR.0>
-0.472211

>  <SCORE.INTRA.REPUL>
0

>  <SCORE.INTRA.REPUL.0>
0

>  <SCORE.INTRA.SOLV>
0.084105

>  <SCORE.INTRA.SOLV.lig_0>
-22.5855

>  <SCORE.INTRA.VDW>
0.185501

>  <SCORE.INTRA.VDW.0>
-0.733656

>  <SCORE.INTRA.norm>
-0.0533683

>  <SCORE.RESTR>
0

>  <SCORE.RESTR.CAVITY>
0

>  <SCORE.RESTR.norm>
0

>  <SCORE.SYSTEM>
0

>  <SCORE.SYSTEM.CONST>
0

>  <SCORE.SYSTEM.DIHEDRAL>
0

>  <SCORE.SYSTEM.SOLV>
0

>  <SCORE.SYSTEM.norm>
0

>  <SCORE.heavy>
13

>  <SCORE.norm>
-3.75546

>  <RMSD>
0.743

$$$$
lig.pdb
 OpenBabel11021811453D
libRbt.so/2013.1/901 2013/11/27
 13 14  0  0  0  0  0  0  0  0999 V2000
  -10.8009    4.5870   -7.2040 N   0  0  0  0  0  0  0  0  0  0  0  0
  -10.9412    3.7830   -8.2996 C   0  0  0  0  0  0  0  0  0  0  0  0
   -9.8748    3.3089   -8.9183 N   0  0  0  0  0  0  0  0  0  0  0  0
   -8.6038    3.5959   -8.5014 C   0  0  0  0  0  0  0  0  0  0  0  0
   -8.4005    4.4292   -7.3747 C   0  0  0  0  0  0  0  0  0  0  0  0
   -9.5586    4.9362   -6.7118 C   0  0  0  0  0  0  0  0  0  0  0  0
   -9.4540    5.6601   -5.7371 O   0  0  0  0  0  0  0  0  0  0  0  0
   -6.9481    4.5470   -7.1998 C   0  0  0  0  0  0  0  0  0  0  0  0
   -6.2089    5.3402   -6.1546 C   0  0  0  0  0  0  0  0  0  0  0  0
   -6.9177    5.2442   -4.8717 N   0  0  0  0  0  0  0  0  0  0  0  0
   -6.3971    3.8051   -8.1683 C   0  0  0  0  0  0  0  0  0  0  0  0
   -7.3700    3.2416   -8.9503 N   0  0  0  0  0  0  0  0  0  0  0  0
  -12.1950    3.4689   -8.7569 N   0  0  0  0  0  0  0  0  0  0  0  0
  1  6  1  0  0  0  0
  2  1  1  0  0  0  0
  3  4  1  0  0  0  0
  3  2  2  0  0  0  0
  4  5  2  0  0  0  0
  5  8  1  0  0  0  0
  5  6  1  0  0  0  0
  6  7  2  0  0  0  0
  8  9  1  0  0  0  0
  9 10  1  0  0  0  0
 11  8  2  0  0  0  0
 12  4  1  0  0  0  0
 12 11  1  0  0  0  0
 13  2  1  0  0  0  0
M  END
>  <CHROM.1>
38.58414024,117.22473651,-8.78967413,4.31784947,-7.40887484,2.63217350,0.03074386
-2.13137742

>  <Name>
lig.pdb

>  <RI>
9.06885e+06

>  <Rbt.Current_Directory>
/home/itssahil/PROJECTS/Mol_Feturizer/New_Systems/rnas/2miy

>  <Rbt.Executable>
rbdock ($Id: //depot/dev/client3/rdock/2013.1/src/exe/rbdock.cxx#4 $)

>  <Rbt.Library>
libRbt.so (2013.1, Build901 2013/11/27)

>  <Rbt.Parameter_File>
/export/apps/rDock/src/rDock_2013.1_src/data/scripts/dock_solv.prm

>  <Rbt.Receptor>
prm/pocket_docking_6.prm

>  <SCORE>
-48.8542

>  <SCORE.INTER>
-48.141

>  <SCORE.INTER.CONST>
1

>  <SCORE.INTER.POLAR>
-5.50956

>  <SCORE.INTER.ROT>
2

>  <SCORE.INTER.SOLV>
17.9086

>  <SCORE.INTER.VDW>
-24.6317

>  <SCORE.INTER.norm>
-3.70316

>  <SCORE.INTRA>
-0.713161

>  <SCORE.INTRA.DIHEDRAL>
0.301102

>  <SCORE.INTRA.DIHEDRAL.0>
1.76676

>  <SCORE.INTRA.POLAR>
-0.296878

>  <SCORE.INTRA.POLAR.0>
-0.472211

>  <SCORE.INTRA.REPUL>
0

>  <SCORE.INTRA.REPUL.0>
0

>  <SCORE.INTRA.SOLV>
0.0618046

>  <SCORE.INTRA.SOLV.lig_0>
-22.5855

>  <SCORE.INTRA.VDW>
0.11477

>  <SCORE.INTRA.VDW.0>
-0.733656

>  <SCORE.INTRA.norm>
-0.0548585

>  <SCORE.RESTR>
0

>  <SCORE.RESTR.CAVITY>
0

>  <SCORE.RESTR.norm>
0

>  <SCORE.SYSTEM>
0

>  <SCORE.SYSTEM.CONST>
0

>  <SCORE.SYSTEM.DIHEDRAL>
0

>  <SCORE.SYSTEM.SOLV>
0

>  <SCORE.SYSTEM.norm>
0

>  <SCORE.heavy>
13

>  <SCORE.norm>
-3.75801

>  <RMSD>
0.743

$$$$
lig.pdb
 OpenBabel11021811453D
libRbt.so/2013.1/901 2013/11/27
 13 14  0  0  0  0  0  0  0  0999 V2000
  -10.7938    4.6190   -7.2098 N   0  0  0  0  0  0  0  0  0  0  0  0
  -10.9125    3.9188   -8.3768 C   0  0  0  0  0  0  0  0  0  0  0  0
   -9.8351    3.4797   -9.0023 N   0  0  0  0  0  0  0  0  0  0  0  0
   -8.5736    3.7022   -8.5222 C   0  0  0  0  0  0  0  0  0  0  0  0
   -8.3923    4.4275   -7.3196 C   0  0  0  0  0  0  0  0  0  0  0  0
   -9.5623    4.8973   -6.6501 C   0  0  0  0  0  0  0  0  0  0  0  0
   -9.4766    5.5292   -5.6117 O   0  0  0  0  0  0  0  0  0  0  0  0
   -6.9445    4.4993   -7.0900 C   0  0  0  0  0  0  0  0  0  0  0  0
   -6.2258    5.1808   -5.9556 C   0  0  0  0  0  0  0  0  0  0  0  0
   -6.6918    6.5691   -5.8415 N   0  0  0  0  0  0  0  0  0  0  0  0
   -6.3755    3.8353   -8.1036 C   0  0  0  0  0  0  0  0  0  0  0  0
   -7.3322    3.3638   -8.9627 N   0  0  0  0  0  0  0  0  0  0  0  0
  -12.1562    3.6727   -8.8990 N   0  0  0  0  0  0  0  0  0  0  0  0
  1  6  1  0  0  0  0
  2  1  1  0  0  0  0
  3  4  1  0  0  0  0
  3  2  2  0  0  0  0
  4  5  2  0  0  0  0
  5  8  1  0  0  0  0
  5  6  1  0  0  0  0
  6  7  2  0  0  0  0
  8  9  1  0  0  0  0
  9 10  1  0  0  0  0
 11  8  2  0  0  0  0
 12  4  1  0  0  0  0
 12 11  1  0  0  0  0
 13  2  1  0  0  0  0
M  END
>  <CHROM.1>
-52.02323948,-178.65618236,-8.75543192,4.47547357,-7.48122447,2.63641576
0.01522486,-2.22439190

>  <Name>
lig.pdb

>  <RI>
4.2128e+07

>  <Rbt.Current_Directory>
/home/itssahil/PROJECTS/Mol_Feturizer/New_Systems/rnas/2miy

>  <Rbt.Executable>
rbdock ($Id: //depot/dev/client3/rdock/2013.1/src/exe/rbdock.cxx#4 $)

>  <Rbt.Library>
libRbt.so (2013.1, Build901 2013/11/27)

>  <Rbt.Parameter_File>
/export/apps/rDock/src/rDock_2013.1_src/data/scripts/dock_solv.prm

>  <Rbt.Receptor>
prm/pocket_docking_5.prm

>  <SCORE>
-47.3089

>  <SCORE.INTER>
-48.8673

>  <SCORE.INTER.CONST>
1

>  <SCORE.INTER.POLAR>
-5.71164

>  <SCORE.INTER.ROT>
2

>  <SCORE.INTER.SOLV>
19.7572

>  <SCORE.INTER.VDW>
-25.0585

>  <SCORE.INTER.norm>
-3.75903

>  <SCORE.INTRA>
1.51646

>  <SCORE.INTRA.DIHEDRAL>
-0.239262

>  <SCORE.INTRA.DIHEDRAL.0>
1.76676

>  <SCORE.INTRA.POLAR>
0.472211

>  <SCORE.INTRA.POLAR.0>
-0.472211

>  <SCORE.INTRA.REPUL>
0

>  <SCORE.INTRA.REPUL.0>
0

>  <SCORE.INTRA.SOLV>
-0.0823345

>  <SCORE.INTRA.SOLV.lig_0>
-22.5855

>  <SCORE.INTRA.VDW>
0.0717393

>  <SCORE.INTRA.VDW.0>
-0.733656

>  <SCORE.INTRA.norm>
0.116651

>  <SCORE.RESTR>
0.0419933

>  <SCORE.RESTR.CAVITY>
0.0419933

>  <SCORE.RESTR.norm>
0.00323025

>  <SCORE.SYSTEM>
0

>  <SCORE.SYSTEM.CONST>
0

>  <SCORE.SYSTEM.DIHEDRAL>
0

>  <SCORE.SYSTEM.SOLV>
0

>  <SCORE.SYSTEM.norm>
0

>  <SCORE.heavy>
13

>  <SCORE.norm>
-3.63914

>  <RMSD>
0.744

$$$$
lig.pdb
 OpenBabel11021811453D
libRbt.so/2013.1/901 2013/11/27
 13 14  0  0  0  0  0  0  0  0999 V2000
  -10.7999    4.5918   -7.2029 N   0  0  0  0  0  0  0  0  0  0  0  0
  -10.9421    3.7864   -8.2972 C   0  0  0  0  0  0  0  0  0  0  0  0
   -9.8769    3.3092   -8.9156 N   0  0  0  0  0  0  0  0  0  0  0  0
   -8.6053    3.5945   -8.4996 C   0  0  0  0  0  0  0  0  0  0  0  0
   -8.3999    4.4291   -7.3742 C   0  0  0  0  0  0  0  0  0  0  0  0
   -9.5568    4.9394   -6.7117 C   0  0  0  0  0  0  0  0  0  0  0  0
   -9.4504    5.6646   -5.7382 O   0  0  0  0  0  0  0  0  0  0  0  0
   -6.9472    4.5445   -7.2000 C   0  0  0  0  0  0  0  0  0  0  0  0
   -6.2061    5.3378   -6.1565 C   0  0  0  0  0  0  0  0  0  0  0  0
   -6.9152    5.2461   -4.8733 N   0  0  0  0  0  0  0  0  0  0  0  0
   -6.3980    3.8000   -8.1676 C   0  0  0  0  0  0  0  0  0  0  0  0
   -7.3722    3.2371   -8.9483 N   0  0  0  0  0  0  0  0  0  0  0  0
  -12.1968    3.4740   -8.7535 N   0  0  0  0  0  0  0  0  0  0  0  0
  1  6  1  0  0  0  0
  2  1  1  0  0  0  0
  3  4  1  0  0  0  0
  3  2  2  0  0  0  0
  4  5  2  0  0  0  0
  5  8  1  0  0  0  0
  5  6  1  0  0  0  0
  6  7  2  0  0  0  0
  8  9  1  0  0  0  0
  9 10  1  0  0  0  0
 11  8  2  0  0  0  0
 12  4  1  0  0  0  0
 12 11  1  0  0  0  0
 13  2  1  0  0  0  0
M  END
>  <CHROM.1>
38.53639959,115.87165448,-8.78934116,4.31856967,-7.40813680,2.63348955,0.03216757
-2.13312391

>  <Name>
lig.pdb

>  <RI>
9.06885e+06

>  <Rbt.Current_Directory>
/home/itssahil/PROJECTS/Mol_Feturizer/New_Systems/rnas/2miy

>  <Rbt.Executable>
rbdock ($Id: //depot/dev/client3/rdock/2013.1/src/exe/rbdock.cxx#4 $)

>  <Rbt.Library>
libRbt.so (2013.1, Build901 2013/11/27)

>  <Rbt.Parameter_File>
/export/apps/rDock/src/rDock_2013.1_src/data/scripts/dock_solv.prm

>  <Rbt.Receptor>
prm/pocket_docking_6.prm

>  <SCORE>
-48.8637

>  <SCORE.INTER>
-48.1504

>  <SCORE.INTER.CONST>
1

>  <SCORE.INTER.POLAR>
-5.53341

>  <SCORE.INTER.ROT>
2

>  <SCORE.INTER.SOLV>
17.9141

>  <SCORE.INTER.VDW>
-24.5603

>  <SCORE.INTER.norm>
-3.70387

>  <SCORE.INTRA>
-0.713347

>  <SCORE.INTRA.DIHEDRAL>
0.301467

>  <SCORE.INTRA.DIHEDRAL.0>
1.76676

>  <SCORE.INTRA.POLAR>
-0.2955

>  <SCORE.INTRA.POLAR.0>
-0.472211

>  <SCORE.INTRA.REPUL>
0

>  <SCORE.INTRA.REPUL.0>
0

>  <SCORE.INTRA.SOLV>
0.0620262

>  <SCORE.INTRA.SOLV.lig_0>
-22.5855

>  <SCORE.INTRA.VDW>
0.109605

>  <SCORE.INTRA.VDW.0>
-0.733656

>  <SCORE.INTRA.norm>
-0.0548728

>  <SCORE.RESTR>
0

>  <SCORE.RESTR.CAVITY>
0

>  <SCORE.RESTR.norm>
0

>  <SCORE.SYSTEM>
0

>  <SCORE.SYSTEM.CONST>
0

>  <SCORE.SYSTEM.DIHEDRAL>
0

>  <SCORE.SYSTEM.SOLV>
0

>  <SCORE.SYSTEM.norm>
0

>  <SCORE.heavy>
13

>  <SCORE.norm>
-3.75875

>  <RMSD>
0.744

$$$$
lig.pdb
 OpenBabel11021811453D
libRbt.so/2013.1/901 2013/11/27
 13 14  0  0  0  0  0  0  0  0999 V2000
  -10.7999    4.5935   -7.2047 N   0  0  0  0  0  0  0  0  0  0  0  0
  -10.9418    3.7886   -8.2993 C   0  0  0  0  0  0  0  0  0  0  0  0
   -9.8764    3.3115   -8.9174 N   0  0  0  0  0  0  0  0  0  0  0  0
   -8.6049    3.5962   -8.5007 C   0  0  0  0  0  0  0  0  0  0  0  0
   -8.3999    4.4304   -7.3749 C   0  0  0  0  0  0  0  0  0  0  0  0
   -9.5569    4.9406   -6.7127 C   0  0  0  0  0  0  0  0  0  0  0  0
   -9.4508    5.6654   -5.7389 O   0  0  0  0  0  0  0  0  0  0  0  0
   -6.9472    4.5452   -7.2000 C   0  0  0  0  0  0  0  0  0  0  0  0
   -6.2064    5.3380   -6.1557 C   0  0  0  0  0  0  0  0  0  0  0  0
   -6.9227    5.2559   -4.8760 N   0  0  0  0  0  0  0  0  0  0  0  0
   -6.3978    3.8010   -8.1677 C   0  0  0  0  0  0  0  0  0  0  0  0
   -7.3718    3.2387   -8.9491 N   0  0  0  0  0  0  0  0  0  0  0  0
  -12.1963    3.4768   -8.7564 N   0  0  0  0  0  0  0  0  0  0  0  0
  1  6  1  0  0  0  0
  2  1  1  0  0  0  0
  3  4  1  0  0  0  0
  3  2  2  0  0  0  0
  4  5  2  0  0  0  0
  5  8  1  0  0  0  0
  5  6  1  0  0  0  0
  6  7  2  0  0  0  0
  8  9  1  0  0  0  0
  9 10  1  0  0  0  0
 11  8  2  0  0  0  0
 12  4  1  0  0  0  0
 12 11  1  0  0  0  0
 13  2  1  0  0  0  0
M  END
>  <CHROM.1>
38.02570545,-61.82421013,-8.78986221,4.32098219,-7.40929102,2.63261017,0.03222333
-2.13352450

>  <Name>
lig.pdb

>  <RI>
9.06885e+06

>  <Rbt.Current_Directory>
/home/itssahil/PROJECTS/Mol_Feturizer/New_Systems/rnas/2miy

>  <Rbt.Executable>
rbdock ($Id: //depot/dev/client3/rdock/2013.1/src/exe/rbdock.cxx#4 $)

>  <Rbt.Library>
libRbt.so (2013.1, Build901 2013/11/27)

>  <Rbt.Parameter_File>
/export/apps/rDock/src/rDock_2013.1_src/data/scripts/dock_solv.prm

>  <Rbt.Receptor>
prm/pocket_docking_6.prm

>  <SCORE>
-48.8641

>  <SCORE.INTER>
-48.1571

>  <SCORE.INTER.CONST>
1

>  <SCORE.INTER.POLAR>
-5.53361

>  <SCORE.INTER.ROT>
2

>  <SCORE.INTER.SOLV>
17.9142

>  <SCORE.INTER.VDW>
-24.5641

>  <SCORE.INTER.norm>
-3.70439

>  <SCORE.INTRA>
-0.707038

>  <SCORE.INTRA.DIHEDRAL>
0.336161

>  <SCORE.INTRA.DIHEDRAL.0>
1.76676

>  <SCORE.INTRA.POLAR>
-0.305381

>  <SCORE.INTRA.POLAR.0>
-0.472211

>  <SCORE.INTRA.REPUL>
0

>  <SCORE.INTRA.REPUL.0>
0

>  <SCORE.INTRA.SOLV>
0.0660631

>  <SCORE.INTRA.SOLV.lig_0>
-22.5855

>  <SCORE.INTRA.VDW>
0.130145

>  <SCORE.INTRA.VDW.0>
-0.733656

>  <SCORE.INTRA.norm>
-0.0543875

>  <SCORE.RESTR>
0

>  <SCORE.RESTR.CAVITY>
0

>  <SCORE.RESTR.norm>
0

>  <SCORE.SYSTEM>
0

>  <SCORE.SYSTEM.CONST>
0

>  <SCORE.SYSTEM.DIHEDRAL>
0

>  <SCORE.SYSTEM.SOLV>
0

>  <SCORE.SYSTEM.norm>
0

>  <SCORE.heavy>
13

>  <SCORE.norm>
-3.75878

>  <RMSD>
0.744

$$$$
lig.pdb
 OpenBabel11021811453D
libRbt.so/2013.1/901 2013/11/27
 13 14  0  0  0  0  0  0  0  0999 V2000
  -10.7957    4.6081   -7.2031 N   0  0  0  0  0  0  0  0  0  0  0  0
  -10.9288    3.8330   -8.3201 C   0  0  0  0  0  0  0  0  0  0  0  0
   -9.8584    3.3747   -8.9438 N   0  0  0  0  0  0  0  0  0  0  0  0
   -8.5902    3.6504   -8.5111 C   0  0  0  0  0  0  0  0  0  0  0  0
   -8.3943    4.4540   -7.3618 C   0  0  0  0  0  0  0  0  0  0  0  0
   -9.5567    4.9439   -6.6937 C   0  0  0  0  0  0  0  0  0  0  0  0
   -9.4584    5.6422   -5.6998 O   0  0  0  0  0  0  0  0  0  0  0  0
   -6.9430    4.5667   -7.1742 C   0  0  0  0  0  0  0  0  0  0  0  0
   -6.2107    5.3321   -6.1039 C   0  0  0  0  0  0  0  0  0  0  0  0
   -6.9408    5.2227   -4.8340 N   0  0  0  0  0  0  0  0  0  0  0  0
   -6.3857    3.8500   -8.1580 C   0  0  0  0  0  0  0  0  0  0  0  0
   -7.3534    3.3074   -8.9608 N   0  0  0  0  0  0  0  0  0  0  0  0
  -12.1796    3.5313   -8.7938 N   0  0  0  0  0  0  0  0  0  0  0  0
  1  6  1  0  0  0  0
  2  1  1  0  0  0  0
  3  4  1  0  0  0  0
  3  2  2  0  0  0  0
  4  5  2  0  0  0  0
  5  8  1  0  0  0  0
  5  6  1  0  0  0  0
  6  7  2  0  0  0  0
  8  9  1  0  0  0  0
  9 10  1  0  0  0  0
 11  8  2  0  0  0  0
 12  4  1  0  0  0  0
 12 11  1  0  0  0  0
 13  2  1  0  0  0  0
M  END
>  <CHROM.1>
37.58787475,-61.30819175,-8.78432211,4.34567724,-7.40189748,2.62561759,0.03374625
-2.10688565

>  <Name>
lig.pdb

>  <RI>
1.82164e+07

>  <Rbt.Current_Directory>
/home/itssahil/PROJECTS/Mol_Feturizer/New_Systems/rnas/2miy

>  <Rbt.Executable>
rbdock ($Id: //depot/dev/client3/rdock/2013.1/src/exe/rbdock.cxx#4 $)

>  <Rbt.Library>
libRbt.so (2013.1, Build901 2013/11/27)

>  <Rbt.Parameter_File>
/export/apps/rDock/src/rDock_2013.1_src/data/scripts/dock_solv.prm

>  <Rbt.Receptor>
prm/blind_docking_80.prm

>  <SCORE>
-48.5386

>  <SCORE.INTER>
-47.8589

>  <SCORE.INTER.CONST>
1

>  <SCORE.INTER.POLAR>
-5.47558

>  <SCORE.INTER.ROT>
2

>  <SCORE.INTER.SOLV>
17.8159

>  <SCORE.INTER.VDW>
-24.526

>  <SCORE.INTER.norm>
-3.68145

>  <SCORE.INTRA>
-0.705203

>  <SCORE.INTRA.DIHEDRAL>
0.358575

>  <SCORE.INTRA.DIHEDRAL.0>
1.76676

>  <SCORE.INTRA.POLAR>
-0.312846

>  <SCORE.INTRA.POLAR.0>
-0.472211

>  <SCORE.INTRA.REPUL>
0

>  <SCORE.INTRA.REPUL.0>
0

>  <SCORE.INTRA.SOLV>
0.0702293

>  <SCORE.INTRA.SOLV.lig_0>
-22.5855

>  <SCORE.INTRA.VDW>
0.144071

>  <SCORE.INTRA.VDW.0>
-0.733656

>  <SCORE.INTRA.norm>
-0.0542464

>  <SCORE.RESTR>
0.0254995

>  <SCORE.RESTR.CAVITY>
0.0254995

>  <SCORE.RESTR.norm>
0.0019615

>  <SCORE.SYSTEM>
0

>  <SCORE.SYSTEM.CONST>
0

>  <SCORE.SYSTEM.DIHEDRAL>
0

>  <SCORE.SYSTEM.SOLV>
0

>  <SCORE.SYSTEM.norm>
0

>  <SCORE.heavy>
13

>  <SCORE.norm>
-3.73374

>  <RMSD>
0.745

$$$$
lig.pdb
 OpenBabel11021811453D
libRbt.so/2013.1/901 2013/11/27
 13 14  0  0  0  0  0  0  0  0999 V2000
  -10.7973    4.5984   -7.2175 N   0  0  0  0  0  0  0  0  0  0  0  0
  -10.9358    3.8005   -8.3178 C   0  0  0  0  0  0  0  0  0  0  0  0
   -9.8685    3.3231   -8.9325 N   0  0  0  0  0  0  0  0  0  0  0  0
   -8.5984    3.6007   -8.5067 C   0  0  0  0  0  0  0  0  0  0  0  0
   -8.3969    4.4273   -7.3747 C   0  0  0  0  0  0  0  0  0  0  0  0
   -9.5560    4.9379   -6.7163 C   0  0  0  0  0  0  0  0  0  0  0  0
   -9.4529    5.6565   -5.7375 O   0  0  0  0  0  0  0  0  0  0  0  0
   -6.9449    4.5358   -7.1906 C   0  0  0  0  0  0  0  0  0  0  0  0
   -6.2073    5.3195   -6.1373 C   0  0  0  0  0  0  0  0  0  0  0  0
   -6.9475    5.2580   -4.8700 N   0  0  0  0  0  0  0  0  0  0  0  0
   -6.3925    3.7953   -8.1595 C   0  0  0  0  0  0  0  0  0  0  0  0
   -7.3640    3.2413   -8.9500 N   0  0  0  0  0  0  0  0  0  0  0  0
  -12.1887    3.4961   -8.7840 N   0  0  0  0  0  0  0  0  0  0  0  0
  1  6  1  0  0  0  0
  2  1  1  0  0  0  0
  3  4  1  0  0  0  0
  3  2  2  0  0  0  0
  4  5  2  0  0  0  0
  5  8  1  0  0  0  0
  5  6  1  0  0  0  0
  6  7  2  0  0  0  0
  8  9  1  0  0  0  0
  9 10  1  0  0  0  0
 11  8  2  0  0  0  0
 12  4  1  0  0  0  0
 12 11  1  0  0  0  0
 13  2  1  0  0  0  0
M  END
>  <CHROM.1>
36.73599874,-59.96445522,-8.78862433,4.32197794,-7.41274412,2.62857263,0.03756902
-2.12957278

>  <Name>
lig.pdb

>  <RI>
2.95488e+07

>  <Rbt.Current_Directory>
/home/itssahil/PROJECTS/Mol_Feturizer/New_Systems/rnas/2miy

>  <Rbt.Executable>
rbdock ($Id: //depot/dev/client3/rdock/2013.1/src/exe/rbdock.cxx#4 $)

>  <Rbt.Library>
libRbt.so (2013.1, Build901 2013/11/27)

>  <Rbt.Parameter_File>
/export/apps/rDock/src/rDock_2013.1_src/data/scripts/dock_solv.prm

>  <Rbt.Receptor>
prm/blind_docking_20.prm

>  <SCORE>
-48.808

>  <SCORE.INTER>
-48.1197

>  <SCORE.INTER.CONST>
1

>  <SCORE.INTER.POLAR>
-5.51434

>  <SCORE.INTER.ROT>
2

>  <SCORE.INTER.SOLV>
17.8736

>  <SCORE.INTER.VDW>
-24.5899

>  <SCORE.INTER.norm>
-3.70151

>  <SCORE.INTRA>
-0.696529

>  <SCORE.INTRA.DIHEDRAL>
0.402258

>  <SCORE.INTRA.DIHEDRAL.0>
1.76676

>  <SCORE.INTRA.POLAR>
-0.327102

>  <SCORE.INTRA.POLAR.0>
-0.472211

>  <SCORE.INTRA.REPUL>
0

>  <SCORE.INTRA.REPUL.0>
0

>  <SCORE.INTRA.SOLV>
0.0783338

>  <SCORE.INTRA.SOLV.lig_0>
-22.5855

>  <SCORE.INTRA.VDW>
0.175321

>  <SCORE.INTRA.VDW.0>
-0.733656

>  <SCORE.INTRA.norm>
-0.0535792

>  <SCORE.RESTR>
0.00825116

>  <SCORE.RESTR.CAVITY>
0.00825116

>  <SCORE.RESTR.norm>
0.000634704

>  <SCORE.SYSTEM>
0

>  <SCORE.SYSTEM.CONST>
0

>  <SCORE.SYSTEM.DIHEDRAL>
0

>  <SCORE.SYSTEM.SOLV>
0

>  <SCORE.SYSTEM.norm>
0

>  <SCORE.heavy>
13

>  <SCORE.norm>
-3.75446

>  <RMSD>
0.746

$$$$
lig.pdb
 OpenBabel11021811453D
libRbt.so/2013.1/901 2013/11/27
 13 14  0  0  0  0  0  0  0  0999 V2000
  -10.7971    4.6173   -7.2208 N   0  0  0  0  0  0  0  0  0  0  0  0
  -10.9144    3.9179   -8.3885 C   0  0  0  0  0  0  0  0  0  0  0  0
   -9.8364    3.4762   -9.0111 N   0  0  0  0  0  0  0  0  0  0  0  0
   -8.5756    3.6952   -8.5274 C   0  0  0  0  0  0  0  0  0  0  0  0
   -8.3959    4.4195   -7.3240 C   0  0  0  0  0  0  0  0  0  0  0  0
   -9.5664    4.8921   -6.6576 C   0  0  0  0  0  0  0  0  0  0  0  0
   -9.4821    5.5235   -5.6187 O   0  0  0  0  0  0  0  0  0  0  0  0
   -6.9485    4.4874   -7.0903 C   0  0  0  0  0  0  0  0  0  0  0  0
   -6.2312    5.1666   -5.9536 C   0  0  0  0  0  0  0  0  0  0  0  0
   -6.6770    6.5627   -5.8549 N   0  0  0  0  0  0  0  0  0  0  0  0
   -6.3784    3.8223   -8.1026 C   0  0  0  0  0  0  0  0  0  0  0  0
   -7.3339    3.3537   -8.9645 N   0  0  0  0  0  0  0  0  0  0  0  0
  -12.1573    3.6752   -8.9143 N   0  0  0  0  0  0  0  0  0  0  0  0
  1  6  1  0  0  0  0
  2  1  1  0  0  0  0
  3  4  1  0  0  0  0
  3  2  2  0  0  0  0
  4  5  2  0  0  0  0
  5  8  1  0  0  0  0
  5  6  1  0  0  0  0
  6  7  2  0  0  0  0
  8  9  1  0  0  0  0
  9 10  1  0  0  0  0
 11  8  2  0  0  0  0
 12  4  1  0  0  0  0
 12 11  1  0  0  0  0
 13  2  1  0  0  0  0
M  END
>  <CHROM.1>
-52.98461415,5.13152523,-8.75670373,4.46918456,-7.48807164,2.63717936,0.01812212
-2.22513466

>  <Name>
lig.pdb

>  <RI>
2.68696e+07

>  <Rbt.Current_Directory>
/home/itssahil/PROJECTS/Mol_Feturizer/New_Systems/rnas/2miy

>  <Rbt.Executable>
rbdock ($Id: //depot/dev/client3/rdock/2013.1/src/exe/rbdock.cxx#4 $)

>  <Rbt.Library>
libRbt.so (2013.1, Build901 2013/11/27)

>  <Rbt.Parameter_File>
/export/apps/rDock/src/rDock_2013.1_src/data/scripts/dock_solv.prm

>  <Rbt.Receptor>
prm/pocket_docking_4.prm

>  <SCORE>
-47.3289

>  <SCORE.INTER>
-48.8712

>  <SCORE.INTER.CONST>
1

>  <SCORE.INTER.POLAR>
-5.72176

>  <SCORE.INTER.ROT>
2

>  <SCORE.INTER.SOLV>
19.8133

>  <SCORE.INTER.VDW>
-25.0461

>  <SCORE.INTER.norm>
-3.75933

>  <SCORE.INTRA>
1.50366

>  <SCORE.INTRA.DIHEDRAL>
-0.248259

>  <SCORE.INTRA.DIHEDRAL.0>
1.76676

>  <SCORE.INTRA.POLAR>
0.472211

>  <SCORE.INTRA.POLAR.0>
-0.472211

>  <SCORE.INTRA.REPUL>
0

>  <SCORE.INTRA.REPUL.0>
0

>  <SCORE.INTRA.SOLV>
-0.094665

>  <SCORE.INTRA.SOLV.lig_0>
-22.5855

>  <SCORE.INTRA.VDW>
0.0696064

>  <SCORE.INTRA.VDW.0>
-0.733656

>  <SCORE.INTRA.norm>
0.115666

>  <SCORE.RESTR>
0.0386359

>  <SCORE.RESTR.CAVITY>
0.0386359

>  <SCORE.RESTR.norm>
0.00297199

>  <SCORE.SYSTEM>
0

>  <SCORE.SYSTEM.CONST>
0

>  <SCORE.SYSTEM.DIHEDRAL>
0

>  <SCORE.SYSTEM.SOLV>
0

>  <SCORE.SYSTEM.norm>
0

>  <SCORE.heavy>
13

>  <SCORE.norm>
-3.64069

>  <RMSD>
0.746

$$$$
lig.pdb
 OpenBabel11021811453D
libRbt.so/2013.1/901 2013/11/27
 13 14  0  0  0  0  0  0  0  0999 V2000
  -10.7911    4.6019   -7.2050 N   0  0  0  0  0  0  0  0  0  0  0  0
  -10.9184    3.8641   -8.3478 C   0  0  0  0  0  0  0  0  0  0  0  0
   -9.8451    3.4140   -8.9725 N   0  0  0  0  0  0  0  0  0  0  0  0
   -8.5796    3.6616   -8.5155 C   0  0  0  0  0  0  0  0  0  0  0  0
   -8.3897    4.4260   -7.3387 C   0  0  0  0  0  0  0  0  0  0  0  0
   -9.5552    4.9075   -6.6698 C   0  0  0  0  0  0  0  0  0  0  0  0
   -9.4621    5.5727   -5.6530 O   0  0  0  0  0  0  0  0  0  0  0  0
   -6.9398    4.5165   -7.1296 C   0  0  0  0  0  0  0  0  0  0  0  0
   -6.2130    5.2393   -6.0265 C   0  0  0  0  0  0  0  0  0  0  0  0
   -6.7406    6.6045   -5.9018 N   0  0  0  0  0  0  0  0  0  0  0  0
   -6.3778    3.8253   -8.1289 C   0  0  0  0  0  0  0  0  0  0  0  0
   -7.3410    3.3192   -8.9605 N   0  0  0  0  0  0  0  0  0  0  0  0
  -12.1662    3.5917   -8.8463 N   0  0  0  0  0  0  0  0  0  0  0  0
  1  6  1  0  0  0  0
  2  1  1  0  0  0  0
  3  4  1  0  0  0  0
  3  2  2  0  0  0  0
  4  5  2  0  0  0  0
  5  8  1  0  0  0  0
  5  6  1  0  0  0  0
  6  7  2  0  0  0  0
  8  9  1  0  0  0  0
  9 10  1  0  0  0  0
 11  8  2  0  0  0  0
 12  4  1  0  0  0  0
 12 11  1  0  0  0  0
 13  2  1  0  0  0  0
M  END
>  <CHROM.1>
-48.94756581,4.20132703,-8.75983731,4.46393094,-7.49283545,2.63760462,0.00370673
-2.25298891

>  <Name>
lig.pdb

>  <RI>
1.17462e+07

>  <Rbt.Current_Directory>
/home/itssahil/PROJECTS/Mol_Feturizer/New_Systems/rnas/2miy

>  <Rbt.Executable>
rbdock ($Id: //depot/dev/client3/rdock/2013.1/src/exe/rbdock.cxx#4 $)

>  <Rbt.Library>
libRbt.so (2013.1, Build901 2013/11/27)

>  <Rbt.Parameter_File>
/export/apps/rDock/src/rDock_2013.1_src/data/scripts/dock_solv.prm

>  <Rbt.Receptor>
prm/blind_docking_40.prm

>  <SCORE>
-47.4159

>  <SCORE.INTER>
-49.0134

>  <SCORE.INTER.CONST>
1

>  <SCORE.INTER.POLAR>
-5.69762

>  <SCORE.INTER.ROT>
2

>  <SCORE.INTER.SOLV>
19.8415

>  <SCORE.INTER.VDW>
-25.2307

>  <SCORE.INTER.norm>
-3.77026

>  <SCORE.INTRA>
1.58403

>  <SCORE.INTRA.DIHEDRAL>
-0.14592

>  <SCORE.INTRA.DIHEDRAL.0>
1.76676

>  <SCORE.INTRA.POLAR>
0.472211

>  <SCORE.INTRA.POLAR.0>
-0.472211

>  <SCORE.INTRA.REPUL>
0

>  <SCORE.INTRA.REPUL.0>
0

>  <SCORE.INTRA.SOLV>
-0.0496099

>  <SCORE.INTRA.SOLV.lig_0>
-22.5855

>  <SCORE.INTRA.VDW>
0.0762755

>  <SCORE.INTRA.VDW.0>
-0.733656

>  <SCORE.INTRA.norm>
0.121848

>  <SCORE.RESTR>
0.0135452

>  <SCORE.RESTR.CAVITY>
0.0135452

>  <SCORE.RESTR.norm>
0.00104194

>  <SCORE.SYSTEM>
0

>  <SCORE.SYSTEM.CONST>
0

>  <SCORE.SYSTEM.DIHEDRAL>
0

>  <SCORE.SYSTEM.SOLV>
0

>  <SCORE.SYSTEM.norm>
0

>  <SCORE.heavy>
13

>  <SCORE.norm>
-3.64737

>  <RMSD>
0.749

$$$$
lig.pdb
 OpenBabel11021811453D
libRbt.so/2013.1/901 2013/11/27
 13 14  0  0  0  0  0  0  0  0999 V2000
  -10.7847    4.4889   -7.0213 N   0  0  0  0  0  0  0  0  0  0  0  0
  -10.7233    3.8771   -8.2413 C   0  0  0  0  0  0  0  0  0  0  0  0
   -9.5541    3.5747   -8.7763 N   0  0  0  0  0  0  0  0  0  0  0  0
   -8.3718    3.8558   -8.1481 C   0  0  0  0  0  0  0  0  0  0  0  0
   -8.3770    4.4946   -6.8843 C   0  0  0  0  0  0  0  0  0  0  0  0
   -9.6450    4.8167   -6.3134 C   0  0  0  0  0  0  0  0  0  0  0  0
   -9.7202    5.3684   -5.2294 O   0  0  0  0  0  0  0  0  0  0  0  0
   -6.9716    4.6604   -6.4950 C   0  0  0  0  0  0  0  0  0  0  0  0
   -6.4334    5.3030   -5.2440 C   0  0  0  0  0  0  0  0  0  0  0  0
   -6.9008    6.6933   -5.1650 N   0  0  0  0  0  0  0  0  0  0  0  0
   -6.2474    4.1259   -7.4860 C   0  0  0  0  0  0  0  0  0  0  0  0
   -7.0676    3.6514   -8.4748 N   0  0  0  0  0  0  0  0  0  0  0  0
  -11.8816    3.5773   -8.9110 N   0  0  0  0  0  0  0  0  0  0  0  0
  1  6  1  0  0  0  0
  2  1  1  0  0  0  0
  3  4  1  0  0  0  0
  3  2  2  0  0  0  0
  4  5  2  0  0  0  0
  5  8  1  0  0  0  0
  5  6  1  0  0  0  0
  6  7  2  0  0  0  0
  8  9  1  0  0  0  0
  9 10  1  0  0  0  0
 11  8  2  0  0  0  0
 12  4  1  0  0  0  0
 12 11  1  0  0  0  0
 13  2  1  0  0  0  0
M  END
>  <CHROM.1>
-58.66613499,18.43780288,-8.71269222,4.53213415,-7.08821524,2.51229069,0.00364064
-2.15360775

>  <Name>
lig.pdb

>  <RI>
2.60406e+07

>  <Rbt.Current_Directory>
/home/itssahil/PROJECTS/Mol_Feturizer/New_Systems/rnas/2miy

>  <Rbt.Executable>
rbdock ($Id: //depot/dev/client3/rdock/2013.1/src/exe/rbdock.cxx#4 $)

>  <Rbt.Library>
libRbt.so (2013.1, Build901 2013/11/27)

>  <Rbt.Parameter_File>
/export/apps/rDock/src/rDock_2013.1_src/data/scripts/dock_solv.prm

>  <Rbt.Receptor>
prm/pocket_docking_7.prm

>  <SCORE>
-43.0566

>  <SCORE.INTER>
-44.4983

>  <SCORE.INTER.CONST>
1

>  <SCORE.INTER.POLAR>
-4.30969

>  <SCORE.INTER.ROT>
2

>  <SCORE.INTER.SOLV>
17.8542

>  <SCORE.INTER.VDW>
-26.1846

>  <SCORE.INTER.norm>
-3.42295

>  <SCORE.INTRA>
1.44169

>  <SCORE.INTRA.DIHEDRAL>
-0.299344

>  <SCORE.INTRA.DIHEDRAL.0>
1.76676

>  <SCORE.INTRA.POLAR>
0.472211

>  <SCORE.INTRA.POLAR.0>
-0.472211

>  <SCORE.INTRA.REPUL>
0

>  <SCORE.INTRA.REPUL.0>
0

>  <SCORE.INTRA.SOLV>
-0.149667

>  <SCORE.INTRA.SOLV.lig_0>
-22.5855

>  <SCORE.INTRA.VDW>
0.0606819

>  <SCORE.INTRA.VDW.0>
-0.733656

>  <SCORE.INTRA.norm>
0.1109

>  <SCORE.RESTR>
0

>  <SCORE.RESTR.CAVITY>
0

>  <SCORE.RESTR.norm>
0

>  <SCORE.SYSTEM>
0

>  <SCORE.SYSTEM.CONST>
0

>  <SCORE.SYSTEM.DIHEDRAL>
0

>  <SCORE.SYSTEM.SOLV>
0

>  <SCORE.SYSTEM.norm>
0

>  <SCORE.heavy>
13

>  <SCORE.norm>
-3.31205

>  <RMSD>
0.749

$$$$
lig.pdb
 OpenBabel11021811453D
libRbt.so/2013.1/901 2013/11/27
 13 14  0  0  0  0  0  0  0  0999 V2000
  -10.8259    4.5137   -7.1384 N   0  0  0  0  0  0  0  0  0  0  0  0
  -10.9603    3.7434   -8.2587 C   0  0  0  0  0  0  0  0  0  0  0  0
   -9.8903    3.3049   -8.8972 N   0  0  0  0  0  0  0  0  0  0  0  0
   -8.6216    3.5967   -8.4771 C   0  0  0  0  0  0  0  0  0  0  0  0
   -8.4245    4.3961   -7.3250 C   0  0  0  0  0  0  0  0  0  0  0  0
   -9.5863    4.8647   -6.6408 C   0  0  0  0  0  0  0  0  0  0  0  0
   -9.4871    5.5583   -5.6438 O   0  0  0  0  0  0  0  0  0  0  0  0
   -6.9730    4.5292   -7.1530 C   0  0  0  0  0  0  0  0  0  0  0  0
   -6.2399    5.2988   -6.0863 C   0  0  0  0  0  0  0  0  0  0  0  0
   -6.6202    4.7886   -4.7624 N   0  0  0  0  0  0  0  0  0  0  0  0
   -6.4164    3.8268   -8.1476 C   0  0  0  0  0  0  0  0  0  0  0  0
   -7.3850    3.2748   -8.9428 N   0  0  0  0  0  0  0  0  0  0  0  0
  -12.2118    3.4262   -8.7201 N   0  0  0  0  0  0  0  0  0  0  0  0
  1  6  1  0  0  0  0
  2  1  1  0  0  0  0
  3  4  1  0  0  0  0
  3  2  2  0  0  0  0
  4  5  2  0  0  0  0
  5  8  1  0  0  0  0
  5  6  1  0  0  0  0
  6  7  2  0  0  0  0
  8  9  1  0  0  0  0
  9 10  1  0  0  0  0
 11  8  2  0  0  0  0
 12  4  1  0  0  0  0
 12 11  1  0  0  0  0
 13  2  1  0  0  0  0
M  END
>  <CHROM.1>
58.80279557,-150.32120860,-8.78213868,4.24649671,-7.35709895,2.64865492,0.03130580
-2.07643603

>  <Name>
lig.pdb

>  <RI>
2.60406e+07

>  <Rbt.Current_Directory>
/home/itssahil/PROJECTS/Mol_Feturizer/New_Systems/rnas/2miy

>  <Rbt.Executable>
rbdock ($Id: //depot/dev/client3/rdock/2013.1/src/exe/rbdock.cxx#4 $)

>  <Rbt.Library>
libRbt.so (2013.1, Build901 2013/11/27)

>  <Rbt.Parameter_File>
/export/apps/rDock/src/rDock_2013.1_src/data/scripts/dock_solv.prm

>  <Rbt.Receptor>
prm/pocket_docking_7.prm

>  <SCORE>
-46.142

>  <SCORE.INTER>
-47.7415

>  <SCORE.INTER.CONST>
1

>  <SCORE.INTER.POLAR>
-5.39658

>  <SCORE.INTER.ROT>
2

>  <SCORE.INTER.SOLV>
17.8089

>  <SCORE.INTER.VDW>
-24.7087

>  <SCORE.INTER.norm>
-3.67243

>  <SCORE.INTRA>
1.39862

>  <SCORE.INTRA.DIHEDRAL>
-0.354216

>  <SCORE.INTRA.DIHEDRAL.0>
1.76676

>  <SCORE.INTRA.POLAR>
0.472211

>  <SCORE.INTRA.POLAR.0>
-0.472211

>  <SCORE.INTRA.REPUL>
0

>  <SCORE.INTRA.REPUL.0>
0

>  <SCORE.INTRA.SOLV>
-0.156023

>  <SCORE.INTRA.SOLV.lig_0>
-22.5855

>  <SCORE.INTRA.VDW>
0.0482171

>  <SCORE.INTRA.VDW.0>
-0.733656

>  <SCORE.INTRA.norm>
0.107586

>  <SCORE.RESTR>
0.200915

>  <SCORE.RESTR.CAVITY>
0.200915

>  <SCORE.RESTR.norm>
0.015455

>  <SCORE.SYSTEM>
0

>  <SCORE.SYSTEM.CONST>
0

>  <SCORE.SYSTEM.DIHEDRAL>
0

>  <SCORE.SYSTEM.SOLV>
0

>  <SCORE.SYSTEM.norm>
0

>  <SCORE.heavy>
13

>  <SCORE.norm>
-3.54939

>  <RMSD>
0.750

$$$$
lig.pdb
 OpenBabel11021811453D
libRbt.so/2013.1/901 2013/11/27
 13 14  0  0  0  0  0  0  0  0999 V2000
  -10.7951    4.6072   -7.2207 N   0  0  0  0  0  0  0  0  0  0  0  0
  -10.9359    3.8045   -8.3172 C   0  0  0  0  0  0  0  0  0  0  0  0
   -9.8700    3.3227   -8.9308 N   0  0  0  0  0  0  0  0  0  0  0  0
   -8.5991    3.6003   -8.5076 C   0  0  0  0  0  0  0  0  0  0  0  0
   -8.3952    4.4318   -7.3797 C   0  0  0  0  0  0  0  0  0  0  0  0
   -9.5528    4.9471   -6.7223 C   0  0  0  0  0  0  0  0  0  0  0  0
   -9.4476    5.6701   -5.7470 O   0  0  0  0  0  0  0  0  0  0  0  0
   -6.9428    4.5390   -7.1976 C   0  0  0  0  0  0  0  0  0  0  0  0
   -6.2029    5.3265   -6.1487 C   0  0  0  0  0  0  0  0  0  0  0  0
   -6.9411    5.2707   -4.8800 N   0  0  0  0  0  0  0  0  0  0  0  0
   -6.3926    3.7933   -8.1637 C   0  0  0  0  0  0  0  0  0  0  0  0
   -7.3657    3.2371   -8.9505 N   0  0  0  0  0  0  0  0  0  0  0  0
  -12.1898    3.4997   -8.7807 N   0  0  0  0  0  0  0  0  0  0  0  0
  1  6  1  0  0  0  0
  2  1  1  0  0  0  0
  3  4  1  0  0  0  0
  3  2  2  0  0  0  0
  4  5  2  0  0  0  0
  5  8  1  0  0  0  0
  5  6  1  0  0  0  0
  6  7  2  0  0  0  0
  8  9  1  0  0  0  0
  9 10  1  0  0  0  0
 11  8  2  0  0  0  0
 12  4  1  0  0  0  0
 12 11  1  0  0  0  0
 13  2  1  0  0  0  0
M  END
>  <CHROM.1>
36.79573461,120.05151672,-8.78705339,4.32664986,-7.41681671,2.63047758,0.03829687
-2.13403911

>  <Name>
lig.pdb

>  <RI>
9.06885e+06

>  <Rbt.Current_Directory>
/home/itssahil/PROJECTS/Mol_Feturizer/New_Systems/rnas/2miy

>  <Rbt.Executable>
rbdock ($Id: //depot/dev/client3/rdock/2013.1/src/exe/rbdock.cxx#4 $)

>  <Rbt.Library>
libRbt.so (2013.1, Build901 2013/11/27)

>  <Rbt.Parameter_File>
/export/apps/rDock/src/rDock_2013.1_src/data/scripts/dock_solv.prm

>  <Rbt.Receptor>
prm/pocket_docking_6.prm

>  <SCORE>
-48.8131

>  <SCORE.INTER>
-48.1207

>  <SCORE.INTER.CONST>
1

>  <SCORE.INTER.POLAR>
-5.53672

>  <SCORE.INTER.ROT>
2

>  <SCORE.INTER.SOLV>
17.9183

>  <SCORE.INTER.VDW>
-24.5308

>  <SCORE.INTER.norm>
-3.70159

>  <SCORE.INTRA>
-0.69239

>  <SCORE.INTRA.DIHEDRAL>
0.400693

>  <SCORE.INTRA.DIHEDRAL.0>
1.76676

>  <SCORE.INTRA.POLAR>
-0.326598

>  <SCORE.INTRA.POLAR.0>
-0.472211

>  <SCORE.INTRA.REPUL>
0

>  <SCORE.INTRA.REPUL.0>
0

>  <SCORE.INTRA.SOLV>
0.0789333

>  <SCORE.INTRA.SOLV.lig_0>
-22.5855

>  <SCORE.INTRA.VDW>
0.178229

>  <SCORE.INTRA.VDW.0>
-0.733656

>  <SCORE.INTRA.norm>
-0.0532607

>  <SCORE.RESTR>
0

>  <SCORE.RESTR.CAVITY>
0

>  <SCORE.RESTR.norm>
0

>  <SCORE.SYSTEM>
0

>  <SCORE.SYSTEM.CONST>
0

>  <SCORE.SYSTEM.DIHEDRAL>
0

>  <SCORE.SYSTEM.SOLV>
0

>  <SCORE.SYSTEM.norm>
0

>  <SCORE.heavy>
13

>  <SCORE.norm>
-3.75485

>  <RMSD>
0.751

$$$$
lig.pdb
 OpenBabel11021811453D
libRbt.so/2013.1/901 2013/11/27
 13 14  0  0  0  0  0  0  0  0999 V2000
  -10.7822    4.4970   -7.0195 N   0  0  0  0  0  0  0  0  0  0  0  0
  -10.7226    3.8752   -8.2345 C   0  0  0  0  0  0  0  0  0  0  0  0
   -9.5541    3.5687   -8.7689 N   0  0  0  0  0  0  0  0  0  0  0  0
   -8.3709    3.8553   -8.1449 C   0  0  0  0  0  0  0  0  0  0  0  0
   -8.3743    4.5044   -6.8864 C   0  0  0  0  0  0  0  0  0  0  0  0
   -9.6415    4.8309   -6.3162 C   0  0  0  0  0  0  0  0  0  0  0  0
   -9.7151    5.3915   -5.2367 O   0  0  0  0  0  0  0  0  0  0  0  0
   -6.9684    4.6738   -6.5008 C   0  0  0  0  0  0  0  0  0  0  0  0
   -6.4283    5.3269   -5.2560 C   0  0  0  0  0  0  0  0  0  0  0  0
   -6.9133    6.7112   -5.1767 N   0  0  0  0  0  0  0  0  0  0  0  0
   -6.2456    4.1314   -7.4885 C   0  0  0  0  0  0  0  0  0  0  0  0
   -7.0672    3.6486   -8.4720 N   0  0  0  0  0  0  0  0  0  0  0  0
  -11.8818    3.5696   -8.8999 N   0  0  0  0  0  0  0  0  0  0  0  0
  1  6  1  0  0  0  0
  2  1  1  0  0  0  0
  3  4  1  0  0  0  0
  3  2  2  0  0  0  0
  4  5  2  0  0  0  0
  5  8  1  0  0  0  0
  5  6  1  0  0  0  0
  6  7  2  0  0  0  0
  8  9  1  0  0  0  0
  9 10  1  0  0  0  0
 11  8  2  0  0  0  0
 12  4  1  0  0  0  0
 12 11  1  0  0  0  0
 13  2  1  0  0  0  0
M  END
>  <CHROM.1>
-57.77395679,-160.32695608,-8.71204146,4.53959552,-7.08897753,2.51216742
0.00329272,-2.16111929

>  <Name>
lig.pdb

>  <RI>
2.60406e+07

>  <Rbt.Current_Directory>
/home/itssahil/PROJECTS/Mol_Feturizer/New_Systems/rnas/2miy

>  <Rbt.Executable>
rbdock ($Id: //depot/dev/client3/rdock/2013.1/src/exe/rbdock.cxx#4 $)

>  <Rbt.Library>
libRbt.so (2013.1, Build901 2013/11/27)

>  <Rbt.Parameter_File>
/export/apps/rDock/src/rDock_2013.1_src/data/scripts/dock_solv.prm

>  <Rbt.Receptor>
prm/pocket_docking_7.prm

>  <SCORE>
-43.0414

>  <SCORE.INTER>
-44.4597

>  <SCORE.INTER.CONST>
1

>  <SCORE.INTER.POLAR>
-4.31725

>  <SCORE.INTER.ROT>
2

>  <SCORE.INTER.SOLV>
17.8966

>  <SCORE.INTER.VDW>
-26.1478

>  <SCORE.INTER.norm>
-3.41998

>  <SCORE.INTRA>
1.41831

>  <SCORE.INTRA.DIHEDRAL>
-0.346838

>  <SCORE.INTRA.DIHEDRAL.0>
1.76676

>  <SCORE.INTRA.POLAR>
0.472211

>  <SCORE.INTRA.POLAR.0>
-0.472211

>  <SCORE.INTRA.REPUL>
0

>  <SCORE.INTRA.REPUL.0>
0

>  <SCORE.INTRA.SOLV>
-0.139128

>  <SCORE.INTRA.SOLV.lig_0>
-22.5855

>  <SCORE.INTRA.VDW>
0.0557707

>  <SCORE.INTRA.VDW.0>
-0.733656

>  <SCORE.INTRA.norm>
0.1091

>  <SCORE.RESTR>
0

>  <SCORE.RESTR.CAVITY>
0

>  <SCORE.RESTR.norm>
0

>  <SCORE.SYSTEM>
0

>  <SCORE.SYSTEM.CONST>
0

>  <SCORE.SYSTEM.DIHEDRAL>
0

>  <SCORE.SYSTEM.SOLV>
0

>  <SCORE.SYSTEM.norm>
0

>  <SCORE.heavy>
13

>  <SCORE.norm>
-3.31087

>  <RMSD>
0.753

$$$$
lig.pdb
 OpenBabel11021811453D
libRbt.so/2013.1/901 2013/11/27
 13 14  0  0  0  0  0  0  0  0999 V2000
  -10.8055    4.5745   -7.1822 N   0  0  0  0  0  0  0  0  0  0  0  0
  -10.9417    3.7873   -8.2905 C   0  0  0  0  0  0  0  0  0  0  0  0
   -9.8729    3.3300   -8.9176 N   0  0  0  0  0  0  0  0  0  0  0  0
   -8.6034    3.6184   -8.4972 C   0  0  0  0  0  0  0  0  0  0  0  0
   -8.4043    4.4348   -7.3574 C   0  0  0  0  0  0  0  0  0  0  0  0
   -9.5650    4.9237   -6.6855 C   0  0  0  0  0  0  0  0  0  0  0  0
   -9.4641    5.6325   -5.6995 O   0  0  0  0  0  0  0  0  0  0  0  0
   -6.9525    4.5591   -7.1819 C   0  0  0  0  0  0  0  0  0  0  0  0
   -6.2174    5.3400   -6.1248 C   0  0  0  0  0  0  0  0  0  0  0  0
   -6.7734    5.0225   -4.8028 N   0  0  0  0  0  0  0  0  0  0  0  0
   -6.3978    3.8363   -8.1627 C   0  0  0  0  0  0  0  0  0  0  0  0
   -7.3677    3.2792   -8.9528 N   0  0  0  0  0  0  0  0  0  0  0  0
  -12.1940    3.4727   -8.7517 N   0  0  0  0  0  0  0  0  0  0  0  0
  1  6  1  0  0  0  0
  2  1  1  0  0  0  0
  3  4  1  0  0  0  0
  3  2  2  0  0  0  0
  4  5  2  0  0  0  0
  5  8  1  0  0  0  0
  5  6  1  0  0  0  0
  6  7  2  0  0  0  0
  8  9  1  0  0  0  0
  9 10  1  0  0  0  0
 11  8  2  0  0  0  0
 12  4  1  0  0  0  0
 12 11  1  0  0  0  0
 13  2  1  0  0  0  0
M  END
>  <CHROM.1>
48.98812085,-160.06749269,-8.77861985,4.30322168,-7.38930471,2.63727586,0.03136646
-2.10157225

>  <Name>
lig.pdb

>  <RI>
1.51961e+07

>  <Rbt.Current_Directory>
/home/itssahil/PROJECTS/Mol_Feturizer/New_Systems/rnas/2miy

>  <Rbt.Executable>
rbdock ($Id: //depot/dev/client3/rdock/2013.1/src/exe/rbdock.cxx#4 $)

>  <Rbt.Library>
libRbt.so (2013.1, Build901 2013/11/27)

>  <Rbt.Parameter_File>
/export/apps/rDock/src/rDock_2013.1_src/data/scripts/dock_solv.prm

>  <Rbt.Receptor>
prm/pocket_docking_3.prm

>  <SCORE>
-46.2361

>  <SCORE.INTER>
-47.8545

>  <SCORE.INTER.CONST>
1

>  <SCORE.INTER.POLAR>
-5.4666

>  <SCORE.INTER.ROT>
2

>  <SCORE.INTER.SOLV>
17.928

>  <SCORE.INTER.VDW>
-24.5903

>  <SCORE.INTER.norm>
-3.68111

>  <SCORE.INTRA>
1.57135

>  <SCORE.INTRA.DIHEDRAL>
-0.16978

>  <SCORE.INTRA.DIHEDRAL.0>
1.76676

>  <SCORE.INTRA.POLAR>
0.472211

>  <SCORE.INTRA.POLAR.0>
-0.472211

>  <SCORE.INTRA.REPUL>
0

>  <SCORE.INTRA.REPUL.0>
0

>  <SCORE.INTRA.SOLV>
-0.0448267

>  <SCORE.INTRA.SOLV.lig_0>
-22.5855

>  <SCORE.INTRA.VDW>
0.0731338

>  <SCORE.INTRA.VDW.0>
-0.733656

>  <SCORE.INTRA.norm>
0.120873

>  <SCORE.RESTR>
0.0470691

>  <SCORE.RESTR.CAVITY>
0.0470691

>  <SCORE.RESTR.norm>
0.0036207

>  <SCORE.SYSTEM>
0

>  <SCORE.SYSTEM.CONST>
0

>  <SCORE.SYSTEM.DIHEDRAL>
0

>  <SCORE.SYSTEM.SOLV>
0

>  <SCORE.SYSTEM.norm>
0

>  <SCORE.heavy>
13

>  <SCORE.norm>
-3.55662

>  <RMSD>
0.756

$$$$
lig.pdb
 OpenBabel11021811453D
libRbt.so/2013.1/901 2013/11/27
 13 14  0  0  0  0  0  0  0  0999 V2000
  -10.8342    4.5083   -7.1673 N   0  0  0  0  0  0  0  0  0  0  0  0
  -10.9574    3.7470   -8.2950 C   0  0  0  0  0  0  0  0  0  0  0  0
   -9.8812    3.3136   -8.9265 N   0  0  0  0  0  0  0  0  0  0  0  0
   -8.6167    3.6022   -8.4918 C   0  0  0  0  0  0  0  0  0  0  0  0
   -8.4310    4.3925   -7.3315 C   0  0  0  0  0  0  0  0  0  0  0  0
   -9.5995    4.8555   -6.6550 C   0  0  0  0  0  0  0  0  0  0  0  0
   -9.5102    5.5413   -5.6516 O   0  0  0  0  0  0  0  0  0  0  0  0
   -6.9813    4.5244   -7.1444 C   0  0  0  0  0  0  0  0  0  0  0  0
   -6.2588    5.2857   -6.0645 C   0  0  0  0  0  0  0  0  0  0  0  0
   -6.6441    4.7581   -4.7488 N   0  0  0  0  0  0  0  0  0  0  0  0
   -6.4149    3.8300   -8.1389 C   0  0  0  0  0  0  0  0  0  0  0  0
   -7.3756    3.2841   -8.9480 N   0  0  0  0  0  0  0  0  0  0  0  0
  -12.2044    3.4332   -8.7711 N   0  0  0  0  0  0  0  0  0  0  0  0
  1  6  1  0  0  0  0
  2  1  1  0  0  0  0
  3  4  1  0  0  0  0
  3  2  2  0  0  0  0
  4  5  2  0  0  0  0
  5  8  1  0  0  0  0
  5  6  1  0  0  0  0
  6  7  2  0  0  0  0
  8  9  1  0  0  0  0
  9 10  1  0  0  0  0
 11  8  2  0  0  0  0
 12  4  1  0  0  0  0
 12 11  1  0  0  0  0
 13  2  1  0  0  0  0
M  END
>  <CHROM.1>
59.22949295,156.35565593,-8.78759185,4.24243954,-7.36835099,2.64153091,0.03557825
-2.06611127

>  <Name>
lig.pdb

>  <RI>
2.60406e+07

>  <Rbt.Current_Directory>
/home/itssahil/PROJECTS/Mol_Feturizer/New_Systems/rnas/2miy

>  <Rbt.Executable>
rbdock ($Id: //depot/dev/client3/rdock/2013.1/src/exe/rbdock.cxx#4 $)

>  <Rbt.Library>
libRbt.so (2013.1, Build901 2013/11/27)

>  <Rbt.Parameter_File>
/export/apps/rDock/src/rDock_2013.1_src/data/scripts/dock_solv.prm

>  <Rbt.Receptor>
prm/pocket_docking_7.prm

>  <SCORE>
-46.0072

>  <SCORE.INTER>
-47.6112

>  <SCORE.INTER.CONST>
1

>  <SCORE.INTER.POLAR>
-5.30846

>  <SCORE.INTER.ROT>
2

>  <SCORE.INTER.SOLV>
17.7805

>  <SCORE.INTER.VDW>
-24.9061

>  <SCORE.INTER.norm>
-3.6624

>  <SCORE.INTRA>
1.43638

>  <SCORE.INTRA.DIHEDRAL>
-0.296942

>  <SCORE.INTRA.DIHEDRAL.0>
1.76676

>  <SCORE.INTRA.POLAR>
0.472211

>  <SCORE.INTRA.POLAR.0>
-0.472211

>  <SCORE.INTRA.REPUL>
0

>  <SCORE.INTRA.REPUL.0>
0

>  <SCORE.INTRA.SOLV>
-0.145374

>  <SCORE.INTRA.SOLV.lig_0>
-22.5855

>  <SCORE.INTRA.VDW>
0.0520238

>  <SCORE.INTRA.VDW.0>
-0.733656

>  <SCORE.INTRA.norm>
0.110491

>  <SCORE.RESTR>
0.167659

>  <SCORE.RESTR.CAVITY>
0.167659

>  <SCORE.RESTR.norm>
0.0128969

>  <SCORE.SYSTEM>
0

>  <SCORE.SYSTEM.CONST>
0

>  <SCORE.SYSTEM.DIHEDRAL>
0

>  <SCORE.SYSTEM.SOLV>
0

>  <SCORE.SYSTEM.norm>
0

>  <SCORE.heavy>
13

>  <SCORE.norm>
-3.53902

>  <RMSD>
0.756

$$$$
lig.pdb
 OpenBabel11021811453D
libRbt.so/2013.1/901 2013/11/27
 13 14  0  0  0  0  0  0  0  0999 V2000
  -10.8614    4.4428   -7.1973 N   0  0  0  0  0  0  0  0  0  0  0  0
  -11.0541    3.6557   -8.2972 C   0  0  0  0  0  0  0  0  0  0  0  0
  -10.0187    3.1964   -8.9768 N   0  0  0  0  0  0  0  0  0  0  0  0
   -8.7293    3.4828   -8.6203 C   0  0  0  0  0  0  0  0  0  0  0  0
   -8.4722    4.2990   -7.4921 C   0  0  0  0  0  0  0  0  0  0  0  0
   -9.5971    4.7900   -6.7632 C   0  0  0  0  0  0  0  0  0  0  0  0
   -9.4459    5.4988   -5.7836 O   0  0  0  0  0  0  0  0  0  0  0  0
   -7.0133    4.4209   -7.3893 C   0  0  0  0  0  0  0  0  0  0  0  0
   -6.2250    5.2008   -6.3704 C   0  0  0  0  0  0  0  0  0  0  0  0
   -6.6946    4.8618   -5.0205 N   0  0  0  0  0  0  0  0  0  0  0  0
   -6.5094    3.6970   -8.3964 C   0  0  0  0  0  0  0  0  0  0  0  0
   -7.5185    3.1414   -9.1369 N   0  0  0  0  0  0  0  0  0  0  0  0
  -12.3283    3.3430   -8.6952 N   0  0  0  0  0  0  0  0  0  0  0  0
  1  6  1  0  0  0  0
  2  1  1  0  0  0  0
  3  4  1  0  0  0  0
  3  2  2  0  0  0  0
  4  5  2  0  0  0  0
  5  8  1  0  0  0  0
  5  6  1  0  0  0  0
  6  7  2  0  0  0  0
  8  9  1  0  0  0  0
  9 10  1  0  0  0  0
 11  8  2  0  0  0  0
 12  4  1  0  0  0  0
 12 11  1  0  0  0  0
 13  2  1  0  0  0  0
M  END
>  <CHROM.1>
50.24515392,109.51063395,-8.84607969,4.16594497,-7.50511531,2.68509107,0.00988794
-2.10038949

>  <Name>
lig.pdb

>  <RI>
0

>  <Rbt.Current_Directory>
/home/itssahil/PROJECTS/Mol_Feturizer/New_Systems/rnas/2miy

>  <Rbt.Executable>
rbdock ($Id: //depot/dev/client3/rdock/2013.1/src/exe/rbdock.cxx#4 $)

>  <Rbt.Library>
libRbt.so (2013.1, Build901 2013/11/27)

>  <Rbt.Parameter_File>
/export/apps/rDock/src/rDock_2013.1_src/data/scripts/dock_solv.prm

>  <Rbt.Receptor>
prm/blind_docking_60.prm

>  <SCORE>
-44.0599

>  <SCORE.INTER>
-46.2715

>  <SCORE.INTER.CONST>
1

>  <SCORE.INTER.POLAR>
-5.45037

>  <SCORE.INTER.ROT>
2

>  <SCORE.INTER.SOLV>
18.1124

>  <SCORE.INTER.VDW>
-23.6506

>  <SCORE.INTER.norm>
-3.55935

>  <SCORE.INTRA>
-0.0599985

>  <SCORE.INTRA.DIHEDRAL>
-0.196385

>  <SCORE.INTRA.DIHEDRAL.0>
1.76676

>  <SCORE.INTRA.POLAR>
0.0234173

>  <SCORE.INTRA.POLAR.0>
-0.472211

>  <SCORE.INTRA.REPUL>
0

>  <SCORE.INTRA.REPUL.0>
0

>  <SCORE.INTRA.SOLV>
-0.058299

>  <SCORE.INTRA.SOLV.lig_0>
-22.5855

>  <SCORE.INTRA.VDW>
-0.0122751

>  <SCORE.INTRA.VDW.0>
-0.733656

>  <SCORE.INTRA.norm>
-0.00461527

>  <SCORE.RESTR>
2.2716

>  <SCORE.RESTR.CAVITY>
2.2716

>  <SCORE.RESTR.norm>
0.174738

>  <SCORE.SYSTEM>
0

>  <SCORE.SYSTEM.CONST>
0

>  <SCORE.SYSTEM.DIHEDRAL>
0

>  <SCORE.SYSTEM.SOLV>
0

>  <SCORE.SYSTEM.norm>
0

>  <SCORE.heavy>
13

>  <SCORE.norm>
-3.38923

>  <RMSD>
0.758

$$$$
lig.pdb
 OpenBabel11021811453D
libRbt.so/2013.1/901 2013/11/27
 13 14  0  0  0  0  0  0  0  0999 V2000
  -10.7894    4.6228   -7.2211 N   0  0  0  0  0  0  0  0  0  0  0  0
  -10.9173    3.8808   -8.3610 C   0  0  0  0  0  0  0  0  0  0  0  0
   -9.8447    3.4204   -8.9795 N   0  0  0  0  0  0  0  0  0  0  0  0
   -8.5794    3.6613   -8.5186 C   0  0  0  0  0  0  0  0  0  0  0  0
   -8.3888    4.4297   -7.3446 C   0  0  0  0  0  0  0  0  0  0  0  0
   -9.5535    4.9223   -6.6824 C   0  0  0  0  0  0  0  0  0  0  0  0
   -9.4597    5.5914   -5.6683 O   0  0  0  0  0  0  0  0  0  0  0  0
   -6.9391    4.5111   -7.1302 C   0  0  0  0  0  0  0  0  0  0  0  0
   -6.2116    5.2339   -6.0275 C   0  0  0  0  0  0  0  0  0  0  0  0
   -6.7341    6.6014   -5.9073 N   0  0  0  0  0  0  0  0  0  0  0  0
   -6.3780    3.8115   -8.1241 C   0  0  0  0  0  0  0  0  0  0  0  0
   -7.3414    3.3084   -8.9573 N   0  0  0  0  0  0  0  0  0  0  0  0
  -12.1651    3.6148   -8.8632 N   0  0  0  0  0  0  0  0  0  0  0  0
  1  6  1  0  0  0  0
  2  1  1  0  0  0  0
  3  4  1  0  0  0  0
  3  2  2  0  0  0  0
  4  5  2  0  0  0  0
  5  8  1  0  0  0  0
  5  6  1  0  0  0  0
  6  7  2  0  0  0  0
  8  9  1  0  0  0  0
  9 10  1  0  0  0  0
 11  8  2  0  0  0  0
 12  4  1  0  0  0  0
 12 11  1  0  0  0  0
 13  2  1  0  0  0  0
M  END
>  <CHROM.1>
-48.71302935,-176.70221381,-8.75848876,4.46929292,-7.49984793,2.63858725
0.01179278,-2.25710998

>  <Name>
lig.pdb

>  <RI>
2.95488e+07

>  <Rbt.Current_Directory>
/home/itssahil/PROJECTS/Mol_Feturizer/New_Systems/rnas/2miy

>  <Rbt.Executable>
rbdock ($Id: //depot/dev/client3/rdock/2013.1/src/exe/rbdock.cxx#4 $)

>  <Rbt.Library>
libRbt.so (2013.1, Build901 2013/11/27)

>  <Rbt.Parameter_File>
/export/apps/rDock/src/rDock_2013.1_src/data/scripts/dock_solv.prm

>  <Rbt.Receptor>
prm/blind_docking_20.prm

>  <SCORE>
-47.4504

>  <SCORE.INTER>
-49.0347

>  <SCORE.INTER.CONST>
1

>  <SCORE.INTER.POLAR>
-5.73677

>  <SCORE.INTER.ROT>
2

>  <SCORE.INTER.SOLV>
19.8762

>  <SCORE.INTER.VDW>
-25.126

>  <SCORE.INTER.norm>
-3.7719

>  <SCORE.INTRA>
1.58429

>  <SCORE.INTRA.DIHEDRAL>
-0.151908

>  <SCORE.INTRA.DIHEDRAL.0>
1.76676

>  <SCORE.INTRA.POLAR>
0.472211

>  <SCORE.INTRA.POLAR.0>
-0.472211

>  <SCORE.INTRA.REPUL>
0

>  <SCORE.INTRA.REPUL.0>
0

>  <SCORE.INTRA.SOLV>
-0.0453347

>  <SCORE.INTRA.SOLV.lig_0>
-22.5855

>  <SCORE.INTRA.VDW>
0.0773967

>  <SCORE.INTRA.VDW.0>
-0.733656

>  <SCORE.INTRA.norm>
0.121869

>  <SCORE.RESTR>
0

>  <SCORE.RESTR.CAVITY>
0

>  <SCORE.RESTR.norm>
0

>  <SCORE.SYSTEM>
0

>  <SCORE.SYSTEM.CONST>
0

>  <SCORE.SYSTEM.DIHEDRAL>
0

>  <SCORE.SYSTEM.SOLV>
0

>  <SCORE.SYSTEM.norm>
0

>  <SCORE.heavy>
13

>  <SCORE.norm>
-3.65003

>  <RMSD>
0.761

$$$$
lig.pdb
 OpenBabel11021811453D
libRbt.so/2013.1/901 2013/11/27
 13 14  0  0  0  0  0  0  0  0999 V2000
  -10.7877    4.6295   -7.2365 N   0  0  0  0  0  0  0  0  0  0  0  0
  -10.9112    3.8970   -8.3831 C   0  0  0  0  0  0  0  0  0  0  0  0
   -9.8366    3.4366   -8.9979 N   0  0  0  0  0  0  0  0  0  0  0  0
   -8.5733    3.6681   -8.5267 C   0  0  0  0  0  0  0  0  0  0  0  0
   -8.3872    4.4265   -7.3454 C   0  0  0  0  0  0  0  0  0  0  0  0
   -9.5541    4.9190   -6.6872 C   0  0  0  0  0  0  0  0  0  0  0  0
   -9.4643    5.5798   -5.6672 O   0  0  0  0  0  0  0  0  0  0  0  0
   -6.9387    4.4996   -7.1206 C   0  0  0  0  0  0  0  0  0  0  0  0
   -6.2154    5.2103   -6.0073 C   0  0  0  0  0  0  0  0  0  0  0  0
   -6.7418    6.5748   -5.8711 N   0  0  0  0  0  0  0  0  0  0  0  0
   -6.3740    3.8052   -8.1162 C   0  0  0  0  0  0  0  0  0  0  0  0
   -7.3340    3.3131   -8.9598 N   0  0  0  0  0  0  0  0  0  0  0  0
  -12.1568    3.6406   -8.8957 N   0  0  0  0  0  0  0  0  0  0  0  0
  1  6  1  0  0  0  0
  2  1  1  0  0  0  0
  3  4  1  0  0  0  0
  3  2  2  0  0  0  0
  4  5  2  0  0  0  0
  5  8  1  0  0  0  0
  5  6  1  0  0  0  0
  6  7  2  0  0  0  0
  8  9  1  0  0  0  0
  9 10  1  0  0  0  0
 11  8  2  0  0  0  0
 12  4  1  0  0  0  0
 12 11  1  0  0  0  0
 13  2  1  0  0  0  0
M  END
>  <CHROM.1>
-48.15081236,4.22378974,-8.75643627,4.46855098,-7.50208250,2.63565739,0.01994815
-2.24866976

>  <Name>
lig.pdb

>  <RI>
1.51961e+07

>  <Rbt.Current_Directory>
/home/itssahil/PROJECTS/Mol_Feturizer/New_Systems/rnas/2miy

>  <Rbt.Executable>
rbdock ($Id: //depot/dev/client3/rdock/2013.1/src/exe/rbdock.cxx#4 $)

>  <Rbt.Library>
libRbt.so (2013.1, Build901 2013/11/27)

>  <Rbt.Parameter_File>
/export/apps/rDock/src/rDock_2013.1_src/data/scripts/dock_solv.prm

>  <Rbt.Receptor>
prm/pocket_docking_3.prm

>  <SCORE>
-47.4073

>  <SCORE.INTER>
-49.0513

>  <SCORE.INTER.CONST>
1

>  <SCORE.INTER.POLAR>
-5.69292

>  <SCORE.INTER.ROT>
2

>  <SCORE.INTER.SOLV>
19.8313

>  <SCORE.INTER.VDW>
-25.2683

>  <SCORE.INTER.norm>
-3.77318

>  <SCORE.INTRA>
1.60714

>  <SCORE.INTRA.DIHEDRAL>
-0.120353

>  <SCORE.INTRA.DIHEDRAL.0>
1.76676

>  <SCORE.INTRA.POLAR>
0.472211

>  <SCORE.INTRA.POLAR.0>
-0.472211

>  <SCORE.INTRA.REPUL>
0

>  <SCORE.INTRA.REPUL.0>
0

>  <SCORE.INTRA.SOLV>
-0.0408846

>  <SCORE.INTRA.SOLV.lig_0>
-22.5855

>  <SCORE.INTRA.VDW>
0.0822431

>  <SCORE.INTRA.VDW.0>
-0.733656

>  <SCORE.INTRA.norm>
0.123626

>  <SCORE.RESTR>
0.036939

>  <SCORE.RESTR.CAVITY>
0.036939

>  <SCORE.RESTR.norm>
0.00284146

>  <SCORE.SYSTEM>
0

>  <SCORE.SYSTEM.CONST>
0

>  <SCORE.SYSTEM.DIHEDRAL>
0

>  <SCORE.SYSTEM.SOLV>
0

>  <SCORE.SYSTEM.norm>
0

>  <SCORE.heavy>
13

>  <SCORE.norm>
-3.64671

>  <RMSD>
0.762

$$$$
lig.pdb
 OpenBabel11021811453D
libRbt.so/2013.1/901 2013/11/27
 13 14  0  0  0  0  0  0  0  0999 V2000
  -10.8646    4.4313   -7.1975 N   0  0  0  0  0  0  0  0  0  0  0  0
  -11.0557    3.6426   -8.2965 C   0  0  0  0  0  0  0  0  0  0  0  0
  -10.0195    3.1875   -8.9777 N   0  0  0  0  0  0  0  0  0  0  0  0
   -8.7308    3.4798   -8.6236 C   0  0  0  0  0  0  0  0  0  0  0  0
   -8.4753    4.2978   -7.4964 C   0  0  0  0  0  0  0  0  0  0  0  0
   -9.6011    4.7843   -6.7658 C   0  0  0  0  0  0  0  0  0  0  0  0
   -9.4513    5.4944   -5.7869 O   0  0  0  0  0  0  0  0  0  0  0  0
   -7.0168    4.4262   -7.3961 C   0  0  0  0  0  0  0  0  0  0  0  0
   -6.2302    5.2102   -6.3791 C   0  0  0  0  0  0  0  0  0  0  0  0
   -6.6431    4.8143   -5.0262 N   0  0  0  0  0  0  0  0  0  0  0  0
   -6.5114    3.7040   -8.4036 C   0  0  0  0  0  0  0  0  0  0  0  0
   -7.5193    3.1434   -9.1421 N   0  0  0  0  0  0  0  0  0  0  0  0
  -12.3293    3.3241   -8.6922 N   0  0  0  0  0  0  0  0  0  0  0  0
  1  6  1  0  0  0  0
  2  1  1  0  0  0  0
  3  4  1  0  0  0  0
  3  2  2  0  0  0  0
  4  5  2  0  0  0  0
  5  8  1  0  0  0  0
  5  6  1  0  0  0  0
  6  7  2  0  0  0  0
  8  9  1  0  0  0  0
  9 10  1  0  0  0  0
 11  8  2  0  0  0  0
 12  4  1  0  0  0  0
 12 11  1  0  0  0  0
 13  2  1  0  0  0  0
M  END
>  <CHROM.1>
53.42620270,-67.95304810,-8.84361274,4.15804710,-7.50837241,2.68796812,0.00784428
-2.09766434

>  <Name>
lig.pdb

>  <RI>
1.8118e+07

>  <Rbt.Current_Directory>
/home/itssahil/PROJECTS/Mol_Feturizer/New_Systems/rnas/2miy

>  <Rbt.Executable>
rbdock ($Id: //depot/dev/client3/rdock/2013.1/src/exe/rbdock.cxx#4 $)

>  <Rbt.Library>
libRbt.so (2013.1, Build901 2013/11/27)

>  <Rbt.Parameter_File>
/export/apps/rDock/src/rDock_2013.1_src/data/scripts/dock_solv.prm

>  <Rbt.Receptor>
prm/blind_docking_100.prm

>  <SCORE>
-43.7839

>  <SCORE.INTER>
-46.4944

>  <SCORE.INTER.CONST>
1

>  <SCORE.INTER.POLAR>
-5.4878

>  <SCORE.INTER.ROT>
2

>  <SCORE.INTER.SOLV>
18.1893

>  <SCORE.INTER.VDW>
-23.7

>  <SCORE.INTER.norm>
-3.57649

>  <SCORE.INTRA>
0.477855

>  <SCORE.INTRA.DIHEDRAL>
-0.247076

>  <SCORE.INTRA.DIHEDRAL.0>
1.76676

>  <SCORE.INTRA.POLAR>
0.194891

>  <SCORE.INTRA.POLAR.0>
-0.472211

>  <SCORE.INTRA.REPUL>
0

>  <SCORE.INTRA.REPUL.0>
0

>  <SCORE.INTRA.SOLV>
-0.0863943

>  <SCORE.INTRA.SOLV.lig_0>
-22.5855

>  <SCORE.INTRA.VDW>
-0.0180378

>  <SCORE.INTRA.VDW.0>
-0.733656

>  <SCORE.INTRA.norm>
0.0367581

>  <SCORE.RESTR>
2.23264

>  <SCORE.RESTR.CAVITY>
2.23264

>  <SCORE.RESTR.norm>
0.171742

>  <SCORE.SYSTEM>
0

>  <SCORE.SYSTEM.CONST>
0

>  <SCORE.SYSTEM.DIHEDRAL>
0

>  <SCORE.SYSTEM.SOLV>
0

>  <SCORE.SYSTEM.norm>
0

>  <SCORE.heavy>
13

>  <SCORE.norm>
-3.36799

>  <RMSD>
0.766

$$$$
lig.pdb
 OpenBabel11021811453D
libRbt.so/2013.1/901 2013/11/27
 13 14  0  0  0  0  0  0  0  0999 V2000
  -10.7863    4.6442   -7.2310 N   0  0  0  0  0  0  0  0  0  0  0  0
  -10.9087    3.9238   -8.3854 C   0  0  0  0  0  0  0  0  0  0  0  0
   -9.8333    3.4733   -9.0062 N   0  0  0  0  0  0  0  0  0  0  0  0
   -8.5703    3.7035   -8.5336 C   0  0  0  0  0  0  0  0  0  0  0  0
   -8.3853    4.4496   -7.3444 C   0  0  0  0  0  0  0  0  0  0  0  0
   -9.5531    4.9315   -6.6798 C   0  0  0  0  0  0  0  0  0  0  0  0
   -9.4642    5.5814   -5.6528 O   0  0  0  0  0  0  0  0  0  0  0  0
   -6.9368    4.5246   -7.1202 C   0  0  0  0  0  0  0  0  0  0  0  0
   -6.2145    5.2254   -5.9999 C   0  0  0  0  0  0  0  0  0  0  0  0
   -6.7130    6.6018   -5.8784 N   0  0  0  0  0  0  0  0  0  0  0  0
   -6.3710    3.8428   -8.1237 C   0  0  0  0  0  0  0  0  0  0  0  0
   -7.3303    3.3569   -8.9717 N   0  0  0  0  0  0  0  0  0  0  0  0
  -12.1540    3.6692   -8.8996 N   0  0  0  0  0  0  0  0  0  0  0  0
  1  6  1  0  0  0  0
  2  1  1  0  0  0  0
  3  4  1  0  0  0  0
  3  2  2  0  0  0  0
  4  5  2  0  0  0  0
  5  8  1  0  0  0  0
  5  6  1  0  0  0  0
  6  7  2  0  0  0  0
  8  9  1  0  0  0  0
  9 10  1  0  0  0  0
 11  8  2  0  0  0  0
 12  4  1  0  0  0  0
 12 11  1  0  0  0  0
 13  2  1  0  0  0  0
M  END
>  <CHROM.1>
-50.06684764,3.56513576,-8.75181764,4.49364821,-7.50304949,2.63674168,0.01543106
-2.23998642

>  <Name>
lig.pdb

>  <RI>
1.17462e+07

>  <Rbt.Current_Directory>
/home/itssahil/PROJECTS/Mol_Feturizer/New_Systems/rnas/2miy

>  <Rbt.Executable>
rbdock ($Id: //depot/dev/client3/rdock/2013.1/src/exe/rbdock.cxx#4 $)

>  <Rbt.Library>
libRbt.so (2013.1, Build901 2013/11/27)

>  <Rbt.Parameter_File>
/export/apps/rDock/src/rDock_2013.1_src/data/scripts/dock_solv.prm

>  <Rbt.Receptor>
prm/blind_docking_40.prm

>  <SCORE>
-47.477

>  <SCORE.INTER>
-49.0309

>  <SCORE.INTER.CONST>
1

>  <SCORE.INTER.POLAR>
-5.74599

>  <SCORE.INTER.ROT>
2

>  <SCORE.INTER.SOLV>
19.9024

>  <SCORE.INTER.VDW>
-25.1014

>  <SCORE.INTER.norm>
-3.77161

>  <SCORE.INTRA>
1.55391

>  <SCORE.INTRA.DIHEDRAL>
-0.180038

>  <SCORE.INTRA.DIHEDRAL.0>
1.76676

>  <SCORE.INTRA.POLAR>
0.472211

>  <SCORE.INTRA.POLAR.0>
-0.472211

>  <SCORE.INTRA.REPUL>
0

>  <SCORE.INTRA.REPUL.0>
0

>  <SCORE.INTRA.SOLV>
-0.0620651

>  <SCORE.INTRA.SOLV.lig_0>
-22.5855

>  <SCORE.INTRA.VDW>
0.0694468

>  <SCORE.INTRA.VDW.0>
-0.733656

>  <SCORE.INTRA.norm>
0.119532

>  <SCORE.RESTR>
0

>  <SCORE.RESTR.CAVITY>
0

>  <SCORE.RESTR.norm>
0

>  <SCORE.SYSTEM>
0

>  <SCORE.SYSTEM.CONST>
0

>  <SCORE.SYSTEM.DIHEDRAL>
0

>  <SCORE.SYSTEM.SOLV>
0

>  <SCORE.SYSTEM.norm>
0

>  <SCORE.heavy>
13

>  <SCORE.norm>
-3.65208

>  <RMSD>
0.770

$$$$
lig.pdb
 OpenBabel11021811453D
libRbt.so/2013.1/901 2013/11/27
 13 14  0  0  0  0  0  0  0  0999 V2000
  -10.8093    4.5573   -7.1794 N   0  0  0  0  0  0  0  0  0  0  0  0
  -10.9515    3.7511   -8.2730 C   0  0  0  0  0  0  0  0  0  0  0  0
   -9.8861    3.2832   -8.8983 N   0  0  0  0  0  0  0  0  0  0  0  0
   -8.6144    3.5793   -8.4902 C   0  0  0  0  0  0  0  0  0  0  0  0
   -8.4091    4.4153   -7.3658 C   0  0  0  0  0  0  0  0  0  0  0  0
   -9.5661    4.9154   -6.6958 C   0  0  0  0  0  0  0  0  0  0  0  0
   -9.4599    5.6412   -5.7228 O   0  0  0  0  0  0  0  0  0  0  0  0
   -6.9564    4.5430   -7.2007 C   0  0  0  0  0  0  0  0  0  0  0  0
   -6.2155    5.3424   -6.1615 C   0  0  0  0  0  0  0  0  0  0  0  0
   -6.6571    4.9355   -4.8210 N   0  0  0  0  0  0  0  0  0  0  0  0
   -6.4069    3.8036   -8.1720 C   0  0  0  0  0  0  0  0  0  0  0  0
   -7.3812    3.2326   -8.9468 N   0  0  0  0  0  0  0  0  0  0  0  0
  -12.2063    3.4281   -8.7216 N   0  0  0  0  0  0  0  0  0  0  0  0
  1  6  1  0  0  0  0
  2  1  1  0  0  0  0
  3  4  1  0  0  0  0
  3  2  2  0  0  0  0
  4  5  2  0  0  0  0
  5  8  1  0  0  0  0
  5  6  1  0  0  0  0
  6  7  2  0  0  0  0
  8  9  1  0  0  0  0
  9 10  1  0  0  0  0
 11  8  2  0  0  0  0
 12  4  1  0  0  0  0
 12 11  1  0  0  0  0
 13  2  1  0  0  0  0
M  END
>  <CHROM.1>
55.41497162,-153.87209403,-8.77354066,4.27265138,-7.39232492,2.64951045,0.03383515
-2.11264160

>  <Name>
lig.pdb

>  <RI>
9.06885e+06

>  <Rbt.Current_Directory>
/home/itssahil/PROJECTS/Mol_Feturizer/New_Systems/rnas/2miy

>  <Rbt.Executable>
rbdock ($Id: //depot/dev/client3/rdock/2013.1/src/exe/rbdock.cxx#4 $)

>  <Rbt.Library>
libRbt.so (2013.1, Build901 2013/11/27)

>  <Rbt.Parameter_File>
/export/apps/rDock/src/rDock_2013.1_src/data/scripts/dock_solv.prm

>  <Rbt.Receptor>
prm/pocket_docking_6.prm

>  <SCORE>
-46.4794

>  <SCORE.INTER>
-47.9118

>  <SCORE.INTER.CONST>
1

>  <SCORE.INTER.POLAR>
-5.48831

>  <SCORE.INTER.ROT>
2

>  <SCORE.INTER.SOLV>
18.0689

>  <SCORE.INTER.VDW>
-24.6032

>  <SCORE.INTER.norm>
-3.68553

>  <SCORE.INTRA>
1.43249

>  <SCORE.INTRA.DIHEDRAL>
-0.32253

>  <SCORE.INTRA.DIHEDRAL.0>
1.76676

>  <SCORE.INTRA.POLAR>
0.472211

>  <SCORE.INTRA.POLAR.0>
-0.472211

>  <SCORE.INTRA.REPUL>
0

>  <SCORE.INTRA.REPUL.0>
0

>  <SCORE.INTRA.SOLV>
-0.116945

>  <SCORE.INTRA.SOLV.lig_0>
-22.5855

>  <SCORE.INTRA.VDW>
0.0467049

>  <SCORE.INTRA.VDW.0>
-0.733656

>  <SCORE.INTRA.norm>
0.110191

>  <SCORE.RESTR>
0

>  <SCORE.RESTR.CAVITY>
0

>  <SCORE.RESTR.norm>
0

>  <SCORE.SYSTEM>
0

>  <SCORE.SYSTEM.CONST>
0

>  <SCORE.SYSTEM.DIHEDRAL>
0

>  <SCORE.SYSTEM.SOLV>
0

>  <SCORE.SYSTEM.norm>
0

>  <SCORE.heavy>
13

>  <SCORE.norm>
-3.57533

>  <RMSD>
0.770

$$$$
lig.pdb
 OpenBabel11021811453D
libRbt.so/2013.1/901 2013/11/27
 13 14  0  0  0  0  0  0  0  0999 V2000
  -10.7836    4.6557   -7.2422 N   0  0  0  0  0  0  0  0  0  0  0  0
  -10.9051    3.9482   -8.4045 C   0  0  0  0  0  0  0  0  0  0  0  0
   -9.8300    3.4902   -9.0205 N   0  0  0  0  0  0  0  0  0  0  0  0
   -8.5684    3.6997   -8.5349 C   0  0  0  0  0  0  0  0  0  0  0  0
   -8.3843    4.4318   -7.3368 C   0  0  0  0  0  0  0  0  0  0  0  0
   -9.5516    4.9220   -6.6776 C   0  0  0  0  0  0  0  0  0  0  0  0
   -9.4635    5.5608   -5.6436 O   0  0  0  0  0  0  0  0  0  0  0  0
   -6.9370    4.4862   -7.0995 C   0  0  0  0  0  0  0  0  0  0  0  0
   -6.2157    5.1670   -5.9663 C   0  0  0  0  0  0  0  0  0  0  0  0
   -6.6758    6.5575   -5.8551 N   0  0  0  0  0  0  0  0  0  0  0  0
   -6.3711    3.8070   -8.1049 C   0  0  0  0  0  0  0  0  0  0  0  0
   -7.3291    3.3416   -8.9657 N   0  0  0  0  0  0  0  0  0  0  0  0
  -12.1489    3.7145   -8.9319 N   0  0  0  0  0  0  0  0  0  0  0  0
  1  6  1  0  0  0  0
  2  1  1  0  0  0  0
  3  4  1  0  0  0  0
  3  2  2  0  0  0  0
  4  5  2  0  0  0  0
  5  8  1  0  0  0  0
  5  6  1  0  0  0  0
  6  7  2  0  0  0  0
  8  9  1  0  0  0  0
  9 10  1  0  0  0  0
 11  8  2  0  0  0  0
 12  4  1  0  0  0  0
 12 11  1  0  0  0  0
 13  2  1  0  0  0  0
M  END
>  <CHROM.1>
-51.34143525,4.50928059,-8.74681367,4.48290000,-7.50003812,2.63934409,0.02962620
-2.23163951

>  <Name>
lig.pdb

>  <RI>
2.68696e+07

>  <Rbt.Current_Directory>
/home/itssahil/PROJECTS/Mol_Feturizer/New_Systems/rnas/2miy

>  <Rbt.Executable>
rbdock ($Id: //depot/dev/client3/rdock/2013.1/src/exe/rbdock.cxx#4 $)

>  <Rbt.Library>
libRbt.so (2013.1, Build901 2013/11/27)

>  <Rbt.Parameter_File>
/export/apps/rDock/src/rDock_2013.1_src/data/scripts/dock_solv.prm

>  <Rbt.Receptor>
prm/pocket_docking_4.prm

>  <SCORE>
-47.4307

>  <SCORE.INTER>
-48.993

>  <SCORE.INTER.CONST>
1

>  <SCORE.INTER.POLAR>
-5.77151

>  <SCORE.INTER.ROT>
2

>  <SCORE.INTER.SOLV>
19.8785

>  <SCORE.INTER.VDW>
-24.9831

>  <SCORE.INTER.norm>
-3.76869

>  <SCORE.INTRA>
1.52526

>  <SCORE.INTRA.DIHEDRAL>
-0.212293

>  <SCORE.INTRA.DIHEDRAL.0>
1.76676

>  <SCORE.INTRA.POLAR>
0.472211

>  <SCORE.INTRA.POLAR.0>
-0.472211

>  <SCORE.INTRA.REPUL>
0

>  <SCORE.INTRA.REPUL.0>
0

>  <SCORE.INTRA.SOLV>
-0.076169

>  <SCORE.INTRA.SOLV.lig_0>
-22.5855

>  <SCORE.INTRA.VDW>
0.0639683

>  <SCORE.INTRA.VDW.0>
-0.733656

>  <SCORE.INTRA.norm>
0.117327

>  <SCORE.RESTR>
0.036979

>  <SCORE.RESTR.CAVITY>
0.036979

>  <SCORE.RESTR.norm>
0.00284454

>  <SCORE.SYSTEM>
0

>  <SCORE.SYSTEM.CONST>
0

>  <SCORE.SYSTEM.DIHEDRAL>
0

>  <SCORE.SYSTEM.SOLV>
0

>  <SCORE.SYSTEM.norm>
0

>  <SCORE.heavy>
13

>  <SCORE.norm>
-3.64852

>  <RMSD>
0.771

$$$$
lig.pdb
 OpenBabel11021811453D
libRbt.so/2013.1/901 2013/11/27
 13 14  0  0  0  0  0  0  0  0999 V2000
  -10.7913    4.6584   -7.2451 N   0  0  0  0  0  0  0  0  0  0  0  0
  -10.9137    3.9360   -8.3981 C   0  0  0  0  0  0  0  0  0  0  0  0
   -9.8388    3.4747   -9.0119 N   0  0  0  0  0  0  0  0  0  0  0  0
   -8.5764    3.6955   -8.5332 C   0  0  0  0  0  0  0  0  0  0  0  0
   -8.3915    4.4432   -7.3449 C   0  0  0  0  0  0  0  0  0  0  0  0
   -9.5587    4.9368   -6.6879 C   0  0  0  0  0  0  0  0  0  0  0  0
   -9.4698    5.5888   -5.6622 O   0  0  0  0  0  0  0  0  0  0  0  0
   -6.9436    4.5066   -7.1132 C   0  0  0  0  0  0  0  0  0  0  0  0
   -6.2214    5.2044   -5.9910 C   0  0  0  0  0  0  0  0  0  0  0  0
   -6.7103    6.5847   -5.8746 N   0  0  0  0  0  0  0  0  0  0  0  0
   -6.3782    3.8173   -8.1119 C   0  0  0  0  0  0  0  0  0  0  0  0
   -7.3371    3.3372   -8.9636 N   0  0  0  0  0  0  0  0  0  0  0  0
  -12.1583    3.6905   -8.9183 N   0  0  0  0  0  0  0  0  0  0  0  0
  1  6  1  0  0  0  0
  2  1  1  0  0  0  0
  3  4  1  0  0  0  0
  3  2  2  0  0  0  0
  4  5  2  0  0  0  0
  5  8  1  0  0  0  0
  5  6  1  0  0  0  0
  6  7  2  0  0  0  0
  8  9  1  0  0  0  0
  9 10  1  0  0  0  0
 11  8  2  0  0  0  0
 12  4  1  0  0  0  0
 12 11  1  0  0  0  0
 13  2  1  0  0  0  0
M  END
>  <CHROM.1>
-49.98692877,-174.70401051,-8.75699826,4.48987788,-7.50548583,2.63767199
0.02551550,-2.24260325

>  <Name>
lig.pdb

>  <RI>
0

>  <Rbt.Current_Directory>
/home/itssahil/PROJECTS/Mol_Feturizer/New_Systems/rnas/2miy

>  <Rbt.Executable>
rbdock ($Id: //depot/dev/client3/rdock/2013.1/src/exe/rbdock.cxx#4 $)

>  <Rbt.Library>
libRbt.so (2013.1, Build901 2013/11/27)

>  <Rbt.Parameter_File>
/export/apps/rDock/src/rDock_2013.1_src/data/scripts/dock_solv.prm

>  <Rbt.Receptor>
prm/pocket_docking_2.prm

>  <SCORE>
-47.4915

>  <SCORE.INTER>
-49.0623

>  <SCORE.INTER.CONST>
1

>  <SCORE.INTER.POLAR>
-5.74397

>  <SCORE.INTER.ROT>
2

>  <SCORE.INTER.SOLV>
19.9039

>  <SCORE.INTER.VDW>
-25.1296

>  <SCORE.INTER.norm>
-3.77402

>  <SCORE.INTRA>
1.549

>  <SCORE.INTRA.DIHEDRAL>
-0.193209

>  <SCORE.INTRA.DIHEDRAL.0>
1.76676

>  <SCORE.INTRA.POLAR>
0.472211

>  <SCORE.INTRA.POLAR.0>
-0.472211

>  <SCORE.INTRA.REPUL>
0

>  <SCORE.INTRA.REPUL.0>
0

>  <SCORE.INTRA.SOLV>
-0.059141

>  <SCORE.INTRA.SOLV.lig_0>
-22.5855

>  <SCORE.INTRA.VDW>
0.0696618

>  <SCORE.INTRA.VDW.0>
-0.733656

>  <SCORE.INTRA.norm>
0.119154

>  <SCORE.RESTR>
0.0217574

>  <SCORE.RESTR.CAVITY>
0.0217574

>  <SCORE.RESTR.norm>
0.00167364

>  <SCORE.SYSTEM>
0

>  <SCORE.SYSTEM.CONST>
0

>  <SCORE.SYSTEM.DIHEDRAL>
0

>  <SCORE.SYSTEM.SOLV>
0

>  <SCORE.SYSTEM.norm>
0

>  <SCORE.heavy>
13

>  <SCORE.norm>
-3.65319

>  <RMSD>
0.773

$$$$
lig.pdb
 OpenBabel11021811453D
libRbt.so/2013.1/901 2013/11/27
 13 14  0  0  0  0  0  0  0  0999 V2000
  -10.8129    4.5389   -7.1763 N   0  0  0  0  0  0  0  0  0  0  0  0
  -10.9515    3.7391   -8.2751 C   0  0  0  0  0  0  0  0  0  0  0  0
   -9.8841    3.2786   -8.9023 N   0  0  0  0  0  0  0  0  0  0  0  0
   -8.6137    3.5760   -8.4911 C   0  0  0  0  0  0  0  0  0  0  0  0
   -8.4121    4.4056   -7.3613 C   0  0  0  0  0  0  0  0  0  0  0  0
   -9.5713    4.8978   -6.6893 C   0  0  0  0  0  0  0  0  0  0  0  0
   -9.4682    5.6178   -5.7116 O   0  0  0  0  0  0  0  0  0  0  0  0
   -6.9599    4.5367   -7.1940 C   0  0  0  0  0  0  0  0  0  0  0  0
   -6.2226    5.3318   -6.1491 C   0  0  0  0  0  0  0  0  0  0  0  0
   -6.6097    4.8645   -4.8114 N   0  0  0  0  0  0  0  0  0  0  0  0
   -6.4073    3.8051   -8.1694 C   0  0  0  0  0  0  0  0  0  0  0  0
   -7.3790    3.2360   -8.9487 N   0  0  0  0  0  0  0  0  0  0  0  0
  -12.2049    3.4151   -8.7270 N   0  0  0  0  0  0  0  0  0  0  0  0
  1  6  1  0  0  0  0
  2  1  1  0  0  0  0
  3  4  1  0  0  0  0
  3  2  2  0  0  0  0
  4  5  2  0  0  0  0
  5  8  1  0  0  0  0
  5  6  1  0  0  0  0
  6  7  2  0  0  0  0
  8  9  1  0  0  0  0
  9 10  1  0  0  0  0
 11  8  2  0  0  0  0
 12  4  1  0  0  0  0
 12 11  1  0  0  0  0
 13  2  1  0  0  0  0
M  END
>  <CHROM.1>
58.49376621,-146.26500762,-8.77099067,4.25722596,-7.38905767,2.65119683,0.03466491
-2.10404237

>  <Name>
lig.pdb

>  <RI>
9.06885e+06

>  <Rbt.Current_Directory>
/home/itssahil/PROJECTS/Mol_Feturizer/New_Systems/rnas/2miy

>  <Rbt.Executable>
rbdock ($Id: //depot/dev/client3/rdock/2013.1/src/exe/rbdock.cxx#4 $)

>  <Rbt.Library>
libRbt.so (2013.1, Build901 2013/11/27)

>  <Rbt.Parameter_File>
/export/apps/rDock/src/rDock_2013.1_src/data/scripts/dock_solv.prm

>  <Rbt.Receptor>
prm/pocket_docking_6.prm

>  <SCORE>
-46.4243

>  <SCORE.INTER>
-47.8192

>  <SCORE.INTER.CONST>
1

>  <SCORE.INTER.POLAR>
-5.43451

>  <SCORE.INTER.ROT>
2

>  <SCORE.INTER.SOLV>
18.038

>  <SCORE.INTER.VDW>
-24.7104

>  <SCORE.INTER.norm>
-3.6784

>  <SCORE.INTRA>
1.39488

>  <SCORE.INTRA.DIHEDRAL>
-0.352053

>  <SCORE.INTRA.DIHEDRAL.0>
1.76676

>  <SCORE.INTRA.POLAR>
0.472211

>  <SCORE.INTRA.POLAR.0>
-0.472211

>  <SCORE.INTRA.REPUL>
0

>  <SCORE.INTRA.REPUL.0>
0

>  <SCORE.INTRA.SOLV>
-0.152425

>  <SCORE.INTRA.SOLV.lig_0>
-22.5855

>  <SCORE.INTRA.VDW>
0.0416

>  <SCORE.INTRA.VDW.0>
-0.733656

>  <SCORE.INTRA.norm>
0.107298

>  <SCORE.RESTR>
0

>  <SCORE.RESTR.CAVITY>
0

>  <SCORE.RESTR.norm>
0

>  <SCORE.SYSTEM>
0

>  <SCORE.SYSTEM.CONST>
0

>  <SCORE.SYSTEM.DIHEDRAL>
0

>  <SCORE.SYSTEM.SOLV>
0

>  <SCORE.SYSTEM.norm>
0

>  <SCORE.heavy>
13

>  <SCORE.norm>
-3.5711

>  <RMSD>
0.773

$$$$
lig.pdb
 OpenBabel11021811453D
libRbt.so/2013.1/901 2013/11/27
 13 14  0  0  0  0  0  0  0  0999 V2000
  -10.7832    4.6562   -7.2492 N   0  0  0  0  0  0  0  0  0  0  0  0
  -10.9023    3.9487   -8.4118 C   0  0  0  0  0  0  0  0  0  0  0  0
   -9.8260    3.4909   -9.0257 N   0  0  0  0  0  0  0  0  0  0  0  0
   -8.5653    3.7005   -8.5377 C   0  0  0  0  0  0  0  0  0  0  0  0
   -8.3837    4.4325   -7.3392 C   0  0  0  0  0  0  0  0  0  0  0  0
   -9.5524    4.9226   -6.6821 C   0  0  0  0  0  0  0  0  0  0  0  0
   -9.4664    5.5612   -5.6479 O   0  0  0  0  0  0  0  0  0  0  0  0
   -6.9369    4.4871   -7.0990 C   0  0  0  0  0  0  0  0  0  0  0  0
   -6.2179    5.1678   -5.9643 C   0  0  0  0  0  0  0  0  0  0  0  0
   -6.6774    6.5587   -5.8547 N   0  0  0  0  0  0  0  0  0  0  0  0
   -6.3690    3.8081   -8.1033 C   0  0  0  0  0  0  0  0  0  0  0  0
   -7.3252    3.3427   -8.9661 N   0  0  0  0  0  0  0  0  0  0  0  0
  -12.1451    3.7149   -8.9416 N   0  0  0  0  0  0  0  0  0  0  0  0
  1  6  1  0  0  0  0
  2  1  1  0  0  0  0
  3  4  1  0  0  0  0
  3  2  2  0  0  0  0
  4  5  2  0  0  0  0
  5  8  1  0  0  0  0
  5  6  1  0  0  0  0
  6  7  2  0  0  0  0
  8  9  1  0  0  0  0
  9 10  1  0  0  0  0
 11  8  2  0  0  0  0
 12  4  1  0  0  0  0
 12 11  1  0  0  0  0
 13  2  1  0  0  0  0
M  END
>  <CHROM.1>
-51.39701731,3.95731658,-8.74581855,4.48363574,-7.50313538,2.63776513,0.03068083
-2.23151824

>  <Name>
lig.pdb

>  <RI>
4.2128e+07

>  <Rbt.Current_Directory>
/home/itssahil/PROJECTS/Mol_Feturizer/New_Systems/rnas/2miy

>  <Rbt.Executable>
rbdock ($Id: //depot/dev/client3/rdock/2013.1/src/exe/rbdock.cxx#4 $)

>  <Rbt.Library>
libRbt.so (2013.1, Build901 2013/11/27)

>  <Rbt.Parameter_File>
/export/apps/rDock/src/rDock_2013.1_src/data/scripts/dock_solv.prm

>  <Rbt.Receptor>
prm/pocket_docking_5.prm

>  <SCORE>
-47.4161

>  <SCORE.INTER>
-48.9777

>  <SCORE.INTER.CONST>
1

>  <SCORE.INTER.POLAR>
-5.74909

>  <SCORE.INTER.ROT>
2

>  <SCORE.INTER.SOLV>
19.8838

>  <SCORE.INTER.VDW>
-25.0495

>  <SCORE.INTER.norm>
-3.76752

>  <SCORE.INTRA>
1.52366

>  <SCORE.INTRA.DIHEDRAL>
-0.214514

>  <SCORE.INTRA.DIHEDRAL.0>
1.76676

>  <SCORE.INTRA.POLAR>
0.472211

>  <SCORE.INTRA.POLAR.0>
-0.472211

>  <SCORE.INTRA.REPUL>
0

>  <SCORE.INTRA.REPUL.0>
0

>  <SCORE.INTRA.SOLV>
-0.076868

>  <SCORE.INTRA.SOLV.lig_0>
-22.5855

>  <SCORE.INTRA.VDW>
0.0638292

>  <SCORE.INTRA.VDW.0>
-0.733656

>  <SCORE.INTRA.norm>
0.117204

>  <SCORE.RESTR>
0.0379475

>  <SCORE.RESTR.CAVITY>
0.0379475

>  <SCORE.RESTR.norm>
0.00291904

>  <SCORE.SYSTEM>
0

>  <SCORE.SYSTEM.CONST>
0

>  <SCORE.SYSTEM.DIHEDRAL>
0

>  <SCORE.SYSTEM.SOLV>
0

>  <SCORE.SYSTEM.norm>
0

>  <SCORE.heavy>
13

>  <SCORE.norm>
-3.64739

>  <RMSD>
0.774

$$$$
lig.pdb
 OpenBabel11021811453D
libRbt.so/2013.1/901 2013/11/27
 13 14  0  0  0  0  0  0  0  0999 V2000
  -10.8073    4.5614   -7.1867 N   0  0  0  0  0  0  0  0  0  0  0  0
  -10.9516    3.7545   -8.2796 C   0  0  0  0  0  0  0  0  0  0  0  0
   -9.8873    3.2861   -8.9064 N   0  0  0  0  0  0  0  0  0  0  0  0
   -8.6149    3.5821   -8.5007 C   0  0  0  0  0  0  0  0  0  0  0  0
   -8.4075    4.4188   -7.3772 C   0  0  0  0  0  0  0  0  0  0  0  0
   -9.5633    4.9195   -6.7056 C   0  0  0  0  0  0  0  0  0  0  0  0
   -9.4552    5.6460   -5.7331 O   0  0  0  0  0  0  0  0  0  0  0  0
   -6.9545    4.5464   -7.2147 C   0  0  0  0  0  0  0  0  0  0  0  0
   -6.2117    5.3463   -6.1773 C   0  0  0  0  0  0  0  0  0  0  0  0
   -6.6590    4.9481   -4.8360 N   0  0  0  0  0  0  0  0  0  0  0  0
   -6.4068    3.8062   -8.1865 C   0  0  0  0  0  0  0  0  0  0  0  0
   -7.3825    3.2349   -8.9593 N   0  0  0  0  0  0  0  0  0  0  0  0
  -12.2072    3.4315   -8.7258 N   0  0  0  0  0  0  0  0  0  0  0  0
  1  6  1  0  0  0  0
  2  1  1  0  0  0  0
  3  4  1  0  0  0  0
  3  2  2  0  0  0  0
  4  5  2  0  0  0  0
  5  8  1  0  0  0  0
  5  6  1  0  0  0  0
  6  7  2  0  0  0  0
  8  9  1  0  0  0  0
  9 10  1  0  0  0  0
 11  8  2  0  0  0  0
 12  4  1  0  0  0  0
 12 11  1  0  0  0  0
 13  2  1  0  0  0  0
M  END
>  <CHROM.1>
54.95129639,-150.03416722,-8.77275584,4.27697109,-7.40304924,2.65056968,0.03280044
-2.11383596

>  <Name>
lig.pdb

>  <RI>
9.06885e+06

>  <Rbt.Current_Directory>
/home/itssahil/PROJECTS/Mol_Feturizer/New_Systems/rnas/2miy

>  <Rbt.Executable>
rbdock ($Id: //depot/dev/client3/rdock/2013.1/src/exe/rbdock.cxx#4 $)

>  <Rbt.Library>
libRbt.so (2013.1, Build901 2013/11/27)

>  <Rbt.Parameter_File>
/export/apps/rDock/src/rDock_2013.1_src/data/scripts/dock_solv.prm

>  <Rbt.Receptor>
prm/pocket_docking_6.prm

>  <SCORE>
-46.4428

>  <SCORE.INTER>
-47.8751

>  <SCORE.INTER.CONST>
1

>  <SCORE.INTER.POLAR>
-5.48138

>  <SCORE.INTER.ROT>
2

>  <SCORE.INTER.SOLV>
18.1077

>  <SCORE.INTER.VDW>
-24.6147

>  <SCORE.INTER.norm>
-3.6827

>  <SCORE.INTRA>
1.43236

>  <SCORE.INTRA.DIHEDRAL>
-0.316089

>  <SCORE.INTRA.DIHEDRAL.0>
1.76676

>  <SCORE.INTRA.POLAR>
0.472211

>  <SCORE.INTRA.POLAR.0>
-0.472211

>  <SCORE.INTRA.REPUL>
0

>  <SCORE.INTRA.REPUL.0>
0

>  <SCORE.INTRA.SOLV>
-0.111796

>  <SCORE.INTRA.SOLV.lig_0>
-22.5855

>  <SCORE.INTRA.VDW>
0.0407862

>  <SCORE.INTRA.VDW.0>
-0.733656

>  <SCORE.INTRA.norm>
0.110182

>  <SCORE.RESTR>
0

>  <SCORE.RESTR.CAVITY>
0

>  <SCORE.RESTR.norm>
0

>  <SCORE.SYSTEM>
0

>  <SCORE.SYSTEM.CONST>
0

>  <SCORE.SYSTEM.DIHEDRAL>
0

>  <SCORE.SYSTEM.SOLV>
0

>  <SCORE.SYSTEM.norm>
0

>  <SCORE.heavy>
13

>  <SCORE.norm>
-3.57252

>  <RMSD>
0.774

$$$$
lig.pdb
 OpenBabel11021811453D
libRbt.so/2013.1/901 2013/11/27
 13 14  0  0  0  0  0  0  0  0999 V2000
  -10.8007    4.5713   -7.1775 N   0  0  0  0  0  0  0  0  0  0  0  0
  -10.9401    3.7755   -8.2792 C   0  0  0  0  0  0  0  0  0  0  0  0
   -9.8731    3.3150   -8.9071 N   0  0  0  0  0  0  0  0  0  0  0  0
   -8.6024    3.6087   -8.4941 C   0  0  0  0  0  0  0  0  0  0  0  0
   -8.4000    4.4340   -7.3614 C   0  0  0  0  0  0  0  0  0  0  0  0
   -9.5588    4.9262   -6.6885 C   0  0  0  0  0  0  0  0  0  0  0  0
   -9.4551    5.6427   -5.7083 O   0  0  0  0  0  0  0  0  0  0  0  0
   -6.9478    4.5619   -7.1926 C   0  0  0  0  0  0  0  0  0  0  0  0
   -6.2096    5.3521   -6.1445 C   0  0  0  0  0  0  0  0  0  0  0  0
   -6.6379    4.9174   -4.8084 N   0  0  0  0  0  0  0  0  0  0  0  0
   -6.3958    3.8326   -8.1701 C   0  0  0  0  0  0  0  0  0  0  0  0
   -7.3680    3.2679   -8.9520 N   0  0  0  0  0  0  0  0  0  0  0  0
  -12.1937    3.4553   -8.7329 N   0  0  0  0  0  0  0  0  0  0  0  0
  1  6  1  0  0  0  0
  2  1  1  0  0  0  0
  3  4  1  0  0  0  0
  3  2  2  0  0  0  0
  4  5  2  0  0  0  0
  5  8  1  0  0  0  0
  5  6  1  0  0  0  0
  6  7  2  0  0  0  0
  8  9  1  0  0  0  0
  9 10  1  0  0  0  0
 11  8  2  0  0  0  0
 12  4  1  0  0  0  0
 12 11  1  0  0  0  0
 13  2  1  0  0  0  0
M  END
>  <CHROM.1>
56.27300169,-150.83375690,-8.76287015,4.28984762,-7.38983583,2.64857556,0.03447661
-2.10226870

>  <Name>
lig.pdb

>  <RI>
1.82164e+07

>  <Rbt.Current_Directory>
/home/itssahil/PROJECTS/Mol_Feturizer/New_Systems/rnas/2miy

>  <Rbt.Executable>
rbdock ($Id: //depot/dev/client3/rdock/2013.1/src/exe/rbdock.cxx#4 $)

>  <Rbt.Library>
libRbt.so (2013.1, Build901 2013/11/27)

>  <Rbt.Parameter_File>
/export/apps/rDock/src/rDock_2013.1_src/data/scripts/dock_solv.prm

>  <Rbt.Receptor>
prm/blind_docking_80.prm

>  <SCORE>
-46.3045

>  <SCORE.INTER>
-47.7776

>  <SCORE.INTER.CONST>
1

>  <SCORE.INTER.POLAR>
-5.4614

>  <SCORE.INTER.ROT>
2

>  <SCORE.INTER.SOLV>
18.0704

>  <SCORE.INTER.VDW>
-24.6039

>  <SCORE.INTER.norm>
-3.6752

>  <SCORE.INTRA>
1.41867

>  <SCORE.INTRA.DIHEDRAL>
-0.334126

>  <SCORE.INTRA.DIHEDRAL.0>
1.76676

>  <SCORE.INTRA.POLAR>
0.472211

>  <SCORE.INTRA.POLAR.0>
-0.472211

>  <SCORE.INTRA.REPUL>
0

>  <SCORE.INTRA.REPUL.0>
0

>  <SCORE.INTRA.SOLV>
-0.1268

>  <SCORE.INTRA.SOLV.lig_0>
-22.5855

>  <SCORE.INTRA.VDW>
0.0436107

>  <SCORE.INTRA.VDW.0>
-0.733656

>  <SCORE.INTRA.norm>
0.109128

>  <SCORE.RESTR>
0.0544397

>  <SCORE.RESTR.CAVITY>
0.0544397

>  <SCORE.RESTR.norm>
0.00418767

>  <SCORE.SYSTEM>
0

>  <SCORE.SYSTEM.CONST>
0

>  <SCORE.SYSTEM.DIHEDRAL>
0

>  <SCORE.SYSTEM.SOLV>
0

>  <SCORE.SYSTEM.norm>
0

>  <SCORE.heavy>
13

>  <SCORE.norm>
-3.56189

>  <RMSD>
0.778

$$$$
lig.pdb
 OpenBabel11021811453D
libRbt.so/2013.1/901 2013/11/27
 13 14  0  0  0  0  0  0  0  0999 V2000
  -10.7826    4.6607   -7.2481 N   0  0  0  0  0  0  0  0  0  0  0  0
  -10.9054    3.9387   -8.4013 C   0  0  0  0  0  0  0  0  0  0  0  0
   -9.8308    3.4763   -9.0148 N   0  0  0  0  0  0  0  0  0  0  0  0
   -8.5683    3.6954   -8.5356 C   0  0  0  0  0  0  0  0  0  0  0  0
   -8.3829    4.4426   -7.3471 C   0  0  0  0  0  0  0  0  0  0  0  0
   -9.5498    4.9375   -6.6904 C   0  0  0  0  0  0  0  0  0  0  0  0
   -9.4605    5.5891   -5.6645 O   0  0  0  0  0  0  0  0  0  0  0  0
   -6.9351    4.5042   -7.1147 C   0  0  0  0  0  0  0  0  0  0  0  0
   -6.2125    5.2008   -5.9921 C   0  0  0  0  0  0  0  0  0  0  0  0
   -6.7066    6.5786   -5.8692 N   0  0  0  0  0  0  0  0  0  0  0  0
   -6.3702    3.8144   -8.1134 C   0  0  0  0  0  0  0  0  0  0  0  0
   -7.3293    3.3357   -8.9657 N   0  0  0  0  0  0  0  0  0  0  0  0
  -12.1500    3.6949   -8.9221 N   0  0  0  0  0  0  0  0  0  0  0  0
  1  6  1  0  0  0  0
  2  1  1  0  0  0  0
  3  4  1  0  0  0  0
  3  2  2  0  0  0  0
  4  5  2  0  0  0  0
  5  8  1  0  0  0  0
  5  6  1  0  0  0  0
  6  7  2  0  0  0  0
  8  9  1  0  0  0  0
  9 10  1  0  0  0  0
 11  8  2  0  0  0  0
 12  4  1  0  0  0  0
 12 11  1  0  0  0  0
 13  2  1  0  0  0  0
M  END
>  <CHROM.1>
-49.58143175,4.57636790,-8.74888814,4.48951813,-7.50729772,2.63770847,0.02699487
-2.24198139

>  <Name>
lig.pdb

>  <RI>
1.51961e+07

>  <Rbt.Current_Directory>
/home/itssahil/PROJECTS/Mol_Feturizer/New_Systems/rnas/2miy

>  <Rbt.Executable>
rbdock ($Id: //depot/dev/client3/rdock/2013.1/src/exe/rbdock.cxx#4 $)

>  <Rbt.Library>
libRbt.so (2013.1, Build901 2013/11/27)

>  <Rbt.Parameter_File>
/export/apps/rDock/src/rDock_2013.1_src/data/scripts/dock_solv.prm

>  <Rbt.Receptor>
prm/pocket_docking_3.prm

>  <SCORE>
-47.4758

>  <SCORE.INTER>
-49.0787

>  <SCORE.INTER.CONST>
1

>  <SCORE.INTER.POLAR>
-5.75155

>  <SCORE.INTER.ROT>
2

>  <SCORE.INTER.SOLV>
19.9086

>  <SCORE.INTER.VDW>
-25.1168

>  <SCORE.INTER.norm>
-3.77528

>  <SCORE.INTRA>
1.56733

>  <SCORE.INTRA.DIHEDRAL>
-0.164506

>  <SCORE.INTRA.DIHEDRAL.0>
1.76676

>  <SCORE.INTRA.POLAR>
0.472211

>  <SCORE.INTRA.POLAR.0>
-0.472211

>  <SCORE.INTRA.REPUL>
0

>  <SCORE.INTRA.REPUL.0>
0

>  <SCORE.INTRA.SOLV>
-0.0565443

>  <SCORE.INTRA.SOLV.lig_0>
-22.5855

>  <SCORE.INTRA.VDW>
0.0723359

>  <SCORE.INTRA.VDW.0>
-0.733656

>  <SCORE.INTRA.norm>
0.120564

>  <SCORE.RESTR>
0.0355774

>  <SCORE.RESTR.CAVITY>
0.0355774

>  <SCORE.RESTR.norm>
0.00273672

>  <SCORE.SYSTEM>
0

>  <SCORE.SYSTEM.CONST>
0

>  <SCORE.SYSTEM.DIHEDRAL>
0

>  <SCORE.SYSTEM.SOLV>
0

>  <SCORE.SYSTEM.norm>
0

>  <SCORE.heavy>
13

>  <SCORE.norm>
-3.65198

>  <RMSD>
0.778

$$$$
lig.pdb
 OpenBabel11021811453D
libRbt.so/2013.1/901 2013/11/27
 13 14  0  0  0  0  0  0  0  0999 V2000
  -10.7795    4.6744   -7.2549 N   0  0  0  0  0  0  0  0  0  0  0  0
  -10.8987    3.9743   -8.4220 C   0  0  0  0  0  0  0  0  0  0  0  0
   -9.8228    3.5149   -9.0355 N   0  0  0  0  0  0  0  0  0  0  0  0
   -8.5625    3.7157   -8.5428 C   0  0  0  0  0  0  0  0  0  0  0  0
   -8.3808    4.4399   -7.3396 C   0  0  0  0  0  0  0  0  0  0  0  0
   -9.5490    4.9317   -6.6830 C   0  0  0  0  0  0  0  0  0  0  0  0
   -9.4629    5.5640   -5.6448 O   0  0  0  0  0  0  0  0  0  0  0  0
   -6.9344    4.4863   -7.0951 C   0  0  0  0  0  0  0  0  0  0  0  0
   -6.2154    5.1571   -5.9545 C   0  0  0  0  0  0  0  0  0  0  0  0
   -6.6875    6.5417   -5.8217 N   0  0  0  0  0  0  0  0  0  0  0  0
   -6.3669    3.8104   -8.1017 C   0  0  0  0  0  0  0  0  0  0  0  0
   -7.3229    3.3544   -8.9698 N   0  0  0  0  0  0  0  0  0  0  0  0
  -12.1410    3.7494   -8.9566 N   0  0  0  0  0  0  0  0  0  0  0  0
  1  6  1  0  0  0  0
  2  1  1  0  0  0  0
  3  4  1  0  0  0  0
  3  2  2  0  0  0  0
  4  5  2  0  0  0  0
  5  8  1  0  0  0  0
  5  6  1  0  0  0  0
  6  7  2  0  0  0  0
  8  9  1  0  0  0  0
  9 10  1  0  0  0  0
 11  8  2  0  0  0  0
 12  4  1  0  0  0  0
 12 11  1  0  0  0  0
 13  2  1  0  0  0  0
M  END
>  <CHROM.1>
-50.31617691,3.40123607,-8.74398003,4.49299936,-7.50271429,2.63710236,0.03704776
-2.22464003

>  <Name>
lig.pdb

>  <RI>
2.68696e+07

>  <Rbt.Current_Directory>
/home/itssahil/PROJECTS/Mol_Feturizer/New_Systems/rnas/2miy

>  <Rbt.Executable>
rbdock ($Id: //depot/dev/client3/rdock/2013.1/src/exe/rbdock.cxx#4 $)

>  <Rbt.Library>
libRbt.so (2013.1, Build901 2013/11/27)

>  <Rbt.Parameter_File>
/export/apps/rDock/src/rDock_2013.1_src/data/scripts/dock_solv.prm

>  <Rbt.Receptor>
prm/pocket_docking_4.prm

>  <SCORE>
-47.2828

>  <SCORE.INTER>
-48.8578

>  <SCORE.INTER.CONST>
1

>  <SCORE.INTER.POLAR>
-5.74215

>  <SCORE.INTER.ROT>
2

>  <SCORE.INTER.SOLV>
19.8398

>  <SCORE.INTER.VDW>
-24.978

>  <SCORE.INTER.norm>
-3.75829

>  <SCORE.INTRA>
1.54767

>  <SCORE.INTRA.DIHEDRAL>
-0.187229

>  <SCORE.INTRA.DIHEDRAL.0>
1.76676

>  <SCORE.INTRA.POLAR>
0.472211

>  <SCORE.INTRA.POLAR.0>
-0.472211

>  <SCORE.INTRA.REPUL>
0

>  <SCORE.INTRA.REPUL.0>
0

>  <SCORE.INTRA.SOLV>
-0.0648595

>  <SCORE.INTRA.SOLV.lig_0>
-22.5855

>  <SCORE.INTRA.VDW>
0.0682002

>  <SCORE.INTRA.VDW.0>
-0.733656

>  <SCORE.INTRA.norm>
0.119052

>  <SCORE.RESTR>
0.0273594

>  <SCORE.RESTR.CAVITY>
0.0273594

>  <SCORE.RESTR.norm>
0.00210457

>  <SCORE.SYSTEM>
0

>  <SCORE.SYSTEM.CONST>
0

>  <SCORE.SYSTEM.DIHEDRAL>
0

>  <SCORE.SYSTEM.SOLV>
0

>  <SCORE.SYSTEM.norm>
0

>  <SCORE.heavy>
13

>  <SCORE.norm>
-3.63714

>  <RMSD>
0.778

$$$$
lig.pdb
 OpenBabel11021811453D
libRbt.so/2013.1/901 2013/11/27
 13 14  0  0  0  0  0  0  0  0999 V2000
  -10.8014    4.5850   -7.2023 N   0  0  0  0  0  0  0  0  0  0  0  0
  -10.9442    3.7763   -8.2941 C   0  0  0  0  0  0  0  0  0  0  0  0
   -9.8791    3.3003   -8.9138 N   0  0  0  0  0  0  0  0  0  0  0  0
   -8.6073    3.5900   -8.5015 C   0  0  0  0  0  0  0  0  0  0  0  0
   -8.4015    4.4281   -7.3788 C   0  0  0  0  0  0  0  0  0  0  0  0
   -9.5581    4.9371   -6.7149 C   0  0  0  0  0  0  0  0  0  0  0  0
   -9.4514    5.6651   -5.7436 O   0  0  0  0  0  0  0  0  0  0  0  0
   -6.9487    4.5477   -7.2084 C   0  0  0  0  0  0  0  0  0  0  0  0
   -6.2072    5.3457   -6.1686 C   0  0  0  0  0  0  0  0  0  0  0  0
   -6.7031    4.9928   -4.8317 N   0  0  0  0  0  0  0  0  0  0  0  0
   -6.3998    3.8021   -8.1753 C   0  0  0  0  0  0  0  0  0  0  0  0
   -7.3744    3.2346   -8.9523 N   0  0  0  0  0  0  0  0  0  0  0  0
  -12.1990    3.4595   -8.7467 N   0  0  0  0  0  0  0  0  0  0  0  0
  1  6  1  0  0  0  0
  2  1  1  0  0  0  0
  3  4  1  0  0  0  0
  3  2  2  0  0  0  0
  4  5  2  0  0  0  0
  5  8  1  0  0  0  0
  5  6  1  0  0  0  0
  6  7  2  0  0  0  0
  8  9  1  0  0  0  0
  9 10  1  0  0  0  0
 11  8  2  0  0  0  0
 12  4  1  0  0  0  0
 12 11  1  0  0  0  0
 13  2  1  0  0  0  0
M  END
>  <CHROM.1>
52.65810734,-152.95330098,-8.77098090,4.29197448,-7.40666502,2.64589489,0.03857731
-2.11819763

>  <Name>
lig.pdb

>  <RI>
0

>  <Rbt.Current_Directory>
/home/itssahil/PROJECTS/Mol_Feturizer/New_Systems/rnas/2miy

>  <Rbt.Executable>
rbdock ($Id: //depot/dev/client3/rdock/2013.1/src/exe/rbdock.cxx#4 $)

>  <Rbt.Library>
libRbt.so (2013.1, Build901 2013/11/27)

>  <Rbt.Parameter_File>
/export/apps/rDock/src/rDock_2013.1_src/data/scripts/dock_solv.prm

>  <Rbt.Receptor>
prm/pocket_docking_2.prm

>  <SCORE>
-46.4092

>  <SCORE.INTER>
-47.8911

>  <SCORE.INTER.CONST>
1

>  <SCORE.INTER.POLAR>
-5.51777

>  <SCORE.INTER.ROT>
2

>  <SCORE.INTER.SOLV>
18.1111

>  <SCORE.INTER.VDW>
-24.5052

>  <SCORE.INTER.norm>
-3.68393

>  <SCORE.INTRA>
1.48173

>  <SCORE.INTRA.DIHEDRAL>
-0.272589

>  <SCORE.INTRA.DIHEDRAL.0>
1.76676

>  <SCORE.INTRA.POLAR>
0.472211

>  <SCORE.INTRA.POLAR.0>
-0.472211

>  <SCORE.INTRA.REPUL>
0

>  <SCORE.INTRA.REPUL.0>
0

>  <SCORE.INTRA.SOLV>
-0.0858558

>  <SCORE.INTRA.SOLV.lig_0>
-22.5855

>  <SCORE.INTRA.VDW>
0.055433

>  <SCORE.INTRA.VDW.0>
-0.733656

>  <SCORE.INTRA.norm>
0.113979

>  <SCORE.RESTR>
0.000210824

>  <SCORE.RESTR.CAVITY>
0.000210824

>  <SCORE.RESTR.norm>
1.62172e-05

>  <SCORE.SYSTEM>
0

>  <SCORE.SYSTEM.CONST>
0

>  <SCORE.SYSTEM.DIHEDRAL>
0

>  <SCORE.SYSTEM.SOLV>
0

>  <SCORE.SYSTEM.norm>
0

>  <SCORE.heavy>
13

>  <SCORE.norm>
-3.56994

>  <RMSD>
0.779

$$$$
lig.pdb
 OpenBabel11021811453D
libRbt.so/2013.1/901 2013/11/27
 13 14  0  0  0  0  0  0  0  0999 V2000
  -10.8062    4.5727   -7.1857 N   0  0  0  0  0  0  0  0  0  0  0  0
  -10.9497    3.7606   -8.2749 C   0  0  0  0  0  0  0  0  0  0  0  0
   -9.8850    3.2883   -8.8980 N   0  0  0  0  0  0  0  0  0  0  0  0
   -8.6128    3.5852   -8.4920 C   0  0  0  0  0  0  0  0  0  0  0  0
   -8.4063    4.4271   -7.3723 C   0  0  0  0  0  0  0  0  0  0  0  0
   -9.5625    4.9321   -6.7046 C   0  0  0  0  0  0  0  0  0  0  0  0
   -9.4551    5.6631   -5.7355 O   0  0  0  0  0  0  0  0  0  0  0  0
   -6.9533    4.5542   -7.2084 C   0  0  0  0  0  0  0  0  0  0  0  0
   -6.2113    5.3584   -6.1739 C   0  0  0  0  0  0  0  0  0  0  0  0
   -6.6369    4.9441   -4.8305 N   0  0  0  0  0  0  0  0  0  0  0  0
   -6.4050    3.8089   -8.1759 C   0  0  0  0  0  0  0  0  0  0  0  0
   -7.3802    3.2348   -8.9472 N   0  0  0  0  0  0  0  0  0  0  0  0
  -12.2050    3.4365   -8.7212 N   0  0  0  0  0  0  0  0  0  0  0  0
  1  6  1  0  0  0  0
  2  1  1  0  0  0  0
  3  4  1  0  0  0  0
  3  2  2  0  0  0  0
  4  5  2  0  0  0  0
  5  8  1  0  0  0  0
  5  6  1  0  0  0  0
  6  7  2  0  0  0  0
  8  9  1  0  0  0  0
  9 10  1  0  0  0  0
 11  8  2  0  0  0  0
 12  4  1  0  0  0  0
 12 11  1  0  0  0  0
 13  2  1  0  0  0  0
M  END
>  <CHROM.1>
56.32048933,28.22751273,-8.76954911,4.28335807,-7.39785080,2.65154582,0.03533656
-2.11745220

>  <Name>
lig.pdb

>  <RI>
3.47783e+07

>  <Rbt.Current_Directory>
/home/itssahil/PROJECTS/Mol_Feturizer/New_Systems/rnas/2miy

>  <Rbt.Executable>
rbdock ($Id: //depot/dev/client3/rdock/2013.1/src/exe/rbdock.cxx#4 $)

>  <Rbt.Library>
libRbt.so (2013.1, Build901 2013/11/27)

>  <Rbt.Parameter_File>
/export/apps/rDock/src/rDock_2013.1_src/data/scripts/dock_solv.prm

>  <Rbt.Receptor>
prm/pocket_docking_8.prm

>  <SCORE>
-46.4509

>  <SCORE.INTER>
-47.9023

>  <SCORE.INTER.CONST>
1

>  <SCORE.INTER.POLAR>
-5.5158

>  <SCORE.INTER.ROT>
2

>  <SCORE.INTER.SOLV>
18.1481

>  <SCORE.INTER.VDW>
-24.5315

>  <SCORE.INTER.norm>
-3.68479

>  <SCORE.INTRA>
1.45141

>  <SCORE.INTRA.DIHEDRAL>
-0.274054

>  <SCORE.INTRA.DIHEDRAL.0>
1.76676

>  <SCORE.INTRA.POLAR>
0.472211

>  <SCORE.INTRA.POLAR.0>
-0.472211

>  <SCORE.INTRA.REPUL>
0

>  <SCORE.INTRA.REPUL.0>
0

>  <SCORE.INTRA.SOLV>
-0.124857

>  <SCORE.INTRA.SOLV.lig_0>
-22.5855

>  <SCORE.INTRA.VDW>
0.0453454

>  <SCORE.INTRA.VDW.0>
-0.733656

>  <SCORE.INTRA.norm>
0.111647

>  <SCORE.RESTR>
0

>  <SCORE.RESTR.CAVITY>
0

>  <SCORE.RESTR.norm>
0

>  <SCORE.SYSTEM>
0

>  <SCORE.SYSTEM.CONST>
0

>  <SCORE.SYSTEM.DIHEDRAL>
0

>  <SCORE.SYSTEM.SOLV>
0

>  <SCORE.SYSTEM.norm>
0

>  <SCORE.heavy>
13

>  <SCORE.norm>
-3.57314

>  <RMSD>
0.780

$$$$
lig.pdb
 OpenBabel11021811453D
libRbt.so/2013.1/901 2013/11/27
 13 14  0  0  0  0  0  0  0  0999 V2000
  -10.7813    4.6566   -7.2489 N   0  0  0  0  0  0  0  0  0  0  0  0
  -10.9070    3.9335   -8.4012 C   0  0  0  0  0  0  0  0  0  0  0  0
   -9.8347    3.4611   -9.0109 N   0  0  0  0  0  0  0  0  0  0  0  0
   -8.5718    3.6706   -8.5287 C   0  0  0  0  0  0  0  0  0  0  0  0
   -8.3833    4.4183   -7.3410 C   0  0  0  0  0  0  0  0  0  0  0  0
   -9.5478    4.9241   -6.6884 C   0  0  0  0  0  0  0  0  0  0  0  0
   -9.4559    5.5768   -5.6634 O   0  0  0  0  0  0  0  0  0  0  0  0
   -6.9357    4.4683   -7.1048 C   0  0  0  0  0  0  0  0  0  0  0  0
   -6.2103    5.1608   -5.9815 C   0  0  0  0  0  0  0  0  0  0  0  0
   -6.6401    6.5636   -5.9094 N   0  0  0  0  0  0  0  0  0  0  0  0
   -6.3738    3.7720   -8.1007 C   0  0  0  0  0  0  0  0  0  0  0  0
   -7.3346    3.2998   -8.9547 N   0  0  0  0  0  0  0  0  0  0  0  0
  -12.1523    3.6992   -8.9249 N   0  0  0  0  0  0  0  0  0  0  0  0
  1  6  1  0  0  0  0
  2  1  1  0  0  0  0
  3  4  1  0  0  0  0
  3  2  2  0  0  0  0
  4  5  2  0  0  0  0
  5  8  1  0  0  0  0
  5  6  1  0  0  0  0
  6  7  2  0  0  0  0
  8  9  1  0  0  0  0
  9 10  1  0  0  0  0
 11  8  2  0  0  0  0
 12  4  1  0  0  0  0
 12 11  1  0  0  0  0
 13  2  1  0  0  0  0
M  END
>  <CHROM.1>
-52.63946768,-174.01591875,-8.74361429,4.46984957,-7.50654589,2.64450167
0.03264337,-2.24699908

>  <Name>
lig.pdb

>  <RI>
9.06885e+06

>  <Rbt.Current_Directory>
/home/itssahil/PROJECTS/Mol_Feturizer/New_Systems/rnas/2miy

>  <Rbt.Executable>
rbdock ($Id: //depot/dev/client3/rdock/2013.1/src/exe/rbdock.cxx#4 $)

>  <Rbt.Library>
libRbt.so (2013.1, Build901 2013/11/27)

>  <Rbt.Parameter_File>
/export/apps/rDock/src/rDock_2013.1_src/data/scripts/dock_solv.prm

>  <Rbt.Receptor>
prm/pocket_docking_6.prm

>  <SCORE>
-47.2165

>  <SCORE.INTER>
-48.8364

>  <SCORE.INTER.CONST>
1

>  <SCORE.INTER.POLAR>
-5.82078

>  <SCORE.INTER.ROT>
2

>  <SCORE.INTER.SOLV>
19.9915

>  <SCORE.INTER.VDW>
-24.7522

>  <SCORE.INTER.norm>
-3.75665

>  <SCORE.INTRA>
1.48983

>  <SCORE.INTRA.DIHEDRAL>
-0.260005

>  <SCORE.INTRA.DIHEDRAL.0>
1.76676

>  <SCORE.INTRA.POLAR>
0.472211

>  <SCORE.INTRA.POLAR.0>
-0.472211

>  <SCORE.INTRA.REPUL>
0

>  <SCORE.INTRA.REPUL.0>
0

>  <SCORE.INTRA.SOLV>
-0.0888142

>  <SCORE.INTRA.SOLV.lig_0>
-22.5855

>  <SCORE.INTRA.VDW>
0.0587181

>  <SCORE.INTRA.VDW.0>
-0.733656

>  <SCORE.INTRA.norm>
0.114602

>  <SCORE.RESTR>
0.130129

>  <SCORE.RESTR.CAVITY>
0.130129

>  <SCORE.RESTR.norm>
0.0100099

>  <SCORE.SYSTEM>
0

>  <SCORE.SYSTEM.CONST>
0

>  <SCORE.SYSTEM.DIHEDRAL>
0

>  <SCORE.SYSTEM.SOLV>
0

>  <SCORE.SYSTEM.norm>
0

>  <SCORE.heavy>
13

>  <SCORE.norm>
-3.63204

>  <RMSD>
0.781

$$$$
lig.pdb
 OpenBabel11021811453D
libRbt.so/2013.1/901 2013/11/27
 13 14  0  0  0  0  0  0  0  0999 V2000
  -10.8015    4.5745   -7.1830 N   0  0  0  0  0  0  0  0  0  0  0  0
  -10.9409    3.7775   -8.2837 C   0  0  0  0  0  0  0  0  0  0  0  0
   -9.8739    3.3146   -8.9099 N   0  0  0  0  0  0  0  0  0  0  0  0
   -8.6032    3.6069   -8.4958 C   0  0  0  0  0  0  0  0  0  0  0  0
   -8.4009    4.4334   -7.3639 C   0  0  0  0  0  0  0  0  0  0  0  0
   -9.5597    4.9282   -6.6930 C   0  0  0  0  0  0  0  0  0  0  0  0
   -9.4559    5.6458   -5.7136 O   0  0  0  0  0  0  0  0  0  0  0  0
   -6.9486    4.5593   -7.1937 C   0  0  0  0  0  0  0  0  0  0  0  0
   -6.2104    5.3498   -6.1458 C   0  0  0  0  0  0  0  0  0  0  0  0
   -6.6306    4.9077   -4.8095 N   0  0  0  0  0  0  0  0  0  0  0  0
   -6.3966    3.8279   -8.1696 C   0  0  0  0  0  0  0  0  0  0  0  0
   -7.3688    3.2637   -8.9519 N   0  0  0  0  0  0  0  0  0  0  0  0
  -12.1945    3.4586   -8.7385 N   0  0  0  0  0  0  0  0  0  0  0  0
  1  6  1  0  0  0  0
  2  1  1  0  0  0  0
  3  4  1  0  0  0  0
  3  2  2  0  0  0  0
  4  5  2  0  0  0  0
  5  8  1  0  0  0  0
  5  6  1  0  0  0  0
  6  7  2  0  0  0  0
  8  9  1  0  0  0  0
  9 10  1  0  0  0  0
 11  8  2  0  0  0  0
 12  4  1  0  0  0  0
 12 11  1  0  0  0  0
 13  2  1  0  0  0  0
M  END
>  <CHROM.1>
56.85910942,-149.57751115,-8.76292017,4.28884504,-7.39260759,2.64913793,0.03691344
-2.10313394

>  <Name>
lig.pdb

>  <RI>
1.17462e+07

>  <Rbt.Current_Directory>
/home/itssahil/PROJECTS/Mol_Feturizer/New_Systems/rnas/2miy

>  <Rbt.Executable>
rbdock ($Id: //depot/dev/client3/rdock/2013.1/src/exe/rbdock.cxx#4 $)

>  <Rbt.Library>
libRbt.so (2013.1, Build901 2013/11/27)

>  <Rbt.Parameter_File>
/export/apps/rDock/src/rDock_2013.1_src/data/scripts/dock_solv.prm

>  <Rbt.Receptor>
prm/blind_docking_40.prm

>  <SCORE>
-46.3145

>  <SCORE.INTER>
-47.7834

>  <SCORE.INTER.CONST>
1

>  <SCORE.INTER.POLAR>
-5.47251

>  <SCORE.INTER.ROT>
2

>  <SCORE.INTER.SOLV>
18.0832

>  <SCORE.INTER.VDW>
-24.575

>  <SCORE.INTER.norm>
-3.67565

>  <SCORE.INTRA>
1.41135

>  <SCORE.INTRA.DIHEDRAL>
-0.340448

>  <SCORE.INTRA.DIHEDRAL.0>
1.76676

>  <SCORE.INTRA.POLAR>
0.472211

>  <SCORE.INTRA.POLAR.0>
-0.472211

>  <SCORE.INTRA.REPUL>
0

>  <SCORE.INTRA.REPUL.0>
0

>  <SCORE.INTRA.SOLV>
-0.133551

>  <SCORE.INTRA.SOLV.lig_0>
-22.5855

>  <SCORE.INTRA.VDW>
0.0428314

>  <SCORE.INTRA.VDW.0>
-0.733656

>  <SCORE.INTRA.norm>
0.108565

>  <SCORE.RESTR>
0.0575552

>  <SCORE.RESTR.CAVITY>
0.0575552

>  <SCORE.RESTR.norm>
0.00442732

>  <SCORE.SYSTEM>
0

>  <SCORE.SYSTEM.CONST>
0

>  <SCORE.SYSTEM.DIHEDRAL>
0

>  <SCORE.SYSTEM.SOLV>
0

>  <SCORE.SYSTEM.norm>
0

>  <SCORE.heavy>
13

>  <SCORE.norm>
-3.56266

>  <RMSD>
0.782

$$$$
lig.pdb
 OpenBabel11021811453D
libRbt.so/2013.1/901 2013/11/27
 13 14  0  0  0  0  0  0  0  0999 V2000
  -10.8024    4.5718   -7.2092 N   0  0  0  0  0  0  0  0  0  0  0  0
  -10.9397    3.7654   -8.3033 C   0  0  0  0  0  0  0  0  0  0  0  0
   -9.8716    3.2929   -8.9203 N   0  0  0  0  0  0  0  0  0  0  0  0
   -8.6018    3.5841   -8.5029 C   0  0  0  0  0  0  0  0  0  0  0  0
   -8.4015    4.4200   -7.3776 C   0  0  0  0  0  0  0  0  0  0  0  0
   -9.5615    4.9252   -6.7166 C   0  0  0  0  0  0  0  0  0  0  0  0
   -9.4596    5.6512   -5.7432 O   0  0  0  0  0  0  0  0  0  0  0  0
   -6.9496    4.5420   -7.2017 C   0  0  0  0  0  0  0  0  0  0  0  0
   -6.2133    5.3390   -6.1575 C   0  0  0  0  0  0  0  0  0  0  0  0
   -6.6782    4.9463   -4.8206 N   0  0  0  0  0  0  0  0  0  0  0  0
   -6.3959    3.7997   -8.1684 C   0  0  0  0  0  0  0  0  0  0  0  0
   -7.3666    3.2322   -8.9501 N   0  0  0  0  0  0  0  0  0  0  0  0
  -12.1924    3.4472   -8.7611 N   0  0  0  0  0  0  0  0  0  0  0  0
  1  6  1  0  0  0  0
  2  1  1  0  0  0  0
  3  4  1  0  0  0  0
  3  2  2  0  0  0  0
  4  5  2  0  0  0  0
  5  8  1  0  0  0  0
  5  6  1  0  0  0  0
  6  7  2  0  0  0  0
  8  9  1  0  0  0  0
  9 10  1  0  0  0  0
 11  8  2  0  0  0  0
 12  4  1  0  0  0  0
 12 11  1  0  0  0  0
 13  2  1  0  0  0  0
M  END
>  <CHROM.1>
54.73253924,-152.58738387,-8.76743984,4.27989214,-7.40677485,2.64435451,0.04056851
-2.11374394

>  <Name>
lig.pdb

>  <RI>
3.47783e+07

>  <Rbt.Current_Directory>
/home/itssahil/PROJECTS/Mol_Feturizer/New_Systems/rnas/2miy

>  <Rbt.Executable>
rbdock ($Id: //depot/dev/client3/rdock/2013.1/src/exe/rbdock.cxx#4 $)

>  <Rbt.Library>
libRbt.so (2013.1, Build901 2013/11/27)

>  <Rbt.Parameter_File>
/export/apps/rDock/src/rDock_2013.1_src/data/scripts/dock_solv.prm

>  <Rbt.Receptor>
prm/pocket_docking_8.prm

>  <SCORE>
-46.4362

>  <SCORE.INTER>
-47.8752

>  <SCORE.INTER.CONST>
1

>  <SCORE.INTER.POLAR>
-5.46358

>  <SCORE.INTER.ROT>
2

>  <SCORE.INTER.SOLV>
18.091

>  <SCORE.INTER.VDW>
-24.6685

>  <SCORE.INTER.norm>
-3.6827

>  <SCORE.INTRA>
1.4389

>  <SCORE.INTRA.DIHEDRAL>
-0.312437

>  <SCORE.INTRA.DIHEDRAL.0>
1.76676

>  <SCORE.INTRA.POLAR>
0.472211

>  <SCORE.INTRA.POLAR.0>
-0.472211

>  <SCORE.INTRA.REPUL>
0

>  <SCORE.INTRA.REPUL.0>
0

>  <SCORE.INTRA.SOLV>
-0.109193

>  <SCORE.INTRA.SOLV.lig_0>
-22.5855

>  <SCORE.INTRA.VDW>
0.0441997

>  <SCORE.INTRA.VDW.0>
-0.733656

>  <SCORE.INTRA.norm>
0.110685

>  <SCORE.RESTR>
0

>  <SCORE.RESTR.CAVITY>
0

>  <SCORE.RESTR.norm>
0

>  <SCORE.SYSTEM>
0

>  <SCORE.SYSTEM.CONST>
0

>  <SCORE.SYSTEM.DIHEDRAL>
0

>  <SCORE.SYSTEM.SOLV>
0

>  <SCORE.SYSTEM.norm>
0

>  <SCORE.heavy>
13

>  <SCORE.norm>
-3.57202

>  <RMSD>
0.783

$$$$
lig.pdb
 OpenBabel11021811453D
libRbt.so/2013.1/901 2013/11/27
 13 14  0  0  0  0  0  0  0  0999 V2000
  -10.7811    4.6673   -7.2521 N   0  0  0  0  0  0  0  0  0  0  0  0
  -10.9028    3.9514   -8.4093 C   0  0  0  0  0  0  0  0  0  0  0  0
   -9.8280    3.4884   -9.0219 N   0  0  0  0  0  0  0  0  0  0  0  0
   -8.5663    3.7009   -8.5378 C   0  0  0  0  0  0  0  0  0  0  0  0
   -8.3819    4.4415   -7.3450 C   0  0  0  0  0  0  0  0  0  0  0  0
   -9.5491    4.9371   -6.6894 C   0  0  0  0  0  0  0  0  0  0  0  0
   -9.4607    5.5832   -5.6600 O   0  0  0  0  0  0  0  0  0  0  0  0
   -6.9346    4.4970   -7.1080 C   0  0  0  0  0  0  0  0  0  0  0  0
   -6.2130    5.1855   -5.9797 C   0  0  0  0  0  0  0  0  0  0  0  0
   -6.6678    6.5789   -5.8827 N   0  0  0  0  0  0  0  0  0  0  0  0
   -6.3690    3.8103   -8.1084 C   0  0  0  0  0  0  0  0  0  0  0  0
   -7.3272    3.3391   -8.9659 N   0  0  0  0  0  0  0  0  0  0  0  0
  -12.1468    3.7145   -8.9350 N   0  0  0  0  0  0  0  0  0  0  0  0
  1  6  1  0  0  0  0
  2  1  1  0  0  0  0
  3  4  1  0  0  0  0
  3  2  2  0  0  0  0
  4  5  2  0  0  0  0
  5  8  1  0  0  0  0
  5  6  1  0  0  0  0
  6  7  2  0  0  0  0
  8  9  1  0  0  0  0
  9 10  1  0  0  0  0
 11  8  2  0  0  0  0
 12  4  1  0  0  0  0
 12 11  1  0  0  0  0
 13  2  1  0  0  0  0
M  END
>  <CHROM.1>
-51.61305335,-176.38009857,-8.74407333,4.49173342,-7.50885282,2.63981690
0.02987472,-2.23903300

>  <Name>
lig.pdb

>  <RI>
4.2128e+07

>  <Rbt.Current_Directory>
/home/itssahil/PROJECTS/Mol_Feturizer/New_Systems/rnas/2miy

>  <Rbt.Executable>
rbdock ($Id: //depot/dev/client3/rdock/2013.1/src/exe/rbdock.cxx#4 $)

>  <Rbt.Library>
libRbt.so (2013.1, Build901 2013/11/27)

>  <Rbt.Parameter_File>
/export/apps/rDock/src/rDock_2013.1_src/data/scripts/dock_solv.prm

>  <Rbt.Receptor>
prm/pocket_docking_5.prm

>  <SCORE>
-47.4952

>  <SCORE.INTER>
-49.0561

>  <SCORE.INTER.CONST>
1

>  <SCORE.INTER.POLAR>
-5.78814

>  <SCORE.INTER.ROT>
2

>  <SCORE.INTER.SOLV>
19.96

>  <SCORE.INTER.VDW>
-24.9969

>  <SCORE.INTER.norm>
-3.77355

>  <SCORE.INTRA>
1.51264

>  <SCORE.INTRA.DIHEDRAL>
-0.233224

>  <SCORE.INTRA.DIHEDRAL.0>
1.76676

>  <SCORE.INTRA.POLAR>
0.472211

>  <SCORE.INTRA.POLAR.0>
-0.472211

>  <SCORE.INTRA.REPUL>
0

>  <SCORE.INTRA.REPUL.0>
0

>  <SCORE.INTRA.SOLV>
-0.0774734

>  <SCORE.INTRA.SOLV.lig_0>
-22.5855

>  <SCORE.INTRA.VDW>
0.062473

>  <SCORE.INTRA.VDW.0>
-0.733656

>  <SCORE.INTRA.norm>
0.116357

>  <SCORE.RESTR>
0.0482624

>  <SCORE.RESTR.CAVITY>
0.0482624

>  <SCORE.RESTR.norm>
0.00371249

>  <SCORE.SYSTEM>
0

>  <SCORE.SYSTEM.CONST>
0

>  <SCORE.SYSTEM.DIHEDRAL>
0

>  <SCORE.SYSTEM.SOLV>
0

>  <SCORE.SYSTEM.norm>
0

>  <SCORE.heavy>
13

>  <SCORE.norm>
-3.65348

>  <RMSD>
0.784

$$$$
lig.pdb
 OpenBabel11021811453D
libRbt.so/2013.1/901 2013/11/27
 13 14  0  0  0  0  0  0  0  0999 V2000
  -10.7847    4.6869   -7.2663 N   0  0  0  0  0  0  0  0  0  0  0  0
  -10.9062    3.9740   -8.4254 C   0  0  0  0  0  0  0  0  0  0  0  0
   -9.8320    3.5026   -9.0326 N   0  0  0  0  0  0  0  0  0  0  0  0
   -8.5712    3.7032   -8.5410 C   0  0  0  0  0  0  0  0  0  0  0  0
   -8.3871    4.4402   -7.3460 C   0  0  0  0  0  0  0  0  0  0  0  0
   -9.5536    4.9450   -6.6962 C   0  0  0  0  0  0  0  0  0  0  0  0
   -9.4654    5.5887   -5.6653 O   0  0  0  0  0  0  0  0  0  0  0  0
   -6.9407    4.4827   -7.1008 C   0  0  0  0  0  0  0  0  0  0  0  0
   -6.2196    5.1630   -5.9673 C   0  0  0  0  0  0  0  0  0  0  0  0
   -6.6702    6.5573   -5.8640 N   0  0  0  0  0  0  0  0  0  0  0  0
   -6.3755    3.7926   -8.0990 C   0  0  0  0  0  0  0  0  0  0  0  0
   -7.3329    3.3312   -8.9627 N   0  0  0  0  0  0  0  0  0  0  0  0
  -12.1491    3.7488   -8.9585 N   0  0  0  0  0  0  0  0  0  0  0  0
  1  6  1  0  0  0  0
  2  1  1  0  0  0  0
  3  4  1  0  0  0  0
  3  2  2  0  0  0  0
  4  5  2  0  0  0  0
  5  8  1  0  0  0  0
  5  6  1  0  0  0  0
  6  7  2  0  0  0  0
  8  9  1  0  0  0  0
  9 10  1  0  0  0  0
 11  8  2  0  0  0  0
 12  4  1  0  0  0  0
 12 11  1  0  0  0  0
 13  2  1  0  0  0  0
M  END
>  <CHROM.1>
-51.18057077,4.27261516,-8.74849062,4.49369007,-7.51135749,2.64035530,0.04056704
-2.23710472

>  <Name>
lig.pdb

>  <RI>
2.68696e+07

>  <Rbt.Current_Directory>
/home/itssahil/PROJECTS/Mol_Feturizer/New_Systems/rnas/2miy

>  <Rbt.Executable>
rbdock ($Id: //depot/dev/client3/rdock/2013.1/src/exe/rbdock.cxx#4 $)

>  <Rbt.Library>
libRbt.so (2013.1, Build901 2013/11/27)

>  <Rbt.Parameter_File>
/export/apps/rDock/src/rDock_2013.1_src/data/scripts/dock_solv.prm

>  <Rbt.Receptor>
prm/pocket_docking_4.prm

>  <SCORE>
-47.417

>  <SCORE.INTER>
-48.9828

>  <SCORE.INTER.CONST>
1

>  <SCORE.INTER.POLAR>
-5.79578

>  <SCORE.INTER.ROT>
2

>  <SCORE.INTER.SOLV>
19.9512

>  <SCORE.INTER.VDW>
-24.9197

>  <SCORE.INTER.norm>
-3.76791

>  <SCORE.INTRA>
1.52858

>  <SCORE.INTRA.DIHEDRAL>
-0.208643

>  <SCORE.INTRA.DIHEDRAL.0>
1.76676

>  <SCORE.INTRA.POLAR>
0.472211

>  <SCORE.INTRA.POLAR.0>
-0.472211

>  <SCORE.INTRA.REPUL>
0

>  <SCORE.INTRA.REPUL.0>
0

>  <SCORE.INTRA.SOLV>
-0.0743958

>  <SCORE.INTRA.SOLV.lig_0>
-22.5855

>  <SCORE.INTRA.VDW>
0.0645846

>  <SCORE.INTRA.VDW.0>
-0.733656

>  <SCORE.INTRA.norm>
0.117583

>  <SCORE.RESTR>
0.0372285

>  <SCORE.RESTR.CAVITY>
0.0372285

>  <SCORE.RESTR.norm>
0.00286373

>  <SCORE.SYSTEM>
0

>  <SCORE.SYSTEM.CONST>
0

>  <SCORE.SYSTEM.DIHEDRAL>
0

>  <SCORE.SYSTEM.SOLV>
0

>  <SCORE.SYSTEM.norm>
0

>  <SCORE.heavy>
13

>  <SCORE.norm>
-3.64746

>  <RMSD>
0.788

$$$$
lig.pdb
 OpenBabel11021811453D
libRbt.so/2013.1/901 2013/11/27
 13 14  0  0  0  0  0  0  0  0999 V2000
  -10.7786    4.6876   -7.2644 N   0  0  0  0  0  0  0  0  0  0  0  0
  -10.9002    3.9767   -8.4246 C   0  0  0  0  0  0  0  0  0  0  0  0
   -9.8259    3.5077   -9.0337 N   0  0  0  0  0  0  0  0  0  0  0  0
   -8.5649    3.7090   -8.5428 C   0  0  0  0  0  0  0  0  0  0  0  0
   -8.3808    4.4442   -7.3467 C   0  0  0  0  0  0  0  0  0  0  0  0
   -9.5473    4.9463   -6.6949 C   0  0  0  0  0  0  0  0  0  0  0  0
   -9.4590    5.5883   -5.6629 O   0  0  0  0  0  0  0  0  0  0  0  0
   -6.9342    4.4880   -7.1026 C   0  0  0  0  0  0  0  0  0  0  0  0
   -6.2129    5.1673   -5.9685 C   0  0  0  0  0  0  0  0  0  0  0  0
   -6.6594    6.5630   -5.8674 N   0  0  0  0  0  0  0  0  0  0  0  0
   -6.3690    3.8005   -8.1026 C   0  0  0  0  0  0  0  0  0  0  0  0
   -7.3266    3.3394   -8.9663 N   0  0  0  0  0  0  0  0  0  0  0  0
  -12.1433    3.7508   -8.9571 N   0  0  0  0  0  0  0  0  0  0  0  0
  1  6  1  0  0  0  0
  2  1  1  0  0  0  0
  3  4  1  0  0  0  0
  3  2  2  0  0  0  0
  4  5  2  0  0  0  0
  5  8  1  0  0  0  0
  5  6  1  0  0  0  0
  6  7  2  0  0  0  0
  8  9  1  0  0  0  0
  9 10  1  0  0  0  0
 11  8  2  0  0  0  0
 12  4  1  0  0  0  0
 12 11  1  0  0  0  0
 13  2  1  0  0  0  0
M  END
>  <CHROM.1>
-51.51847954,-175.67851529,-8.74190226,4.49763380,-7.51193277,2.64059240
0.03879735,-2.23557758

>  <Name>
lig.pdb

>  <RI>
2.68696e+07

>  <Rbt.Current_Directory>
/home/itssahil/PROJECTS/Mol_Feturizer/New_Systems/rnas/2miy

>  <Rbt.Executable>
rbdock ($Id: //depot/dev/client3/rdock/2013.1/src/exe/rbdock.cxx#4 $)

>  <Rbt.Library>
libRbt.so (2013.1, Build901 2013/11/27)

>  <Rbt.Parameter_File>
/export/apps/rDock/src/rDock_2013.1_src/data/scripts/dock_solv.prm

>  <Rbt.Receptor>
prm/pocket_docking_4.prm

>  <SCORE>
-47.4378

>  <SCORE.INTER>
-48.9857

>  <SCORE.INTER.CONST>
1

>  <SCORE.INTER.POLAR>
-5.79225

>  <SCORE.INTER.ROT>
2

>  <SCORE.INTER.SOLV>
19.9697

>  <SCORE.INTER.VDW>
-24.9395

>  <SCORE.INTER.norm>
-3.76813

>  <SCORE.INTRA>
1.51402

>  <SCORE.INTRA.DIHEDRAL>
-0.232027

>  <SCORE.INTRA.DIHEDRAL.0>
1.76676

>  <SCORE.INTRA.POLAR>
0.472211

>  <SCORE.INTRA.POLAR.0>
-0.472211

>  <SCORE.INTRA.REPUL>
0

>  <SCORE.INTRA.REPUL.0>
0

>  <SCORE.INTRA.SOLV>
-0.0763359

>  <SCORE.INTRA.SOLV.lig_0>
-22.5855

>  <SCORE.INTRA.VDW>
0.0626822

>  <SCORE.INTRA.VDW.0>
-0.733656

>  <SCORE.INTRA.norm>
0.116463

>  <SCORE.RESTR>
0.0339088

>  <SCORE.RESTR.CAVITY>
0.0339088

>  <SCORE.RESTR.norm>
0.00260837

>  <SCORE.SYSTEM>
0

>  <SCORE.SYSTEM.CONST>
0

>  <SCORE.SYSTEM.DIHEDRAL>
0

>  <SCORE.SYSTEM.SOLV>
0

>  <SCORE.SYSTEM.norm>
0

>  <SCORE.heavy>
13

>  <SCORE.norm>
-3.64906

>  <RMSD>
0.792

$$$$
lig.pdb
 OpenBabel11021811453D
libRbt.so/2013.1/901 2013/11/27
 13 14  0  0  0  0  0  0  0  0999 V2000
  -10.7782    4.6892   -7.2661 N   0  0  0  0  0  0  0  0  0  0  0  0
  -10.9001    3.9779   -8.4261 C   0  0  0  0  0  0  0  0  0  0  0  0
   -9.8262    3.5066   -9.0339 N   0  0  0  0  0  0  0  0  0  0  0  0
   -8.5653    3.7058   -8.5421 C   0  0  0  0  0  0  0  0  0  0  0  0
   -8.3807    4.4412   -7.3462 C   0  0  0  0  0  0  0  0  0  0  0  0
   -9.5469    4.9458   -6.6957 C   0  0  0  0  0  0  0  0  0  0  0  0
   -9.4583    5.5881   -5.6639 O   0  0  0  0  0  0  0  0  0  0  0  0
   -6.9343    4.4824   -7.1009 C   0  0  0  0  0  0  0  0  0  0  0  0
   -6.2127    5.1609   -5.9665 C   0  0  0  0  0  0  0  0  0  0  0  0
   -6.6551    6.5581   -5.8678 N   0  0  0  0  0  0  0  0  0  0  0  0
   -6.3695    3.7933   -8.1000 C   0  0  0  0  0  0  0  0  0  0  0  0
   -7.3272    3.3336   -8.9643 N   0  0  0  0  0  0  0  0  0  0  0  0
  -12.1432    3.7541   -8.9595 N   0  0  0  0  0  0  0  0  0  0  0  0
  1  6  1  0  0  0  0
  2  1  1  0  0  0  0
  3  4  1  0  0  0  0
  3  2  2  0  0  0  0
  4  5  2  0  0  0  0
  5  8  1  0  0  0  0
  5  6  1  0  0  0  0
  6  7  2  0  0  0  0
  8  9  1  0  0  0  0
  9 10  1  0  0  0  0
 11  8  2  0  0  0  0
 12  4  1  0  0  0  0
 12 11  1  0  0  0  0
 13  2  1  0  0  0  0
M  END
>  <CHROM.1>
-51.60259294,-175.33051800,-8.74148503,4.49528804,-7.51188644,2.64118878
0.04073040,-2.23618514

>  <Name>
lig.pdb

>  <RI>
2.68696e+07

>  <Rbt.Current_Directory>
/home/itssahil/PROJECTS/Mol_Feturizer/New_Systems/rnas/2miy

>  <Rbt.Executable>
rbdock ($Id: //depot/dev/client3/rdock/2013.1/src/exe/rbdock.cxx#4 $)

>  <Rbt.Library>
libRbt.so (2013.1, Build901 2013/11/27)

>  <Rbt.Parameter_File>
/export/apps/rDock/src/rDock_2013.1_src/data/scripts/dock_solv.prm

>  <Rbt.Receptor>
prm/pocket_docking_4.prm

>  <SCORE>
-47.3812

>  <SCORE.INTER>
-48.9235

>  <SCORE.INTER.CONST>
1

>  <SCORE.INTER.POLAR>
-5.79603

>  <SCORE.INTER.ROT>
2

>  <SCORE.INTER.SOLV>
19.9723

>  <SCORE.INTER.VDW>
-24.8863

>  <SCORE.INTER.norm>
-3.76334

>  <SCORE.INTRA>
1.51192

>  <SCORE.INTRA.DIHEDRAL>
-0.234592

>  <SCORE.INTRA.DIHEDRAL.0>
1.76676

>  <SCORE.INTRA.POLAR>
0.472211

>  <SCORE.INTRA.POLAR.0>
-0.472211

>  <SCORE.INTRA.REPUL>
0

>  <SCORE.INTRA.REPUL.0>
0

>  <SCORE.INTRA.SOLV>
-0.077244

>  <SCORE.INTRA.SOLV.lig_0>
-22.5855

>  <SCORE.INTRA.VDW>
0.062315

>  <SCORE.INTRA.VDW.0>
-0.733656

>  <SCORE.INTRA.norm>
0.116301

>  <SCORE.RESTR>
0.0303347

>  <SCORE.RESTR.CAVITY>
0.0303347

>  <SCORE.RESTR.norm>
0.00233344

>  <SCORE.SYSTEM>
0

>  <SCORE.SYSTEM.CONST>
0

>  <SCORE.SYSTEM.DIHEDRAL>
0

>  <SCORE.SYSTEM.SOLV>
0

>  <SCORE.SYSTEM.norm>
0

>  <SCORE.heavy>
13

>  <SCORE.norm>
-3.64471

>  <RMSD>
0.793

$$$$
lig.pdb
 OpenBabel11021811453D
libRbt.so/2013.1/901 2013/11/27
 13 14  0  0  0  0  0  0  0  0999 V2000
  -10.9535    4.4489   -7.3261 N   0  0  0  0  0  0  0  0  0  0  0  0
  -10.9941    3.8942   -8.5739 C   0  0  0  0  0  0  0  0  0  0  0  0
   -9.8802    3.4968   -9.1623 N   0  0  0  0  0  0  0  0  0  0  0  0
   -8.6566    3.6208   -8.5633 C   0  0  0  0  0  0  0  0  0  0  0  0
   -8.5560    4.1943   -7.2724 C   0  0  0  0  0  0  0  0  0  0  0  0
   -9.7649    4.6200   -6.6439 C   0  0  0  0  0  0  0  0  0  0  0  0
   -9.7486    5.1231   -5.5341 O   0  0  0  0  0  0  0  0  0  0  0  0
   -7.1301    4.1920   -6.9250 C   0  0  0  0  0  0  0  0  0  0  0  0
   -6.4895    4.7127   -5.6655 C   0  0  0  0  0  0  0  0  0  0  0  0
   -5.7473    5.9446   -5.9642 N   0  0  0  0  0  0  0  0  0  0  0  0
   -6.4968    3.6331   -7.9636 C   0  0  0  0  0  0  0  0  0  0  0  0
   -7.3919    3.2964   -8.9439 N   0  0  0  0  0  0  0  0  0  0  0  0
  -12.1970    3.7510   -9.2160 N   0  0  0  0  0  0  0  0  0  0  0  0
  1  6  1  0  0  0  0
  2  1  1  0  0  0  0
  3  4  1  0  0  0  0
  3  2  2  0  0  0  0
  4  5  2  0  0  0  0
  5  8  1  0  0  0  0
  5  6  1  0  0  0  0
  6  7  2  0  0  0  0
  8  9  1  0  0  0  0
  9 10  1  0  0  0  0
 11  8  2  0  0  0  0
 12  4  1  0  0  0  0
 12 11  1  0  0  0  0
 13  2  1  0  0  0  0
M  END
>  <CHROM.1>
-108.51534869,136.09021488,-8.79330307,4.25875731,-7.50528599,2.68194258
0.03779896,-2.08455354

>  <Name>
lig.pdb

>  <RI>
1.51961e+07

>  <Rbt.Current_Directory>
/home/itssahil/PROJECTS/Mol_Feturizer/New_Systems/rnas/2miy

>  <Rbt.Executable>
rbdock ($Id: //depot/dev/client3/rdock/2013.1/src/exe/rbdock.cxx#4 $)

>  <Rbt.Library>
libRbt.so (2013.1, Build901 2013/11/27)

>  <Rbt.Parameter_File>
/export/apps/rDock/src/rDock_2013.1_src/data/scripts/dock_solv.prm

>  <Rbt.Receptor>
prm/pocket_docking_3.prm

>  <SCORE>
-43.3135

>  <SCORE.INTER>
-45.757

>  <SCORE.INTER.CONST>
1

>  <SCORE.INTER.POLAR>
-5.99101

>  <SCORE.INTER.ROT>
2

>  <SCORE.INTER.SOLV>
20.8308

>  <SCORE.INTER.VDW>
-22.4116

>  <SCORE.INTER.norm>
-3.51977

>  <SCORE.INTRA>
2.40186

>  <SCORE.INTRA.DIHEDRAL>
1.70926

>  <SCORE.INTRA.DIHEDRAL.0>
1.76676

>  <SCORE.INTRA.POLAR>
0.472211

>  <SCORE.INTRA.POLAR.0>
-0.472211

>  <SCORE.INTRA.REPUL>
0

>  <SCORE.INTRA.REPUL.0>
0

>  <SCORE.INTRA.SOLV>
-0.58517

>  <SCORE.INTRA.SOLV.lig_0>
-22.5855

>  <SCORE.INTRA.VDW>
0.234291

>  <SCORE.INTRA.VDW.0>
-0.733656

>  <SCORE.INTRA.norm>
0.184758

>  <SCORE.RESTR>
0.0416415

>  <SCORE.RESTR.CAVITY>
0.0416415

>  <SCORE.RESTR.norm>
0.00320319

>  <SCORE.SYSTEM>
0

>  <SCORE.SYSTEM.CONST>
0

>  <SCORE.SYSTEM.DIHEDRAL>
0

>  <SCORE.SYSTEM.SOLV>
0

>  <SCORE.SYSTEM.norm>
0

>  <SCORE.heavy>
13

>  <SCORE.norm>
-3.33181

>  <RMSD>
0.794

$$$$
lig.pdb
 OpenBabel11021811453D
libRbt.so/2013.1/901 2013/11/27
 13 14  0  0  0  0  0  0  0  0999 V2000
  -10.9447    4.4508   -7.3275 N   0  0  0  0  0  0  0  0  0  0  0  0
  -10.9865    3.8928   -8.5738 C   0  0  0  0  0  0  0  0  0  0  0  0
   -9.8735    3.4919   -9.1614 N   0  0  0  0  0  0  0  0  0  0  0  0
   -8.6494    3.6155   -8.5631 C   0  0  0  0  0  0  0  0  0  0  0  0
   -8.5476    4.1923   -7.2739 C   0  0  0  0  0  0  0  0  0  0  0  0
   -9.7556    4.6217   -6.6462 C   0  0  0  0  0  0  0  0  0  0  0  0
   -9.7381    5.1277   -5.5378 O   0  0  0  0  0  0  0  0  0  0  0  0
   -7.1215    4.1886   -6.9268 C   0  0  0  0  0  0  0  0  0  0  0  0
   -6.4797    4.7116   -5.6690 C   0  0  0  0  0  0  0  0  0  0  0  0
   -5.7496    5.9507   -5.9678 N   0  0  0  0  0  0  0  0  0  0  0  0
   -6.4895    3.6259   -7.9641 C   0  0  0  0  0  0  0  0  0  0  0  0
   -7.3854    3.2880   -8.9432 N   0  0  0  0  0  0  0  0  0  0  0  0
  -12.1899    3.7498   -9.2152 N   0  0  0  0  0  0  0  0  0  0  0  0
  1  6  1  0  0  0  0
  2  1  1  0  0  0  0
  3  4  1  0  0  0  0
  3  2  2  0  0  0  0
  4  5  2  0  0  0  0
  5  8  1  0  0  0  0
  5  6  1  0  0  0  0
  6  7  2  0  0  0  0
  8  9  1  0  0  0  0
  9 10  1  0  0  0  0
 11  8  2  0  0  0  0
 12  4  1  0  0  0  0
 12 11  1  0  0  0  0
 13  2  1  0  0  0  0
M  END
>  <CHROM.1>
-107.80697094,134.35296769,-8.78612779,4.25739994,-7.50652622,2.68182099
0.03927924,-2.08827550

>  <Name>
lig.pdb

>  <RI>
1.82164e+07

>  <Rbt.Current_Directory>
/home/itssahil/PROJECTS/Mol_Feturizer/New_Systems/rnas/2miy

>  <Rbt.Executable>
rbdock ($Id: //depot/dev/client3/rdock/2013.1/src/exe/rbdock.cxx#4 $)

>  <Rbt.Library>
libRbt.so (2013.1, Build901 2013/11/27)

>  <Rbt.Parameter_File>
/export/apps/rDock/src/rDock_2013.1_src/data/scripts/dock_solv.prm

>  <Rbt.Receptor>
prm/blind_docking_80.prm

>  <SCORE>
-43.3454

>  <SCORE.INTER>
-45.7742

>  <SCORE.INTER.CONST>
1

>  <SCORE.INTER.POLAR>
-5.98679

>  <SCORE.INTER.ROT>
2

>  <SCORE.INTER.SOLV>
20.8355

>  <SCORE.INTER.VDW>
-22.4386

>  <SCORE.INTER.norm>
-3.52109

>  <SCORE.INTRA>
2.38397

>  <SCORE.INTRA.DIHEDRAL>
1.684

>  <SCORE.INTRA.DIHEDRAL.0>
1.76676

>  <SCORE.INTRA.POLAR>
0.472211

>  <SCORE.INTRA.POLAR.0>
-0.472211

>  <SCORE.INTRA.REPUL>
0

>  <SCORE.INTRA.REPUL.0>
0

>  <SCORE.INTRA.SOLV>
-0.582439

>  <SCORE.INTRA.SOLV.lig_0>
-22.5855

>  <SCORE.INTRA.VDW>
0.227666

>  <SCORE.INTRA.VDW.0>
-0.733656

>  <SCORE.INTRA.norm>
0.183382

>  <SCORE.RESTR>
0.0448388

>  <SCORE.RESTR.CAVITY>
0.0448388

>  <SCORE.RESTR.norm>
0.00344914

>  <SCORE.SYSTEM>
0

>  <SCORE.SYSTEM.CONST>
0

>  <SCORE.SYSTEM.DIHEDRAL>
0

>  <SCORE.SYSTEM.SOLV>
0

>  <SCORE.SYSTEM.norm>
0

>  <SCORE.heavy>
13

>  <SCORE.norm>
-3.33426

>  <RMSD>
0.797

$$$$
lig.pdb
 OpenBabel11021811453D
libRbt.so/2013.1/901 2013/11/27
 13 14  0  0  0  0  0  0  0  0999 V2000
  -10.9459    4.4533   -7.3281 N   0  0  0  0  0  0  0  0  0  0  0  0
  -10.9883    3.8932   -8.5734 C   0  0  0  0  0  0  0  0  0  0  0  0
   -9.8758    3.4888   -9.1598 N   0  0  0  0  0  0  0  0  0  0  0  0
   -8.6519    3.6107   -8.5610 C   0  0  0  0  0  0  0  0  0  0  0  0
   -8.5494    4.1895   -7.2727 C   0  0  0  0  0  0  0  0  0  0  0  0
   -9.7568    4.6227   -6.6464 C   0  0  0  0  0  0  0  0  0  0  0  0
   -9.7388    5.1307   -5.5388 O   0  0  0  0  0  0  0  0  0  0  0  0
   -7.1236    4.1832   -6.9248 C   0  0  0  0  0  0  0  0  0  0  0  0
   -6.4812    4.7069   -5.6675 C   0  0  0  0  0  0  0  0  0  0  0  0
   -5.7518    5.9462   -5.9673 N   0  0  0  0  0  0  0  0  0  0  0  0
   -6.4922    3.6172   -7.9608 C   0  0  0  0  0  0  0  0  0  0  0  0
   -7.3884    3.2797   -8.9398 N   0  0  0  0  0  0  0  0  0  0  0  0
  -12.1917    3.7519   -9.2152 N   0  0  0  0  0  0  0  0  0  0  0  0
  1  6  1  0  0  0  0
  2  1  1  0  0  0  0
  3  4  1  0  0  0  0
  3  2  2  0  0  0  0
  4  5  2  0  0  0  0
  5  8  1  0  0  0  0
  5  6  1  0  0  0  0
  6  7  2  0  0  0  0
  8  9  1  0  0  0  0
  9 10  1  0  0  0  0
 11  8  2  0  0  0  0
 12  4  1  0  0  0  0
 12 11  1  0  0  0  0
 13  2  1  0  0  0  0
M  END
>  <CHROM.1>
-107.62414673,-43.26920136,-8.78789919,4.25489649,-7.50539856,2.68201318
0.04152708,-2.09012090

>  <Name>
lig.pdb

>  <RI>
1.51961e+07

>  <Rbt.Current_Directory>
/home/itssahil/PROJECTS/Mol_Feturizer/New_Systems/rnas/2miy

>  <Rbt.Executable>
rbdock ($Id: //depot/dev/client3/rdock/2013.1/src/exe/rbdock.cxx#4 $)

>  <Rbt.Library>
libRbt.so (2013.1, Build901 2013/11/27)

>  <Rbt.Parameter_File>
/export/apps/rDock/src/rDock_2013.1_src/data/scripts/dock_solv.prm

>  <Rbt.Receptor>
prm/pocket_docking_3.prm

>  <SCORE>
-43.4003

>  <SCORE.INTER>
-45.8129

>  <SCORE.INTER.CONST>
1

>  <SCORE.INTER.POLAR>
-6.00425

>  <SCORE.INTER.ROT>
2

>  <SCORE.INTER.SOLV>
20.8317

>  <SCORE.INTER.VDW>
-22.405

>  <SCORE.INTER.norm>
-3.52407

>  <SCORE.INTRA>
2.36205

>  <SCORE.INTRA.DIHEDRAL>
1.63269

>  <SCORE.INTRA.DIHEDRAL.0>
1.76676

>  <SCORE.INTRA.POLAR>
0.472211

>  <SCORE.INTRA.POLAR.0>
-0.472211

>  <SCORE.INTRA.REPUL>
0

>  <SCORE.INTRA.REPUL.0>
0

>  <SCORE.INTRA.SOLV>
-0.58138

>  <SCORE.INTRA.SOLV.lig_0>
-22.5855

>  <SCORE.INTRA.VDW>
0.230879

>  <SCORE.INTRA.VDW.0>
-0.733656

>  <SCORE.INTRA.norm>
0.181696

>  <SCORE.RESTR>
0.0505307

>  <SCORE.RESTR.CAVITY>
0.0505307

>  <SCORE.RESTR.norm>
0.00388697

>  <SCORE.SYSTEM>
0

>  <SCORE.SYSTEM.CONST>
0

>  <SCORE.SYSTEM.DIHEDRAL>
0

>  <SCORE.SYSTEM.SOLV>
0

>  <SCORE.SYSTEM.norm>
0

>  <SCORE.heavy>
13

>  <SCORE.norm>
-3.33849

>  <RMSD>
0.797

$$$$
lig.pdb
 OpenBabel11021811453D
libRbt.so/2013.1/901 2013/11/27
 13 14  0  0  0  0  0  0  0  0999 V2000
  -10.7775    4.6965   -7.2708 N   0  0  0  0  0  0  0  0  0  0  0  0
  -10.8997    3.9808   -8.4280 C   0  0  0  0  0  0  0  0  0  0  0  0
   -9.8260    3.5082   -9.0350 N   0  0  0  0  0  0  0  0  0  0  0  0
   -8.5648    3.7104   -8.5451 C   0  0  0  0  0  0  0  0  0  0  0  0
   -8.3799    4.4504   -7.3520 C   0  0  0  0  0  0  0  0  0  0  0  0
   -9.5459    4.9564   -6.7024 C   0  0  0  0  0  0  0  0  0  0  0  0
   -9.4570    5.6027   -5.6731 O   0  0  0  0  0  0  0  0  0  0  0  0
   -6.9333    4.4939   -7.1082 C   0  0  0  0  0  0  0  0  0  0  0  0
   -6.2113    5.1773   -5.9770 C   0  0  0  0  0  0  0  0  0  0  0  0
   -6.6656    6.5703   -5.8739 N   0  0  0  0  0  0  0  0  0  0  0  0
   -6.3688    3.8016   -8.1053 C   0  0  0  0  0  0  0  0  0  0  0  0
   -7.3268    3.3378   -8.9670 N   0  0  0  0  0  0  0  0  0  0  0  0
  -12.1431    3.7538   -8.9594 N   0  0  0  0  0  0  0  0  0  0  0  0
  1  6  1  0  0  0  0
  2  1  1  0  0  0  0
  3  4  1  0  0  0  0
  3  2  2  0  0  0  0
  4  5  2  0  0  0  0
  5  8  1  0  0  0  0
  5  6  1  0  0  0  0
  6  7  2  0  0  0  0
  8  9  1  0  0  0  0
  9 10  1  0  0  0  0
 11  8  2  0  0  0  0
 12  4  1  0  0  0  0
 12 11  1  0  0  0  0
 13  2  1  0  0  0  0
M  END
>  <CHROM.1>
-50.99321161,3.85617506,-8.74171204,4.50323039,-7.51688885,2.64062538,0.03991983
-2.23937049

>  <Name>
lig.pdb

>  <RI>
2.68696e+07

>  <Rbt.Current_Directory>
/home/itssahil/PROJECTS/Mol_Feturizer/New_Systems/rnas/2miy

>  <Rbt.Executable>
rbdock ($Id: //depot/dev/client3/rdock/2013.1/src/exe/rbdock.cxx#4 $)

>  <Rbt.Library>
libRbt.so (2013.1, Build901 2013/11/27)

>  <Rbt.Parameter_File>
/export/apps/rDock/src/rDock_2013.1_src/data/scripts/dock_solv.prm

>  <Rbt.Receptor>
prm/pocket_docking_4.prm

>  <SCORE>
-47.4018

>  <SCORE.INTER>
-48.9758

>  <SCORE.INTER.CONST>
1

>  <SCORE.INTER.POLAR>
-5.80651

>  <SCORE.INTER.ROT>
2

>  <SCORE.INTER.SOLV>
20.0019

>  <SCORE.INTER.VDW>
-24.8961

>  <SCORE.INTER.norm>
-3.76737

>  <SCORE.INTRA>
1.5324

>  <SCORE.INTRA.DIHEDRAL>
-0.204523

>  <SCORE.INTRA.DIHEDRAL.0>
1.76676

>  <SCORE.INTRA.POLAR>
0.472211

>  <SCORE.INTRA.POLAR.0>
-0.472211

>  <SCORE.INTRA.REPUL>
0

>  <SCORE.INTRA.REPUL.0>
0

>  <SCORE.INTRA.SOLV>
-0.0723534

>  <SCORE.INTRA.SOLV.lig_0>
-22.5855

>  <SCORE.INTRA.VDW>
0.0653206

>  <SCORE.INTRA.VDW.0>
-0.733656

>  <SCORE.INTRA.norm>
0.117877

>  <SCORE.RESTR>
0.0415799

>  <SCORE.RESTR.CAVITY>
0.0415799

>  <SCORE.RESTR.norm>
0.00319845

>  <SCORE.SYSTEM>
0

>  <SCORE.SYSTEM.CONST>
0

>  <SCORE.SYSTEM.DIHEDRAL>
0

>  <SCORE.SYSTEM.SOLV>
0

>  <SCORE.SYSTEM.norm>
0

>  <SCORE.heavy>
13

>  <SCORE.norm>
-3.64629

>  <RMSD>
0.799

$$$$
lig.pdb
 OpenBabel11021811453D
libRbt.so/2013.1/901 2013/11/27
 13 14  0  0  0  0  0  0  0  0999 V2000
  -10.7758    4.7001   -7.2724 N   0  0  0  0  0  0  0  0  0  0  0  0
  -10.8983    3.9865   -8.4309 C   0  0  0  0  0  0  0  0  0  0  0  0
   -9.8250    3.5100   -9.0358 N   0  0  0  0  0  0  0  0  0  0  0  0
   -8.5642    3.7058   -8.5424 C   0  0  0  0  0  0  0  0  0  0  0  0
   -8.3791    4.4434   -7.3478 C   0  0  0  0  0  0  0  0  0  0  0  0
   -9.5445    4.9536   -6.7005 C   0  0  0  0  0  0  0  0  0  0  0  0
   -9.4553    5.5981   -5.6700 O   0  0  0  0  0  0  0  0  0  0  0  0
   -6.9329    4.4800   -7.1001 C   0  0  0  0  0  0  0  0  0  0  0  0
   -6.2109    5.1585   -5.9662 C   0  0  0  0  0  0  0  0  0  0  0  0
   -6.6474    6.5579   -5.8723 N   0  0  0  0  0  0  0  0  0  0  0  0
   -6.3690    3.7865   -8.0968 C   0  0  0  0  0  0  0  0  0  0  0  0
   -7.3268    3.3282   -8.9616 N   0  0  0  0  0  0  0  0  0  0  0  0
  -12.1413    3.7660   -8.9659 N   0  0  0  0  0  0  0  0  0  0  0  0
  1  6  1  0  0  0  0
  2  1  1  0  0  0  0
  3  4  1  0  0  0  0
  3  2  2  0  0  0  0
  4  5  2  0  0  0  0
  5  8  1  0  0  0  0
  5  6  1  0  0  0  0
  6  7  2  0  0  0  0
  8  9  1  0  0  0  0
  9 10  1  0  0  0  0
 11  8  2  0  0  0  0
 12  4  1  0  0  0  0
 12 11  1  0  0  0  0
 13  2  1  0  0  0  0
M  END
>  <CHROM.1>
-51.66055570,-173.56813211,-8.73926999,4.49838466,-7.51435125,2.64221262
0.04454537,-2.23867907

>  <Name>
lig.pdb

>  <RI>
2.68696e+07

>  <Rbt.Current_Directory>
/home/itssahil/PROJECTS/Mol_Feturizer/New_Systems/rnas/2miy

>  <Rbt.Executable>
rbdock ($Id: //depot/dev/client3/rdock/2013.1/src/exe/rbdock.cxx#4 $)

>  <Rbt.Library>
libRbt.so (2013.1, Build901 2013/11/27)

>  <Rbt.Parameter_File>
/export/apps/rDock/src/rDock_2013.1_src/data/scripts/dock_solv.prm

>  <Rbt.Receptor>
prm/pocket_docking_4.prm

>  <SCORE>
-47.3335

>  <SCORE.INTER>
-48.8698

>  <SCORE.INTER.CONST>
1

>  <SCORE.INTER.POLAR>
-5.7896

>  <SCORE.INTER.ROT>
2

>  <SCORE.INTER.SOLV>
20.0094

>  <SCORE.INTER.VDW>
-24.8844

>  <SCORE.INTER.norm>
-3.75922

>  <SCORE.INTRA>
1.50891

>  <SCORE.INTRA.DIHEDRAL>
-0.23864

>  <SCORE.INTRA.DIHEDRAL.0>
1.76676

>  <SCORE.INTRA.POLAR>
0.472211

>  <SCORE.INTRA.POLAR.0>
-0.472211

>  <SCORE.INTRA.REPUL>
0

>  <SCORE.INTRA.REPUL.0>
0

>  <SCORE.INTRA.SOLV>
-0.0777123

>  <SCORE.INTRA.SOLV.lig_0>
-22.5855

>  <SCORE.INTRA.VDW>
0.0615637

>  <SCORE.INTRA.VDW.0>
-0.733656

>  <SCORE.INTRA.norm>
0.11607

>  <SCORE.RESTR>
0.027437

>  <SCORE.RESTR.CAVITY>
0.027437

>  <SCORE.RESTR.norm>
0.00211054

>  <SCORE.SYSTEM>
0

>  <SCORE.SYSTEM.CONST>
0

>  <SCORE.SYSTEM.DIHEDRAL>
0

>  <SCORE.SYSTEM.SOLV>
0

>  <SCORE.SYSTEM.norm>
0

>  <SCORE.heavy>
13

>  <SCORE.norm>
-3.64104

>  <RMSD>
0.800

$$$$
lig.pdb
 OpenBabel11021811453D
libRbt.so/2013.1/901 2013/11/27
 13 14  0  0  0  0  0  0  0  0999 V2000
  -10.9423    4.4806   -7.3286 N   0  0  0  0  0  0  0  0  0  0  0  0
  -10.9897    3.9106   -8.5693 C   0  0  0  0  0  0  0  0  0  0  0  0
   -9.8812    3.4893   -9.1512 N   0  0  0  0  0  0  0  0  0  0  0  0
   -8.6565    3.6030   -8.5523 C   0  0  0  0  0  0  0  0  0  0  0  0
   -8.5488    4.1914   -7.2688 C   0  0  0  0  0  0  0  0  0  0  0  0
   -9.7520    4.6428   -6.6472 C   0  0  0  0  0  0  0  0  0  0  0  0
   -9.7294    5.1597   -5.5439 O   0  0  0  0  0  0  0  0  0  0  0  0
   -7.1235    4.1726   -6.9196 C   0  0  0  0  0  0  0  0  0  0  0  0
   -6.4766    4.6998   -5.6661 C   0  0  0  0  0  0  0  0  0  0  0  0
   -5.7561    5.9433   -5.9700 N   0  0  0  0  0  0  0  0  0  0  0  0
   -6.4974    3.5912   -7.9502 C   0  0  0  0  0  0  0  0  0  0  0  0
   -7.3963    3.2552   -8.9272 N   0  0  0  0  0  0  0  0  0  0  0  0
  -12.1940    3.7769   -9.2109 N   0  0  0  0  0  0  0  0  0  0  0  0
  1  6  1  0  0  0  0
  2  1  1  0  0  0  0
  3  4  1  0  0  0  0
  3  2  2  0  0  0  0
  4  5  2  0  0  0  0
  5  8  1  0  0  0  0
  5  6  1  0  0  0  0
  6  7  2  0  0  0  0
  8  9  1  0  0  0  0
  9 10  1  0  0  0  0
 11  8  2  0  0  0  0
 12  4  1  0  0  0  0
 12 11  1  0  0  0  0
 13  2  1  0  0  0  0
M  END
>  <CHROM.1>
-106.48417595,-43.98987292,-8.78853498,4.25878060,-7.50171919,2.68465435
0.05161983,-2.10014223

>  <Name>
lig.pdb

>  <RI>
1.82164e+07

>  <Rbt.Current_Directory>
/home/itssahil/PROJECTS/Mol_Feturizer/New_Systems/rnas/2miy

>  <Rbt.Executable>
rbdock ($Id: //depot/dev/client3/rdock/2013.1/src/exe/rbdock.cxx#4 $)

>  <Rbt.Library>
libRbt.so (2013.1, Build901 2013/11/27)

>  <Rbt.Parameter_File>
/export/apps/rDock/src/rDock_2013.1_src/data/scripts/dock_solv.prm

>  <Rbt.Receptor>
prm/blind_docking_80.prm

>  <SCORE>
-43.41

>  <SCORE.INTER>
-45.8141

>  <SCORE.INTER.CONST>
1

>  <SCORE.INTER.POLAR>
-6.07295

>  <SCORE.INTER.ROT>
2

>  <SCORE.INTER.SOLV>
20.823

>  <SCORE.INTER.VDW>
-22.1739

>  <SCORE.INTER.norm>
-3.52416

>  <SCORE.INTRA>
2.3383

>  <SCORE.INTRA.DIHEDRAL>
1.59274

>  <SCORE.INTRA.DIHEDRAL.0>
1.76676

>  <SCORE.INTRA.POLAR>
0.472211

>  <SCORE.INTRA.POLAR.0>
-0.472211

>  <SCORE.INTRA.REPUL>
0

>  <SCORE.INTRA.REPUL.0>
0

>  <SCORE.INTRA.SOLV>
-0.576451

>  <SCORE.INTRA.SOLV.lig_0>
-22.5855

>  <SCORE.INTRA.VDW>
0.224638

>  <SCORE.INTRA.VDW.0>
-0.733656

>  <SCORE.INTRA.norm>
0.179869

>  <SCORE.RESTR>
0.0657699

>  <SCORE.RESTR.CAVITY>
0.0657699

>  <SCORE.RESTR.norm>
0.00505922

>  <SCORE.SYSTEM>
0

>  <SCORE.SYSTEM.CONST>
0

>  <SCORE.SYSTEM.DIHEDRAL>
0

>  <SCORE.SYSTEM.SOLV>
0

>  <SCORE.SYSTEM.norm>
0

>  <SCORE.heavy>
13

>  <SCORE.norm>
-3.33923

>  <RMSD>
0.803

$$$$
lig.pdb
 OpenBabel11021811453D
libRbt.so/2013.1/901 2013/11/27
 13 14  0  0  0  0  0  0  0  0999 V2000
  -10.9412    4.4859   -7.3302 N   0  0  0  0  0  0  0  0  0  0  0  0
  -10.9910    3.9135   -8.5696 C   0  0  0  0  0  0  0  0  0  0  0  0
   -9.8845    3.4852   -9.1501 N   0  0  0  0  0  0  0  0  0  0  0  0
   -8.6595    3.5938   -8.5509 C   0  0  0  0  0  0  0  0  0  0  0  0
   -8.5493    4.1844   -7.2686 C   0  0  0  0  0  0  0  0  0  0  0  0
   -9.7504    4.6434   -6.6486 C   0  0  0  0  0  0  0  0  0  0  0  0
   -9.7256    5.1627   -5.5465 O   0  0  0  0  0  0  0  0  0  0  0  0
   -7.1242    4.1589   -6.9187 C   0  0  0  0  0  0  0  0  0  0  0  0
   -6.4751    4.6855   -5.6661 C   0  0  0  0  0  0  0  0  0  0  0  0
   -5.7553    5.9292   -5.9706 N   0  0  0  0  0  0  0  0  0  0  0  0
   -6.5007    3.5721   -7.9478 C   0  0  0  0  0  0  0  0  0  0  0  0
   -7.4010    3.2386   -8.9245 N   0  0  0  0  0  0  0  0  0  0  0  0
  -12.1957    3.7847   -9.2116 N   0  0  0  0  0  0  0  0  0  0  0  0
  1  6  1  0  0  0  0
  2  1  1  0  0  0  0
  3  4  1  0  0  0  0
  3  2  2  0  0  0  0
  4  5  2  0  0  0  0
  5  8  1  0  0  0  0
  5  6  1  0  0  0  0
  6  7  2  0  0  0  0
  8  9  1  0  0  0  0
  9 10  1  0  0  0  0
 11  8  2  0  0  0  0
 12  4  1  0  0  0  0
 12 11  1  0  0  0  0
 13  2  1  0  0  0  0
M  END
>  <CHROM.1>
-106.12043719,135.56101220,-8.78934608,4.25302903,-7.50177689,2.68629287
0.05644722,-2.10298470

>  <Name>
lig.pdb

>  <RI>
9.06885e+06

>  <Rbt.Current_Directory>
/home/itssahil/PROJECTS/Mol_Feturizer/New_Systems/rnas/2miy

>  <Rbt.Executable>
rbdock ($Id: //depot/dev/client3/rdock/2013.1/src/exe/rbdock.cxx#4 $)

>  <Rbt.Library>
libRbt.so (2013.1, Build901 2013/11/27)

>  <Rbt.Parameter_File>
/export/apps/rDock/src/rDock_2013.1_src/data/scripts/dock_solv.prm

>  <Rbt.Receptor>
prm/pocket_docking_6.prm

>  <SCORE>
-43.4776

>  <SCORE.INTER>
-45.8312

>  <SCORE.INTER.CONST>
1

>  <SCORE.INTER.POLAR>
-6.08748

>  <SCORE.INTER.ROT>
2

>  <SCORE.INTER.SOLV>
20.796

>  <SCORE.INTER.VDW>
-22.1279

>  <SCORE.INTER.norm>
-3.52547

>  <SCORE.INTRA>
2.35356

>  <SCORE.INTRA.DIHEDRAL>
1.62479

>  <SCORE.INTRA.DIHEDRAL.0>
1.76676

>  <SCORE.INTRA.POLAR>
0.472211

>  <SCORE.INTRA.POLAR.0>
-0.472211

>  <SCORE.INTRA.REPUL>
0

>  <SCORE.INTRA.REPUL.0>
0

>  <SCORE.INTRA.SOLV>
-0.574637

>  <SCORE.INTRA.SOLV.lig_0>
-22.5855

>  <SCORE.INTRA.VDW>
0.222961

>  <SCORE.INTRA.VDW.0>
-0.733656

>  <SCORE.INTRA.norm>
0.181043

>  <SCORE.RESTR>
0

>  <SCORE.RESTR.CAVITY>
0

>  <SCORE.RESTR.norm>
0

>  <SCORE.SYSTEM>
0

>  <SCORE.SYSTEM.CONST>
0

>  <SCORE.SYSTEM.DIHEDRAL>
0

>  <SCORE.SYSTEM.SOLV>
0

>  <SCORE.SYSTEM.norm>
0

>  <SCORE.heavy>
13

>  <SCORE.norm>
-3.34443

>  <RMSD>
0.806

$$$$
lig.pdb
 OpenBabel11021811453D
libRbt.so/2013.1/901 2013/11/27
 13 14  0  0  0  0  0  0  0  0999 V2000
  -10.9395    4.4984   -7.3388 N   0  0  0  0  0  0  0  0  0  0  0  0
  -10.9889    3.9199   -8.5755 C   0  0  0  0  0  0  0  0  0  0  0  0
   -9.8825    3.4855   -9.1519 N   0  0  0  0  0  0  0  0  0  0  0  0
   -8.6583    3.5936   -8.5511 C   0  0  0  0  0  0  0  0  0  0  0  0
   -8.5486    4.1903   -7.2716 C   0  0  0  0  0  0  0  0  0  0  0  0
   -9.7495    4.6558   -6.6560 C   0  0  0  0  0  0  0  0  0  0  0  0
   -9.7251    5.1805   -5.5563 O   0  0  0  0  0  0  0  0  0  0  0  0
   -7.1242    4.1624   -6.9190 C   0  0  0  0  0  0  0  0  0  0  0  0
   -6.4758    4.6934   -5.6679 C   0  0  0  0  0  0  0  0  0  0  0  0
   -5.7591    5.9381   -5.9755 N   0  0  0  0  0  0  0  0  0  0  0  0
   -6.5007    3.5687   -7.9441 C   0  0  0  0  0  0  0  0  0  0  0  0
   -7.4001    3.2329   -8.9207 N   0  0  0  0  0  0  0  0  0  0  0  0
  -12.1928    3.7914   -9.2189 N   0  0  0  0  0  0  0  0  0  0  0  0
  1  6  1  0  0  0  0
  2  1  1  0  0  0  0
  3  4  1  0  0  0  0
  3  2  2  0  0  0  0
  4  5  2  0  0  0  0
  5  8  1  0  0  0  0
  5  6  1  0  0  0  0
  6  7  2  0  0  0  0
  8  9  1  0  0  0  0
  9 10  1  0  0  0  0
 11  8  2  0  0  0  0
 12  4  1  0  0  0  0
 12 11  1  0  0  0  0
 13  2  1  0  0  0  0
M  END
>  <CHROM.1>
-105.75834103,-45.18970267,-8.78861976,4.25880094,-7.50521020,2.68561857
0.05994661,-2.10839716

>  <Name>
lig.pdb

>  <RI>
3.47783e+07

>  <Rbt.Current_Directory>
/home/itssahil/PROJECTS/Mol_Feturizer/New_Systems/rnas/2miy

>  <Rbt.Executable>
rbdock ($Id: //depot/dev/client3/rdock/2013.1/src/exe/rbdock.cxx#4 $)

>  <Rbt.Library>
libRbt.so (2013.1, Build901 2013/11/27)

>  <Rbt.Parameter_File>
/export/apps/rDock/src/rDock_2013.1_src/data/scripts/dock_solv.prm

>  <Rbt.Receptor>
prm/pocket_docking_8.prm

>  <SCORE>
-43.5025

>  <SCORE.INTER>
-45.8345

>  <SCORE.INTER.CONST>
1

>  <SCORE.INTER.POLAR>
-6.07745

>  <SCORE.INTER.ROT>
2

>  <SCORE.INTER.SOLV>
20.834

>  <SCORE.INTER.VDW>
-22.1762

>  <SCORE.INTER.norm>
-3.52573

>  <SCORE.INTRA>
2.33196

>  <SCORE.INTRA.DIHEDRAL>
1.56655

>  <SCORE.INTRA.DIHEDRAL.0>
1.76676

>  <SCORE.INTRA.POLAR>
0.472211

>  <SCORE.INTRA.POLAR.0>
-0.472211

>  <SCORE.INTRA.REPUL>
0

>  <SCORE.INTRA.REPUL.0>
0

>  <SCORE.INTRA.SOLV>
-0.573443

>  <SCORE.INTRA.SOLV.lig_0>
-22.5855

>  <SCORE.INTRA.VDW>
0.229893

>  <SCORE.INTRA.VDW.0>
-0.733656

>  <SCORE.INTRA.norm>
0.179382

>  <SCORE.RESTR>
0

>  <SCORE.RESTR.CAVITY>
0

>  <SCORE.RESTR.norm>
0

>  <SCORE.SYSTEM>
0

>  <SCORE.SYSTEM.CONST>
0

>  <SCORE.SYSTEM.DIHEDRAL>
0

>  <SCORE.SYSTEM.SOLV>
0

>  <SCORE.SYSTEM.norm>
0

>  <SCORE.heavy>
13

>  <SCORE.norm>
-3.34635

>  <RMSD>
0.812

$$$$
lig.pdb
 OpenBabel11021811453D
libRbt.so/2013.1/901 2013/11/27
 13 14  0  0  0  0  0  0  0  0999 V2000
  -10.9306    4.5223   -7.3427 N   0  0  0  0  0  0  0  0  0  0  0  0
  -10.9860    3.9339   -8.5744 C   0  0  0  0  0  0  0  0  0  0  0  0
   -9.8840    3.4848   -9.1479 N   0  0  0  0  0  0  0  0  0  0  0  0
   -8.6584    3.5871   -8.5489 C   0  0  0  0  0  0  0  0  0  0  0  0
   -8.5425    4.1935   -7.2745 C   0  0  0  0  0  0  0  0  0  0  0  0
   -9.7387    4.6749   -6.6620 C   0  0  0  0  0  0  0  0  0  0  0  0
   -9.7088    5.2086   -5.5669 O   0  0  0  0  0  0  0  0  0  0  0  0
   -7.1181    4.1560   -6.9227 C   0  0  0  0  0  0  0  0  0  0  0  0
   -6.4641    4.6917   -5.6765 C   0  0  0  0  0  0  0  0  0  0  0  0
   -5.7751    5.9516   -5.9854 N   0  0  0  0  0  0  0  0  0  0  0  0
   -6.5006    3.5480   -7.9432 C   0  0  0  0  0  0  0  0  0  0  0  0
   -7.4038    3.2121   -8.9162 N   0  0  0  0  0  0  0  0  0  0  0  0
  -12.1915    3.8107   -9.2159 N   0  0  0  0  0  0  0  0  0  0  0  0
  1  6  1  0  0  0  0
  2  1  1  0  0  0  0
  3  4  1  0  0  0  0
  3  2  2  0  0  0  0
  4  5  2  0  0  0  0
  5  8  1  0  0  0  0
  5  6  1  0  0  0  0
  6  7  2  0  0  0  0
  8  9  1  0  0  0  0
  9 10  1  0  0  0  0
 11  8  2  0  0  0  0
 12  4  1  0  0  0  0
 12 11  1  0  0  0  0
 13  2  1  0  0  0  0
M  END
>  <CHROM.1>
-103.82990032,130.94232081,-8.78576629,4.26451794,-7.50773572,2.68761203
0.06787200,-2.11977195

>  <Name>
lig.pdb

>  <RI>
3.47783e+07

>  <Rbt.Current_Directory>
/home/itssahil/PROJECTS/Mol_Feturizer/New_Systems/rnas/2miy

>  <Rbt.Executable>
rbdock ($Id: //depot/dev/client3/rdock/2013.1/src/exe/rbdock.cxx#4 $)

>  <Rbt.Library>
libRbt.so (2013.1, Build901 2013/11/27)

>  <Rbt.Parameter_File>
/export/apps/rDock/src/rDock_2013.1_src/data/scripts/dock_solv.prm

>  <Rbt.Receptor>
prm/pocket_docking_8.prm

>  <SCORE>
-43.3759

>  <SCORE.INTER>
-45.6779

>  <SCORE.INTER.CONST>
1

>  <SCORE.INTER.POLAR>
-6.1145

>  <SCORE.INTER.ROT>
2

>  <SCORE.INTER.SOLV>
20.8265

>  <SCORE.INTER.VDW>
-21.9458

>  <SCORE.INTER.norm>
-3.51369

>  <SCORE.INTRA>
2.30201

>  <SCORE.INTRA.DIHEDRAL>
1.52682

>  <SCORE.INTRA.DIHEDRAL.0>
1.76676

>  <SCORE.INTRA.POLAR>
0.472211

>  <SCORE.INTRA.POLAR.0>
-0.472211

>  <SCORE.INTRA.REPUL>
0

>  <SCORE.INTRA.REPUL.0>
0

>  <SCORE.INTRA.SOLV>
-0.565207

>  <SCORE.INTRA.SOLV.lig_0>
-22.5855

>  <SCORE.INTRA.VDW>
0.215689

>  <SCORE.INTRA.VDW.0>
-0.733656

>  <SCORE.INTRA.norm>
0.177078

>  <SCORE.RESTR>
0

>  <SCORE.RESTR.CAVITY>
0

>  <SCORE.RESTR.norm>
0

>  <SCORE.SYSTEM>
0

>  <SCORE.SYSTEM.CONST>
0

>  <SCORE.SYSTEM.DIHEDRAL>
0

>  <SCORE.SYSTEM.SOLV>
0

>  <SCORE.SYSTEM.norm>
0

>  <SCORE.heavy>
13

>  <SCORE.norm>
-3.33661

>  <RMSD>
0.818

$$$$
lig.pdb
 OpenBabel11021811453D
libRbt.so/2013.1/901 2013/11/27
 13 14  0  0  0  0  0  0  0  0999 V2000
  -10.9389    4.5185   -7.3785 N   0  0  0  0  0  0  0  0  0  0  0  0
  -10.9904    3.9231   -8.6071 C   0  0  0  0  0  0  0  0  0  0  0  0
   -9.8856    3.4774   -9.1777 N   0  0  0  0  0  0  0  0  0  0  0  0
   -8.6608    3.5901   -8.5789 C   0  0  0  0  0  0  0  0  0  0  0  0
   -8.5489    4.2041   -7.3078 C   0  0  0  0  0  0  0  0  0  0  0  0
   -9.7481    4.6818   -6.6983 C   0  0  0  0  0  0  0  0  0  0  0  0
   -9.7217    5.2216   -5.6061 O   0  0  0  0  0  0  0  0  0  0  0  0
   -7.1245    4.1768   -6.9553 C   0  0  0  0  0  0  0  0  0  0  0  0
   -6.4740    4.7231   -5.7119 C   0  0  0  0  0  0  0  0  0  0  0  0
   -5.8204    6.0020   -6.0199 N   0  0  0  0  0  0  0  0  0  0  0  0
   -6.5031    3.5670   -7.9723 C   0  0  0  0  0  0  0  0  0  0  0  0
   -7.4039    3.2205   -8.9438 N   0  0  0  0  0  0  0  0  0  0  0  0
  -12.1949    3.7894   -9.2483 N   0  0  0  0  0  0  0  0  0  0  0  0
  1  6  1  0  0  0  0
  2  1  1  0  0  0  0
  3  4  1  0  0  0  0
  3  2  2  0  0  0  0
  4  5  2  0  0  0  0
  5  8  1  0  0  0  0
  5  6  1  0  0  0  0
  6  7  2  0  0  0  0
  8  9  1  0  0  0  0
  9 10  1  0  0  0  0
 11  8  2  0  0  0  0
 12  4  1  0  0  0  0
 12 11  1  0  0  0  0
 13  2  1  0  0  0  0
M  END
>  <CHROM.1>
-102.44252135,-54.31656532,-8.79499783,4.27392969,-7.54066865,2.68195326
0.06368549,-2.12682713

>  <Name>
lig.pdb

>  <RI>
2.95488e+07

>  <Rbt.Current_Directory>
/home/itssahil/PROJECTS/Mol_Feturizer/New_Systems/rnas/2miy

>  <Rbt.Executable>
rbdock ($Id: //depot/dev/client3/rdock/2013.1/src/exe/rbdock.cxx#4 $)

>  <Rbt.Library>
libRbt.so (2013.1, Build901 2013/11/27)

>  <Rbt.Parameter_File>
/export/apps/rDock/src/rDock_2013.1_src/data/scripts/dock_solv.prm

>  <Rbt.Receptor>
prm/blind_docking_20.prm

>  <SCORE>
-43.0102

>  <SCORE.INTER>
-45.3965

>  <SCORE.INTER.CONST>
1

>  <SCORE.INTER.POLAR>
-5.98914

>  <SCORE.INTER.ROT>
2

>  <SCORE.INTER.SOLV>
20.9147

>  <SCORE.INTER.VDW>
-22.2054

>  <SCORE.INTER.norm>
-3.49204

>  <SCORE.INTRA>
2.24713

>  <SCORE.INTRA.DIHEDRAL>
1.43886

>  <SCORE.INTRA.DIHEDRAL.0>
1.76676

>  <SCORE.INTRA.POLAR>
0.472211

>  <SCORE.INTRA.POLAR.0>
-0.472211

>  <SCORE.INTRA.REPUL>
0

>  <SCORE.INTRA.REPUL.0>
0

>  <SCORE.INTRA.SOLV>
-0.560379

>  <SCORE.INTRA.SOLV.lig_0>
-22.5855

>  <SCORE.INTRA.VDW>
0.202374

>  <SCORE.INTRA.VDW.0>
-0.733656

>  <SCORE.INTRA.norm>
0.172856

>  <SCORE.RESTR>
0.139135

>  <SCORE.RESTR.CAVITY>
0.139135

>  <SCORE.RESTR.norm>
0.0107027

>  <SCORE.SYSTEM>
0

>  <SCORE.SYSTEM.CONST>
0

>  <SCORE.SYSTEM.DIHEDRAL>
0

>  <SCORE.SYSTEM.SOLV>
0

>  <SCORE.SYSTEM.norm>
0

>  <SCORE.heavy>
13

>  <SCORE.norm>
-3.30848

>  <RMSD>
0.824

$$$$
lig.pdb
 OpenBabel11021811453D
libRbt.so/2013.1/901 2013/11/27
 13 14  0  0  0  0  0  0  0  0999 V2000
  -10.9388    4.5343   -7.3669 N   0  0  0  0  0  0  0  0  0  0  0  0
  -10.9895    3.9408   -8.5964 C   0  0  0  0  0  0  0  0  0  0  0  0
   -9.8860    3.4851   -9.1616 N   0  0  0  0  0  0  0  0  0  0  0  0
   -8.6634    3.5852   -8.5561 C   0  0  0  0  0  0  0  0  0  0  0  0
   -8.5525    4.1967   -7.2837 C   0  0  0  0  0  0  0  0  0  0  0  0
   -9.7502    4.6853   -6.6801 C   0  0  0  0  0  0  0  0  0  0  0  0
   -9.7246    5.2236   -5.5871 O   0  0  0  0  0  0  0  0  0  0  0  0
   -7.1303    4.1552   -6.9236 C   0  0  0  0  0  0  0  0  0  0  0  0
   -6.4813    4.6938   -5.6760 C   0  0  0  0  0  0  0  0  0  0  0  0
   -5.7822    5.9476   -5.9873 N   0  0  0  0  0  0  0  0  0  0  0  0
   -6.5093    3.5406   -7.9379 C   0  0  0  0  0  0  0  0  0  0  0  0
   -7.4082    3.2039   -8.9147 N   0  0  0  0  0  0  0  0  0  0  0  0
  -12.1918    3.8194   -9.2442 N   0  0  0  0  0  0  0  0  0  0  0  0
  1  6  1  0  0  0  0
  2  1  1  0  0  0  0
  3  4  1  0  0  0  0
  3  2  2  0  0  0  0
  4  5  2  0  0  0  0
  5  8  1  0  0  0  0
  5  6  1  0  0  0  0
  6  7  2  0  0  0  0
  8  9  1  0  0  0  0
  9 10  1  0  0  0  0
 11  8  2  0  0  0  0
 12  4  1  0  0  0  0
 12 11  1  0  0  0  0
 13  2  1  0  0  0  0
M  END
>  <CHROM.1>
-104.00646790,-46.16979871,-8.79364599,4.26737843,-7.51858722,2.68489130
0.07400329,-2.12348012

>  <Name>
lig.pdb

>  <RI>
9.06885e+06

>  <Rbt.Current_Directory>
/home/itssahil/PROJECTS/Mol_Feturizer/New_Systems/rnas/2miy

>  <Rbt.Executable>
rbdock ($Id: //depot/dev/client3/rdock/2013.1/src/exe/rbdock.cxx#4 $)

>  <Rbt.Library>
libRbt.so (2013.1, Build901 2013/11/27)

>  <Rbt.Parameter_File>
/export/apps/rDock/src/rDock_2013.1_src/data/scripts/dock_solv.prm

>  <Rbt.Receptor>
prm/pocket_docking_6.prm

>  <SCORE>
-43.4174

>  <SCORE.INTER>
-45.7095

>  <SCORE.INTER.CONST>
1

>  <SCORE.INTER.POLAR>
-6.04856

>  <SCORE.INTER.ROT>
2

>  <SCORE.INTER.SOLV>
20.8678

>  <SCORE.INTER.VDW>
-22.2004

>  <SCORE.INTER.norm>
-3.51611

>  <SCORE.INTRA>
2.29208

>  <SCORE.INTRA.DIHEDRAL>
1.49658

>  <SCORE.INTRA.DIHEDRAL.0>
1.76676

>  <SCORE.INTRA.POLAR>
0.472211

>  <SCORE.INTRA.POLAR.0>
-0.472211

>  <SCORE.INTRA.REPUL>
0

>  <SCORE.INTRA.REPUL.0>
0

>  <SCORE.INTRA.SOLV>
-0.565635

>  <SCORE.INTRA.SOLV.lig_0>
-22.5855

>  <SCORE.INTRA.VDW>
0.221093

>  <SCORE.INTRA.VDW.0>
-0.733656

>  <SCORE.INTRA.norm>
0.176314

>  <SCORE.RESTR>
0

>  <SCORE.RESTR.CAVITY>
0

>  <SCORE.RESTR.norm>
0

>  <SCORE.SYSTEM>
0

>  <SCORE.SYSTEM.CONST>
0

>  <SCORE.SYSTEM.DIHEDRAL>
0

>  <SCORE.SYSTEM.SOLV>
0

>  <SCORE.SYSTEM.norm>
0

>  <SCORE.heavy>
13

>  <SCORE.norm>
-3.3398

>  <RMSD>
0.828

$$$$
lig.pdb
 OpenBabel11021811453D
libRbt.so/2013.1/901 2013/11/27
 13 14  0  0  0  0  0  0  0  0999 V2000
  -10.9530    4.5052   -7.3865 N   0  0  0  0  0  0  0  0  0  0  0  0
  -11.0110    3.9347   -8.6264 C   0  0  0  0  0  0  0  0  0  0  0  0
   -9.9117    3.4849   -9.2044 N   0  0  0  0  0  0  0  0  0  0  0  0
   -8.6863    3.5688   -8.6020 C   0  0  0  0  0  0  0  0  0  0  0  0
   -8.5678    4.1563   -7.3190 C   0  0  0  0  0  0  0  0  0  0  0  0
   -9.7611    4.6386   -6.7018 C   0  0  0  0  0  0  0  0  0  0  0  0
   -9.7288    5.1566   -5.5992 O   0  0  0  0  0  0  0  0  0  0  0  0
   -7.1444    4.1023   -6.9655 C   0  0  0  0  0  0  0  0  0  0  0  0
   -6.4882    4.6152   -5.7109 C   0  0  0  0  0  0  0  0  0  0  0  0
   -5.7796    5.8682   -6.0032 N   0  0  0  0  0  0  0  0  0  0  0  0
   -6.5300    3.5039   -7.9934 C   0  0  0  0  0  0  0  0  0  0  0  0
   -7.4341    3.1890   -8.9726 N   0  0  0  0  0  0  0  0  0  0  0  0
  -12.2164    3.8302   -9.2715 N   0  0  0  0  0  0  0  0  0  0  0  0
  1  6  1  0  0  0  0
  2  1  1  0  0  0  0
  3  4  1  0  0  0  0
  3  2  2  0  0  0  0
  4  5  2  0  0  0  0
  5  8  1  0  0  0  0
  5  6  1  0  0  0  0
  6  7  2  0  0  0  0
  8  9  1  0  0  0  0
  9 10  1  0  0  0  0
 11  8  2  0  0  0  0
 12  4  1  0  0  0  0
 12 11  1  0  0  0  0
 13  2  1  0  0  0  0
M  END
>  <CHROM.1>
-104.27929263,132.63458613,-8.80921235,4.23199946,-7.55185571,2.69104422
0.07542799,-2.10525537

>  <Name>
lig.pdb

>  <RI>
1.8118e+07

>  <Rbt.Current_Directory>
/home/itssahil/PROJECTS/Mol_Feturizer/New_Systems/rnas/2miy

>  <Rbt.Executable>
rbdock ($Id: //depot/dev/client3/rdock/2013.1/src/exe/rbdock.cxx#4 $)

>  <Rbt.Library>
libRbt.so (2013.1, Build901 2013/11/27)

>  <Rbt.Parameter_File>
/export/apps/rDock/src/rDock_2013.1_src/data/scripts/dock_solv.prm

>  <Rbt.Receptor>
prm/blind_docking_100.prm

>  <SCORE>
-40.6725

>  <SCORE.INTER>
-45.321

>  <SCORE.INTER.CONST>
1

>  <SCORE.INTER.POLAR>
-5.97096

>  <SCORE.INTER.ROT>
2

>  <SCORE.INTER.SOLV>
20.7993

>  <SCORE.INTER.VDW>
-22.1772

>  <SCORE.INTER.norm>
-3.48623

>  <SCORE.INTRA>
2.31655

>  <SCORE.INTRA.DIHEDRAL>
1.54799

>  <SCORE.INTRA.DIHEDRAL.0>
1.76676

>  <SCORE.INTRA.POLAR>
0.472211

>  <SCORE.INTRA.POLAR.0>
-0.472211

>  <SCORE.INTRA.REPUL>
0

>  <SCORE.INTRA.REPUL.0>
0

>  <SCORE.INTRA.SOLV>
-0.566887

>  <SCORE.INTRA.SOLV.lig_0>
-22.5855

>  <SCORE.INTRA.VDW>
0.220475

>  <SCORE.INTRA.VDW.0>
-0.733656

>  <SCORE.INTRA.norm>
0.178196

>  <SCORE.RESTR>
2.33197

>  <SCORE.RESTR.CAVITY>
2.33197

>  <SCORE.RESTR.norm>
0.179382

>  <SCORE.SYSTEM>
0

>  <SCORE.SYSTEM.CONST>
0

>  <SCORE.SYSTEM.DIHEDRAL>
0

>  <SCORE.SYSTEM.SOLV>
0

>  <SCORE.SYSTEM.norm>
0

>  <SCORE.heavy>
13

>  <SCORE.norm>
-3.12865

>  <RMSD>
0.835

$$$$
lig.pdb
 OpenBabel11021811453D
libRbt.so/2013.1/901 2013/11/27
 13 14  0  0  0  0  0  0  0  0999 V2000
  -10.7197    4.7714   -7.1685 N   0  0  0  0  0  0  0  0  0  0  0  0
  -10.7536    3.9753   -8.2782 C   0  0  0  0  0  0  0  0  0  0  0  0
   -9.6357    3.4743   -8.7725 N   0  0  0  0  0  0  0  0  0  0  0  0
   -8.4144    3.7251   -8.2095 C   0  0  0  0  0  0  0  0  0  0  0  0
   -8.3208    4.5487   -7.0613 C   0  0  0  0  0  0  0  0  0  0  0  0
   -9.5339    5.0848   -6.5336 C   0  0  0  0  0  0  0  0  0  0  0  0
   -9.5236    5.8023   -5.5486 O   0  0  0  0  0  0  0  0  0  0  0  0
   -6.8958    4.6262   -6.7188 C   0  0  0  0  0  0  0  0  0  0  0  0
   -6.2617    5.3953   -5.5900 C   0  0  0  0  0  0  0  0  0  0  0  0
   -6.7208    6.7901   -5.6262 N   0  0  0  0  0  0  0  0  0  0  0  0
   -6.2563    3.8728   -7.6220 C   0  0  0  0  0  0  0  0  0  0  0  0
   -7.1468    3.3388   -8.5149 N   0  0  0  0  0  0  0  0  0  0  0  0
  -11.9539    3.6972   -8.8796 N   0  0  0  0  0  0  0  0  0  0  0  0
  1  6  1  0  0  0  0
  2  1  1  0  0  0  0
  3  4  1  0  0  0  0
  3  2  2  0  0  0  0
  4  5  2  0  0  0  0
  5  8  1  0  0  0  0
  5  6  1  0  0  0  0
  6  7  2  0  0  0  0
  8  9  1  0  0  0  0
  9 10  1  0  0  0  0
 11  8  2  0  0  0  0
 12  4  1  0  0  0  0
 12 11  1  0  0  0  0
 13  2  1  0  0  0  0
M  END
>  <CHROM.1>
-51.58334199,6.80982891,-8.66916233,4.58589999,-7.25564308,2.58064143,0.07854892
-2.30667306

>  <Name>
lig.pdb

>  <RI>
4.2128e+07

>  <Rbt.Current_Directory>
/home/itssahil/PROJECTS/Mol_Feturizer/New_Systems/rnas/2miy

>  <Rbt.Executable>
rbdock ($Id: //depot/dev/client3/rdock/2013.1/src/exe/rbdock.cxx#4 $)

>  <Rbt.Library>
libRbt.so (2013.1, Build901 2013/11/27)

>  <Rbt.Parameter_File>
/export/apps/rDock/src/rDock_2013.1_src/data/scripts/dock_solv.prm

>  <Rbt.Receptor>
prm/pocket_docking_5.prm

>  <SCORE>
-44.6781

>  <SCORE.INTER>
-46.1995

>  <SCORE.INTER.CONST>
1

>  <SCORE.INTER.POLAR>
-5.00537

>  <SCORE.INTER.ROT>
2

>  <SCORE.INTER.SOLV>
19.2858

>  <SCORE.INTER.VDW>
-25.477

>  <SCORE.INTER.norm>
-3.5538

>  <SCORE.INTRA>
1.52139

>  <SCORE.INTRA.DIHEDRAL>
-0.21473

>  <SCORE.INTRA.DIHEDRAL.0>
1.76676

>  <SCORE.INTRA.POLAR>
0.472211

>  <SCORE.INTRA.POLAR.0>
-0.472211

>  <SCORE.INTRA.REPUL>
0

>  <SCORE.INTRA.REPUL.0>
0

>  <SCORE.INTRA.SOLV>
-0.0785826

>  <SCORE.INTRA.SOLV.lig_0>
-22.5855

>  <SCORE.INTRA.VDW>
0.0625306

>  <SCORE.INTRA.VDW.0>
-0.733656

>  <SCORE.INTRA.norm>
0.11703

>  <SCORE.RESTR>
0

>  <SCORE.RESTR.CAVITY>
0

>  <SCORE.RESTR.norm>
0

>  <SCORE.SYSTEM>
0

>  <SCORE.SYSTEM.CONST>
0

>  <SCORE.SYSTEM.DIHEDRAL>
0

>  <SCORE.SYSTEM.SOLV>
0

>  <SCORE.SYSTEM.norm>
0

>  <SCORE.heavy>
13

>  <SCORE.norm>
-3.43677

>  <RMSD>
0.860

$$$$
lig.pdb
 OpenBabel11021811453D
libRbt.so/2013.1/901 2013/11/27
 13 14  0  0  0  0  0  0  0  0999 V2000
  -10.7046    4.7628   -7.1528 N   0  0  0  0  0  0  0  0  0  0  0  0
  -10.7302    3.9621   -8.2594 C   0  0  0  0  0  0  0  0  0  0  0  0
   -9.6076    3.4674   -8.7493 N   0  0  0  0  0  0  0  0  0  0  0  0
   -8.3894    3.7295   -8.1846 C   0  0  0  0  0  0  0  0  0  0  0  0
   -8.3044    4.5583   -7.0395 C   0  0  0  0  0  0  0  0  0  0  0  0
   -9.5226    5.0875   -6.5165 C   0  0  0  0  0  0  0  0  0  0  0  0
   -9.5197    5.8089   -5.5344 O   0  0  0  0  0  0  0  0  0  0  0  0
   -6.8807    4.6477   -6.6942 C   0  0  0  0  0  0  0  0  0  0  0  0
   -6.2548    5.4259   -5.5671 C   0  0  0  0  0  0  0  0  0  0  0  0
   -6.7259    6.8166   -5.6085 N   0  0  0  0  0  0  0  0  0  0  0  0
   -6.2338    3.8955   -7.5930 C   0  0  0  0  0  0  0  0  0  0  0  0
   -7.1183    3.3513   -8.4857 N   0  0  0  0  0  0  0  0  0  0  0  0
  -11.9272    3.6727   -8.8622 N   0  0  0  0  0  0  0  0  0  0  0  0
  1  6  1  0  0  0  0
  2  1  1  0  0  0  0
  3  4  1  0  0  0  0
  3  2  2  0  0  0  0
  4  5  2  0  0  0  0
  5  8  1  0  0  0  0
  5  6  1  0  0  0  0
  6  7  2  0  0  0  0
  8  9  1  0  0  0  0
  9 10  1  0  0  0  0
 11  8  2  0  0  0  0
 12  4  1  0  0  0  0
 12 11  1  0  0  0  0
 13  2  1  0  0  0  0
M  END
>  <CHROM.1>
-51.48481963,5.37505791,-8.65278034,4.59208482,-7.23460081,2.57387080,0.07463472
-2.30998770

>  <Name>
lig.pdb

>  <RI>
4.2128e+07

>  <Rbt.Current_Directory>
/home/itssahil/PROJECTS/Mol_Feturizer/New_Systems/rnas/2miy

>  <Rbt.Executable>
rbdock ($Id: //depot/dev/client3/rdock/2013.1/src/exe/rbdock.cxx#4 $)

>  <Rbt.Library>
libRbt.so (2013.1, Build901 2013/11/27)

>  <Rbt.Parameter_File>
/export/apps/rDock/src/rDock_2013.1_src/data/scripts/dock_solv.prm

>  <Rbt.Receptor>
prm/pocket_docking_5.prm

>  <SCORE>
-44.6937

>  <SCORE.INTER>
-46.2165

>  <SCORE.INTER.CONST>
1

>  <SCORE.INTER.POLAR>
-4.95955

>  <SCORE.INTER.ROT>
2

>  <SCORE.INTER.SOLV>
19.2211

>  <SCORE.INTER.VDW>
-25.6195

>  <SCORE.INTER.norm>
-3.55511

>  <SCORE.INTRA>
1.52275

>  <SCORE.INTRA.DIHEDRAL>
-0.214491

>  <SCORE.INTRA.DIHEDRAL.0>
1.76676

>  <SCORE.INTRA.POLAR>
0.472211

>  <SCORE.INTRA.POLAR.0>
-0.472211

>  <SCORE.INTRA.REPUL>
0

>  <SCORE.INTRA.REPUL.0>
0

>  <SCORE.INTRA.SOLV>
-0.0776641

>  <SCORE.INTRA.SOLV.lig_0>
-22.5855

>  <SCORE.INTRA.VDW>
0.0633047

>  <SCORE.INTRA.VDW.0>
-0.733656

>  <SCORE.INTRA.norm>
0.117134

>  <SCORE.RESTR>
0

>  <SCORE.RESTR.CAVITY>
0

>  <SCORE.RESTR.norm>
0

>  <SCORE.SYSTEM>
0

>  <SCORE.SYSTEM.CONST>
0

>  <SCORE.SYSTEM.DIHEDRAL>
0

>  <SCORE.SYSTEM.SOLV>
0

>  <SCORE.SYSTEM.norm>
0

>  <SCORE.heavy>
13

>  <SCORE.norm>
-3.43798

>  <RMSD>
0.872

$$$$
lig.pdb
 OpenBabel11021811453D
libRbt.so/2013.1/901 2013/11/27
 13 14  0  0  0  0  0  0  0  0999 V2000
  -10.9599    4.5967   -7.4440 N   0  0  0  0  0  0  0  0  0  0  0  0
  -11.0301    4.0035   -8.6727 C   0  0  0  0  0  0  0  0  0  0  0  0
   -9.9432    3.5061   -9.2349 N   0  0  0  0  0  0  0  0  0  0  0  0
   -8.7190    3.5617   -8.6269 C   0  0  0  0  0  0  0  0  0  0  0  0
   -8.5879    4.1707   -7.3553 C   0  0  0  0  0  0  0  0  0  0  0  0
   -9.7678    4.7046   -6.7550 C   0  0  0  0  0  0  0  0  0  0  0  0
   -9.7244    5.2433   -5.6628 O   0  0  0  0  0  0  0  0  0  0  0  0
   -7.1690    4.0769   -6.9922 C   0  0  0  0  0  0  0  0  0  0  0  0
   -6.5029    4.5931   -5.7441 C   0  0  0  0  0  0  0  0  0  0  0  0
   -5.7182    5.7926   -6.0654 N   0  0  0  0  0  0  0  0  0  0  0  0
   -6.5693    3.4379   -8.0042 C   0  0  0  0  0  0  0  0  0  0  0  0
   -7.4781    3.1333   -8.9823 N   0  0  0  0  0  0  0  0  0  0  0  0
  -12.2348    3.9259   -9.3228 N   0  0  0  0  0  0  0  0  0  0  0  0
  1  6  1  0  0  0  0
  2  1  1  0  0  0  0
  3  4  1  0  0  0  0
  3  2  2  0  0  0  0
  4  5  2  0  0  0  0
  5  8  1  0  0  0  0
  5  6  1  0  0  0  0
  6  7  2  0  0  0  0
  8  9  1  0  0  0  0
  9 10  1  0  0  0  0
 11  8  2  0  0  0  0
 12  4  1  0  0  0  0
 12 11  1  0  0  0  0
 13  2  1  0  0  0  0
M  END
>  <CHROM.1>
-105.99963806,165.06072716,-8.82232415,4.24748239,-7.59175440,2.70514632
0.10597185,-2.12321113

>  <Name>
lig.pdb

>  <RI>
1.8118e+07

>  <Rbt.Current_Directory>
/home/itssahil/PROJECTS/Mol_Feturizer/New_Systems/rnas/2miy

>  <Rbt.Executable>
rbdock ($Id: //depot/dev/client3/rdock/2013.1/src/exe/rbdock.cxx#4 $)

>  <Rbt.Library>
libRbt.so (2013.1, Build901 2013/11/27)

>  <Rbt.Parameter_File>
/export/apps/rDock/src/rDock_2013.1_src/data/scripts/dock_solv.prm

>  <Rbt.Receptor>
prm/blind_docking_100.prm

>  <SCORE>
-39.6656

>  <SCORE.INTER>
-44.3007

>  <SCORE.INTER.CONST>
1

>  <SCORE.INTER.POLAR>
-6.17348

>  <SCORE.INTER.ROT>
2

>  <SCORE.INTER.SOLV>
21.0411

>  <SCORE.INTER.VDW>
-20.9025

>  <SCORE.INTER.norm>
-3.40775

>  <SCORE.INTRA>
2.41134

>  <SCORE.INTRA.DIHEDRAL>
1.61844

>  <SCORE.INTRA.DIHEDRAL.0>
1.76676

>  <SCORE.INTRA.POLAR>
0.472211

>  <SCORE.INTRA.POLAR.0>
-0.472211

>  <SCORE.INTRA.REPUL>
0

>  <SCORE.INTRA.REPUL.0>
0

>  <SCORE.INTRA.SOLV>
-0.570599

>  <SCORE.INTRA.SOLV.lig_0>
-22.5855

>  <SCORE.INTRA.VDW>
0.281903

>  <SCORE.INTRA.VDW.0>
-0.733656

>  <SCORE.INTRA.norm>
0.185488

>  <SCORE.RESTR>
2.22376

>  <SCORE.RESTR.CAVITY>
2.22376

>  <SCORE.RESTR.norm>
0.171058

>  <SCORE.SYSTEM>
0

>  <SCORE.SYSTEM.CONST>
0

>  <SCORE.SYSTEM.DIHEDRAL>
0

>  <SCORE.SYSTEM.SOLV>
0

>  <SCORE.SYSTEM.norm>
0

>  <SCORE.heavy>
13

>  <SCORE.norm>
-3.0512

>  <RMSD>
0.892

$$$$
lig.pdb
 OpenBabel11021811453D
libRbt.so/2013.1/901 2013/11/27
 13 14  0  0  0  0  0  0  0  0999 V2000
  -10.9895    4.1842   -7.1259 N   0  0  0  0  0  0  0  0  0  0  0  0
  -11.0221    3.9656   -8.4741 C   0  0  0  0  0  0  0  0  0  0  0  0
   -9.9135    3.6657   -9.1268 N   0  0  0  0  0  0  0  0  0  0  0  0
   -8.7033    3.5637   -8.4972 C   0  0  0  0  0  0  0  0  0  0  0  0
   -8.6112    3.7862   -7.1018 C   0  0  0  0  0  0  0  0  0  0  0  0
   -9.8143    4.1087   -6.4045 C   0  0  0  0  0  0  0  0  0  0  0  0
   -9.8045    4.3137   -5.2033 O   0  0  0  0  0  0  0  0  0  0  0  0
   -7.1982    3.6139   -6.7444 C   0  0  0  0  0  0  0  0  0  0  0  0
   -6.5687    3.7621   -5.3844 C   0  0  0  0  0  0  0  0  0  0  0  0
   -7.4535    3.1795   -4.3668 N   0  0  0  0  0  0  0  0  0  0  0  0
   -6.5644    3.2995   -7.8809 C   0  0  0  0  0  0  0  0  0  0  0  0
   -7.4465    3.2733   -8.9282 N   0  0  0  0  0  0  0  0  0  0  0  0
  -12.2114    4.0588   -9.1499 N   0  0  0  0  0  0  0  0  0  0  0  0
  1  6  1  0  0  0  0
  2  1  1  0  0  0  0
  3  4  1  0  0  0  0
  3  2  2  0  0  0  0
  4  5  2  0  0  0  0
  5  8  1  0  0  0  0
  5  6  1  0  0  0  0
  6  7  2  0  0  0  0
  8  9  1  0  0  0  0
  9 10  1  0  0  0  0
 11  8  2  0  0  0  0
 12  4  1  0  0  0  0
 12 11  1  0  0  0  0
 13  2  1  0  0  0  0
M  END
>  <CHROM.1>
40.27872224,114.77386475,-8.99624254,3.75242514,-7.22263958,2.54298613,0.17986826
-1.65664846

>  <Name>
lig.pdb

>  <RI>
2.95488e+07

>  <Rbt.Current_Directory>
/home/itssahil/PROJECTS/Mol_Feturizer/New_Systems/rnas/2miy

>  <Rbt.Executable>
rbdock ($Id: //depot/dev/client3/rdock/2013.1/src/exe/rbdock.cxx#4 $)

>  <Rbt.Library>
libRbt.so (2013.1, Build901 2013/11/27)

>  <Rbt.Parameter_File>
/export/apps/rDock/src/rDock_2013.1_src/data/scripts/dock_solv.prm

>  <Rbt.Receptor>
prm/blind_docking_20.prm

>  <SCORE>
-36.4655

>  <SCORE.INTER>
-35.9275

>  <SCORE.INTER.CONST>
1

>  <SCORE.INTER.POLAR>
-4.62494

>  <SCORE.INTER.ROT>
2

>  <SCORE.INTER.SOLV>
15.63

>  <SCORE.INTER.VDW>
-18.6786

>  <SCORE.INTER.norm>
-2.76365

>  <SCORE.INTRA>
-0.705512

>  <SCORE.INTRA.DIHEDRAL>
0.210932

>  <SCORE.INTRA.DIHEDRAL.0>
1.76676

>  <SCORE.INTRA.POLAR>
-0.26515

>  <SCORE.INTRA.POLAR.0>
-0.472211

>  <SCORE.INTRA.REPUL>
0

>  <SCORE.INTRA.REPUL.0>
0

>  <SCORE.INTRA.SOLV>
0.0453134

>  <SCORE.INTRA.SOLV.lig_0>
-22.5855

>  <SCORE.INTRA.VDW>
0.067874

>  <SCORE.INTRA.VDW.0>
-0.733656

>  <SCORE.INTRA.norm>
-0.0542702

>  <SCORE.RESTR>
0.167571

>  <SCORE.RESTR.CAVITY>
0.167571

>  <SCORE.RESTR.norm>
0.0128901

>  <SCORE.SYSTEM>
0

>  <SCORE.SYSTEM.CONST>
0

>  <SCORE.SYSTEM.DIHEDRAL>
0

>  <SCORE.SYSTEM.SOLV>
0

>  <SCORE.SYSTEM.norm>
0

>  <SCORE.heavy>
13

>  <SCORE.norm>
-2.80503

>  <RMSD>
1.091

$$$$
lig.pdb
 OpenBabel11021811453D
libRbt.so/2013.1/901 2013/11/27
 13 14  0  0  0  0  0  0  0  0999 V2000
  -11.0200    4.0494   -6.8622 N   0  0  0  0  0  0  0  0  0  0  0  0
  -10.9378    3.8978   -8.2174 C   0  0  0  0  0  0  0  0  0  0  0  0
   -9.7704    3.6711   -8.7924 N   0  0  0  0  0  0  0  0  0  0  0  0
   -8.6102    3.5811   -8.0731 C   0  0  0  0  0  0  0  0  0  0  0  0
   -8.6369    3.7363   -6.6658 C   0  0  0  0  0  0  0  0  0  0  0  0
   -9.9029    3.9799   -6.0530 C   0  0  0  0  0  0  0  0  0  0  0  0
   -9.9957    4.1246   -4.8466 O   0  0  0  0  0  0  0  0  0  0  0  0
   -7.2506    3.5971   -6.2045 C   0  0  0  0  0  0  0  0  0  0  0  0
   -6.7363    3.6992   -4.7928 C   0  0  0  0  0  0  0  0  0  0  0  0
   -6.7575    2.3717   -4.1644 N   0  0  0  0  0  0  0  0  0  0  0  0
   -6.5176    3.3632   -7.3000 C   0  0  0  0  0  0  0  0  0  0  0  0
   -7.3130    3.3580   -8.4148 N   0  0  0  0  0  0  0  0  0  0  0  0
  -12.0732    3.9821   -8.9815 N   0  0  0  0  0  0  0  0  0  0  0  0
  1  6  1  0  0  0  0
  2  1  1  0  0  0  0
  3  4  1  0  0  0  0
  3  2  2  0  0  0  0
  4  5  2  0  0  0  0
  5  8  1  0  0  0  0
  5  6  1  0  0  0  0
  6  7  2  0  0  0  0
  8  9  1  0  0  0  0
  9 10  1  0  0  0  0
 11  8  2  0  0  0  0
 12  4  1  0  0  0  0
 12 11  1  0  0  0  0
 13  2  1  0  0  0  0
M  END
>  <CHROM.1>
90.15278530,43.36558713,-8.92415266,3.63303460,-6.84530878,2.52817796,0.18456854
-1.57019296

>  <Name>
lig.pdb

>  <RI>
9.06885e+06

>  <Rbt.Current_Directory>
/home/itssahil/PROJECTS/Mol_Feturizer/New_Systems/rnas/2miy

>  <Rbt.Executable>
rbdock ($Id: //depot/dev/client3/rdock/2013.1/src/exe/rbdock.cxx#4 $)

>  <Rbt.Library>
libRbt.so (2013.1, Build901 2013/11/27)

>  <Rbt.Parameter_File>
/export/apps/rDock/src/rDock_2013.1_src/data/scripts/dock_solv.prm

>  <Rbt.Receptor>
prm/pocket_docking_6.prm

>  <SCORE>
-35.3021

>  <SCORE.INTER>
-37.2332

>  <SCORE.INTER.CONST>
1

>  <SCORE.INTER.POLAR>
-4.0005

>  <SCORE.INTER.ROT>
2

>  <SCORE.INTER.SOLV>
15.1883

>  <SCORE.INTER.VDW>
-21.4833

>  <SCORE.INTER.norm>
-2.86409

>  <SCORE.INTRA>
1.9311

>  <SCORE.INTRA.DIHEDRAL>
0.79432

>  <SCORE.INTRA.DIHEDRAL.0>
1.76676

>  <SCORE.INTRA.POLAR>
0.472211

>  <SCORE.INTRA.POLAR.0>
-0.472211

>  <SCORE.INTRA.REPUL>
0

>  <SCORE.INTRA.REPUL.0>
0

>  <SCORE.INTRA.SOLV>
-0.475438

>  <SCORE.INTRA.SOLV.lig_0>
-22.5855

>  <SCORE.INTRA.VDW>
0.16614

>  <SCORE.INTRA.VDW.0>
-0.733656

>  <SCORE.INTRA.norm>
0.148546

>  <SCORE.RESTR>
0

>  <SCORE.RESTR.CAVITY>
0

>  <SCORE.RESTR.norm>
0

>  <SCORE.SYSTEM>
0

>  <SCORE.SYSTEM.CONST>
0

>  <SCORE.SYSTEM.DIHEDRAL>
0

>  <SCORE.SYSTEM.SOLV>
0

>  <SCORE.SYSTEM.norm>
0

>  <SCORE.heavy>
13

>  <SCORE.norm>
-2.71555

>  <RMSD>
1.338

$$$$
lig.pdb
 OpenBabel11021811453D
libRbt.so/2013.1/901 2013/11/27
 13 14  0  0  0  0  0  0  0  0999 V2000
  -10.1043    3.4480   -8.6645 N   0  0  0  0  0  0  0  0  0  0  0  0
  -11.2174    3.6732   -7.9051 C   0  0  0  0  0  0  0  0  0  0  0  0
  -11.1179    4.3035   -6.7485 N   0  0  0  0  0  0  0  0  0  0  0  0
   -9.9191    4.7503   -6.2640 C   0  0  0  0  0  0  0  0  0  0  0  0
   -8.7327    4.5384   -7.0075 C   0  0  0  0  0  0  0  0  0  0  0  0
   -8.8499    3.8574   -8.2565 C   0  0  0  0  0  0  0  0  0  0  0  0
   -7.8679    3.6412   -8.9450 O   0  0  0  0  0  0  0  0  0  0  0  0
   -7.6381    5.1182   -6.2203 C   0  0  0  0  0  0  0  0  0  0  0  0
   -6.1712    5.1384   -6.5602 C   0  0  0  0  0  0  0  0  0  0  0  0
   -5.8284    3.9364   -7.3317 N   0  0  0  0  0  0  0  0  0  0  0  0
   -8.2038    5.6298   -5.1202 C   0  0  0  0  0  0  0  0  0  0  0  0
   -9.5557    5.4115   -5.1326 N   0  0  0  0  0  0  0  0  0  0  0  0
  -12.4414    3.2419   -8.3475 N   0  0  0  0  0  0  0  0  0  0  0  0
  1  6  1  0  0  0  0
  2  1  1  0  0  0  0
  3  4  1  0  0  0  0
  3  2  2  0  0  0  0
  4  5  2  0  0  0  0
  5  8  1  0  0  0  0
  5  6  1  0  0  0  0
  6  7  2  0  0  0  0
  8  9  1  0  0  0  0
  9 10  1  0  0  0  0
 11  8  2  0  0  0  0
 12  4  1  0  0  0  0
 12 11  1  0  0  0  0
 13  2  1  0  0  0  0
M  END
>  <CHROM.1>
-31.59912460,-58.75850784,-9.04682090,4.32028635,-7.16545771,-2.78696493
0.06859164,1.04706653

>  <Name>
lig.pdb

>  <RI>
2.60406e+07

>  <Rbt.Current_Directory>
/home/itssahil/PROJECTS/Mol_Feturizer/New_Systems/rnas/2miy

>  <Rbt.Executable>
rbdock ($Id: //depot/dev/client3/rdock/2013.1/src/exe/rbdock.cxx#4 $)

>  <Rbt.Library>
libRbt.so (2013.1, Build901 2013/11/27)

>  <Rbt.Parameter_File>
/export/apps/rDock/src/rDock_2013.1_src/data/scripts/dock_solv.prm

>  <Rbt.Receptor>
prm/pocket_docking_7.prm

>  <SCORE>
-8.75645

>  <SCORE.INTER>
-11.3158

>  <SCORE.INTER.CONST>
1

>  <SCORE.INTER.POLAR>
-2.73941

>  <SCORE.INTER.ROT>
2

>  <SCORE.INTER.SOLV>
17.5073

>  <SCORE.INTER.VDW>
-9.18162

>  <SCORE.INTER.norm>
-0.870446

>  <SCORE.INTRA>
2.2454

>  <SCORE.INTRA.DIHEDRAL>
0.668118

>  <SCORE.INTRA.DIHEDRAL.0>
1.76676

>  <SCORE.INTRA.POLAR>
0.472211

>  <SCORE.INTRA.POLAR.0>
-0.472211

>  <SCORE.INTRA.REPUL>
0

>  <SCORE.INTRA.REPUL.0>
0

>  <SCORE.INTRA.SOLV>
0.11065

>  <SCORE.INTRA.SOLV.lig_0>
-22.5855

>  <SCORE.INTRA.VDW>
0.250502

>  <SCORE.INTRA.VDW.0>
-0.733656

>  <SCORE.INTRA.norm>
0.172723

>  <SCORE.RESTR>
0.31394

>  <SCORE.RESTR.CAVITY>
0.31394

>  <SCORE.RESTR.norm>
0.0241492

>  <SCORE.SYSTEM>
0

>  <SCORE.SYSTEM.CONST>
0

>  <SCORE.SYSTEM.DIHEDRAL>
0

>  <SCORE.SYSTEM.SOLV>
0

>  <SCORE.SYSTEM.norm>
0

>  <SCORE.heavy>
13

>  <SCORE.norm>
-0.673573

>  <RMSD>
2.642

$$$$
lig.pdb
 OpenBabel11021811453D
libRbt.so/2013.1/901 2013/11/27
 13 14  0  0  0  0  0  0  0  0999 V2000
  -10.0493    3.4485   -8.6414 N   0  0  0  0  0  0  0  0  0  0  0  0
  -11.1721    3.7014   -7.9053 C   0  0  0  0  0  0  0  0  0  0  0  0
  -11.0880    4.3779   -6.7739 N   0  0  0  0  0  0  0  0  0  0  0  0
   -9.8961    4.8467   -6.2932 C   0  0  0  0  0  0  0  0  0  0  0  0
   -8.7002    4.6079   -7.0130 C   0  0  0  0  0  0  0  0  0  0  0  0
   -8.8008    3.8770   -8.2350 C   0  0  0  0  0  0  0  0  0  0  0  0
   -7.8100    3.6357   -8.9021 O   0  0  0  0  0  0  0  0  0  0  0  0
   -7.6165    5.2216   -6.2365 C   0  0  0  0  0  0  0  0  0  0  0  0
   -6.1455    5.2317   -6.5590 C   0  0  0  0  0  0  0  0  0  0  0  0
   -5.7993    4.0206   -7.3148 N   0  0  0  0  0  0  0  0  0  0  0  0
   -8.1966    5.7756   -5.1648 C   0  0  0  0  0  0  0  0  0  0  0  0
   -9.5479    5.5537   -5.1849 N   0  0  0  0  0  0  0  0  0  0  0  0
  -12.3897    3.2497   -8.3449 N   0  0  0  0  0  0  0  0  0  0  0  0
  1  6  1  0  0  0  0
  2  1  1  0  0  0  0
  3  4  1  0  0  0  0
  3  2  2  0  0  0  0
  4  5  2  0  0  0  0
  5  8  1  0  0  0  0
  5  6  1  0  0  0  0
  6  7  2  0  0  0  0
  8  9  1  0  0  0  0
  9 10  1  0  0  0  0
 11  8  2  0  0  0  0
 12  4  1  0  0  0  0
 12 11  1  0  0  0  0
 13  2  1  0  0  0  0
M  END
>  <CHROM.1>
-29.80413621,-122.43091956,-9.01277590,4.38484735,-7.16946138,-2.77563615
0.06572288,1.00676652

>  <Name>
lig.pdb

>  <RI>
2.68696e+07

>  <Rbt.Current_Directory>
/home/itssahil/PROJECTS/Mol_Feturizer/New_Systems/rnas/2miy

>  <Rbt.Executable>
rbdock ($Id: //depot/dev/client3/rdock/2013.1/src/exe/rbdock.cxx#4 $)

>  <Rbt.Library>
libRbt.so (2013.1, Build901 2013/11/27)

>  <Rbt.Parameter_File>
/export/apps/rDock/src/rDock_2013.1_src/data/scripts/dock_solv.prm

>  <Rbt.Receptor>
prm/pocket_docking_4.prm

>  <SCORE>
-8.08471

>  <SCORE.INTER>
-7.67028

>  <SCORE.INTER.CONST>
1

>  <SCORE.INTER.POLAR>
-2.00695

>  <SCORE.INTER.ROT>
2

>  <SCORE.INTER.SOLV>
17.7043

>  <SCORE.INTER.VDW>
-9.25844

>  <SCORE.INTER.norm>
-0.590021

>  <SCORE.INTRA>
-0.414429

>  <SCORE.INTRA.DIHEDRAL>
0.770997

>  <SCORE.INTRA.DIHEDRAL.0>
1.76676

>  <SCORE.INTRA.POLAR>
-0.372857

>  <SCORE.INTRA.POLAR.0>
-0.472211

>  <SCORE.INTRA.REPUL>
0

>  <SCORE.INTRA.REPUL.0>
0

>  <SCORE.INTRA.SOLV>
0.132574

>  <SCORE.INTRA.SOLV.lig_0>
-22.5855

>  <SCORE.INTRA.VDW>
0.4015

>  <SCORE.INTRA.VDW.0>
-0.733656

>  <SCORE.INTRA.norm>
-0.0318791

>  <SCORE.RESTR>
0

>  <SCORE.RESTR.CAVITY>
0

>  <SCORE.RESTR.norm>
0

>  <SCORE.SYSTEM>
0

>  <SCORE.SYSTEM.CONST>
0

>  <SCORE.SYSTEM.DIHEDRAL>
0

>  <SCORE.SYSTEM.SOLV>
0

>  <SCORE.SYSTEM.norm>
0

>  <SCORE.heavy>
13

>  <SCORE.norm>
-0.621901

>  <RMSD>
2.645

$$$$
lig.pdb
 OpenBabel11021811453D
libRbt.so/2013.1/901 2013/11/27
 13 14  0  0  0  0  0  0  0  0999 V2000
   -9.9567    3.4038   -8.6193 N   0  0  0  0  0  0  0  0  0  0  0  0
  -11.0857    3.7037   -7.9108 C   0  0  0  0  0  0  0  0  0  0  0  0
  -11.0082    4.4330   -6.8122 N   0  0  0  0  0  0  0  0  0  0  0  0
   -9.8172    4.9120   -6.3393 C   0  0  0  0  0  0  0  0  0  0  0  0
   -8.6152    4.6262   -7.0312 C   0  0  0  0  0  0  0  0  0  0  0  0
   -8.7088    3.8383   -8.2179 C   0  0  0  0  0  0  0  0  0  0  0  0
   -7.7125    3.5547   -8.8597 O   0  0  0  0  0  0  0  0  0  0  0  0
   -7.5345    5.2652   -6.2712 C   0  0  0  0  0  0  0  0  0  0  0  0
   -6.0596    5.2444   -6.5748 C   0  0  0  0  0  0  0  0  0  0  0  0
   -5.7236    4.0104   -7.2974 N   0  0  0  0  0  0  0  0  0  0  0  0
   -8.1217    5.8764   -5.2350 C   0  0  0  0  0  0  0  0  0  0  0  0
   -9.4749    5.6680   -5.2618 N   0  0  0  0  0  0  0  0  0  0  0  0
  -12.3028    3.2441   -8.3438 N   0  0  0  0  0  0  0  0  0  0  0  0
  1  6  1  0  0  0  0
  2  1  1  0  0  0  0
  3  4  1  0  0  0  0
  3  2  2  0  0  0  0
  4  5  2  0  0  0  0
  5  8  1  0  0  0  0
  5  6  1  0  0  0  0
  6  7  2  0  0  0  0
  8  9  1  0  0  0  0
  9 10  1  0  0  0  0
 11  8  2  0  0  0  0
 12  4  1  0  0  0  0
 12 11  1  0  0  0  0
 13  2  1  0  0  0  0
M  END
>  <CHROM.1>
-28.36230712,-65.34655375,-8.92881802,4.40058871,-7.18358405,-2.77300183
0.05399466,0.96002968

>  <Name>
lig.pdb

>  <RI>
4.2128e+07

>  <Rbt.Current_Directory>
/home/itssahil/PROJECTS/Mol_Feturizer/New_Systems/rnas/2miy

>  <Rbt.Executable>
rbdock ($Id: //depot/dev/client3/rdock/2013.1/src/exe/rbdock.cxx#4 $)

>  <Rbt.Library>
libRbt.so (2013.1, Build901 2013/11/27)

>  <Rbt.Parameter_File>
/export/apps/rDock/src/rDock_2013.1_src/data/scripts/dock_solv.prm

>  <Rbt.Receptor>
prm/pocket_docking_5.prm

>  <SCORE>
-9.20522

>  <SCORE.INTER>
-11.743

>  <SCORE.INTER.CONST>
1

>  <SCORE.INTER.POLAR>
-2.86436

>  <SCORE.INTER.ROT>
2

>  <SCORE.INTER.SOLV>
18.0278

>  <SCORE.INTER.VDW>
-9.2234

>  <SCORE.INTER.norm>
-0.903309

>  <SCORE.INTRA>
2.47841

>  <SCORE.INTRA.DIHEDRAL>
0.864692

>  <SCORE.INTRA.DIHEDRAL.0>
1.76676

>  <SCORE.INTRA.POLAR>
0.472211

>  <SCORE.INTRA.POLAR.0>
-0.472211

>  <SCORE.INTRA.REPUL>
0

>  <SCORE.INTRA.REPUL.0>
0

>  <SCORE.INTRA.SOLV>
0.135232

>  <SCORE.INTRA.SOLV.lig_0>
-22.5855

>  <SCORE.INTRA.VDW>
0.372926

>  <SCORE.INTRA.VDW.0>
-0.733656

>  <SCORE.INTRA.norm>
0.190647

>  <SCORE.RESTR>
0.0593919

>  <SCORE.RESTR.CAVITY>
0.0593919

>  <SCORE.RESTR.norm>
0.00456861

>  <SCORE.SYSTEM>
0

>  <SCORE.SYSTEM.CONST>
0

>  <SCORE.SYSTEM.DIHEDRAL>
0

>  <SCORE.SYSTEM.SOLV>
0

>  <SCORE.SYSTEM.norm>
0

>  <SCORE.heavy>
13

>  <SCORE.norm>
-0.708094

>  <RMSD>
2.646

$$$$
lig.pdb
 OpenBabel11021811453D
libRbt.so/2013.1/901 2013/11/27
 13 14  0  0  0  0  0  0  0  0999 V2000
  -10.0365    3.4605   -8.6295 N   0  0  0  0  0  0  0  0  0  0  0  0
  -11.1621    3.6995   -7.8932 C   0  0  0  0  0  0  0  0  0  0  0  0
  -11.0846    4.3683   -6.7567 N   0  0  0  0  0  0  0  0  0  0  0  0
   -9.8969    4.8426   -6.2710 C   0  0  0  0  0  0  0  0  0  0  0  0
   -8.6983    4.6180   -6.9909 C   0  0  0  0  0  0  0  0  0  0  0  0
   -8.7919    3.8953   -8.2184 C   0  0  0  0  0  0  0  0  0  0  0  0
   -7.7984    3.6664   -8.8859 O   0  0  0  0  0  0  0  0  0  0  0  0
   -7.6202    5.2341   -6.2086 C   0  0  0  0  0  0  0  0  0  0  0  0
   -6.1490    5.2576   -6.5290 C   0  0  0  0  0  0  0  0  0  0  0  0
   -5.8049    4.0868   -7.3466 N   0  0  0  0  0  0  0  0  0  0  0  0
   -8.2059    5.7759   -5.1336 C   0  0  0  0  0  0  0  0  0  0  0  0
   -9.5554    5.5441   -5.1571 N   0  0  0  0  0  0  0  0  0  0  0  0
  -12.3758    3.2419   -8.3376 N   0  0  0  0  0  0  0  0  0  0  0  0
  1  6  1  0  0  0  0
  2  1  1  0  0  0  0
  3  4  1  0  0  0  0
  3  2  2  0  0  0  0
  4  5  2  0  0  0  0
  5  8  1  0  0  0  0
  5  6  1  0  0  0  0
  6  7  2  0  0  0  0
  8  9  1  0  0  0  0
  9 10  1  0  0  0  0
 11  8  2  0  0  0  0
 12  4  1  0  0  0  0
 12 11  1  0  0  0  0
 13  2  1  0  0  0  0
M  END
>  <CHROM.1>
-27.17558316,-122.78656491,-9.01014207,4.39673649,-7.15443557,-2.77249240
0.07632903,1.01577033

>  <Name>
lig.pdb

>  <RI>
2.68696e+07

>  <Rbt.Current_Directory>
/home/itssahil/PROJECTS/Mol_Feturizer/New_Systems/rnas/2miy

>  <Rbt.Executable>
rbdock ($Id: //depot/dev/client3/rdock/2013.1/src/exe/rbdock.cxx#4 $)

>  <Rbt.Library>
libRbt.so (2013.1, Build901 2013/11/27)

>  <Rbt.Parameter_File>
/export/apps/rDock/src/rDock_2013.1_src/data/scripts/dock_solv.prm

>  <Rbt.Receptor>
prm/pocket_docking_4.prm

>  <SCORE>
-7.96503

>  <SCORE.INTER>
-7.83516

>  <SCORE.INTER.CONST>
1

>  <SCORE.INTER.POLAR>
-1.97985

>  <SCORE.INTER.ROT>
2

>  <SCORE.INTER.SOLV>
17.6524

>  <SCORE.INTER.VDW>
-9.4414

>  <SCORE.INTER.norm>
-0.602705

>  <SCORE.INTRA>
-0.129868

>  <SCORE.INTRA.DIHEDRAL>
0.921339

>  <SCORE.INTRA.DIHEDRAL.0>
1.76676

>  <SCORE.INTRA.POLAR>
-0.351049

>  <SCORE.INTRA.POLAR.0>
-0.472211

>  <SCORE.INTRA.REPUL>
0

>  <SCORE.INTRA.REPUL.0>
0

>  <SCORE.INTRA.SOLV>
0.154817

>  <SCORE.INTRA.SOLV.lig_0>
-22.5855

>  <SCORE.INTRA.VDW>
0.525619

>  <SCORE.INTRA.VDW.0>
-0.733656

>  <SCORE.INTRA.norm>
-0.00998986

>  <SCORE.RESTR>
0

>  <SCORE.RESTR.CAVITY>
0

>  <SCORE.RESTR.norm>
0

>  <SCORE.SYSTEM>
0

>  <SCORE.SYSTEM.CONST>
0

>  <SCORE.SYSTEM.DIHEDRAL>
0

>  <SCORE.SYSTEM.SOLV>
0

>  <SCORE.SYSTEM.norm>
0

>  <SCORE.heavy>
13

>  <SCORE.norm>
-0.612695

>  <RMSD>
2.648

$$$$
lig.pdb
 OpenBabel11021811453D
libRbt.so/2013.1/901 2013/11/27
 13 14  0  0  0  0  0  0  0  0999 V2000
  -10.0044    3.4901   -8.6397 N   0  0  0  0  0  0  0  0  0  0  0  0
  -11.1339    3.7291   -7.9094 C   0  0  0  0  0  0  0  0  0  0  0  0
  -11.0628    4.3999   -6.7737 N   0  0  0  0  0  0  0  0  0  0  0  0
   -9.8781    4.8763   -6.2829 C   0  0  0  0  0  0  0  0  0  0  0  0
   -8.6757    4.6518   -6.9964 C   0  0  0  0  0  0  0  0  0  0  0  0
   -8.7623    3.9269   -8.2230 C   0  0  0  0  0  0  0  0  0  0  0  0
   -7.7652    3.6979   -8.8852 O   0  0  0  0  0  0  0  0  0  0  0  0
   -7.6022    5.2703   -6.2096 C   0  0  0  0  0  0  0  0  0  0  0  0
   -6.1294    5.2949   -6.5227 C   0  0  0  0  0  0  0  0  0  0  0  0
   -5.7573    4.0652   -7.2349 N   0  0  0  0  0  0  0  0  0  0  0  0
   -8.1938    5.8133   -5.1385 C   0  0  0  0  0  0  0  0  0  0  0  0
   -9.5429    5.5800   -5.1684 N   0  0  0  0  0  0  0  0  0  0  0  0
  -12.3449    3.2695   -8.3592 N   0  0  0  0  0  0  0  0  0  0  0  0
  1  6  1  0  0  0  0
  2  1  1  0  0  0  0
  3  4  1  0  0  0  0
  3  2  2  0  0  0  0
  4  5  2  0  0  0  0
  5  8  1  0  0  0  0
  5  6  1  0  0  0  0
  6  7  2  0  0  0  0
  8  9  1  0  0  0  0
  9 10  1  0  0  0  0
 11  8  2  0  0  0  0
 12  4  1  0  0  0  0
 12 11  1  0  0  0  0
 13  2  1  0  0  0  0
M  END
>  <CHROM.1>
-32.10913346,117.17512815,-8.98444340,4.42446435,-7.15156017,-2.76470953
0.06703854,1.01077746

>  <Name>
lig.pdb

>  <RI>
2.95488e+07

>  <Rbt.Current_Directory>
/home/itssahil/PROJECTS/Mol_Feturizer/New_Systems/rnas/2miy

>  <Rbt.Executable>
rbdock ($Id: //depot/dev/client3/rdock/2013.1/src/exe/rbdock.cxx#4 $)

>  <Rbt.Library>
libRbt.so (2013.1, Build901 2013/11/27)

>  <Rbt.Parameter_File>
/export/apps/rDock/src/rDock_2013.1_src/data/scripts/dock_solv.prm

>  <Rbt.Receptor>
prm/blind_docking_20.prm

>  <SCORE>
-9.2403

>  <SCORE.INTER>
-11.5249

>  <SCORE.INTER.CONST>
1

>  <SCORE.INTER.POLAR>
-2.7915

>  <SCORE.INTER.ROT>
2

>  <SCORE.INTER.SOLV>
17.7823

>  <SCORE.INTER.VDW>
-9.23906

>  <SCORE.INTER.norm>
-0.886533

>  <SCORE.INTRA>
2.2192

>  <SCORE.INTRA.DIHEDRAL>
0.637936

>  <SCORE.INTRA.DIHEDRAL.0>
1.76676

>  <SCORE.INTRA.POLAR>
0.472211

>  <SCORE.INTRA.POLAR.0>
-0.472211

>  <SCORE.INTRA.REPUL>
0

>  <SCORE.INTRA.REPUL.0>
0

>  <SCORE.INTRA.SOLV>
0.10872

>  <SCORE.INTRA.SOLV.lig_0>
-22.5855

>  <SCORE.INTRA.VDW>
0.240355

>  <SCORE.INTRA.VDW.0>
-0.733656

>  <SCORE.INTRA.norm>
0.170708

>  <SCORE.RESTR>
0.0654299

>  <SCORE.RESTR.CAVITY>
0.0654299

>  <SCORE.RESTR.norm>
0.00503307

>  <SCORE.SYSTEM>
0

>  <SCORE.SYSTEM.CONST>
0

>  <SCORE.SYSTEM.DIHEDRAL>
0

>  <SCORE.SYSTEM.SOLV>
0

>  <SCORE.SYSTEM.norm>
0

>  <SCORE.heavy>
13

>  <SCORE.norm>
-0.710792

>  <RMSD>
2.650

$$$$
lig.pdb
 OpenBabel11021811453D
libRbt.so/2013.1/901 2013/11/27
 13 14  0  0  0  0  0  0  0  0999 V2000
   -9.9887    3.4768   -8.6131 N   0  0  0  0  0  0  0  0  0  0  0  0
  -11.1195    3.7176   -7.8853 C   0  0  0  0  0  0  0  0  0  0  0  0
  -11.0513    4.3965   -6.7543 N   0  0  0  0  0  0  0  0  0  0  0  0
   -9.8683    4.8797   -6.2658 C   0  0  0  0  0  0  0  0  0  0  0  0
   -8.6647    4.6538   -6.9769 C   0  0  0  0  0  0  0  0  0  0  0  0
   -8.7482    3.9202   -8.1985 C   0  0  0  0  0  0  0  0  0  0  0  0
   -7.7500    3.6895   -8.8583 O   0  0  0  0  0  0  0  0  0  0  0  0
   -7.5936    5.2810   -6.1936 C   0  0  0  0  0  0  0  0  0  0  0  0
   -6.1207    5.3077   -6.5058 C   0  0  0  0  0  0  0  0  0  0  0  0
   -5.7893    4.1984   -7.4098 N   0  0  0  0  0  0  0  0  0  0  0  0
   -8.1877    5.8297   -5.1268 C   0  0  0  0  0  0  0  0  0  0  0  0
   -9.5361    5.5922   -5.1561 N   0  0  0  0  0  0  0  0  0  0  0  0
  -12.3288    3.2513   -8.3328 N   0  0  0  0  0  0  0  0  0  0  0  0
  1  6  1  0  0  0  0
  2  1  1  0  0  0  0
  3  4  1  0  0  0  0
  3  2  2  0  0  0  0
  4  5  2  0  0  0  0
  5  8  1  0  0  0  0
  5  6  1  0  0  0  0
  6  7  2  0  0  0  0
  8  9  1  0  0  0  0
  9 10  1  0  0  0  0
 11  8  2  0  0  0  0
 12  4  1  0  0  0  0
 12 11  1  0  0  0  0
 13  2  1  0  0  0  0
M  END
>  <CHROM.1>
-22.15162144,129.00465506,-8.97684530,4.43612141,-7.14943983,-2.76969630
0.08846322,1.01111305

>  <Name>
lig.pdb

>  <RI>
2.95488e+07

>  <Rbt.Current_Directory>
/home/itssahil/PROJECTS/Mol_Feturizer/New_Systems/rnas/2miy

>  <Rbt.Executable>
rbdock ($Id: //depot/dev/client3/rdock/2013.1/src/exe/rbdock.cxx#4 $)

>  <Rbt.Library>
libRbt.so (2013.1, Build901 2013/11/27)

>  <Rbt.Parameter_File>
/export/apps/rDock/src/rDock_2013.1_src/data/scripts/dock_solv.prm

>  <Rbt.Receptor>
prm/blind_docking_20.prm

>  <SCORE>
-9.17543

>  <SCORE.INTER>
-12.2081

>  <SCORE.INTER.CONST>
1

>  <SCORE.INTER.POLAR>
-2.75925

>  <SCORE.INTER.ROT>
2

>  <SCORE.INTER.SOLV>
17.759

>  <SCORE.INTER.VDW>
-9.79427

>  <SCORE.INTER.norm>
-0.939088

>  <SCORE.INTRA>
2.98323

>  <SCORE.INTRA.DIHEDRAL>
1.21753

>  <SCORE.INTRA.DIHEDRAL.0>
1.76676

>  <SCORE.INTRA.POLAR>
0.472211

>  <SCORE.INTRA.POLAR.0>
-0.472211

>  <SCORE.INTRA.REPUL>
0

>  <SCORE.INTRA.REPUL.0>
0

>  <SCORE.INTRA.SOLV>
0.181693

>  <SCORE.INTRA.SOLV.lig_0>
-22.5855

>  <SCORE.INTRA.VDW>
0.678101

>  <SCORE.INTRA.VDW.0>
-0.733656

>  <SCORE.INTRA.norm>
0.229479

>  <SCORE.RESTR>
0.0494787

>  <SCORE.RESTR.CAVITY>
0.0494787

>  <SCORE.RESTR.norm>
0.00380605

>  <SCORE.SYSTEM>
0

>  <SCORE.SYSTEM.CONST>
0

>  <SCORE.SYSTEM.DIHEDRAL>
0

>  <SCORE.SYSTEM.SOLV>
0

>  <SCORE.SYSTEM.norm>
0

>  <SCORE.heavy>
13

>  <SCORE.norm>
-0.705802

>  <RMSD>
2.654

$$$$
lig.pdb
 OpenBabel11021811453D
libRbt.so/2013.1/901 2013/11/27
 13 14  0  0  0  0  0  0  0  0999 V2000
   -9.8617    3.6694   -8.7887 N   0  0  0  0  0  0  0  0  0  0  0  0
  -10.9865    4.1145   -8.1539 C   0  0  0  0  0  0  0  0  0  0  0  0
  -10.9040    4.6448   -6.9468 N   0  0  0  0  0  0  0  0  0  0  0  0
   -9.7123    4.7695   -6.2868 C   0  0  0  0  0  0  0  0  0  0  0  0
   -8.5159    4.3191   -6.8960 C   0  0  0  0  0  0  0  0  0  0  0  0
   -8.6146    3.7484   -8.2007 C   0  0  0  0  0  0  0  0  0  0  0  0
   -7.6237    3.3397   -8.7805 O   0  0  0  0  0  0  0  0  0  0  0  0
   -7.4354    4.5825   -5.9384 C   0  0  0  0  0  0  0  0  0  0  0  0
   -5.9706    4.2707   -6.0958 C   0  0  0  0  0  0  0  0  0  0  0  0
   -5.5598    4.5253   -7.4829 N   0  0  0  0  0  0  0  0  0  0  0  0
   -8.0135    5.1584   -4.8771 C   0  0  0  0  0  0  0  0  0  0  0  0
   -9.3648    5.2684   -5.0703 N   0  0  0  0  0  0  0  0  0  0  0  0
  -12.2048    4.0087   -8.7741 N   0  0  0  0  0  0  0  0  0  0  0  0
  1  6  1  0  0  0  0
  2  1  1  0  0  0  0
  3  4  1  0  0  0  0
  3  2  2  0  0  0  0
  4  5  2  0  0  0  0
  5  8  1  0  0  0  0
  5  6  1  0  0  0  0
  6  7  2  0  0  0  0
  8  9  1  0  0  0  0
  9 10  1  0  0  0  0
 11  8  2  0  0  0  0
 12  4  1  0  0  0  0
 12 11  1  0  0  0  0
 13  2  1  0  0  0  0
M  END
>  <CHROM.1>
38.52511077,-90.99621774,-8.82372844,4.32653622,-7.16085715,-2.76990875,-0.06225318
1.18236515

>  <Name>
lig.pdb

>  <RI>
2.95488e+07

>  <Rbt.Current_Directory>
/home/itssahil/PROJECTS/Mol_Feturizer/New_Systems/rnas/2miy

>  <Rbt.Executable>
rbdock ($Id: //depot/dev/client3/rdock/2013.1/src/exe/rbdock.cxx#4 $)

>  <Rbt.Library>
libRbt.so (2013.1, Build901 2013/11/27)

>  <Rbt.Parameter_File>
/export/apps/rDock/src/rDock_2013.1_src/data/scripts/dock_solv.prm

>  <Rbt.Receptor>
prm/blind_docking_20.prm

>  <SCORE>
9.05555

>  <SCORE.INTER>
7.98926

>  <SCORE.INTER.CONST>
1

>  <SCORE.INTER.POLAR>
-3.94063

>  <SCORE.INTER.ROT>
2

>  <SCORE.INTER.SOLV>
16.8451

>  <SCORE.INTER.VDW>
7.91326

>  <SCORE.INTER.norm>
0.614559

>  <SCORE.INTRA>
1.06629

>  <SCORE.INTRA.DIHEDRAL>
0.338152

>  <SCORE.INTRA.DIHEDRAL.0>
1.76676

>  <SCORE.INTRA.POLAR>
0.227467

>  <SCORE.INTRA.POLAR.0>
-0.472211

>  <SCORE.INTRA.REPUL>
0

>  <SCORE.INTRA.REPUL.0>
0

>  <SCORE.INTRA.SOLV>
0.0579647

>  <SCORE.INTRA.SOLV.lig_0>
-22.5855

>  <SCORE.INTRA.VDW>
0.0948412

>  <SCORE.INTRA.VDW.0>
-0.733656

>  <SCORE.INTRA.norm>
0.082022

>  <SCORE.RESTR>
0

>  <SCORE.RESTR.CAVITY>
0

>  <SCORE.RESTR.norm>
0

>  <SCORE.SYSTEM>
0

>  <SCORE.SYSTEM.CONST>
0

>  <SCORE.SYSTEM.DIHEDRAL>
0

>  <SCORE.SYSTEM.SOLV>
0

>  <SCORE.SYSTEM.norm>
0

>  <SCORE.heavy>
13

>  <SCORE.norm>
0.696581

>  <RMSD>
2.656

$$$$
lig.pdb
 OpenBabel11021811453D
libRbt.so/2013.1/901 2013/11/27
 13 14  0  0  0  0  0  0  0  0999 V2000
  -10.4762    3.2683   -8.5150 N   0  0  0  0  0  0  0  0  0  0  0  0
  -11.2908    3.6516   -7.4875 C   0  0  0  0  0  0  0  0  0  0  0  0
  -10.7837    4.2451   -6.4218 N   0  0  0  0  0  0  0  0  0  0  0  0
   -9.4450    4.4976   -6.2975 C   0  0  0  0  0  0  0  0  0  0  0  0
   -8.5544    4.1160   -7.3302 C   0  0  0  0  0  0  0  0  0  0  0  0
   -9.1114    3.4762   -8.4783 C   0  0  0  0  0  0  0  0  0  0  0  0
   -8.4004    3.1209   -9.4021 O   0  0  0  0  0  0  0  0  0  0  0  0
   -7.2114    4.5121   -6.8903 C   0  0  0  0  0  0  0  0  0  0  0  0
   -5.9087    4.3122   -7.6188 C   0  0  0  0  0  0  0  0  0  0  0  0
   -5.4431    2.9326   -7.4244 N   0  0  0  0  0  0  0  0  0  0  0  0
   -7.3694    5.0907   -5.6935 C   0  0  0  0  0  0  0  0  0  0  0  0
   -8.6895    5.0817   -5.3291 N   0  0  0  0  0  0  0  0  0  0  0  0
  -12.6396    3.4178   -7.5649 N   0  0  0  0  0  0  0  0  0  0  0  0
  1  6  1  0  0  0  0
  2  1  1  0  0  0  0
  3  4  1  0  0  0  0
  3  2  2  0  0  0  0
  4  5  2  0  0  0  0
  5  8  1  0  0  0  0
  5  6  1  0  0  0  0
  6  7  2  0  0  0  0
  8  9  1  0  0  0  0
  9 10  1  0  0  0  0
 11  8  2  0  0  0  0
 12  4  1  0  0  0  0
 12 11  1  0  0  0  0
 13  2  1  0  0  0  0
M  END
>  <CHROM.1>
-80.09647471,-80.12935720,-8.87923670,3.93657025,-7.29690974,-3.04102569
0.01724130,1.04989702

>  <Name>
lig.pdb

>  <RI>
1.82164e+07

>  <Rbt.Current_Directory>
/home/itssahil/PROJECTS/Mol_Feturizer/New_Systems/rnas/2miy

>  <Rbt.Executable>
rbdock ($Id: //depot/dev/client3/rdock/2013.1/src/exe/rbdock.cxx#4 $)

>  <Rbt.Library>
libRbt.so (2013.1, Build901 2013/11/27)

>  <Rbt.Parameter_File>
/export/apps/rDock/src/rDock_2013.1_src/data/scripts/dock_solv.prm

>  <Rbt.Receptor>
prm/blind_docking_80.prm

>  <SCORE>
-13.7076

>  <SCORE.INTER>
-15.8673

>  <SCORE.INTER.CONST>
1

>  <SCORE.INTER.POLAR>
-2.15998

>  <SCORE.INTER.ROT>
2

>  <SCORE.INTER.SOLV>
17.6936

>  <SCORE.INTER.VDW>
-14.2095

>  <SCORE.INTER.norm>
-1.22056

>  <SCORE.INTRA>
1.6496

>  <SCORE.INTRA.DIHEDRAL>
0.263154

>  <SCORE.INTRA.DIHEDRAL.0>
1.76676

>  <SCORE.INTRA.POLAR>
0.472211

>  <SCORE.INTRA.POLAR.0>
-0.472211

>  <SCORE.INTRA.REPUL>
0

>  <SCORE.INTRA.REPUL.0>
0

>  <SCORE.INTRA.SOLV>
-0.358905

>  <SCORE.INTRA.SOLV.lig_0>
-22.5855

>  <SCORE.INTRA.VDW>
0.0919525

>  <SCORE.INTRA.VDW.0>
-0.733656

>  <SCORE.INTRA.norm>
0.126892

>  <SCORE.RESTR>
0.510146

>  <SCORE.RESTR.CAVITY>
0.510146

>  <SCORE.RESTR.norm>
0.039242

>  <SCORE.SYSTEM>
0

>  <SCORE.SYSTEM.CONST>
0

>  <SCORE.SYSTEM.DIHEDRAL>
0

>  <SCORE.SYSTEM.SOLV>
0

>  <SCORE.SYSTEM.norm>
0

>  <SCORE.heavy>
13

>  <SCORE.norm>
-1.05443

>  <RMSD>
2.675

$$$$
lig.pdb
 OpenBabel11021811453D
libRbt.so/2013.1/901 2013/11/27
 13 14  0  0  0  0  0  0  0  0999 V2000
   -9.5042    3.4163   -8.1277 N   0  0  0  0  0  0  0  0  0  0  0  0
  -10.7638    3.7145   -7.6908 C   0  0  0  0  0  0  0  0  0  0  0  0
  -10.9367    4.5098   -6.6504 N   0  0  0  0  0  0  0  0  0  0  0  0
   -9.8838    5.0606   -5.9725 C   0  0  0  0  0  0  0  0  0  0  0  0
   -8.5566    4.7802   -6.3790 C   0  0  0  0  0  0  0  0  0  0  0  0
   -8.3794    3.9206   -7.5048 C   0  0  0  0  0  0  0  0  0  0  0  0
   -7.2639    3.6376   -7.9054 O   0  0  0  0  0  0  0  0  0  0  0  0
   -7.6756    5.5033   -5.4544 C   0  0  0  0  0  0  0  0  0  0  0  0
   -6.1699    5.5204   -5.4425 C   0  0  0  0  0  0  0  0  0  0  0  0
   -5.6640    5.2274   -6.7901 N   0  0  0  0  0  0  0  0  0  0  0  0
   -8.4823    6.1519   -4.6053 C   0  0  0  0  0  0  0  0  0  0  0  0
   -9.7941    5.8912   -4.8994 N   0  0  0  0  0  0  0  0  0  0  0  0
  -11.8511    3.1845   -8.3364 N   0  0  0  0  0  0  0  0  0  0  0  0
  1  6  1  0  0  0  0
  2  1  1  0  0  0  0
  3  4  1  0  0  0  0
  3  2  2  0  0  0  0
  4  5  2  0  0  0  0
  5  8  1  0  0  0  0
  5  6  1  0  0  0  0
  6  7  2  0  0  0  0
  8  9  1  0  0  0  0
  9 10  1  0  0  0  0
 11  8  2  0  0  0  0
 12  4  1  0  0  0  0
 12 11  1  0  0  0  0
 13  2  1  0  0  0  0
M  END
>  <CHROM.1>
25.38905274,122.80554252,-8.82614196,4.62453759,-6.65219404,-2.58871672,0.07141134
0.93129446

>  <Name>
lig.pdb

>  <RI>
2.95488e+07

>  <Rbt.Current_Directory>
/home/itssahil/PROJECTS/Mol_Feturizer/New_Systems/rnas/2miy

>  <Rbt.Executable>
rbdock ($Id: //depot/dev/client3/rdock/2013.1/src/exe/rbdock.cxx#4 $)

>  <Rbt.Library>
libRbt.so (2013.1, Build901 2013/11/27)

>  <Rbt.Parameter_File>
/export/apps/rDock/src/rDock_2013.1_src/data/scripts/dock_solv.prm

>  <Rbt.Receptor>
prm/blind_docking_20.prm

>  <SCORE>
-19.7628

>  <SCORE.INTER>
-20.6823

>  <SCORE.INTER.CONST>
1

>  <SCORE.INTER.POLAR>
-2.50751

>  <SCORE.INTER.ROT>
2

>  <SCORE.INTER.SOLV>
17.183

>  <SCORE.INTER.VDW>
-16.0909

>  <SCORE.INTER.norm>
-1.59095

>  <SCORE.INTRA>
0.13121

>  <SCORE.INTRA.DIHEDRAL>
1.05155

>  <SCORE.INTRA.DIHEDRAL.0>
1.76676

>  <SCORE.INTRA.POLAR>
-0.346432

>  <SCORE.INTRA.POLAR.0>
-0.472211

>  <SCORE.INTRA.REPUL>
0

>  <SCORE.INTRA.REPUL.0>
0

>  <SCORE.INTRA.SOLV>
0.178305

>  <SCORE.INTRA.SOLV.lig_0>
-22.5855

>  <SCORE.INTRA.VDW>
0.694153

>  <SCORE.INTRA.VDW.0>
-0.733656

>  <SCORE.INTRA.norm>
0.0100931

>  <SCORE.RESTR>
0.788288

>  <SCORE.RESTR.CAVITY>
0.788288

>  <SCORE.RESTR.norm>
0.0606375

>  <SCORE.SYSTEM>
0

>  <SCORE.SYSTEM.CONST>
0

>  <SCORE.SYSTEM.DIHEDRAL>
0

>  <SCORE.SYSTEM.SOLV>
0

>  <SCORE.SYSTEM.norm>
0

>  <SCORE.heavy>
13

>  <SCORE.norm>
-1.52022

>  <RMSD>
2.718

$$$$
lig.pdb
 OpenBabel11021811453D
libRbt.so/2013.1/901 2013/11/27
 13 14  0  0  0  0  0  0  0  0999 V2000
   -9.5069    3.4250   -8.1206 N   0  0  0  0  0  0  0  0  0  0  0  0
  -10.7674    3.7196   -7.6837 C   0  0  0  0  0  0  0  0  0  0  0  0
  -10.9425    4.5154   -6.6440 N   0  0  0  0  0  0  0  0  0  0  0  0
   -9.8912    5.0703   -5.9670 C   0  0  0  0  0  0  0  0  0  0  0  0
   -8.5633    4.7937   -6.3736 C   0  0  0  0  0  0  0  0  0  0  0  0
   -8.3836    3.9336   -7.4986 C   0  0  0  0  0  0  0  0  0  0  0  0
   -7.2673    3.6537   -7.8992 O   0  0  0  0  0  0  0  0  0  0  0  0
   -7.6843    5.5207   -5.4501 C   0  0  0  0  0  0  0  0  0  0  0  0
   -6.1786    5.5426   -5.4386 C   0  0  0  0  0  0  0  0  0  0  0  0
   -5.6720    5.2359   -6.7829 N   0  0  0  0  0  0  0  0  0  0  0  0
   -8.4928    6.1675   -4.6015 C   0  0  0  0  0  0  0  0  0  0  0  0
   -9.8039    5.9023   -4.8949 N   0  0  0  0  0  0  0  0  0  0  0  0
  -11.8531    3.1854   -8.3284 N   0  0  0  0  0  0  0  0  0  0  0  0
  1  6  1  0  0  0  0
  2  1  1  0  0  0  0
  3  4  1  0  0  0  0
  3  2  2  0  0  0  0
  4  5  2  0  0  0  0
  5  8  1  0  0  0  0
  5  6  1  0  0  0  0
  6  7  2  0  0  0  0
  8  9  1  0  0  0  0
  9 10  1  0  0  0  0
 11  8  2  0  0  0  0
 12  4  1  0  0  0  0
 12 11  1  0  0  0  0
 13  2  1  0  0  0  0
M  END
>  <CHROM.1>
24.79932006,122.28511886,-8.83232849,4.63563183,-6.64631038,-2.58731995,0.07293014
0.92978844

>  <Name>
lig.pdb

>  <RI>
1.51961e+07

>  <Rbt.Current_Directory>
/home/itssahil/PROJECTS/Mol_Feturizer/New_Systems/rnas/2miy

>  <Rbt.Executable>
rbdock ($Id: //depot/dev/client3/rdock/2013.1/src/exe/rbdock.cxx#4 $)

>  <Rbt.Library>
libRbt.so (2013.1, Build901 2013/11/27)

>  <Rbt.Parameter_File>
/export/apps/rDock/src/rDock_2013.1_src/data/scripts/dock_solv.prm

>  <Rbt.Receptor>
prm/pocket_docking_3.prm

>  <SCORE>
-20.531

>  <SCORE.INTER>
-20.7725

>  <SCORE.INTER.CONST>
1

>  <SCORE.INTER.POLAR>
-2.48946

>  <SCORE.INTER.ROT>
2

>  <SCORE.INTER.SOLV>
17.1894

>  <SCORE.INTER.VDW>
-16.2133

>  <SCORE.INTER.norm>
-1.59789

>  <SCORE.INTRA>
0.24156

>  <SCORE.INTRA.DIHEDRAL>
1.0835

>  <SCORE.INTRA.DIHEDRAL.0>
1.76676

>  <SCORE.INTRA.POLAR>
-0.326337

>  <SCORE.INTRA.POLAR.0>
-0.472211

>  <SCORE.INTRA.REPUL>
0

>  <SCORE.INTRA.REPUL.0>
0

>  <SCORE.INTRA.SOLV>
0.181339

>  <SCORE.INTRA.SOLV.lig_0>
-22.5855

>  <SCORE.INTRA.VDW>
0.718688

>  <SCORE.INTRA.VDW.0>
-0.733656

>  <SCORE.INTRA.norm>
0.0185815

>  <SCORE.RESTR>
0

>  <SCORE.RESTR.CAVITY>
0

>  <SCORE.RESTR.norm>
0

>  <SCORE.SYSTEM>
0

>  <SCORE.SYSTEM.CONST>
0

>  <SCORE.SYSTEM.DIHEDRAL>
0

>  <SCORE.SYSTEM.SOLV>
0

>  <SCORE.SYSTEM.norm>
0

>  <SCORE.heavy>
13

>  <SCORE.norm>
-1.57931

>  <RMSD>
2.721

$$$$
lig.pdb
 OpenBabel11021811453D
libRbt.so/2013.1/901 2013/11/27
 13 14  0  0  0  0  0  0  0  0999 V2000
   -6.4298    4.8643   -7.2174 N   0  0  0  0  0  0  0  0  0  0  0  0
   -7.2289    4.0550   -7.9743 C   0  0  0  0  0  0  0  0  0  0  0  0
   -8.4321    3.7183   -7.5457 N   0  0  0  0  0  0  0  0  0  0  0  0
   -8.9254    4.1534   -6.3462 C   0  0  0  0  0  0  0  0  0  0  0  0
   -8.1371    4.9896   -5.5188 C   0  0  0  0  0  0  0  0  0  0  0  0
   -6.8386    5.3490   -5.9905 C   0  0  0  0  0  0  0  0  0  0  0  0
   -6.1086    6.0643   -5.3269 O   0  0  0  0  0  0  0  0  0  0  0  0
   -8.9378    5.2645   -4.3199 C   0  0  0  0  0  0  0  0  0  0  0  0
   -8.5468    6.0889   -3.1219 C   0  0  0  0  0  0  0  0  0  0  0  0
   -7.0991    5.9780   -2.8997 N   0  0  0  0  0  0  0  0  0  0  0  0
  -10.1009    4.6258   -4.4970 C   0  0  0  0  0  0  0  0  0  0  0  0
  -10.1020    3.9581   -5.6927 N   0  0  0  0  0  0  0  0  0  0  0  0
   -6.7775    3.5915   -9.1832 N   0  0  0  0  0  0  0  0  0  0  0  0
  1  6  1  0  0  0  0
  2  1  1  0  0  0  0
  3  4  1  0  0  0  0
  3  2  2  0  0  0  0
  4  5  2  0  0  0  0
  5  8  1  0  0  0  0
  5  6  1  0  0  0  0
  6  7  2  0  0  0  0
  8  9  1  0  0  0  0
  9 10  1  0  0  0  0
 11  8  2  0  0  0  0
 12  4  1  0  0  0  0
 12 11  1  0  0  0  0
 13  2  1  0  0  0  0
M  END
>  <CHROM.1>
-31.98038676,59.15282048,-7.91142314,4.83203630,-5.82766910,-1.32843113,0.35302424
1.13416791

>  <Name>
lig.pdb

>  <RI>
1.51961e+07

>  <Rbt.Current_Directory>
/home/itssahil/PROJECTS/Mol_Feturizer/New_Systems/rnas/2miy

>  <Rbt.Executable>
rbdock ($Id: //depot/dev/client3/rdock/2013.1/src/exe/rbdock.cxx#4 $)

>  <Rbt.Library>
libRbt.so (2013.1, Build901 2013/11/27)

>  <Rbt.Parameter_File>
/export/apps/rDock/src/rDock_2013.1_src/data/scripts/dock_solv.prm

>  <Rbt.Receptor>
prm/pocket_docking_3.prm

>  <SCORE>
-23.2278

>  <SCORE.INTER>
-22.7526

>  <SCORE.INTER.CONST>
1

>  <SCORE.INTER.POLAR>
-2.96756

>  <SCORE.INTER.ROT>
2

>  <SCORE.INTER.SOLV>
12.9111

>  <SCORE.INTER.VDW>
-14.5136

>  <SCORE.INTER.norm>
-1.7502

>  <SCORE.INTRA>
-0.543753

>  <SCORE.INTRA.DIHEDRAL>
0.649592

>  <SCORE.INTRA.DIHEDRAL.0>
1.76676

>  <SCORE.INTRA.POLAR>
-0.362175

>  <SCORE.INTRA.POLAR.0>
-0.472211

>  <SCORE.INTRA.REPUL>
0

>  <SCORE.INTRA.REPUL.0>
0

>  <SCORE.INTRA.SOLV>
0.113513

>  <SCORE.INTRA.SOLV.lig_0>
-22.5855

>  <SCORE.INTRA.VDW>
0.306089

>  <SCORE.INTRA.VDW.0>
-0.733656

>  <SCORE.INTRA.norm>
-0.0418272

>  <SCORE.RESTR>
0.0685753

>  <SCORE.RESTR.CAVITY>
0.0685753

>  <SCORE.RESTR.norm>
0.00527502

>  <SCORE.SYSTEM>
0

>  <SCORE.SYSTEM.CONST>
0

>  <SCORE.SYSTEM.DIHEDRAL>
0

>  <SCORE.SYSTEM.SOLV>
0

>  <SCORE.SYSTEM.norm>
0

>  <SCORE.heavy>
13

>  <SCORE.norm>
-1.78675

>  <RMSD>
3.726

$$$$
lig.pdb
 OpenBabel11021811453D
libRbt.so/2013.1/901 2013/11/27
 13 14  0  0  0  0  0  0  0  0999 V2000
   -8.7289    3.9093   -7.7147 N   0  0  0  0  0  0  0  0  0  0  0  0
   -7.3891    4.0590   -7.9356 C   0  0  0  0  0  0  0  0  0  0  0  0
   -6.6345    4.6862   -7.0513 N   0  0  0  0  0  0  0  0  0  0  0  0
   -7.1484    5.2074   -5.8955 C   0  0  0  0  0  0  0  0  0  0  0  0
   -8.5318    5.0859   -5.6188 C   0  0  0  0  0  0  0  0  0  0  0  0
   -9.3393    4.4058   -6.5796 C   0  0  0  0  0  0  0  0  0  0  0  0
  -10.5372    4.2680   -6.4037 O   0  0  0  0  0  0  0  0  0  0  0  0
   -8.7589    5.7480   -4.3289 C   0  0  0  0  0  0  0  0  0  0  0  0
  -10.0647    5.9140   -3.5974 C   0  0  0  0  0  0  0  0  0  0  0  0
  -10.8548    4.6813   -3.7156 N   0  0  0  0  0  0  0  0  0  0  0  0
   -7.5617    6.1885   -3.9230 C   0  0  0  0  0  0  0  0  0  0  0  0
   -6.6002    5.8790   -4.8477 N   0  0  0  0  0  0  0  0  0  0  0  0
   -6.8280    3.5557   -9.0810 N   0  0  0  0  0  0  0  0  0  0  0  0
  1  6  1  0  0  0  0
  2  1  1  0  0  0  0
  3  4  1  0  0  0  0
  3  2  2  0  0  0  0
  4  5  2  0  0  0  0
  5  8  1  0  0  0  0
  5  6  1  0  0  0  0
  6  7  2  0  0  0  0
  8  9  1  0  0  0  0
  9 10  1  0  0  0  0
 11  8  2  0  0  0  0
 12  4  1  0  0  0  0
 12 11  1  0  0  0  0
 13  2  1  0  0  0  0
M  END
>  <CHROM.1>
40.11142677,115.06734240,-8.42055376,4.85136637,-5.92986169,1.05586646,-0.25123478
-2.04710076

>  <Name>
lig.pdb

>  <RI>
3.47783e+07

>  <Rbt.Current_Directory>
/home/itssahil/PROJECTS/Mol_Feturizer/New_Systems/rnas/2miy

>  <Rbt.Executable>
rbdock ($Id: //depot/dev/client3/rdock/2013.1/src/exe/rbdock.cxx#4 $)

>  <Rbt.Library>
libRbt.so (2013.1, Build901 2013/11/27)

>  <Rbt.Parameter_File>
/export/apps/rDock/src/rDock_2013.1_src/data/scripts/dock_solv.prm

>  <Rbt.Receptor>
prm/pocket_docking_8.prm

>  <SCORE>
-28.0226

>  <SCORE.INTER>
-27.4345

>  <SCORE.INTER.CONST>
1

>  <SCORE.INTER.POLAR>
-2.81382

>  <SCORE.INTER.ROT>
2

>  <SCORE.INTER.SOLV>
13.1082

>  <SCORE.INTER.VDW>
-18.213

>  <SCORE.INTER.norm>
-2.11035

>  <SCORE.INTRA>
-0.707343

>  <SCORE.INTRA.DIHEDRAL>
0.219726

>  <SCORE.INTRA.DIHEDRAL.0>
1.76676

>  <SCORE.INTRA.POLAR>
-0.268503

>  <SCORE.INTRA.POLAR.0>
-0.472211

>  <SCORE.INTRA.REPUL>
0

>  <SCORE.INTRA.REPUL.0>
0

>  <SCORE.INTRA.SOLV>
0.0469585

>  <SCORE.INTRA.SOLV.lig_0>
-22.5855

>  <SCORE.INTRA.VDW>
0.072225

>  <SCORE.INTRA.VDW.0>
-0.733656

>  <SCORE.INTRA.norm>
-0.054411

>  <SCORE.RESTR>
0.119301

>  <SCORE.RESTR.CAVITY>
0.119301

>  <SCORE.RESTR.norm>
0.00917703

>  <SCORE.SYSTEM>
0

>  <SCORE.SYSTEM.CONST>
0

>  <SCORE.SYSTEM.DIHEDRAL>
0

>  <SCORE.SYSTEM.SOLV>
0

>  <SCORE.SYSTEM.norm>
0

>  <SCORE.heavy>
13

>  <SCORE.norm>
-2.15558

>  <RMSD>
3.754

$$$$
lig.pdb
 OpenBabel11021811453D
libRbt.so/2013.1/901 2013/11/27
 13 14  0  0  0  0  0  0  0  0999 V2000
   -6.8158    4.0290   -6.7794 N   0  0  0  0  0  0  0  0  0  0  0  0
   -7.5137    3.6747   -7.8991 C   0  0  0  0  0  0  0  0  0  0  0  0
   -8.8247    3.5224   -7.8460 N   0  0  0  0  0  0  0  0  0  0  0  0
   -9.5325    3.7065   -6.6898 C   0  0  0  0  0  0  0  0  0  0  0  0
   -8.8585    4.0687   -5.4982 C   0  0  0  0  0  0  0  0  0  0  0  0
   -7.4420    4.2320   -5.5653 C   0  0  0  0  0  0  0  0  0  0  0  0
   -6.8011    4.5411   -4.5760 O   0  0  0  0  0  0  0  0  0  0  0  0
   -9.8849    4.1759   -4.4546 C   0  0  0  0  0  0  0  0  0  0  0  0
   -9.6867    4.5160   -3.0011 C   0  0  0  0  0  0  0  0  0  0  0  0
  -10.9075    5.1369   -2.4703 N   0  0  0  0  0  0  0  0  0  0  0  0
  -11.0510    3.9029   -5.0528 C   0  0  0  0  0  0  0  0  0  0  0  0
  -10.8530    3.6167   -6.3773 N   0  0  0  0  0  0  0  0  0  0  0  0
   -6.8481    3.4765   -9.0813 N   0  0  0  0  0  0  0  0  0  0  0  0
  1  6  1  0  0  0  0
  2  1  1  0  0  0  0
  3  4  1  0  0  0  0
  3  2  2  0  0  0  0
  4  5  2  0  0  0  0
  5  8  1  0  0  0  0
  5  6  1  0  0  0  0
  6  7  2  0  0  0  0
  8  9  1  0  0  0  0
  9 10  1  0  0  0  0
 11  8  2  0  0  0  0
 12  4  1  0  0  0  0
 12 11  1  0  0  0  0
 13  2  1  0  0  0  0
M  END
>  <CHROM.1>
152.95596498,-88.69088571,-8.82522049,4.06089324,-5.78404673,-0.96924714
0.10353980,1.29946163

>  <Name>
lig.pdb

>  <RI>
4.2128e+07

>  <Rbt.Current_Directory>
/home/itssahil/PROJECTS/Mol_Feturizer/New_Systems/rnas/2miy

>  <Rbt.Executable>
rbdock ($Id: //depot/dev/client3/rdock/2013.1/src/exe/rbdock.cxx#4 $)

>  <Rbt.Library>
libRbt.so (2013.1, Build901 2013/11/27)

>  <Rbt.Parameter_File>
/export/apps/rDock/src/rDock_2013.1_src/data/scripts/dock_solv.prm

>  <Rbt.Receptor>
prm/pocket_docking_5.prm

>  <SCORE>
-22.433

>  <SCORE.INTER>
-24.5486

>  <SCORE.INTER.CONST>
1

>  <SCORE.INTER.POLAR>
-3.00211

>  <SCORE.INTER.ROT>
2

>  <SCORE.INTER.SOLV>
11.9606

>  <SCORE.INTER.VDW>
-15.2789

>  <SCORE.INTER.norm>
-1.88836

>  <SCORE.INTRA>
2.1156

>  <SCORE.INTRA.DIHEDRAL>
0.644199

>  <SCORE.INTRA.DIHEDRAL.0>
1.76676

>  <SCORE.INTRA.POLAR>
0.472211

>  <SCORE.INTRA.POLAR.0>
-0.472211

>  <SCORE.INTRA.REPUL>
0

>  <SCORE.INTRA.REPUL.0>
0

>  <SCORE.INTRA.SOLV>
-0.595445

>  <SCORE.INTRA.SOLV.lig_0>
-22.5855

>  <SCORE.INTRA.VDW>
0.485706

>  <SCORE.INTRA.VDW.0>
-0.733656

>  <SCORE.INTRA.norm>
0.162739

>  <SCORE.RESTR>
0

>  <SCORE.RESTR.CAVITY>
0

>  <SCORE.RESTR.norm>
0

>  <SCORE.SYSTEM>
0

>  <SCORE.SYSTEM.CONST>
0

>  <SCORE.SYSTEM.DIHEDRAL>
0

>  <SCORE.SYSTEM.SOLV>
0

>  <SCORE.SYSTEM.norm>
0

>  <SCORE.heavy>
13

>  <SCORE.norm>
-1.72562

>  <RMSD>
3.766

$$$$
lig.pdb
 OpenBabel11021811453D
libRbt.so/2013.1/901 2013/11/27
 13 14  0  0  0  0  0  0  0  0999 V2000
   -6.7937    3.9745   -6.7796 N   0  0  0  0  0  0  0  0  0  0  0  0
   -7.5068    3.6601   -7.9017 C   0  0  0  0  0  0  0  0  0  0  0  0
   -8.8199    3.5299   -7.8411 N   0  0  0  0  0  0  0  0  0  0  0  0
   -9.5149    3.6982   -6.6749 C   0  0  0  0  0  0  0  0  0  0  0  0
   -8.8250    4.0191   -5.4806 C   0  0  0  0  0  0  0  0  0  0  0  0
   -7.4063    4.1588   -5.5557 C   0  0  0  0  0  0  0  0  0  0  0  0
   -6.7521    4.4323   -4.5647 O   0  0  0  0  0  0  0  0  0  0  0  0
   -9.8408    4.1189   -4.4261 C   0  0  0  0  0  0  0  0  0  0  0  0
   -9.6249    4.4199   -2.9664 C   0  0  0  0  0  0  0  0  0  0  0  0
  -10.8764    4.9115   -2.3752 N   0  0  0  0  0  0  0  0  0  0  0  0
  -11.0164    3.8814   -5.0208 C   0  0  0  0  0  0  0  0  0  0  0  0
  -10.8342    3.6242   -6.3535 N   0  0  0  0  0  0  0  0  0  0  0  0
   -6.8544    3.4792   -9.0940 N   0  0  0  0  0  0  0  0  0  0  0  0
  1  6  1  0  0  0  0
  2  1  1  0  0  0  0
  3  4  1  0  0  0  0
  3  2  2  0  0  0  0
  4  5  2  0  0  0  0
  5  8  1  0  0  0  0
  5  6  1  0  0  0  0
  6  7  2  0  0  0  0
  8  9  1  0  0  0  0
  9 10  1  0  0  0  0
 11  8  2  0  0  0  0
 12  4  1  0  0  0  0
 12 11  1  0  0  0  0
 13  2  1  0  0  0  0
M  END
>  <CHROM.1>
159.14129845,103.82403636,-8.79853945,4.00485316,-5.76365633,-0.97768543
0.09066626,1.33611931

>  <Name>
lig.pdb

>  <RI>
4.2128e+07

>  <Rbt.Current_Directory>
/home/itssahil/PROJECTS/Mol_Feturizer/New_Systems/rnas/2miy

>  <Rbt.Executable>
rbdock ($Id: //depot/dev/client3/rdock/2013.1/src/exe/rbdock.cxx#4 $)

>  <Rbt.Library>
libRbt.so (2013.1, Build901 2013/11/27)

>  <Rbt.Parameter_File>
/export/apps/rDock/src/rDock_2013.1_src/data/scripts/dock_solv.prm

>  <Rbt.Receptor>
prm/pocket_docking_5.prm

>  <SCORE>
-22.5802

>  <SCORE.INTER>
-24.5453

>  <SCORE.INTER.CONST>
1

>  <SCORE.INTER.POLAR>
-3.04781

>  <SCORE.INTER.ROT>
2

>  <SCORE.INTER.SOLV>
11.8141

>  <SCORE.INTER.VDW>
-15.0755

>  <SCORE.INTER.norm>
-1.8881

>  <SCORE.INTRA>
1.96503

>  <SCORE.INTRA.DIHEDRAL>
0.253682

>  <SCORE.INTRA.DIHEDRAL.0>
1.76676

>  <SCORE.INTRA.POLAR>
0.472211

>  <SCORE.INTRA.POLAR.0>
-0.472211

>  <SCORE.INTRA.REPUL>
0

>  <SCORE.INTRA.REPUL.0>
0

>  <SCORE.INTRA.SOLV>
-0.587617

>  <SCORE.INTRA.SOLV.lig_0>
-22.5855

>  <SCORE.INTRA.VDW>
0.526475

>  <SCORE.INTRA.VDW.0>
-0.733656

>  <SCORE.INTRA.norm>
0.151156

>  <SCORE.RESTR>
0

>  <SCORE.RESTR.CAVITY>
0

>  <SCORE.RESTR.norm>
0

>  <SCORE.SYSTEM>
0

>  <SCORE.SYSTEM.CONST>
0

>  <SCORE.SYSTEM.DIHEDRAL>
0

>  <SCORE.SYSTEM.SOLV>
0

>  <SCORE.SYSTEM.norm>
0

>  <SCORE.heavy>
13

>  <SCORE.norm>
-1.73694

>  <RMSD>
3.780

$$$$
lig.pdb
 OpenBabel11021811453D
libRbt.so/2013.1/901 2013/11/27
 13 14  0  0  0  0  0  0  0  0999 V2000
   -6.4588    4.9418   -7.1120 N   0  0  0  0  0  0  0  0  0  0  0  0
   -7.2930    4.1159   -7.8108 C   0  0  0  0  0  0  0  0  0  0  0  0
   -8.5020    3.8472   -7.3515 N   0  0  0  0  0  0  0  0  0  0  0  0
   -8.9670    4.3710   -6.1764 C   0  0  0  0  0  0  0  0  0  0  0  0
   -8.1419    5.2285   -5.4089 C   0  0  0  0  0  0  0  0  0  0  0  0
   -6.8375    5.5140   -5.9135 C   0  0  0  0  0  0  0  0  0  0  0  0
   -6.0766    6.2430   -5.3014 O   0  0  0  0  0  0  0  0  0  0  0  0
   -8.9196    5.6031   -4.2219 C   0  0  0  0  0  0  0  0  0  0  0  0
   -8.4879    6.4850   -3.0801 C   0  0  0  0  0  0  0  0  0  0  0  0
   -9.6665    6.9066   -2.3115 N   0  0  0  0  0  0  0  0  0  0  0  0
  -10.1054    4.9949   -4.3491 C   0  0  0  0  0  0  0  0  0  0  0  0
  -10.1422    4.2562   -5.5016 N   0  0  0  0  0  0  0  0  0  0  0  0
   -6.8709    3.5646   -8.9931 N   0  0  0  0  0  0  0  0  0  0  0  0
  1  6  1  0  0  0  0
  2  1  1  0  0  0  0
  3  4  1  0  0  0  0
  3  2  2  0  0  0  0
  4  5  2  0  0  0  0
  5  8  1  0  0  0  0
  5  6  1  0  0  0  0
  6  7  2  0  0  0  0
  8  9  1  0  0  0  0
  9 10  1  0  0  0  0
 11  8  2  0  0  0  0
 12  4  1  0  0  0  0
 12 11  1  0  0  0  0
 13  2  1  0  0  0  0
M  END
>  <CHROM.1>
163.97567558,-92.67812004,-8.16993568,5.09800057,-5.65790492,-1.13137845
0.36404707,0.98556741

>  <Name>
lig.pdb

>  <RI>
3.47783e+07

>  <Rbt.Current_Directory>
/home/itssahil/PROJECTS/Mol_Feturizer/New_Systems/rnas/2miy

>  <Rbt.Executable>
rbdock ($Id: //depot/dev/client3/rdock/2013.1/src/exe/rbdock.cxx#4 $)

>  <Rbt.Library>
libRbt.so (2013.1, Build901 2013/11/27)

>  <Rbt.Parameter_File>
/export/apps/rDock/src/rDock_2013.1_src/data/scripts/dock_solv.prm

>  <Rbt.Receptor>
prm/pocket_docking_8.prm

>  <SCORE>
-25.1173

>  <SCORE.INTER>
-27.0599

>  <SCORE.INTER.CONST>
1

>  <SCORE.INTER.POLAR>
-3.38166

>  <SCORE.INTER.ROT>
2

>  <SCORE.INTER.SOLV>
13.2094

>  <SCORE.INTER.VDW>
-16.1042

>  <SCORE.INTER.norm>
-2.08153

>  <SCORE.INTRA>
1.90765

>  <SCORE.INTRA.DIHEDRAL>
0.0761991

>  <SCORE.INTRA.DIHEDRAL.0>
1.76676

>  <SCORE.INTRA.POLAR>
0.472211

>  <SCORE.INTRA.POLAR.0>
-0.472211

>  <SCORE.INTRA.REPUL>
0

>  <SCORE.INTRA.REPUL.0>
0

>  <SCORE.INTRA.SOLV>
-0.583848

>  <SCORE.INTRA.SOLV.lig_0>
-22.5855

>  <SCORE.INTRA.VDW>
0.555953

>  <SCORE.INTRA.VDW.0>
-0.733656

>  <SCORE.INTRA.norm>
0.146742

>  <SCORE.RESTR>
0.0349618

>  <SCORE.RESTR.CAVITY>
0.0349618

>  <SCORE.RESTR.norm>
0.00268937

>  <SCORE.SYSTEM>
0

>  <SCORE.SYSTEM.CONST>
0

>  <SCORE.SYSTEM.DIHEDRAL>
0

>  <SCORE.SYSTEM.SOLV>
0

>  <SCORE.SYSTEM.norm>
0

>  <SCORE.heavy>
13

>  <SCORE.norm>
-1.9321

>  <RMSD>
3.889

$$$$
lig.pdb
 OpenBabel11021811453D
libRbt.so/2013.1/901 2013/11/27
 13 14  0  0  0  0  0  0  0  0999 V2000
   -8.3346    2.9870   -4.1677 N   0  0  0  0  0  0  0  0  0  0  0  0
   -7.0336    2.6146   -4.3552 C   0  0  0  0  0  0  0  0  0  0  0  0
   -6.4851    2.6924   -5.5544 N   0  0  0  0  0  0  0  0  0  0  0  0
   -7.1800    3.1388   -6.6449 C   0  0  0  0  0  0  0  0  0  0  0  0
   -8.5335    3.5320   -6.5085 C   0  0  0  0  0  0  0  0  0  0  0  0
   -9.1176    3.4455   -5.2089 C   0  0  0  0  0  0  0  0  0  0  0  0
  -10.2784    3.7666   -5.0229 O   0  0  0  0  0  0  0  0  0  0  0  0
   -8.9852    3.9422   -7.8433 C   0  0  0  0  0  0  0  0  0  0  0  0
  -10.3539    4.4272   -8.2424 C   0  0  0  0  0  0  0  0  0  0  0  0
  -11.3751    3.5281   -7.6889 N   0  0  0  0  0  0  0  0  0  0  0  0
   -7.9294    3.7945   -8.6530 C   0  0  0  0  0  0  0  0  0  0  0  0
   -6.8551    3.3124   -7.9540 N   0  0  0  0  0  0  0  0  0  0  0  0
   -6.2967    2.1583   -3.2928 N   0  0  0  0  0  0  0  0  0  0  0  0
  1  6  1  0  0  0  0
  2  1  1  0  0  0  0
  3  4  1  0  0  0  0
  3  2  2  0  0  0  0
  4  5  2  0  0  0  0
  5  8  1  0  0  0  0
  5  6  1  0  0  0  0
  6  7  2  0  0  0  0
  8  9  1  0  0  0  0
  9 10  1  0  0  0  0
 11  8  2  0  0  0  0
 12  4  1  0  0  0  0
 12 11  1  0  0  0  0
 13  2  1  0  0  0  0
M  END
>  <CHROM.1>
-47.46863240,125.77243404,-8.40090933,3.31634512,-6.19371840,0.88868588,-0.19431738
1.76467848

>  <Name>
lig.pdb

>  <RI>
3.47783e+07

>  <Rbt.Current_Directory>
/home/itssahil/PROJECTS/Mol_Feturizer/New_Systems/rnas/2miy

>  <Rbt.Executable>
rbdock ($Id: //depot/dev/client3/rdock/2013.1/src/exe/rbdock.cxx#4 $)

>  <Rbt.Library>
libRbt.so (2013.1, Build901 2013/11/27)

>  <Rbt.Parameter_File>
/export/apps/rDock/src/rDock_2013.1_src/data/scripts/dock_solv.prm

>  <Rbt.Receptor>
prm/pocket_docking_8.prm

>  <SCORE>
-30.8

>  <SCORE.INTER>
-32.3697

>  <SCORE.INTER.CONST>
1

>  <SCORE.INTER.POLAR>
-3.81011

>  <SCORE.INTER.ROT>
2

>  <SCORE.INTER.SOLV>
11.8516

>  <SCORE.INTER.VDW>
-17.7633

>  <SCORE.INTER.norm>
-2.48997

>  <SCORE.INTRA>
1.56967

>  <SCORE.INTRA.DIHEDRAL>
-0.0948859

>  <SCORE.INTRA.DIHEDRAL.0>
1.76676

>  <SCORE.INTRA.POLAR>
0.472211

>  <SCORE.INTRA.POLAR.0>
-0.472211

>  <SCORE.INTRA.REPUL>
0

>  <SCORE.INTRA.REPUL.0>
0

>  <SCORE.INTRA.SOLV>
-0.0359414

>  <SCORE.INTRA.SOLV.lig_0>
-22.5855

>  <SCORE.INTRA.VDW>
0.0295617

>  <SCORE.INTRA.VDW.0>
-0.733656

>  <SCORE.INTRA.norm>
0.120744

>  <SCORE.RESTR>
0

>  <SCORE.RESTR.CAVITY>
0

>  <SCORE.RESTR.norm>
0

>  <SCORE.SYSTEM>
0

>  <SCORE.SYSTEM.CONST>
0

>  <SCORE.SYSTEM.DIHEDRAL>
0

>  <SCORE.SYSTEM.SOLV>
0

>  <SCORE.SYSTEM.norm>
0

>  <SCORE.heavy>
13

>  <SCORE.norm>
-2.36923

>  <RMSD>
3.982

$$$$
lig.pdb
 OpenBabel11021811453D
libRbt.so/2013.1/901 2013/11/27
 13 14  0  0  0  0  0  0  0  0999 V2000
   -6.4055    5.1296   -6.9320 N   0  0  0  0  0  0  0  0  0  0  0  0
   -7.2474    4.2344   -7.5289 C   0  0  0  0  0  0  0  0  0  0  0  0
   -8.4263    3.9707   -6.9944 N   0  0  0  0  0  0  0  0  0  0  0  0
   -8.8516    4.5679   -5.8395 C   0  0  0  0  0  0  0  0  0  0  0  0
   -8.0165    5.4994   -5.1759 C   0  0  0  0  0  0  0  0  0  0  0  0
   -6.7449    5.7788   -5.7613 C   0  0  0  0  0  0  0  0  0  0  0  0
   -5.9774    6.5691   -5.2403 O   0  0  0  0  0  0  0  0  0  0  0  0
   -8.7493    5.9410   -3.9835 C   0  0  0  0  0  0  0  0  0  0  0  0
   -8.2906    6.9146   -2.9302 C   0  0  0  0  0  0  0  0  0  0  0  0
   -6.8515    6.7408   -2.6930 N   0  0  0  0  0  0  0  0  0  0  0  0
   -9.9223    5.2964   -4.0099 C   0  0  0  0  0  0  0  0  0  0  0  0
   -9.9911    4.4743   -5.1030 N   0  0  0  0  0  0  0  0  0  0  0  0
   -6.8646    3.6083   -8.6870 N   0  0  0  0  0  0  0  0  0  0  0  0
  1  6  1  0  0  0  0
  2  1  1  0  0  0  0
  3  4  1  0  0  0  0
  3  2  2  0  0  0  0
  4  5  2  0  0  0  0
  5  8  1  0  0  0  0
  5  6  1  0  0  0  0
  6  7  2  0  0  0  0
  8  9  1  0  0  0  0
  9 10  1  0  0  0  0
 11  8  2  0  0  0  0
 12  4  1  0  0  0  0
 12 11  1  0  0  0  0
 13  2  1  0  0  0  0
M  END
>  <CHROM.1>
-36.70666632,-109.25623470,-7.81035408,5.29230691,-5.46499726,-1.38245305
0.36917333,1.02687856

>  <Name>
lig.pdb

>  <RI>
4.2128e+07

>  <Rbt.Current_Directory>
/home/itssahil/PROJECTS/Mol_Feturizer/New_Systems/rnas/2miy

>  <Rbt.Executable>
rbdock ($Id: //depot/dev/client3/rdock/2013.1/src/exe/rbdock.cxx#4 $)

>  <Rbt.Library>
libRbt.so (2013.1, Build901 2013/11/27)

>  <Rbt.Parameter_File>
/export/apps/rDock/src/rDock_2013.1_src/data/scripts/dock_solv.prm

>  <Rbt.Receptor>
prm/pocket_docking_5.prm

>  <SCORE>
-25.9439

>  <SCORE.INTER>
-25.7596

>  <SCORE.INTER.CONST>
1

>  <SCORE.INTER.POLAR>
-3.0546

>  <SCORE.INTER.ROT>
2

>  <SCORE.INTER.SOLV>
12.872

>  <SCORE.INTER.VDW>
-16.215

>  <SCORE.INTER.norm>
-1.9815

>  <SCORE.INTRA>
-0.184388

>  <SCORE.INTRA.DIHEDRAL>
0.401915

>  <SCORE.INTRA.DIHEDRAL.0>
1.76676

>  <SCORE.INTRA.POLAR>
-0.156766

>  <SCORE.INTRA.POLAR.0>
-0.472211

>  <SCORE.INTRA.REPUL>
0

>  <SCORE.INTRA.REPUL.0>
0

>  <SCORE.INTRA.SOLV>
0.0697697

>  <SCORE.INTRA.SOLV.lig_0>
-22.5855

>  <SCORE.INTRA.VDW>
0.112773

>  <SCORE.INTRA.VDW.0>
-0.733656

>  <SCORE.INTRA.norm>
-0.0141837

>  <SCORE.RESTR>
0

>  <SCORE.RESTR.CAVITY>
0

>  <SCORE.RESTR.norm>
0

>  <SCORE.SYSTEM>
0

>  <SCORE.SYSTEM.CONST>
0

>  <SCORE.SYSTEM.DIHEDRAL>
0

>  <SCORE.SYSTEM.SOLV>
0

>  <SCORE.SYSTEM.norm>
0

>  <SCORE.heavy>
13

>  <SCORE.norm>
-1.99569

>  <RMSD>
3.985

$$$$
lig.pdb
 OpenBabel11021811453D
libRbt.so/2013.1/901 2013/11/27
 13 14  0  0  0  0  0  0  0  0999 V2000
   -8.1970    5.1521   -4.6936 N   0  0  0  0  0  0  0  0  0  0  0  0
   -6.8557    5.1944   -4.9495 C   0  0  0  0  0  0  0  0  0  0  0  0
   -6.3883    4.7970   -6.1193 N   0  0  0  0  0  0  0  0  0  0  0  0
   -7.2083    4.3315   -7.1105 C   0  0  0  0  0  0  0  0  0  0  0  0
   -8.6063    4.2608   -6.8967 C   0  0  0  0  0  0  0  0  0  0  0  0
   -9.1025    4.6932   -5.6300 C   0  0  0  0  0  0  0  0  0  0  0  0
  -10.2947    4.6568   -5.3804 O   0  0  0  0  0  0  0  0  0  0  0  0
   -9.1898    3.7176   -8.1290 C   0  0  0  0  0  0  0  0  0  0  0  0
  -10.6406    3.4274   -8.4096 C   0  0  0  0  0  0  0  0  0  0  0  0
  -11.4622    3.8952   -7.2854 N   0  0  0  0  0  0  0  0  0  0  0  0
   -8.1655    3.5211   -8.9683 C   0  0  0  0  0  0  0  0  0  0  0  0
   -6.9847    3.8758   -8.3722 N   0  0  0  0  0  0  0  0  0  0  0  0
   -5.9934    5.6510   -3.9863 N   0  0  0  0  0  0  0  0  0  0  0  0
  1  6  1  0  0  0  0
  2  1  1  0  0  0  0
  3  4  1  0  0  0  0
  3  2  2  0  0  0  0
  4  5  2  0  0  0  0
  5  8  1  0  0  0  0
  5  6  1  0  0  0  0
  6  7  2  0  0  0  0
  8  9  1  0  0  0  0
  9 10  1  0  0  0  0
 11  8  2  0  0  0  0
 12  4  1  0  0  0  0
 12 11  1  0  0  0  0
 13  2  1  0  0  0  0
M  END
>  <CHROM.1>
5.50607311,131.23544238,-8.42033672,4.41805135,-6.55387528,0.77928277,0.09253649
1.20433092

>  <Name>
lig.pdb

>  <RI>
0

>  <Rbt.Current_Directory>
/home/itssahil/PROJECTS/Mol_Feturizer/New_Systems/rnas/2miy

>  <Rbt.Executable>
rbdock ($Id: //depot/dev/client3/rdock/2013.1/src/exe/rbdock.cxx#4 $)

>  <Rbt.Library>
libRbt.so (2013.1, Build901 2013/11/27)

>  <Rbt.Parameter_File>
/export/apps/rDock/src/rDock_2013.1_src/data/scripts/dock_solv.prm

>  <Rbt.Receptor>
prm/pocket_docking_2.prm

>  <SCORE>
-26.668

>  <SCORE.INTER>
-30.5096

>  <SCORE.INTER.CONST>
1

>  <SCORE.INTER.POLAR>
-2.98894

>  <SCORE.INTER.ROT>
2

>  <SCORE.INTER.SOLV>
14.0957

>  <SCORE.INTER.VDW>
-20.0085

>  <SCORE.INTER.norm>
-2.3469

>  <SCORE.INTRA>
3.21781

>  <SCORE.INTRA.DIHEDRAL>
1.8482

>  <SCORE.INTRA.DIHEDRAL.0>
1.76676

>  <SCORE.INTRA.POLAR>
0.0945535

>  <SCORE.INTRA.POLAR.0>
-0.472211

>  <SCORE.INTRA.REPUL>
0

>  <SCORE.INTRA.REPUL.0>
0

>  <SCORE.INTRA.SOLV>
0.271322

>  <SCORE.INTRA.SOLV.lig_0>
-22.5855

>  <SCORE.INTRA.VDW>
1.83656

>  <SCORE.INTRA.VDW.0>
-0.733656

>  <SCORE.INTRA.norm>
0.247524

>  <SCORE.RESTR>
0.623806

>  <SCORE.RESTR.CAVITY>
0.623806

>  <SCORE.RESTR.norm>
0.0479851

>  <SCORE.SYSTEM>
0

>  <SCORE.SYSTEM.CONST>
0

>  <SCORE.SYSTEM.DIHEDRAL>
0

>  <SCORE.SYSTEM.SOLV>
0

>  <SCORE.SYSTEM.norm>
0

>  <SCORE.heavy>
13

>  <SCORE.norm>
-2.05139

>  <RMSD>
3.986

$$$$
lig.pdb
 OpenBabel11021811453D
libRbt.so/2013.1/901 2013/11/27
 13 14  0  0  0  0  0  0  0  0999 V2000
   -8.1743    3.1271   -4.2038 N   0  0  0  0  0  0  0  0  0  0  0  0
   -6.8978    2.7190   -4.4690 C   0  0  0  0  0  0  0  0  0  0  0  0
   -6.4346    2.7430   -5.7059 N   0  0  0  0  0  0  0  0  0  0  0  0
   -7.1964    3.1672   -6.7601 C   0  0  0  0  0  0  0  0  0  0  0  0
   -8.5285    3.5956   -6.5428 C   0  0  0  0  0  0  0  0  0  0  0  0
   -9.0201    3.5672   -5.2029 C   0  0  0  0  0  0  0  0  0  0  0  0
  -10.1579    3.9209   -4.9472 O   0  0  0  0  0  0  0  0  0  0  0  0
   -9.0657    3.9698   -7.8563 C   0  0  0  0  0  0  0  0  0  0  0  0
  -10.4493    4.4717   -8.1751 C   0  0  0  0  0  0  0  0  0  0  0  0
  -11.4463    3.5110   -7.6846 N   0  0  0  0  0  0  0  0  0  0  0  0
   -8.0736    3.7703   -8.7326 C   0  0  0  0  0  0  0  0  0  0  0  0
   -6.9621    3.2882   -8.0942 N   0  0  0  0  0  0  0  0  0  0  0  0
   -6.0964    2.2829   -3.4455 N   0  0  0  0  0  0  0  0  0  0  0  0
  1  6  1  0  0  0  0
  2  1  1  0  0  0  0
  3  4  1  0  0  0  0
  3  2  2  0  0  0  0
  4  5  2  0  0  0  0
  5  8  1  0  0  0  0
  5  6  1  0  0  0  0
  6  7  2  0  0  0  0
  8  9  1  0  0  0  0
  9 10  1  0  0  0  0
 11  8  2  0  0  0  0
 12  4  1  0  0  0  0
 12 11  1  0  0  0  0
 13  2  1  0  0  0  0
M  END
>  <CHROM.1>
-55.58641105,131.65508503,-8.37813161,3.37819078,-6.24603727,0.82948772,-0.21776507
1.71037274

>  <Name>
lig.pdb

>  <RI>
2.60406e+07

>  <Rbt.Current_Directory>
/home/itssahil/PROJECTS/Mol_Feturizer/New_Systems/rnas/2miy

>  <Rbt.Executable>
rbdock ($Id: //depot/dev/client3/rdock/2013.1/src/exe/rbdock.cxx#4 $)

>  <Rbt.Library>
libRbt.so (2013.1, Build901 2013/11/27)

>  <Rbt.Parameter_File>
/export/apps/rDock/src/rDock_2013.1_src/data/scripts/dock_solv.prm

>  <Rbt.Receptor>
prm/pocket_docking_7.prm

>  <SCORE>
-30.8777

>  <SCORE.INTER>
-32.2968

>  <SCORE.INTER.CONST>
1

>  <SCORE.INTER.POLAR>
-3.87199

>  <SCORE.INTER.ROT>
2

>  <SCORE.INTER.SOLV>
12.0784

>  <SCORE.INTER.VDW>
-17.5841

>  <SCORE.INTER.norm>
-2.48437

>  <SCORE.INTRA>
1.41906

>  <SCORE.INTRA.DIHEDRAL>
-0.281815

>  <SCORE.INTRA.DIHEDRAL.0>
1.76676

>  <SCORE.INTRA.POLAR>
0.472211

>  <SCORE.INTRA.POLAR.0>
-0.472211

>  <SCORE.INTRA.REPUL>
0

>  <SCORE.INTRA.REPUL.0>
0

>  <SCORE.INTRA.SOLV>
-0.124965

>  <SCORE.INTRA.SOLV.lig_0>
-22.5855

>  <SCORE.INTRA.VDW>
0.0169343

>  <SCORE.INTRA.VDW.0>
-0.733656

>  <SCORE.INTRA.norm>
0.109159

>  <SCORE.RESTR>
0

>  <SCORE.RESTR.CAVITY>
0

>  <SCORE.RESTR.norm>
0

>  <SCORE.SYSTEM>
0

>  <SCORE.SYSTEM.CONST>
0

>  <SCORE.SYSTEM.DIHEDRAL>
0

>  <SCORE.SYSTEM.SOLV>
0

>  <SCORE.SYSTEM.norm>
0

>  <SCORE.heavy>
13

>  <SCORE.norm>
-2.37521

>  <RMSD>
3.994

$$$$
lig.pdb
 OpenBabel11021811453D
libRbt.so/2013.1/901 2013/11/27
 13 14  0  0  0  0  0  0  0  0999 V2000
   -8.0874    5.3122   -4.8040 N   0  0  0  0  0  0  0  0  0  0  0  0
   -6.7460    5.2894   -5.0615 C   0  0  0  0  0  0  0  0  0  0  0  0
   -6.2962    4.8119   -6.2080 N   0  0  0  0  0  0  0  0  0  0  0  0
   -7.1352    4.3250   -7.1727 C   0  0  0  0  0  0  0  0  0  0  0  0
   -8.5345    4.3193   -6.9557 C   0  0  0  0  0  0  0  0  0  0  0  0
   -9.0115    4.8382   -5.7143 C   0  0  0  0  0  0  0  0  0  0  0  0
  -10.2037    4.8609   -5.4634 O   0  0  0  0  0  0  0  0  0  0  0  0
   -9.1404    3.7328   -8.1569 C   0  0  0  0  0  0  0  0  0  0  0  0
  -10.6017    3.4834   -8.4217 C   0  0  0  0  0  0  0  0  0  0  0  0
  -11.3838    4.6556   -8.0071 N   0  0  0  0  0  0  0  0  0  0  0  0
   -8.1259    3.4523   -8.9841 C   0  0  0  0  0  0  0  0  0  0  0  0
   -6.9314    3.7935   -8.4078 N   0  0  0  0  0  0  0  0  0  0  0  0
   -5.8651    5.7643   -4.1242 N   0  0  0  0  0  0  0  0  0  0  0  0
  1  6  1  0  0  0  0
  2  1  1  0  0  0  0
  3  4  1  0  0  0  0
  3  2  2  0  0  0  0
  4  5  2  0  0  0  0
  5  8  1  0  0  0  0
  5  6  1  0  0  0  0
  6  7  2  0  0  0  0
  8  9  1  0  0  0  0
  9 10  1  0  0  0  0
 11  8  2  0  0  0  0
 12  4  1  0  0  0  0
 12 11  1  0  0  0  0
 13  2  1  0  0  0  0
M  END
>  <CHROM.1>
44.22973854,21.08712656,-8.34025035,4.54478814,-6.68543479,0.78326693,-0.02132015
1.14951754

>  <Name>
lig.pdb

>  <RI>
2.95488e+07

>  <Rbt.Current_Directory>
/home/itssahil/PROJECTS/Mol_Feturizer/New_Systems/rnas/2miy

>  <Rbt.Executable>
rbdock ($Id: //depot/dev/client3/rdock/2013.1/src/exe/rbdock.cxx#4 $)

>  <Rbt.Library>
libRbt.so (2013.1, Build901 2013/11/27)

>  <Rbt.Parameter_File>
/export/apps/rDock/src/rDock_2013.1_src/data/scripts/dock_solv.prm

>  <Rbt.Receptor>
prm/blind_docking_20.prm

>  <SCORE>
-27.873

>  <SCORE.INTER>
-29.9533

>  <SCORE.INTER.CONST>
1

>  <SCORE.INTER.POLAR>
-2.85778

>  <SCORE.INTER.ROT>
2

>  <SCORE.INTER.SOLV>
15.4918

>  <SCORE.INTER.VDW>
-20.5402

>  <SCORE.INTER.norm>
-2.3041

>  <SCORE.INTRA>
1.72908

>  <SCORE.INTRA.DIHEDRAL>
0.0625766

>  <SCORE.INTRA.DIHEDRAL.0>
1.76676

>  <SCORE.INTRA.POLAR>
0.472211

>  <SCORE.INTRA.POLAR.0>
-0.472211

>  <SCORE.INTRA.REPUL>
0

>  <SCORE.INTRA.REPUL.0>
0

>  <SCORE.INTRA.SOLV>
0.00755704

>  <SCORE.INTRA.SOLV.lig_0>
-22.5855

>  <SCORE.INTRA.VDW>
0.0884932

>  <SCORE.INTRA.VDW.0>
-0.733656

>  <SCORE.INTRA.norm>
0.133006

>  <SCORE.RESTR>
0.35129

>  <SCORE.RESTR.CAVITY>
0.35129

>  <SCORE.RESTR.norm>
0.0270223

>  <SCORE.SYSTEM>
0

>  <SCORE.SYSTEM.CONST>
0

>  <SCORE.SYSTEM.DIHEDRAL>
0

>  <SCORE.SYSTEM.SOLV>
0

>  <SCORE.SYSTEM.norm>
0

>  <SCORE.heavy>
13

>  <SCORE.norm>
-2.14407

>  <RMSD>
4.014

$$$$
lig.pdb
 OpenBabel11021811453D
libRbt.so/2013.1/901 2013/11/27
 13 14  0  0  0  0  0  0  0  0999 V2000
   -8.0817    5.3006   -4.7999 N   0  0  0  0  0  0  0  0  0  0  0  0
   -6.7412    5.2830   -5.0625 C   0  0  0  0  0  0  0  0  0  0  0  0
   -6.2941    4.8093   -6.2117 N   0  0  0  0  0  0  0  0  0  0  0  0
   -7.1350    4.3213   -7.1741 C   0  0  0  0  0  0  0  0  0  0  0  0
   -8.5334    4.3102   -6.9518 C   0  0  0  0  0  0  0  0  0  0  0  0
   -9.0075    4.8250   -5.7077 C   0  0  0  0  0  0  0  0  0  0  0  0
  -10.1989    4.8430   -5.4522 O   0  0  0  0  0  0  0  0  0  0  0  0
   -9.1419    3.7239   -8.1518 C   0  0  0  0  0  0  0  0  0  0  0  0
  -10.6033    3.4699   -8.4117 C   0  0  0  0  0  0  0  0  0  0  0  0
  -11.3870    4.6424   -8.0010 N   0  0  0  0  0  0  0  0  0  0  0  0
   -8.1295    3.4486   -8.9834 C   0  0  0  0  0  0  0  0  0  0  0  0
   -6.9340    3.7929   -8.4110 N   0  0  0  0  0  0  0  0  0  0  0  0
   -5.8585    5.7592   -4.1276 N   0  0  0  0  0  0  0  0  0  0  0  0
  1  6  1  0  0  0  0
  2  1  1  0  0  0  0
  3  4  1  0  0  0  0
  3  2  2  0  0  0  0
  4  5  2  0  0  0  0
  5  8  1  0  0  0  0
  5  6  1  0  0  0  0
  6  7  2  0  0  0  0
  8  9  1  0  0  0  0
  9 10  1  0  0  0  0
 11  8  2  0  0  0  0
 12  4  1  0  0  0  0
 12 11  1  0  0  0  0
 13  2  1  0  0  0  0
M  END
>  <CHROM.1>
44.64337240,-157.67210672,-8.33891603,4.53629409,-6.68287685,0.78167638,-0.01727520
1.15162880

>  <Name>
lig.pdb

>  <RI>
2.95488e+07

>  <Rbt.Current_Directory>
/home/itssahil/PROJECTS/Mol_Feturizer/New_Systems/rnas/2miy

>  <Rbt.Executable>
rbdock ($Id: //depot/dev/client3/rdock/2013.1/src/exe/rbdock.cxx#4 $)

>  <Rbt.Library>
libRbt.so (2013.1, Build901 2013/11/27)

>  <Rbt.Parameter_File>
/export/apps/rDock/src/rDock_2013.1_src/data/scripts/dock_solv.prm

>  <Rbt.Receptor>
prm/blind_docking_20.prm

>  <SCORE>
-27.83

>  <SCORE.INTER>
-29.8637

>  <SCORE.INTER.CONST>
1

>  <SCORE.INTER.POLAR>
-2.86114

>  <SCORE.INTER.ROT>
2

>  <SCORE.INTER.SOLV>
15.478

>  <SCORE.INTER.VDW>
-20.4647

>  <SCORE.INTER.norm>
-2.29721

>  <SCORE.INTRA>
1.68156

>  <SCORE.INTRA.DIHEDRAL>
-0.0105773

>  <SCORE.INTRA.DIHEDRAL.0>
1.76676

>  <SCORE.INTRA.POLAR>
0.472211

>  <SCORE.INTRA.POLAR.0>
-0.472211

>  <SCORE.INTRA.REPUL>
0

>  <SCORE.INTRA.REPUL.0>
0

>  <SCORE.INTRA.SOLV>
0.000902047

>  <SCORE.INTRA.SOLV.lig_0>
-22.5855

>  <SCORE.INTRA.VDW>
0.080882

>  <SCORE.INTRA.VDW.0>
-0.733656

>  <SCORE.INTRA.norm>
0.129351

>  <SCORE.RESTR>
0.35215

>  <SCORE.RESTR.CAVITY>
0.35215

>  <SCORE.RESTR.norm>
0.0270885

>  <SCORE.SYSTEM>
0

>  <SCORE.SYSTEM.CONST>
0

>  <SCORE.SYSTEM.DIHEDRAL>
0

>  <SCORE.SYSTEM.SOLV>
0

>  <SCORE.SYSTEM.norm>
0

>  <SCORE.heavy>
13

>  <SCORE.norm>
-2.14077

>  <RMSD>
4.015

$$$$
lig.pdb
 OpenBabel11021811453D
libRbt.so/2013.1/901 2013/11/27
 13 14  0  0  0  0  0  0  0  0999 V2000
   -8.0841    5.2431   -4.6873 N   0  0  0  0  0  0  0  0  0  0  0  0
   -6.7444    5.2550   -4.9545 C   0  0  0  0  0  0  0  0  0  0  0  0
   -6.2933    4.8160   -6.1159 N   0  0  0  0  0  0  0  0  0  0  0  0
   -7.1290    4.3361   -7.0868 C   0  0  0  0  0  0  0  0  0  0  0  0
   -8.5263    4.2956   -6.8604 C   0  0  0  0  0  0  0  0  0  0  0  0
   -9.0048    4.7729   -5.6031 C   0  0  0  0  0  0  0  0  0  0  0  0
  -10.1954    4.7642   -5.3435 O   0  0  0  0  0  0  0  0  0  0  0  0
   -9.1288    3.7270   -8.0719 C   0  0  0  0  0  0  0  0  0  0  0  0
  -10.5865    3.4537   -8.3330 C   0  0  0  0  0  0  0  0  0  0  0  0
  -11.3804    4.6367   -7.9755 N   0  0  0  0  0  0  0  0  0  0  0  0
   -8.1148    3.4887   -8.9129 C   0  0  0  0  0  0  0  0  0  0  0  0
   -6.9233    3.8403   -8.3363 N   0  0  0  0  0  0  0  0  0  0  0  0
   -5.8667    5.7245   -4.0116 N   0  0  0  0  0  0  0  0  0  0  0  0
  1  6  1  0  0  0  0
  2  1  1  0  0  0  0
  3  4  1  0  0  0  0
  3  2  2  0  0  0  0
  4  5  2  0  0  0  0
  5  8  1  0  0  0  0
  5  6  1  0  0  0  0
  6  7  2  0  0  0  0
  8  9  1  0  0  0  0
  9 10  1  0  0  0  0
 11  8  2  0  0  0  0
 12  4  1  0  0  0  0
 12 11  1  0  0  0  0
 13  2  1  0  0  0  0
M  END
>  <CHROM.1>
48.37567478,-157.89770782,-8.33395961,4.52183475,-6.59462822,0.78937356,-0.00550106
1.17656102

>  <Name>
lig.pdb

>  <RI>
3.47783e+07

>  <Rbt.Current_Directory>
/home/itssahil/PROJECTS/Mol_Feturizer/New_Systems/rnas/2miy

>  <Rbt.Executable>
rbdock ($Id: //depot/dev/client3/rdock/2013.1/src/exe/rbdock.cxx#4 $)

>  <Rbt.Library>
libRbt.so (2013.1, Build901 2013/11/27)

>  <Rbt.Parameter_File>
/export/apps/rDock/src/rDock_2013.1_src/data/scripts/dock_solv.prm

>  <Rbt.Receptor>
prm/pocket_docking_8.prm

>  <SCORE>
-28.5318

>  <SCORE.INTER>
-30.1146

>  <SCORE.INTER.CONST>
1

>  <SCORE.INTER.POLAR>
-2.83839

>  <SCORE.INTER.ROT>
2

>  <SCORE.INTER.SOLV>
15.0322

>  <SCORE.INTER.VDW>
-20.5592

>  <SCORE.INTER.norm>
-2.31651

>  <SCORE.INTRA>
1.58288

>  <SCORE.INTRA.DIHEDRAL>
-0.151287

>  <SCORE.INTRA.DIHEDRAL.0>
1.76676

>  <SCORE.INTRA.POLAR>
0.472211

>  <SCORE.INTRA.POLAR.0>
-0.472211

>  <SCORE.INTRA.REPUL>
0

>  <SCORE.INTRA.REPUL.0>
0

>  <SCORE.INTRA.SOLV>
-0.038431

>  <SCORE.INTRA.SOLV.lig_0>
-22.5855

>  <SCORE.INTRA.VDW>
0.0722244

>  <SCORE.INTRA.VDW.0>
-0.733656

>  <SCORE.INTRA.norm>
0.12176

>  <SCORE.RESTR>
0

>  <SCORE.RESTR.CAVITY>
0

>  <SCORE.RESTR.norm>
0

>  <SCORE.SYSTEM>
0

>  <SCORE.SYSTEM.CONST>
0

>  <SCORE.SYSTEM.DIHEDRAL>
0

>  <SCORE.SYSTEM.SOLV>
0

>  <SCORE.SYSTEM.norm>
0

>  <SCORE.heavy>
13

>  <SCORE.norm>
-2.19475

>  <RMSD>
4.026

$$$$
lig.pdb
 OpenBabel11021811453D
libRbt.so/2013.1/901 2013/11/27
 13 14  0  0  0  0  0  0  0  0999 V2000
   -8.0256    5.4250   -4.8154 N   0  0  0  0  0  0  0  0  0  0  0  0
   -6.6838    5.3336   -5.0554 C   0  0  0  0  0  0  0  0  0  0  0  0
   -6.2439    4.8110   -6.1860 N   0  0  0  0  0  0  0  0  0  0  0  0
   -7.0937    4.3437   -7.1509 C   0  0  0  0  0  0  0  0  0  0  0  0
   -8.4941    4.4085   -6.9515 C   0  0  0  0  0  0  0  0  0  0  0  0
   -8.9604    4.9757   -5.7273 C   0  0  0  0  0  0  0  0  0  0  0  0
  -10.1531    5.0598   -5.4920 O   0  0  0  0  0  0  0  0  0  0  0  0
   -9.1131    3.8257   -8.1478 C   0  0  0  0  0  0  0  0  0  0  0  0
  -10.5814    3.6398   -8.4258 C   0  0  0  0  0  0  0  0  0  0  0  0
  -11.3075    3.4929   -7.1574 N   0  0  0  0  0  0  0  0  0  0  0  0
   -8.1035    3.4801   -8.9561 C   0  0  0  0  0  0  0  0  0  0  0  0
   -6.9009    3.7769   -8.3720 N   0  0  0  0  0  0  0  0  0  0  0  0
   -5.7924    5.7864   -4.1172 N   0  0  0  0  0  0  0  0  0  0  0  0
  1  6  1  0  0  0  0
  2  1  1  0  0  0  0
  3  4  1  0  0  0  0
  3  2  2  0  0  0  0
  4  5  2  0  0  0  0
  5  8  1  0  0  0  0
  5  6  1  0  0  0  0
  6  7  2  0  0  0  0
  8  9  1  0  0  0  0
  9 10  1  0  0  0  0
 11  8  2  0  0  0  0
 12  4  1  0  0  0  0
 12 11  1  0  0  0  0
 13  2  1  0  0  0  0
M  END
>  <CHROM.1>
-27.76310800,151.99953834,-8.29215101,4.50326286,-6.60072846,0.76320672,0.08647611
1.13734232

>  <Name>
lig.pdb

>  <RI>
1.17462e+07

>  <Rbt.Current_Directory>
/home/itssahil/PROJECTS/Mol_Feturizer/New_Systems/rnas/2miy

>  <Rbt.Executable>
rbdock ($Id: //depot/dev/client3/rdock/2013.1/src/exe/rbdock.cxx#4 $)

>  <Rbt.Library>
libRbt.so (2013.1, Build901 2013/11/27)

>  <Rbt.Parameter_File>
/export/apps/rDock/src/rDock_2013.1_src/data/scripts/dock_solv.prm

>  <Rbt.Receptor>
prm/blind_docking_40.prm

>  <SCORE>
-26.2603

>  <SCORE.INTER>
-29.9082

>  <SCORE.INTER.CONST>
1

>  <SCORE.INTER.POLAR>
-2.91422

>  <SCORE.INTER.ROT>
2

>  <SCORE.INTER.SOLV>
15.4112

>  <SCORE.INTER.VDW>
-20.2951

>  <SCORE.INTER.norm>
-2.30063

>  <SCORE.INTRA>
2.61697

>  <SCORE.INTRA.DIHEDRAL>
0.921503

>  <SCORE.INTRA.DIHEDRAL.0>
1.76676

>  <SCORE.INTRA.POLAR>
0.472211

>  <SCORE.INTRA.POLAR.0>
-0.472211

>  <SCORE.INTRA.REPUL>
0

>  <SCORE.INTRA.REPUL.0>
0

>  <SCORE.INTRA.SOLV>
0.147859

>  <SCORE.INTRA.SOLV.lig_0>
-22.5855

>  <SCORE.INTRA.VDW>
0.476774

>  <SCORE.INTRA.VDW.0>
-0.733656

>  <SCORE.INTRA.norm>
0.201306

>  <SCORE.RESTR>
1.03088

>  <SCORE.RESTR.CAVITY>
1.03088

>  <SCORE.RESTR.norm>
0.0792988

>  <SCORE.SYSTEM>
0

>  <SCORE.SYSTEM.CONST>
0

>  <SCORE.SYSTEM.DIHEDRAL>
0

>  <SCORE.SYSTEM.SOLV>
0

>  <SCORE.SYSTEM.norm>
0

>  <SCORE.heavy>
13

>  <SCORE.norm>
-2.02002

>  <RMSD>
4.040

$$$$
lig.pdb
 OpenBabel11021811453D
libRbt.so/2013.1/901 2013/11/27
 13 14  0  0  0  0  0  0  0  0999 V2000
   -8.0766    5.2761   -4.6245 N   0  0  0  0  0  0  0  0  0  0  0  0
   -6.7356    5.2932   -4.8845 C   0  0  0  0  0  0  0  0  0  0  0  0
   -6.2770    4.8603   -6.0452 N   0  0  0  0  0  0  0  0  0  0  0  0
   -7.1061    4.3817   -7.0225 C   0  0  0  0  0  0  0  0  0  0  0  0
   -8.5044    4.3360   -6.8036 C   0  0  0  0  0  0  0  0  0  0  0  0
   -8.9910    4.8067   -5.5469 C   0  0  0  0  0  0  0  0  0  0  0  0
  -10.1829    4.7934   -5.2937 O   0  0  0  0  0  0  0  0  0  0  0  0
   -9.0987    3.7704   -8.0206 C   0  0  0  0  0  0  0  0  0  0  0  0
  -10.5541    3.4937   -8.2905 C   0  0  0  0  0  0  0  0  0  0  0  0
  -11.3497    4.6852   -7.9664 N   0  0  0  0  0  0  0  0  0  0  0  0
   -8.0795    3.5386   -8.8571 C   0  0  0  0  0  0  0  0  0  0  0  0
   -6.8923    3.8915   -8.2729 N   0  0  0  0  0  0  0  0  0  0  0  0
   -5.8643    5.7616   -3.9351 N   0  0  0  0  0  0  0  0  0  0  0  0
  1  6  1  0  0  0  0
  2  1  1  0  0  0  0
  3  4  1  0  0  0  0
  3  2  2  0  0  0  0
  4  5  2  0  0  0  0
  5  8  1  0  0  0  0
  5  6  1  0  0  0  0
  6  7  2  0  0  0  0
  8  9  1  0  0  0  0
  9 10  1  0  0  0  0
 11  8  2  0  0  0  0
 12  4  1  0  0  0  0
 12 11  1  0  0  0  0
 13  2  1  0  0  0  0
M  END
>  <CHROM.1>
49.88074946,-158.81522605,-8.31378816,4.56288903,-6.53909607,0.79710975,-0.00672811
1.18129913

>  <Name>
lig.pdb

>  <RI>
2.68696e+07

>  <Rbt.Current_Directory>
/home/itssahil/PROJECTS/Mol_Feturizer/New_Systems/rnas/2miy

>  <Rbt.Executable>
rbdock ($Id: //depot/dev/client3/rdock/2013.1/src/exe/rbdock.cxx#4 $)

>  <Rbt.Library>
libRbt.so (2013.1, Build901 2013/11/27)

>  <Rbt.Parameter_File>
/export/apps/rDock/src/rDock_2013.1_src/data/scripts/dock_solv.prm

>  <Rbt.Receptor>
prm/pocket_docking_4.prm

>  <SCORE>
-28.3822

>  <SCORE.INTER>
-29.9295

>  <SCORE.INTER.CONST>
1

>  <SCORE.INTER.POLAR>
-2.83618

>  <SCORE.INTER.ROT>
2

>  <SCORE.INTER.SOLV>
14.9527

>  <SCORE.INTER.VDW>
-20.4167

>  <SCORE.INTER.norm>
-2.30227

>  <SCORE.INTRA>
1.54735

>  <SCORE.INTRA.DIHEDRAL>
-0.198103

>  <SCORE.INTRA.DIHEDRAL.0>
1.76676

>  <SCORE.INTRA.POLAR>
0.472211

>  <SCORE.INTRA.POLAR.0>
-0.472211

>  <SCORE.INTRA.REPUL>
0

>  <SCORE.INTRA.REPUL.0>
0

>  <SCORE.INTRA.SOLV>
-0.0546786

>  <SCORE.INTRA.SOLV.lig_0>
-22.5855

>  <SCORE.INTRA.VDW>
0.0682205

>  <SCORE.INTRA.VDW.0>
-0.733656

>  <SCORE.INTRA.norm>
0.119027

>  <SCORE.RESTR>
0

>  <SCORE.RESTR.CAVITY>
0

>  <SCORE.RESTR.norm>
0

>  <SCORE.SYSTEM>
0

>  <SCORE.SYSTEM.CONST>
0

>  <SCORE.SYSTEM.DIHEDRAL>
0

>  <SCORE.SYSTEM.SOLV>
0

>  <SCORE.SYSTEM.norm>
0

>  <SCORE.heavy>
13

>  <SCORE.norm>
-2.18325

>  <RMSD>
4.041

$$$$
lig.pdb
 OpenBabel11021811453D
libRbt.so/2013.1/901 2013/11/27
 13 14  0  0  0  0  0  0  0  0999 V2000
   -8.0879    3.0122   -4.2222 N   0  0  0  0  0  0  0  0  0  0  0  0
   -6.8061    2.6636   -4.5416 C   0  0  0  0  0  0  0  0  0  0  0  0
   -6.3875    2.7398   -5.7922 N   0  0  0  0  0  0  0  0  0  0  0  0
   -7.2016    3.1611   -6.8077 C   0  0  0  0  0  0  0  0  0  0  0  0
   -8.5413    3.5289   -6.5337 C   0  0  0  0  0  0  0  0  0  0  0  0
   -8.9846    3.4444   -5.1794 C   0  0  0  0  0  0  0  0  0  0  0  0
  -10.1260    3.7445   -4.8757 O   0  0  0  0  0  0  0  0  0  0  0  0
   -9.1383    3.9163   -7.8173 C   0  0  0  0  0  0  0  0  0  0  0  0
  -10.5509    4.3701   -8.0750 C   0  0  0  0  0  0  0  0  0  0  0  0
  -11.3246    3.2643   -8.6550 N   0  0  0  0  0  0  0  0  0  0  0  0
   -8.1700    3.7810   -8.7318 C   0  0  0  0  0  0  0  0  0  0  0  0
   -7.0188    3.3274   -8.1450 N   0  0  0  0  0  0  0  0  0  0  0  0
   -5.9531    2.2330   -3.5584 N   0  0  0  0  0  0  0  0  0  0  0  0
  1  6  1  0  0  0  0
  2  1  1  0  0  0  0
  3  4  1  0  0  0  0
  3  2  2  0  0  0  0
  4  5  2  0  0  0  0
  5  8  1  0  0  0  0
  5  6  1  0  0  0  0
  6  7  2  0  0  0  0
  8  9  1  0  0  0  0
  9 10  1  0  0  0  0
 11  8  2  0  0  0  0
 12  4  1  0  0  0  0
 12 11  1  0  0  0  0
 13  2  1  0  0  0  0
M  END
>  <CHROM.1>
-102.09790486,-123.61272762,-8.35684937,3.30128327,-6.34890041,0.86223988
-0.18596862,1.69074406

>  <Name>
lig.pdb

>  <RI>
2.60406e+07

>  <Rbt.Current_Directory>
/home/itssahil/PROJECTS/Mol_Feturizer/New_Systems/rnas/2miy

>  <Rbt.Executable>
rbdock ($Id: //depot/dev/client3/rdock/2013.1/src/exe/rbdock.cxx#4 $)

>  <Rbt.Library>
libRbt.so (2013.1, Build901 2013/11/27)

>  <Rbt.Parameter_File>
/export/apps/rDock/src/rDock_2013.1_src/data/scripts/dock_solv.prm

>  <Rbt.Receptor>
prm/pocket_docking_7.prm

>  <SCORE>
-27.9485

>  <SCORE.INTER>
-30.1817

>  <SCORE.INTER.CONST>
1

>  <SCORE.INTER.POLAR>
-3.31109

>  <SCORE.INTER.ROT>
2

>  <SCORE.INTER.SOLV>
12.7051

>  <SCORE.INTER.VDW>
-18.2526

>  <SCORE.INTER.norm>
-2.32167

>  <SCORE.INTRA>
2.23322

>  <SCORE.INTRA.DIHEDRAL>
1.42776

>  <SCORE.INTRA.DIHEDRAL.0>
1.76676

>  <SCORE.INTRA.POLAR>
0.472211

>  <SCORE.INTRA.POLAR.0>
-0.472211

>  <SCORE.INTRA.REPUL>
0

>  <SCORE.INTRA.REPUL.0>
0

>  <SCORE.INTRA.SOLV>
-0.554992

>  <SCORE.INTRA.SOLV.lig_0>
-22.5855

>  <SCORE.INTRA.VDW>
0.191312

>  <SCORE.INTRA.VDW.0>
-0.733656

>  <SCORE.INTRA.norm>
0.171786

>  <SCORE.RESTR>
0

>  <SCORE.RESTR.CAVITY>
0

>  <SCORE.RESTR.norm>
0

>  <SCORE.SYSTEM>
0

>  <SCORE.SYSTEM.CONST>
0

>  <SCORE.SYSTEM.DIHEDRAL>
0

>  <SCORE.SYSTEM.SOLV>
0

>  <SCORE.SYSTEM.norm>
0

>  <SCORE.heavy>
13

>  <SCORE.norm>
-2.14989

>  <RMSD>
4.082

$$$$
lig.pdb
 OpenBabel11021811453D
libRbt.so/2013.1/901 2013/11/27
 13 14  0  0  0  0  0  0  0  0999 V2000
   -6.4080    5.2053   -6.8089 N   0  0  0  0  0  0  0  0  0  0  0  0
   -6.9265    4.0787   -7.3818 C   0  0  0  0  0  0  0  0  0  0  0  0
   -8.0250    3.5296   -6.8953 N   0  0  0  0  0  0  0  0  0  0  0  0
   -8.6822    4.0511   -5.8147 C   0  0  0  0  0  0  0  0  0  0  0  0
   -8.1850    5.2145   -5.1786 C   0  0  0  0  0  0  0  0  0  0  0  0
   -6.9980    5.8015   -5.7117 C   0  0  0  0  0  0  0  0  0  0  0  0
   -6.5165    6.8025   -5.2106 O   0  0  0  0  0  0  0  0  0  0  0  0
   -9.0973    5.5037   -4.0659 C   0  0  0  0  0  0  0  0  0  0  0  0
   -9.0018    6.6255   -3.0659 C   0  0  0  0  0  0  0  0  0  0  0  0
  -10.3123    6.8368   -2.4370 N   0  0  0  0  0  0  0  0  0  0  0  0
  -10.0444    4.5585   -4.1085 C   0  0  0  0  0  0  0  0  0  0  0  0
   -9.8044    3.6878   -5.1379 N   0  0  0  0  0  0  0  0  0  0  0  0
   -6.3020    3.5174   -8.4657 N   0  0  0  0  0  0  0  0  0  0  0  0
  1  6  1  0  0  0  0
  2  1  1  0  0  0  0
  3  4  1  0  0  0  0
  3  2  2  0  0  0  0
  4  5  2  0  0  0  0
  5  8  1  0  0  0  0
  5  6  1  0  0  0  0
  6  7  2  0  0  0  0
  8  9  1  0  0  0  0
  9 10  1  0  0  0  0
 11  8  2  0  0  0  0
 12  4  1  0  0  0  0
 12 11  1  0  0  0  0
 13  2  1  0  0  0  0
M  END
>  <CHROM.1>
160.43599316,-112.28837617,-8.16293775,5.05307968,-5.41111372,-0.88385387
0.57122302,0.71677061

>  <Name>
lig.pdb

>  <RI>
2.68696e+07

>  <Rbt.Current_Directory>
/home/itssahil/PROJECTS/Mol_Feturizer/New_Systems/rnas/2miy

>  <Rbt.Executable>
rbdock ($Id: //depot/dev/client3/rdock/2013.1/src/exe/rbdock.cxx#4 $)

>  <Rbt.Library>
libRbt.so (2013.1, Build901 2013/11/27)

>  <Rbt.Parameter_File>
/export/apps/rDock/src/rDock_2013.1_src/data/scripts/dock_solv.prm

>  <Rbt.Receptor>
prm/pocket_docking_4.prm

>  <SCORE>
-25.7675

>  <SCORE.INTER>
-27.7516

>  <SCORE.INTER.CONST>
1

>  <SCORE.INTER.POLAR>
-3.76245

>  <SCORE.INTER.ROT>
2

>  <SCORE.INTER.SOLV>
13.0249

>  <SCORE.INTER.VDW>
-15.2345

>  <SCORE.INTER.norm>
-2.13474

>  <SCORE.INTRA>
1.98408

>  <SCORE.INTRA.DIHEDRAL>
0.223216

>  <SCORE.INTRA.DIHEDRAL.0>
1.76676

>  <SCORE.INTRA.POLAR>
0.472211

>  <SCORE.INTRA.POLAR.0>
-0.472211

>  <SCORE.INTRA.REPUL>
0

>  <SCORE.INTRA.REPUL.0>
0

>  <SCORE.INTRA.SOLV>
-0.586073

>  <SCORE.INTRA.SOLV.lig_0>
-22.5855

>  <SCORE.INTRA.VDW>
0.559995

>  <SCORE.INTRA.VDW.0>
-0.733656

>  <SCORE.INTRA.norm>
0.152622

>  <SCORE.RESTR>
0

>  <SCORE.RESTR.CAVITY>
0

>  <SCORE.RESTR.norm>
0

>  <SCORE.SYSTEM>
0

>  <SCORE.SYSTEM.CONST>
0

>  <SCORE.SYSTEM.DIHEDRAL>
0

>  <SCORE.SYSTEM.SOLV>
0

>  <SCORE.SYSTEM.norm>
0

>  <SCORE.heavy>
13

>  <SCORE.norm>
-1.98212

>  <RMSD>
4.112

$$$$
lig.pdb
 OpenBabel11021811453D
libRbt.so/2013.1/901 2013/11/27
 13 14  0  0  0  0  0  0  0  0999 V2000
   -8.2346    5.2398   -4.5184 N   0  0  0  0  0  0  0  0  0  0  0  0
   -6.9730    5.2796   -5.0411 C   0  0  0  0  0  0  0  0  0  0  0  0
   -6.7500    4.8634   -6.2748 N   0  0  0  0  0  0  0  0  0  0  0  0
   -7.7514    4.3802   -7.0719 C   0  0  0  0  0  0  0  0  0  0  0  0
   -9.0769    4.3111   -6.5785 C   0  0  0  0  0  0  0  0  0  0  0  0
   -9.3086    4.7640   -5.2447 C   0  0  0  0  0  0  0  0  0  0  0  0
  -10.4255    4.7302   -4.7585 O   0  0  0  0  0  0  0  0  0  0  0  0
   -9.8949    3.7465   -7.6583 C   0  0  0  0  0  0  0  0  0  0  0  0
  -11.3711    3.4496   -7.6349 C   0  0  0  0  0  0  0  0  0  0  0  0
  -12.0090    4.0331   -8.8225 N   0  0  0  0  0  0  0  0  0  0  0  0
   -9.0607    3.5373   -8.6842 C   0  0  0  0  0  0  0  0  0  0  0  0
   -7.7854    3.9036   -8.3452 N   0  0  0  0  0  0  0  0  0  0  0  0
   -5.9358    5.7535   -4.2798 N   0  0  0  0  0  0  0  0  0  0  0  0
  1  6  1  0  0  0  0
  2  1  1  0  0  0  0
  3  4  1  0  0  0  0
  3  2  2  0  0  0  0
  4  5  2  0  0  0  0
  5  8  1  0  0  0  0
  5  6  1  0  0  0  0
  6  7  2  0  0  0  0
  8  9  1  0  0  0  0
  9 10  1  0  0  0  0
 11  8  2  0  0  0  0
 12  4  1  0  0  0  0
 12 11  1  0  0  0  0
 13  2  1  0  0  0  0
M  END
>  <CHROM.1>
129.99679675,70.56243438,-8.83155683,4.48346036,-6.51128206,0.74855257,0.10299221
1.24963796

>  <Name>
lig.pdb

>  <RI>
2.95488e+07

>  <Rbt.Current_Directory>
/home/itssahil/PROJECTS/Mol_Feturizer/New_Systems/rnas/2miy

>  <Rbt.Executable>
rbdock ($Id: //depot/dev/client3/rdock/2013.1/src/exe/rbdock.cxx#4 $)

>  <Rbt.Library>
libRbt.so (2013.1, Build901 2013/11/27)

>  <Rbt.Parameter_File>
/export/apps/rDock/src/rDock_2013.1_src/data/scripts/dock_solv.prm

>  <Rbt.Receptor>
prm/blind_docking_20.prm

>  <SCORE>
-23.1591

>  <SCORE.INTER>
-26.185

>  <SCORE.INTER.CONST>
1

>  <SCORE.INTER.POLAR>
-2.34132

>  <SCORE.INTER.ROT>
2

>  <SCORE.INTER.SOLV>
14.6765

>  <SCORE.INTER.VDW>
-19.4778

>  <SCORE.INTER.norm>
-2.01423

>  <SCORE.INTRA>
2.45766

>  <SCORE.INTRA.DIHEDRAL>
1.71451

>  <SCORE.INTRA.DIHEDRAL.0>
1.76676

>  <SCORE.INTRA.POLAR>
0.472211

>  <SCORE.INTRA.POLAR.0>
-0.472211

>  <SCORE.INTRA.REPUL>
0

>  <SCORE.INTRA.REPUL.0>
0

>  <SCORE.INTRA.SOLV>
-0.631584

>  <SCORE.INTRA.SOLV.lig_0>
-22.5855

>  <SCORE.INTRA.VDW>
0.310678

>  <SCORE.INTRA.VDW.0>
-0.733656

>  <SCORE.INTRA.norm>
0.189051

>  <SCORE.RESTR>
0.568272

>  <SCORE.RESTR.CAVITY>
0.568272

>  <SCORE.RESTR.norm>
0.0437132

>  <SCORE.SYSTEM>
0

>  <SCORE.SYSTEM.CONST>
0

>  <SCORE.SYSTEM.DIHEDRAL>
0

>  <SCORE.SYSTEM.SOLV>
0

>  <SCORE.SYSTEM.norm>
0

>  <SCORE.heavy>
13

>  <SCORE.norm>
-1.78147

>  <RMSD>
4.124

$$$$
lig.pdb
 OpenBabel11021811453D
libRbt.so/2013.1/901 2013/11/27
 13 14  0  0  0  0  0  0  0  0999 V2000
   -7.9108    5.8738   -5.0667 N   0  0  0  0  0  0  0  0  0  0  0  0
   -6.6124    5.4630   -5.1747 C   0  0  0  0  0  0  0  0  0  0  0  0
   -6.2360    4.7057   -6.1895 N   0  0  0  0  0  0  0  0  0  0  0  0
   -7.1112    4.3028   -7.1606 C   0  0  0  0  0  0  0  0  0  0  0  0
   -8.4703    4.6949   -7.0947 C   0  0  0  0  0  0  0  0  0  0  0  0
   -8.8677    5.5139   -5.9952 C   0  0  0  0  0  0  0  0  0  0  0  0
  -10.0225    5.8849   -5.8778 O   0  0  0  0  0  0  0  0  0  0  0  0
   -9.1335    4.0983   -8.2601 C   0  0  0  0  0  0  0  0  0  0  0  0
  -10.5870    4.1962   -8.6414 C   0  0  0  0  0  0  0  0  0  0  0  0
  -11.4005    3.4466   -7.6749 N   0  0  0  0  0  0  0  0  0  0  0  0
   -8.1820    3.4343   -8.9279 C   0  0  0  0  0  0  0  0  0  0  0  0
   -6.9798    3.5434   -8.2812 N   0  0  0  0  0  0  0  0  0  0  0  0
   -5.6985    5.8393   -4.2244 N   0  0  0  0  0  0  0  0  0  0  0  0
  1  6  1  0  0  0  0
  2  1  1  0  0  0  0
  3  4  1  0  0  0  0
  3  2  2  0  0  0  0
  4  5  2  0  0  0  0
  5  8  1  0  0  0  0
  5  6  1  0  0  0  0
  6  7  2  0  0  0  0
  8  9  1  0  0  0  0
  9 10  1  0  0  0  0
 11  8  2  0  0  0  0
 12  4  1  0  0  0  0
 12 11  1  0  0  0  0
 13  2  1  0  0  0  0
M  END
>  <CHROM.1>
-68.83994297,-66.31037121,-8.27314795,4.70391288,-6.76443049,0.76738454,-0.08967281
0.98503618

>  <Name>
lig.pdb

>  <RI>
1.82164e+07

>  <Rbt.Current_Directory>
/home/itssahil/PROJECTS/Mol_Feturizer/New_Systems/rnas/2miy

>  <Rbt.Executable>
rbdock ($Id: //depot/dev/client3/rdock/2013.1/src/exe/rbdock.cxx#4 $)

>  <Rbt.Library>
libRbt.so (2013.1, Build901 2013/11/27)

>  <Rbt.Parameter_File>
/export/apps/rDock/src/rDock_2013.1_src/data/scripts/dock_solv.prm

>  <Rbt.Receptor>
prm/blind_docking_80.prm

>  <SCORE>
-19.4085

>  <SCORE.INTER>
-21.5393

>  <SCORE.INTER.CONST>
1

>  <SCORE.INTER.POLAR>
-3.71897

>  <SCORE.INTER.ROT>
2

>  <SCORE.INTER.SOLV>
17.0766

>  <SCORE.INTER.VDW>
-12.5885

>  <SCORE.INTER.norm>
-1.65687

>  <SCORE.INTRA>
1.42671

>  <SCORE.INTRA.DIHEDRAL>
-0.197174

>  <SCORE.INTRA.DIHEDRAL.0>
1.76676

>  <SCORE.INTRA.POLAR>
0.472211

>  <SCORE.INTRA.POLAR.0>
-0.472211

>  <SCORE.INTRA.REPUL>
0

>  <SCORE.INTRA.REPUL.0>
0

>  <SCORE.INTRA.SOLV>
-0.258654

>  <SCORE.INTRA.SOLV.lig_0>
-22.5855

>  <SCORE.INTRA.VDW>
0.0491093

>  <SCORE.INTRA.VDW.0>
-0.733656

>  <SCORE.INTRA.norm>
0.109747

>  <SCORE.RESTR>
0.704009

>  <SCORE.RESTR.CAVITY>
0.704009

>  <SCORE.RESTR.norm>
0.0541546

>  <SCORE.SYSTEM>
0

>  <SCORE.SYSTEM.CONST>
0

>  <SCORE.SYSTEM.DIHEDRAL>
0

>  <SCORE.SYSTEM.SOLV>
0

>  <SCORE.SYSTEM.norm>
0

>  <SCORE.heavy>
13

>  <SCORE.norm>
-1.49296

>  <RMSD>
4.126

$$$$
lig.pdb
 OpenBabel11021811453D
libRbt.so/2013.1/901 2013/11/27
 13 14  0  0  0  0  0  0  0  0999 V2000
   -7.9140    5.9000   -5.0617 N   0  0  0  0  0  0  0  0  0  0  0  0
   -6.6137    5.4933   -5.1629 C   0  0  0  0  0  0  0  0  0  0  0  0
   -6.2300    4.7354   -6.1745 N   0  0  0  0  0  0  0  0  0  0  0  0
   -7.0993    4.3276   -7.1489 C   0  0  0  0  0  0  0  0  0  0  0  0
   -8.4600    4.7152   -7.0900 C   0  0  0  0  0  0  0  0  0  0  0  0
   -8.8653    5.5350   -5.9940 C   0  0  0  0  0  0  0  0  0  0  0  0
  -10.0219    5.9023   -5.8827 O   0  0  0  0  0  0  0  0  0  0  0  0
   -9.1157    4.1142   -8.2574 C   0  0  0  0  0  0  0  0  0  0  0  0
  -10.5678    4.2064   -8.6455 C   0  0  0  0  0  0  0  0  0  0  0  0
  -11.3830    3.4538   -7.6829 N   0  0  0  0  0  0  0  0  0  0  0  0
   -8.1589    3.4521   -8.9195 C   0  0  0  0  0  0  0  0  0  0  0  0
   -6.9601    3.5665   -8.2674 N   0  0  0  0  0  0  0  0  0  0  0  0
   -5.7054    5.8746   -4.2091 N   0  0  0  0  0  0  0  0  0  0  0  0
  1  6  1  0  0  0  0
  2  1  1  0  0  0  0
  3  4  1  0  0  0  0
  3  2  2  0  0  0  0
  4  5  2  0  0  0  0
  5  8  1  0  0  0  0
  5  6  1  0  0  0  0
  6  7  2  0  0  0  0
  8  9  1  0  0  0  0
  9 10  1  0  0  0  0
 11  8  2  0  0  0  0
 12  4  1  0  0  0  0
 12 11  1  0  0  0  0
 13  2  1  0  0  0  0
M  END
>  <CHROM.1>
-68.94701455,-66.15253851,-8.26440055,4.72536091,-6.75901677,0.77330666,-0.08937866
0.98351406

>  <Name>
lig.pdb

>  <RI>
1.17462e+07

>  <Rbt.Current_Directory>
/home/itssahil/PROJECTS/Mol_Feturizer/New_Systems/rnas/2miy

>  <Rbt.Executable>
rbdock ($Id: //depot/dev/client3/rdock/2013.1/src/exe/rbdock.cxx#4 $)

>  <Rbt.Library>
libRbt.so (2013.1, Build901 2013/11/27)

>  <Rbt.Parameter_File>
/export/apps/rDock/src/rDock_2013.1_src/data/scripts/dock_solv.prm

>  <Rbt.Receptor>
prm/blind_docking_40.prm

>  <SCORE>
-19.4438

>  <SCORE.INTER>
-21.5864

>  <SCORE.INTER.CONST>
1

>  <SCORE.INTER.POLAR>
-3.70594

>  <SCORE.INTER.ROT>
2

>  <SCORE.INTER.SOLV>
17.1159

>  <SCORE.INTER.VDW>
-12.6765

>  <SCORE.INTER.norm>
-1.66049

>  <SCORE.INTRA>
1.42799

>  <SCORE.INTRA.DIHEDRAL>
-0.194592

>  <SCORE.INTRA.DIHEDRAL.0>
1.76676

>  <SCORE.INTRA.POLAR>
0.472211

>  <SCORE.INTRA.POLAR.0>
-0.472211

>  <SCORE.INTRA.REPUL>
0

>  <SCORE.INTRA.REPUL.0>
0

>  <SCORE.INTRA.SOLV>
-0.259805

>  <SCORE.INTRA.SOLV.lig_0>
-22.5855

>  <SCORE.INTRA.VDW>
0.0496675

>  <SCORE.INTRA.VDW.0>
-0.733656

>  <SCORE.INTRA.norm>
0.109845

>  <SCORE.RESTR>
0.714627

>  <SCORE.RESTR.CAVITY>
0.714627

>  <SCORE.RESTR.norm>
0.0549713

>  <SCORE.SYSTEM>
0

>  <SCORE.SYSTEM.CONST>
0

>  <SCORE.SYSTEM.DIHEDRAL>
0

>  <SCORE.SYSTEM.SOLV>
0

>  <SCORE.SYSTEM.norm>
0

>  <SCORE.heavy>
13

>  <SCORE.norm>
-1.49568

>  <RMSD>
4.130

$$$$
lig.pdb
 OpenBabel11021811453D
libRbt.so/2013.1/901 2013/11/27
 13 14  0  0  0  0  0  0  0  0999 V2000
   -8.2973    5.0756   -4.2914 N   0  0  0  0  0  0  0  0  0  0  0  0
   -7.0370    5.1372   -4.8151 C   0  0  0  0  0  0  0  0  0  0  0  0
   -6.8226    4.8028   -6.0749 N   0  0  0  0  0  0  0  0  0  0  0  0
   -7.8316    4.3851   -6.8988 C   0  0  0  0  0  0  0  0  0  0  0  0
   -9.1562    4.2970   -6.4060 C   0  0  0  0  0  0  0  0  0  0  0  0
   -9.3787    4.6613   -5.0439 C   0  0  0  0  0  0  0  0  0  0  0  0
  -10.4943    4.6066   -4.5567 O   0  0  0  0  0  0  0  0  0  0  0  0
   -9.9838    3.8151   -7.5182 C   0  0  0  0  0  0  0  0  0  0  0  0
  -11.4630    3.5330   -7.5091 C   0  0  0  0  0  0  0  0  0  0  0  0
  -12.0601    3.9974   -8.7682 N   0  0  0  0  0  0  0  0  0  0  0  0
   -9.1551    3.6668   -8.5591 C   0  0  0  0  0  0  0  0  0  0  0  0
   -7.8749    3.9959   -8.2011 N   0  0  0  0  0  0  0  0  0  0  0  0
   -5.9924    5.5478   -4.0276 N   0  0  0  0  0  0  0  0  0  0  0  0
  1  6  1  0  0  0  0
  2  1  1  0  0  0  0
  3  4  1  0  0  0  0
  3  2  2  0  0  0  0
  4  5  2  0  0  0  0
  5  8  1  0  0  0  0
  5  6  1  0  0  0  0
  6  7  2  0  0  0  0
  8  9  1  0  0  0  0
  9 10  1  0  0  0  0
 11  8  2  0  0  0  0
 12  4  1  0  0  0  0
 12 11  1  0  0  0  0
 13  2  1  0  0  0  0
M  END
>  <CHROM.1>
139.87418573,67.89284829,-8.90524245,4.44270365,-6.33912316,0.75616208,0.10832256
1.31585919

>  <Name>
lig.pdb

>  <RI>
2.68696e+07

>  <Rbt.Current_Directory>
/home/itssahil/PROJECTS/Mol_Feturizer/New_Systems/rnas/2miy

>  <Rbt.Executable>
rbdock ($Id: //depot/dev/client3/rdock/2013.1/src/exe/rbdock.cxx#4 $)

>  <Rbt.Library>
libRbt.so (2013.1, Build901 2013/11/27)

>  <Rbt.Parameter_File>
/export/apps/rDock/src/rDock_2013.1_src/data/scripts/dock_solv.prm

>  <Rbt.Receptor>
prm/pocket_docking_4.prm

>  <SCORE>
-25.1354

>  <SCORE.INTER>
-27.4807

>  <SCORE.INTER.CONST>
1

>  <SCORE.INTER.POLAR>
-2.28884

>  <SCORE.INTER.ROT>
2

>  <SCORE.INTER.SOLV>
13.4218

>  <SCORE.INTER.VDW>
-20.0983

>  <SCORE.INTER.norm>
-2.1139

>  <SCORE.INTRA>
2.34527

>  <SCORE.INTRA.DIHEDRAL>
1.32557

>  <SCORE.INTRA.DIHEDRAL.0>
1.76676

>  <SCORE.INTRA.POLAR>
0.472211

>  <SCORE.INTRA.POLAR.0>
-0.472211

>  <SCORE.INTRA.REPUL>
0

>  <SCORE.INTRA.REPUL.0>
0

>  <SCORE.INTRA.SOLV>
-0.613325

>  <SCORE.INTRA.SOLV.lig_0>
-22.5855

>  <SCORE.INTRA.VDW>
0.383625

>  <SCORE.INTRA.VDW.0>
-0.733656

>  <SCORE.INTRA.norm>
0.180405

>  <SCORE.RESTR>
0

>  <SCORE.RESTR.CAVITY>
0

>  <SCORE.RESTR.norm>
0

>  <SCORE.SYSTEM>
0

>  <SCORE.SYSTEM.CONST>
0

>  <SCORE.SYSTEM.DIHEDRAL>
0

>  <SCORE.SYSTEM.SOLV>
0

>  <SCORE.SYSTEM.norm>
0

>  <SCORE.heavy>
13

>  <SCORE.norm>
-1.93349

>  <RMSD>
4.154

$$$$
lig.pdb
 OpenBabel11021811453D
libRbt.so/2013.1/901 2013/11/27
 13 14  0  0  0  0  0  0  0  0999 V2000
   -8.1631    5.2809   -4.4852 N   0  0  0  0  0  0  0  0  0  0  0  0
   -6.8935    5.2398   -4.9879 C   0  0  0  0  0  0  0  0  0  0  0  0
   -6.6766    4.7951   -6.2127 N   0  0  0  0  0  0  0  0  0  0  0  0
   -7.6922    4.3611   -7.0198 C   0  0  0  0  0  0  0  0  0  0  0  0
   -9.0269    4.3763   -6.5470 C   0  0  0  0  0  0  0  0  0  0  0  0
   -9.2520    4.8594   -5.2228 C   0  0  0  0  0  0  0  0  0  0  0  0
  -10.3763    4.8975   -4.7542 O   0  0  0  0  0  0  0  0  0  0  0  0
   -9.8601    3.8465   -7.6329 C   0  0  0  0  0  0  0  0  0  0  0  0
  -11.3514    3.6371   -7.6297 C   0  0  0  0  0  0  0  0  0  0  0  0
  -11.8622    3.7160   -9.0046 N   0  0  0  0  0  0  0  0  0  0  0  0
   -9.0240    3.5754   -8.6426 C   0  0  0  0  0  0  0  0  0  0  0  0
   -7.7347    3.8708   -8.2876 N   0  0  0  0  0  0  0  0  0  0  0  0
   -5.8421    5.6621   -4.2158 N   0  0  0  0  0  0  0  0  0  0  0  0
  1  6  1  0  0  0  0
  2  1  1  0  0  0  0
  3  4  1  0  0  0  0
  3  2  2  0  0  0  0
  4  5  2  0  0  0  0
  5  8  1  0  0  0  0
  5  6  1  0  0  0  0
  6  7  2  0  0  0  0
  8  9  1  0  0  0  0
  9 10  1  0  0  0  0
 11  8  2  0  0  0  0
 12  4  1  0  0  0  0
 12 11  1  0  0  0  0
 13  2  1  0  0  0  0
M  END
>  <CHROM.1>
153.21641648,-99.56990001,-8.76624760,4.48577199,-6.49384551,0.77374760,0.07756838
1.22791096

>  <Name>
lig.pdb

>  <RI>
1.82164e+07

>  <Rbt.Current_Directory>
/home/itssahil/PROJECTS/Mol_Feturizer/New_Systems/rnas/2miy

>  <Rbt.Executable>
rbdock ($Id: //depot/dev/client3/rdock/2013.1/src/exe/rbdock.cxx#4 $)

>  <Rbt.Library>
libRbt.so (2013.1, Build901 2013/11/27)

>  <Rbt.Parameter_File>
/export/apps/rDock/src/rDock_2013.1_src/data/scripts/dock_solv.prm

>  <Rbt.Receptor>
prm/blind_docking_80.prm

>  <SCORE>
-21.5816

>  <SCORE.INTER>
-25.4135

>  <SCORE.INTER.CONST>
1

>  <SCORE.INTER.POLAR>
-2.016

>  <SCORE.INTER.ROT>
2

>  <SCORE.INTER.SOLV>
14.6888

>  <SCORE.INTER.VDW>
-20.0519

>  <SCORE.INTER.norm>
-1.95488

>  <SCORE.INTRA>
2.11398

>  <SCORE.INTRA.DIHEDRAL>
0.626135

>  <SCORE.INTRA.DIHEDRAL.0>
1.76676

>  <SCORE.INTRA.POLAR>
0.472211

>  <SCORE.INTRA.POLAR.0>
-0.472211

>  <SCORE.INTRA.REPUL>
0

>  <SCORE.INTRA.REPUL.0>
0

>  <SCORE.INTRA.SOLV>
-0.59476

>  <SCORE.INTRA.SOLV.lig_0>
-22.5855

>  <SCORE.INTRA.VDW>
0.492774

>  <SCORE.INTRA.VDW.0>
-0.733656

>  <SCORE.INTRA.norm>
0.162614

>  <SCORE.RESTR>
1.71796

>  <SCORE.RESTR.CAVITY>
1.71796

>  <SCORE.RESTR.norm>
0.132151

>  <SCORE.SYSTEM>
0

>  <SCORE.SYSTEM.CONST>
0

>  <SCORE.SYSTEM.DIHEDRAL>
0

>  <SCORE.SYSTEM.SOLV>
0

>  <SCORE.SYSTEM.norm>
0

>  <SCORE.heavy>
13

>  <SCORE.norm>
-1.66012

>  <RMSD>
4.162

$$$$
lig.pdb
 OpenBabel11021811453D
libRbt.so/2013.1/901 2013/11/27
 13 14  0  0  0  0  0  0  0  0999 V2000
   -8.1474    5.3212   -4.4306 N   0  0  0  0  0  0  0  0  0  0  0  0
   -6.8807    5.2598   -4.9388 C   0  0  0  0  0  0  0  0  0  0  0  0
   -6.6756    4.8050   -6.1619 N   0  0  0  0  0  0  0  0  0  0  0  0
   -7.7008    4.3802   -6.9619 C   0  0  0  0  0  0  0  0  0  0  0  0
   -9.0330    4.4166   -6.4831 C   0  0  0  0  0  0  0  0  0  0  0  0
   -9.2453    4.9105   -5.1608 C   0  0  0  0  0  0  0  0  0  0  0  0
  -10.3668    4.9668   -4.6874 O   0  0  0  0  0  0  0  0  0  0  0  0
   -9.8784    3.8920   -7.5621 C   0  0  0  0  0  0  0  0  0  0  0  0
  -11.3723    3.7032   -7.5509 C   0  0  0  0  0  0  0  0  0  0  0  0
  -11.8348    3.3588   -8.9019 N   0  0  0  0  0  0  0  0  0  0  0  0
   -9.0507    3.6036   -8.5740 C   0  0  0  0  0  0  0  0  0  0  0  0
   -7.7558    3.8831   -8.2265 N   0  0  0  0  0  0  0  0  0  0  0  0
   -5.8201    5.6720   -4.1740 N   0  0  0  0  0  0  0  0  0  0  0  0
  1  6  1  0  0  0  0
  2  1  1  0  0  0  0
  3  4  1  0  0  0  0
  3  2  2  0  0  0  0
  4  5  2  0  0  0  0
  5  8  1  0  0  0  0
  5  6  1  0  0  0  0
  6  7  2  0  0  0  0
  8  9  1  0  0  0  0
  9 10  1  0  0  0  0
 11  8  2  0  0  0  0
 12  4  1  0  0  0  0
 12 11  1  0  0  0  0
 13  2  1  0  0  0  0
M  END
>  <CHROM.1>
170.93266636,-100.43632374,-8.76557072,4.48341314,-6.42970367,0.77714816
0.09339663,1.20675061

>  <Name>
lig.pdb

>  <RI>
1.82164e+07

>  <Rbt.Current_Directory>
/home/itssahil/PROJECTS/Mol_Feturizer/New_Systems/rnas/2miy

>  <Rbt.Executable>
rbdock ($Id: //depot/dev/client3/rdock/2013.1/src/exe/rbdock.cxx#4 $)

>  <Rbt.Library>
libRbt.so (2013.1, Build901 2013/11/27)

>  <Rbt.Parameter_File>
/export/apps/rDock/src/rDock_2013.1_src/data/scripts/dock_solv.prm

>  <Rbt.Receptor>
prm/blind_docking_80.prm

>  <SCORE>
-21.4192

>  <SCORE.INTER>
-25.1118

>  <SCORE.INTER.CONST>
1

>  <SCORE.INTER.POLAR>
-1.88346

>  <SCORE.INTER.ROT>
2

>  <SCORE.INTER.SOLV>
14.6985

>  <SCORE.INTER.VDW>
-20.2958

>  <SCORE.INTER.norm>
-1.93168

>  <SCORE.INTRA>
1.83019

>  <SCORE.INTRA.DIHEDRAL>
-0.173942

>  <SCORE.INTRA.DIHEDRAL.0>
1.76676

>  <SCORE.INTRA.POLAR>
0.472211

>  <SCORE.INTRA.POLAR.0>
-0.472211

>  <SCORE.INTRA.REPUL>
0

>  <SCORE.INTRA.REPUL.0>
0

>  <SCORE.INTRA.SOLV>
-0.579109

>  <SCORE.INTRA.SOLV.lig_0>
-22.5855

>  <SCORE.INTRA.VDW>
0.6012

>  <SCORE.INTRA.VDW.0>
-0.733656

>  <SCORE.INTRA.norm>
0.140784

>  <SCORE.RESTR>
1.86245

>  <SCORE.RESTR.CAVITY>
1.86245

>  <SCORE.RESTR.norm>
0.143266

>  <SCORE.SYSTEM>
0

>  <SCORE.SYSTEM.CONST>
0

>  <SCORE.SYSTEM.DIHEDRAL>
0

>  <SCORE.SYSTEM.SOLV>
0

>  <SCORE.SYSTEM.norm>
0

>  <SCORE.heavy>
13

>  <SCORE.norm>
-1.64763

>  <RMSD>
4.189

$$$$
lig.pdb
 OpenBabel11021811453D
libRbt.so/2013.1/901 2013/11/27
 13 14  0  0  0  0  0  0  0  0999 V2000
   -7.9083    5.6738   -4.4201 N   0  0  0  0  0  0  0  0  0  0  0  0
   -6.6230    5.4039   -4.7963 C   0  0  0  0  0  0  0  0  0  0  0  0
   -6.3768    4.8273   -5.9590 N   0  0  0  0  0  0  0  0  0  0  0  0
   -7.3772    4.4778   -6.8243 C   0  0  0  0  0  0  0  0  0  0  0  0
   -8.7281    4.7292   -6.4820 C   0  0  0  0  0  0  0  0  0  0  0  0
   -8.9845    5.3535   -5.2242 C   0  0  0  0  0  0  0  0  0  0  0  0
  -10.1243    5.5962   -4.8680 O   0  0  0  0  0  0  0  0  0  0  0  0
   -9.5405    4.2344   -7.5997 C   0  0  0  0  0  0  0  0  0  0  0  0
  -11.0414    4.2463   -7.7218 C   0  0  0  0  0  0  0  0  0  0  0  0
  -11.4703    3.1666   -8.6206 N   0  0  0  0  0  0  0  0  0  0  0  0
   -8.6756    3.7570   -8.5032 C   0  0  0  0  0  0  0  0  0  0  0  0
   -7.3899    3.8904   -8.0508 N   0  0  0  0  0  0  0  0  0  0  0  0
   -5.5864    5.7335   -3.9617 N   0  0  0  0  0  0  0  0  0  0  0  0
  1  6  1  0  0  0  0
  2  1  1  0  0  0  0
  3  4  1  0  0  0  0
  3  2  2  0  0  0  0
  4  5  2  0  0  0  0
  5  8  1  0  0  0  0
  5  6  1  0  0  0  0
  6  7  2  0  0  0  0
  8  9  1  0  0  0  0
  9 10  1  0  0  0  0
 11  8  2  0  0  0  0
 12  4  1  0  0  0  0
 12 11  1  0  0  0  0
 13  2  1  0  0  0  0
M  END
>  <CHROM.1>
-154.06072906,76.47253520,-8.46354939,4.69978898,-6.36416869,0.79946659,-0.01611482
1.09407871

>  <Name>
lig.pdb

>  <RI>
1.17462e+07

>  <Rbt.Current_Directory>
/home/itssahil/PROJECTS/Mol_Feturizer/New_Systems/rnas/2miy

>  <Rbt.Executable>
rbdock ($Id: //depot/dev/client3/rdock/2013.1/src/exe/rbdock.cxx#4 $)

>  <Rbt.Library>
libRbt.so (2013.1, Build901 2013/11/27)

>  <Rbt.Parameter_File>
/export/apps/rDock/src/rDock_2013.1_src/data/scripts/dock_solv.prm

>  <Rbt.Receptor>
prm/blind_docking_40.prm

>  <SCORE>
-19.7283

>  <SCORE.INTER>
-23.1513

>  <SCORE.INTER.CONST>
1

>  <SCORE.INTER.POLAR>
-2.30599

>  <SCORE.INTER.ROT>
2

>  <SCORE.INTER.SOLV>
15.4596

>  <SCORE.INTER.VDW>
-17.8341

>  <SCORE.INTER.norm>
-1.78087

>  <SCORE.INTRA>
2.05978

>  <SCORE.INTRA.DIHEDRAL>
0.507394

>  <SCORE.INTRA.DIHEDRAL.0>
1.76676

>  <SCORE.INTRA.POLAR>
0.472211

>  <SCORE.INTRA.POLAR.0>
-0.472211

>  <SCORE.INTRA.REPUL>
0

>  <SCORE.INTRA.REPUL.0>
0

>  <SCORE.INTRA.SOLV>
-0.59017

>  <SCORE.INTRA.SOLV.lig_0>
-22.5855

>  <SCORE.INTRA.VDW>
0.495647

>  <SCORE.INTRA.VDW.0>
-0.733656

>  <SCORE.INTRA.norm>
0.158444

>  <SCORE.RESTR>
1.36323

>  <SCORE.RESTR.CAVITY>
1.36323

>  <SCORE.RESTR.norm>
0.104864

>  <SCORE.SYSTEM>
0

>  <SCORE.SYSTEM.CONST>
0

>  <SCORE.SYSTEM.DIHEDRAL>
0

>  <SCORE.SYSTEM.SOLV>
0

>  <SCORE.SYSTEM.norm>
0

>  <SCORE.heavy>
13

>  <SCORE.norm>
-1.51756

>  <RMSD>
4.259

$$$$
lig.pdb
 OpenBabel11021811453D
libRbt.so/2013.1/901 2013/11/27
 13 14  0  0  0  0  0  0  0  0999 V2000
   -7.8455    5.6405   -4.4863 N   0  0  0  0  0  0  0  0  0  0  0  0
   -6.5363    5.4009   -4.7948 C   0  0  0  0  0  0  0  0  0  0  0  0
   -6.2167    4.8272   -5.9410 N   0  0  0  0  0  0  0  0  0  0  0  0
   -7.1623    4.4511   -6.8551 C   0  0  0  0  0  0  0  0  0  0  0  0
   -8.5347    4.6705   -6.5839 C   0  0  0  0  0  0  0  0  0  0  0  0
   -8.8707    5.2918   -5.3434 C   0  0  0  0  0  0  0  0  0  0  0  0
  -10.0329    5.5077   -5.0473 O   0  0  0  0  0  0  0  0  0  0  0  0
   -9.2762    4.1529   -7.7399 C   0  0  0  0  0  0  0  0  0  0  0  0
  -10.7687    4.1280   -7.9392 C   0  0  0  0  0  0  0  0  0  0  0  0
  -11.0955    3.2960   -9.1048 N   0  0  0  0  0  0  0  0  0  0  0  0
   -8.3547    3.6943   -8.5958 C   0  0  0  0  0  0  0  0  0  0  0  0
   -7.0976    3.8602   -8.0783 N   0  0  0  0  0  0  0  0  0  0  0  0
   -5.5524    5.7579   -3.9092 N   0  0  0  0  0  0  0  0  0  0  0  0
  1  6  1  0  0  0  0
  2  1  1  0  0  0  0
  3  4  1  0  0  0  0
  3  2  2  0  0  0  0
  4  5  2  0  0  0  0
  5  8  1  0  0  0  0
  5  6  1  0  0  0  0
  6  7  2  0  0  0  0
  8  9  1  0  0  0  0
  9 10  1  0  0  0  0
 11  8  2  0  0  0  0
 12  4  1  0  0  0  0
 12 11  1  0  0  0  0
 13  2  1  0  0  0  0
M  END
>  <CHROM.1>
-169.09766975,-92.58189479,-8.27347816,4.67212872,-6.47577504,0.86543770
-0.03950980,1.10752847

>  <Name>
lig.pdb

>  <RI>
1.82164e+07

>  <Rbt.Current_Directory>
/home/itssahil/PROJECTS/Mol_Feturizer/New_Systems/rnas/2miy

>  <Rbt.Executable>
rbdock ($Id: //depot/dev/client3/rdock/2013.1/src/exe/rbdock.cxx#4 $)

>  <Rbt.Library>
libRbt.so (2013.1, Build901 2013/11/27)

>  <Rbt.Parameter_File>
/export/apps/rDock/src/rDock_2013.1_src/data/scripts/dock_solv.prm

>  <Rbt.Receptor>
prm/blind_docking_80.prm

>  <SCORE>
-21.1385

>  <SCORE.INTER>
-24.0799

>  <SCORE.INTER.CONST>
1

>  <SCORE.INTER.POLAR>
-2.49984

>  <SCORE.INTER.ROT>
2

>  <SCORE.INTER.SOLV>
15.9705

>  <SCORE.INTER.VDW>
-17.9773

>  <SCORE.INTER.norm>
-1.8523

>  <SCORE.INTRA>
1.83296

>  <SCORE.INTRA.DIHEDRAL>
-0.127754

>  <SCORE.INTRA.DIHEDRAL.0>
1.76676

>  <SCORE.INTRA.POLAR>
0.472211

>  <SCORE.INTRA.POLAR.0>
-0.472211

>  <SCORE.INTRA.REPUL>
0

>  <SCORE.INTRA.REPUL.0>
0

>  <SCORE.INTRA.SOLV>
-0.578931

>  <SCORE.INTRA.SOLV.lig_0>
-22.5855

>  <SCORE.INTRA.VDW>
0.580789

>  <SCORE.INTRA.VDW.0>
-0.733656

>  <SCORE.INTRA.norm>
0.140997

>  <SCORE.RESTR>
1.10838

>  <SCORE.RESTR.CAVITY>
1.10838

>  <SCORE.RESTR.norm>
0.0852598

>  <SCORE.SYSTEM>
0

>  <SCORE.SYSTEM.CONST>
0

>  <SCORE.SYSTEM.DIHEDRAL>
0

>  <SCORE.SYSTEM.SOLV>
0

>  <SCORE.SYSTEM.norm>
0

>  <SCORE.heavy>
13

>  <SCORE.norm>
-1.62604

>  <RMSD>
4.263

$$$$
lig.pdb
 OpenBabel11021811453D
libRbt.so/2013.1/901 2013/11/27
 13 14  0  0  0  0  0  0  0  0999 V2000
   -7.8323    5.7123   -4.5298 N   0  0  0  0  0  0  0  0  0  0  0  0
   -6.5259    5.4342   -4.8165 C   0  0  0  0  0  0  0  0  0  0  0  0
   -6.2063    4.8316   -5.9478 N   0  0  0  0  0  0  0  0  0  0  0  0
   -7.1495    4.4627   -6.8674 C   0  0  0  0  0  0  0  0  0  0  0  0
   -8.5192    4.7215   -6.6184 C   0  0  0  0  0  0  0  0  0  0  0  0
   -8.8551    5.3739   -5.3939 C   0  0  0  0  0  0  0  0  0  0  0  0
  -10.0151    5.6244   -5.1171 O   0  0  0  0  0  0  0  0  0  0  0  0
   -9.2589    4.2016   -7.7745 C   0  0  0  0  0  0  0  0  0  0  0  0
  -10.7488    4.2107   -7.9930 C   0  0  0  0  0  0  0  0  0  0  0  0
  -11.0879    3.3166   -9.1080 N   0  0  0  0  0  0  0  0  0  0  0  0
   -8.3384    3.7042   -8.6097 C   0  0  0  0  0  0  0  0  0  0  0  0
   -7.0843    3.8479   -8.0787 N   0  0  0  0  0  0  0  0  0  0  0  0
   -5.5445    5.7825   -3.9246 N   0  0  0  0  0  0  0  0  0  0  0  0
  1  6  1  0  0  0  0
  2  1  1  0  0  0  0
  3  4  1  0  0  0  0
  3  2  2  0  0  0  0
  4  5  2  0  0  0  0
  5  8  1  0  0  0  0
  5  6  1  0  0  0  0
  6  7  2  0  0  0  0
  8  9  1  0  0  0  0
  9 10  1  0  0  0  0
 11  8  2  0  0  0  0
 12  4  1  0  0  0  0
 12 11  1  0  0  0  0
 13  2  1  0  0  0  0
M  END
>  <CHROM.1>
-166.47220748,-96.19580100,-8.25999444,4.71399366,-6.50314842,0.86426948
-0.06443357,1.08614574

>  <Name>
lig.pdb

>  <RI>
1.82164e+07

>  <Rbt.Current_Directory>
/home/itssahil/PROJECTS/Mol_Feturizer/New_Systems/rnas/2miy

>  <Rbt.Executable>
rbdock ($Id: //depot/dev/client3/rdock/2013.1/src/exe/rbdock.cxx#4 $)

>  <Rbt.Library>
libRbt.so (2013.1, Build901 2013/11/27)

>  <Rbt.Parameter_File>
/export/apps/rDock/src/rDock_2013.1_src/data/scripts/dock_solv.prm

>  <Rbt.Receptor>
prm/blind_docking_80.prm

>  <SCORE>
-20.6063

>  <SCORE.INTER>
-23.4845

>  <SCORE.INTER.CONST>
1

>  <SCORE.INTER.POLAR>
-2.5028

>  <SCORE.INTER.ROT>
2

>  <SCORE.INTER.SOLV>
16.2451

>  <SCORE.INTER.VDW>
-17.662

>  <SCORE.INTER.norm>
-1.8065

>  <SCORE.INTRA>
1.86511

>  <SCORE.INTRA.DIHEDRAL>
-0.0398914

>  <SCORE.INTRA.DIHEDRAL.0>
1.76676

>  <SCORE.INTRA.POLAR>
0.472211

>  <SCORE.INTRA.POLAR.0>
-0.472211

>  <SCORE.INTRA.REPUL>
0

>  <SCORE.INTRA.REPUL.0>
0

>  <SCORE.INTRA.SOLV>
-0.580292

>  <SCORE.INTRA.SOLV.lig_0>
-22.5855

>  <SCORE.INTRA.VDW>
0.56968

>  <SCORE.INTRA.VDW.0>
-0.733656

>  <SCORE.INTRA.norm>
0.14347

>  <SCORE.RESTR>
1.01314

>  <SCORE.RESTR.CAVITY>
1.01314

>  <SCORE.RESTR.norm>
0.0779341

>  <SCORE.SYSTEM>
0

>  <SCORE.SYSTEM.CONST>
0

>  <SCORE.SYSTEM.DIHEDRAL>
0

>  <SCORE.SYSTEM.SOLV>
0

>  <SCORE.SYSTEM.norm>
0

>  <SCORE.heavy>
13

>  <SCORE.norm>
-1.5851

>  <RMSD>
4.268

$$$$
lig.pdb
 OpenBabel11021811453D
libRbt.so/2013.1/901 2013/11/27
 13 14  0  0  0  0  0  0  0  0999 V2000
   -7.8242    5.7430   -4.5319 N   0  0  0  0  0  0  0  0  0  0  0  0
   -6.5190    5.4504   -4.8097 C   0  0  0  0  0  0  0  0  0  0  0  0
   -6.1997    4.8336   -5.9333 N   0  0  0  0  0  0  0  0  0  0  0  0
   -7.1419    4.4637   -6.8536 C   0  0  0  0  0  0  0  0  0  0  0  0
   -8.5104    4.7372   -6.6135 C   0  0  0  0  0  0  0  0  0  0  0  0
   -8.8460    5.4049   -5.3973 C   0  0  0  0  0  0  0  0  0  0  0  0
  -10.0050    5.6686   -5.1285 O   0  0  0  0  0  0  0  0  0  0  0  0
   -9.2494    4.2122   -7.7678 C   0  0  0  0  0  0  0  0  0  0  0  0
  -10.7382    4.2323   -7.9933 C   0  0  0  0  0  0  0  0  0  0  0  0
  -11.0788    3.3390   -9.1085 N   0  0  0  0  0  0  0  0  0  0  0  0
   -8.3296    3.6982   -8.5936 C   0  0  0  0  0  0  0  0  0  0  0  0
   -7.0767    3.8361   -8.0583 N   0  0  0  0  0  0  0  0  0  0  0  0
   -5.5387    5.7990   -3.9168 N   0  0  0  0  0  0  0  0  0  0  0  0
  1  6  1  0  0  0  0
  2  1  1  0  0  0  0
  3  4  1  0  0  0  0
  3  2  2  0  0  0  0
  4  5  2  0  0  0  0
  5  8  1  0  0  0  0
  5  6  1  0  0  0  0
  6  7  2  0  0  0  0
  8  9  1  0  0  0  0
  9 10  1  0  0  0  0
 11  8  2  0  0  0  0
 12  4  1  0  0  0  0
 12 11  1  0  0  0  0
 13  2  1  0  0  0  0
M  END
>  <CHROM.1>
-166.96366312,-95.99427274,-8.25167837,4.72940204,-6.49776055,0.86439453
-0.07517676,1.07655680

>  <Name>
lig.pdb

>  <RI>
1.17462e+07

>  <Rbt.Current_Directory>
/home/itssahil/PROJECTS/Mol_Feturizer/New_Systems/rnas/2miy

>  <Rbt.Executable>
rbdock ($Id: //depot/dev/client3/rdock/2013.1/src/exe/rbdock.cxx#4 $)

>  <Rbt.Library>
libRbt.so (2013.1, Build901 2013/11/27)

>  <Rbt.Parameter_File>
/export/apps/rDock/src/rDock_2013.1_src/data/scripts/dock_solv.prm

>  <Rbt.Receptor>
prm/blind_docking_40.prm

>  <SCORE>
-20.432

>  <SCORE.INTER>
-23.2806

>  <SCORE.INTER.CONST>
1

>  <SCORE.INTER.POLAR>
-2.48102

>  <SCORE.INTER.ROT>
2

>  <SCORE.INTER.SOLV>
16.288

>  <SCORE.INTER.VDW>
-17.613

>  <SCORE.INTER.norm>
-1.79081

>  <SCORE.INTRA>
1.85854

>  <SCORE.INTRA.DIHEDRAL>
-0.0577271

>  <SCORE.INTRA.DIHEDRAL.0>
1.76676

>  <SCORE.INTRA.POLAR>
0.472211

>  <SCORE.INTRA.POLAR.0>
-0.472211

>  <SCORE.INTRA.REPUL>
0

>  <SCORE.INTRA.REPUL.0>
0

>  <SCORE.INTRA.SOLV>
-0.580013

>  <SCORE.INTRA.SOLV.lig_0>
-22.5855

>  <SCORE.INTRA.VDW>
0.571893

>  <SCORE.INTRA.VDW.0>
-0.733656

>  <SCORE.INTRA.norm>
0.142965

>  <SCORE.RESTR>
0.990012

>  <SCORE.RESTR.CAVITY>
0.990012

>  <SCORE.RESTR.norm>
0.0761548

>  <SCORE.SYSTEM>
0

>  <SCORE.SYSTEM.CONST>
0

>  <SCORE.SYSTEM.DIHEDRAL>
0

>  <SCORE.SYSTEM.SOLV>
0

>  <SCORE.SYSTEM.norm>
0

>  <SCORE.heavy>
13

>  <SCORE.norm>
-1.57169

>  <RMSD>
4.274

$$$$
lig.pdb
 OpenBabel11021811453D
libRbt.so/2013.1/901 2013/11/27
 13 14  0  0  0  0  0  0  0  0999 V2000
   -6.4177    4.9106   -6.3709 N   0  0  0  0  0  0  0  0  0  0  0  0
   -6.5953    3.7117   -7.0012 C   0  0  0  0  0  0  0  0  0  0  0  0
   -7.1481    2.6978   -6.3599 N   0  0  0  0  0  0  0  0  0  0  0  0
   -7.5593    2.7969   -5.0589 C   0  0  0  0  0  0  0  0  0  0  0  0
   -7.3937    4.0148   -4.3558 C   0  0  0  0  0  0  0  0  0  0  0  0
   -6.7964    5.1053   -5.0571 C   0  0  0  0  0  0  0  0  0  0  0  0
   -6.6235    6.1804   -4.5100 O   0  0  0  0  0  0  0  0  0  0  0  0
   -7.9180    3.7903   -3.0035 C   0  0  0  0  0  0  0  0  0  0  0  0
   -7.9570    4.7673   -1.8581 C   0  0  0  0  0  0  0  0  0  0  0  0
   -8.3020    6.1031   -2.3625 N   0  0  0  0  0  0  0  0  0  0  0  0
   -8.3578    2.5261   -2.9820 C   0  0  0  0  0  0  0  0  0  0  0  0
   -8.1440    1.9254   -4.1940 N   0  0  0  0  0  0  0  0  0  0  0  0
   -6.1969    3.5628   -8.3047 N   0  0  0  0  0  0  0  0  0  0  0  0
  1  6  1  0  0  0  0
  2  1  1  0  0  0  0
  3  4  1  0  0  0  0
  3  2  2  0  0  0  0
  4  5  2  0  0  0  0
  5  8  1  0  0  0  0
  5  6  1  0  0  0  0
  6  7  2  0  0  0  0
  8  9  1  0  0  0  0
  9 10  1  0  0  0  0
 11  8  2  0  0  0  0
 12  4  1  0  0  0  0
 12 11  1  0  0  0  0
 13  2  1  0  0  0  0
M  END
>  <CHROM.1>
39.44825458,-62.75079620,-7.32664121,4.06187206,-4.75288813,-0.75437387,1.13560209
0.58314695

>  <Name>
lig.pdb

>  <RI>
3.47783e+07

>  <Rbt.Current_Directory>
/home/itssahil/PROJECTS/Mol_Feturizer/New_Systems/rnas/2miy

>  <Rbt.Executable>
rbdock ($Id: //depot/dev/client3/rdock/2013.1/src/exe/rbdock.cxx#4 $)

>  <Rbt.Library>
libRbt.so (2013.1, Build901 2013/11/27)

>  <Rbt.Parameter_File>
/export/apps/rDock/src/rDock_2013.1_src/data/scripts/dock_solv.prm

>  <Rbt.Receptor>
prm/pocket_docking_8.prm

>  <SCORE>
-17.9536

>  <SCORE.INTER>
-17.2495

>  <SCORE.INTER.CONST>
1

>  <SCORE.INTER.POLAR>
-2.65367

>  <SCORE.INTER.ROT>
2

>  <SCORE.INTER.SOLV>
11.2843

>  <SCORE.INTER.VDW>
-11.3488

>  <SCORE.INTER.norm>
-1.32688

>  <SCORE.INTRA>
-0.704149

>  <SCORE.INTRA.DIHEDRAL>
0.263798

>  <SCORE.INTRA.DIHEDRAL.0>
1.76676

>  <SCORE.INTRA.POLAR>
-0.280861

>  <SCORE.INTRA.POLAR.0>
-0.472211

>  <SCORE.INTRA.REPUL>
0

>  <SCORE.INTRA.REPUL.0>
0

>  <SCORE.INTRA.SOLV>
0.0525187

>  <SCORE.INTRA.SOLV.lig_0>
-22.5855

>  <SCORE.INTRA.VDW>
0.0926198

>  <SCORE.INTRA.VDW.0>
-0.733656

>  <SCORE.INTRA.norm>
-0.0541653

>  <SCORE.RESTR>
0

>  <SCORE.RESTR.CAVITY>
0

>  <SCORE.RESTR.norm>
0

>  <SCORE.SYSTEM>
0

>  <SCORE.SYSTEM.CONST>
0

>  <SCORE.SYSTEM.DIHEDRAL>
0

>  <SCORE.SYSTEM.SOLV>
0

>  <SCORE.SYSTEM.norm>
0

>  <SCORE.heavy>
13

>  <SCORE.norm>
-1.38105

>  <RMSD>
4.366

$$$$
lig.pdb
 OpenBabel11021811453D
libRbt.so/2013.1/901 2013/11/27
 13 14  0  0  0  0  0  0  0  0999 V2000
   -6.5860    5.5946   -5.8277 N   0  0  0  0  0  0  0  0  0  0  0  0
   -6.8291    4.5535   -6.6783 C   0  0  0  0  0  0  0  0  0  0  0  0
   -7.8700    3.7639   -6.4836 N   0  0  0  0  0  0  0  0  0  0  0  0
   -8.7364    3.9458   -5.4406 C   0  0  0  0  0  0  0  0  0  0  0  0
   -8.5284    5.0059   -4.5251 C   0  0  0  0  0  0  0  0  0  0  0  0
   -7.4016    5.8546   -4.7439 C   0  0  0  0  0  0  0  0  0  0  0  0
   -7.1643    6.7842   -3.9925 O   0  0  0  0  0  0  0  0  0  0  0  0
   -9.6086    4.9202   -3.5353 C   0  0  0  0  0  0  0  0  0  0  0  0
   -9.8315    5.8061   -2.3382 C   0  0  0  0  0  0  0  0  0  0  0  0
  -11.0949    6.5386   -2.4968 N   0  0  0  0  0  0  0  0  0  0  0  0
  -10.3677    3.8813   -3.9048 C   0  0  0  0  0  0  0  0  0  0  0  0
   -9.8560    3.2919   -5.0300 N   0  0  0  0  0  0  0  0  0  0  0  0
   -5.9874    4.3294   -7.7371 N   0  0  0  0  0  0  0  0  0  0  0  0
  1  6  1  0  0  0  0
  2  1  1  0  0  0  0
  3  4  1  0  0  0  0
  3  2  2  0  0  0  0
  4  5  2  0  0  0  0
  5  8  1  0  0  0  0
  5  6  1  0  0  0  0
  6  7  2  0  0  0  0
  8  9  1  0  0  0  0
  9 10  1  0  0  0  0
 11  8  2  0  0  0  0
 12  4  1  0  0  0  0
 12 11  1  0  0  0  0
 13  2  1  0  0  0  0
M  END
>  <CHROM.1>
115.95336487,-101.48544091,-8.43788171,4.98134242,-4.83386934,-0.64903606
0.55066233,0.71056998

>  <Name>
lig.pdb

>  <RI>
3.47783e+07

>  <Rbt.Current_Directory>
/home/itssahil/PROJECTS/Mol_Feturizer/New_Systems/rnas/2miy

>  <Rbt.Executable>
rbdock ($Id: //depot/dev/client3/rdock/2013.1/src/exe/rbdock.cxx#4 $)

>  <Rbt.Library>
libRbt.so (2013.1, Build901 2013/11/27)

>  <Rbt.Parameter_File>
/export/apps/rDock/src/rDock_2013.1_src/data/scripts/dock_solv.prm

>  <Rbt.Receptor>
prm/pocket_docking_8.prm

>  <SCORE>
-22.5188

>  <SCORE.INTER>
-24.9849

>  <SCORE.INTER.CONST>
1

>  <SCORE.INTER.POLAR>
-3.43302

>  <SCORE.INTER.ROT>
2

>  <SCORE.INTER.SOLV>
12.4425

>  <SCORE.INTER.VDW>
-14.294

>  <SCORE.INTER.norm>
-1.92192

>  <SCORE.INTRA>
2.46609

>  <SCORE.INTRA.DIHEDRAL>
1.87182

>  <SCORE.INTRA.DIHEDRAL.0>
1.76676

>  <SCORE.INTRA.POLAR>
0.472211

>  <SCORE.INTRA.POLAR.0>
-0.472211

>  <SCORE.INTRA.REPUL>
0

>  <SCORE.INTRA.REPUL.0>
0

>  <SCORE.INTRA.SOLV>
-0.618925

>  <SCORE.INTRA.SOLV.lig_0>
-22.5855

>  <SCORE.INTRA.VDW>
0.234131

>  <SCORE.INTRA.VDW.0>
-0.733656

>  <SCORE.INTRA.norm>
0.1897

>  <SCORE.RESTR>
0

>  <SCORE.RESTR.CAVITY>
0

>  <SCORE.RESTR.norm>
0

>  <SCORE.SYSTEM>
0

>  <SCORE.SYSTEM.CONST>
0

>  <SCORE.SYSTEM.DIHEDRAL>
0

>  <SCORE.SYSTEM.SOLV>
0

>  <SCORE.SYSTEM.norm>
0

>  <SCORE.heavy>
13

>  <SCORE.norm>
-1.73222

>  <RMSD>
4.407

$$$$
lig.pdb
 OpenBabel11021811453D
libRbt.so/2013.1/901 2013/11/27
 13 14  0  0  0  0  0  0  0  0999 V2000
   -7.2001    5.2447   -5.9439 N   0  0  0  0  0  0  0  0  0  0  0  0
   -6.7008    4.1271   -6.5506 C   0  0  0  0  0  0  0  0  0  0  0  0
   -7.0954    2.9272   -6.1640 N   0  0  0  0  0  0  0  0  0  0  0  0
   -8.0033    2.7494   -5.1562 C   0  0  0  0  0  0  0  0  0  0  0  0
   -8.5484    3.8732   -4.4890 C   0  0  0  0  0  0  0  0  0  0  0  0
   -8.1170    5.1658   -4.9142 C   0  0  0  0  0  0  0  0  0  0  0  0
   -8.5458    6.1742   -4.3810 O   0  0  0  0  0  0  0  0  0  0  0  0
   -9.4664    3.3490   -3.4709 C   0  0  0  0  0  0  0  0  0  0  0  0
  -10.2845    4.1329   -2.4790 C   0  0  0  0  0  0  0  0  0  0  0  0
  -11.1632    3.2202   -1.7357 N   0  0  0  0  0  0  0  0  0  0  0  0
   -9.4318    2.0162   -3.5922 C   0  0  0  0  0  0  0  0  0  0  0  0
   -8.5622    1.6493   -4.5845 N   0  0  0  0  0  0  0  0  0  0  0  0
   -5.7864    4.2543   -7.5643 N   0  0  0  0  0  0  0  0  0  0  0  0
  1  6  1  0  0  0  0
  2  1  1  0  0  0  0
  3  4  1  0  0  0  0
  3  2  2  0  0  0  0
  4  5  2  0  0  0  0
  5  8  1  0  0  0  0
  5  6  1  0  0  0  0
  6  7  2  0  0  0  0
  8  9  1  0  0  0  0
  9 10  1  0  0  0  0
 11  8  2  0  0  0  0
 12  4  1  0  0  0  0
 12 11  1  0  0  0  0
 13  2  1  0  0  0  0
M  END
>  <CHROM.1>
174.46431530,106.90160232,-8.37889571,3.78417741,-4.69400245,0.15346097,0.83661852
0.05148066

>  <Name>
lig.pdb

>  <RI>
4.2128e+07

>  <Rbt.Current_Directory>
/home/itssahil/PROJECTS/Mol_Feturizer/New_Systems/rnas/2miy

>  <Rbt.Executable>
rbdock ($Id: //depot/dev/client3/rdock/2013.1/src/exe/rbdock.cxx#4 $)

>  <Rbt.Library>
libRbt.so (2013.1, Build901 2013/11/27)

>  <Rbt.Parameter_File>
/export/apps/rDock/src/rDock_2013.1_src/data/scripts/dock_solv.prm

>  <Rbt.Receptor>
prm/pocket_docking_5.prm

>  <SCORE>
-19.3824

>  <SCORE.INTER>
-21.1523

>  <SCORE.INTER.CONST>
1

>  <SCORE.INTER.POLAR>
-3.13575

>  <SCORE.INTER.ROT>
2

>  <SCORE.INTER.SOLV>
10.2057

>  <SCORE.INTER.VDW>
-11.9843

>  <SCORE.INTER.norm>
-1.6271

>  <SCORE.INTRA>
1.76992

>  <SCORE.INTRA.DIHEDRAL>
-0.29644

>  <SCORE.INTRA.DIHEDRAL.0>
1.76676

>  <SCORE.INTRA.POLAR>
0.472211

>  <SCORE.INTRA.POLAR.0>
-0.472211

>  <SCORE.INTRA.REPUL>
0

>  <SCORE.INTRA.REPUL.0>
0

>  <SCORE.INTRA.SOLV>
-0.57687

>  <SCORE.INTRA.SOLV.lig_0>
-22.5855

>  <SCORE.INTRA.VDW>
0.60106

>  <SCORE.INTRA.VDW.0>
-0.733656

>  <SCORE.INTRA.norm>
0.136148

>  <SCORE.RESTR>
0

>  <SCORE.RESTR.CAVITY>
0

>  <SCORE.RESTR.norm>
0

>  <SCORE.SYSTEM>
0

>  <SCORE.SYSTEM.CONST>
0

>  <SCORE.SYSTEM.DIHEDRAL>
0

>  <SCORE.SYSTEM.SOLV>
0

>  <SCORE.SYSTEM.norm>
0

>  <SCORE.heavy>
13

>  <SCORE.norm>
-1.49095

>  <RMSD>
4.523

$$$$
lig.pdb
 OpenBabel11021811453D
libRbt.so/2013.1/901 2013/11/27
 13 14  0  0  0  0  0  0  0  0999 V2000
   -7.7185    3.4544   -8.5061 N   0  0  0  0  0  0  0  0  0  0  0  0
   -6.9646    3.4271   -7.3672 C   0  0  0  0  0  0  0  0  0  0  0  0
   -7.5443    3.5067   -6.1829 N   0  0  0  0  0  0  0  0  0  0  0  0
   -8.9004    3.6201   -6.0427 C   0  0  0  0  0  0  0  0  0  0  0  0
   -9.7291    3.6593   -7.1903 C   0  0  0  0  0  0  0  0  0  0  0  0
   -9.0940    3.5716   -8.4657 C   0  0  0  0  0  0  0  0  0  0  0  0
   -9.7488    3.6010   -9.4931 O   0  0  0  0  0  0  0  0  0  0  0  0
  -11.1076    3.7941   -6.7049 C   0  0  0  0  0  0  0  0  0  0  0  0
  -12.3656    3.9002   -7.5258 C   0  0  0  0  0  0  0  0  0  0  0  0
  -12.2514    3.0439   -8.7138 N   0  0  0  0  0  0  0  0  0  0  0  0
  -11.0296    3.8103   -5.3685 C   0  0  0  0  0  0  0  0  0  0  0  0
   -9.7244    3.7143   -4.9650 N   0  0  0  0  0  0  0  0  0  0  0  0
   -5.6008    3.3169   -7.4566 N   0  0  0  0  0  0  0  0  0  0  0  0
  1  6  1  0  0  0  0
  2  1  1  0  0  0  0
  3  4  1  0  0  0  0
  3  2  2  0  0  0  0
  4  5  2  0  0  0  0
  5  8  1  0  0  0  0
  5  6  1  0  0  0  0
  6  7  2  0  0  0  0
  8  9  1  0  0  0  0
  9 10  1  0  0  0  0
 11  8  2  0  0  0  0
 12  4  1  0  0  0  0
 12 11  1  0  0  0  0
 13  2  1  0  0  0  0
M  END
>  <CHROM.1>
36.64550429,-153.16732315,-9.34748022,3.55456112,-7.28729438,-0.02454765
0.03425988,-1.65417738

>  <Name>
lig.pdb

>  <RI>
3.47783e+07

>  <Rbt.Current_Directory>
/home/itssahil/PROJECTS/Mol_Feturizer/New_Systems/rnas/2miy

>  <Rbt.Executable>
rbdock ($Id: //depot/dev/client3/rdock/2013.1/src/exe/rbdock.cxx#4 $)

>  <Rbt.Library>
libRbt.so (2013.1, Build901 2013/11/27)

>  <Rbt.Parameter_File>
/export/apps/rDock/src/rDock_2013.1_src/data/scripts/dock_solv.prm

>  <Rbt.Receptor>
prm/pocket_docking_8.prm

>  <SCORE>
0.685577

>  <SCORE.INTER>
-1.34754

>  <SCORE.INTER.CONST>
1

>  <SCORE.INTER.POLAR>
-3.63834

>  <SCORE.INTER.ROT>
2

>  <SCORE.INTER.SOLV>
16.9218

>  <SCORE.INTER.VDW>
0.655532

>  <SCORE.INTER.norm>
-0.103657

>  <SCORE.INTRA>
2.03312

>  <SCORE.INTRA.DIHEDRAL>
0.377944

>  <SCORE.INTRA.DIHEDRAL.0>
1.76676

>  <SCORE.INTRA.POLAR>
0.472211

>  <SCORE.INTRA.POLAR.0>
-0.472211

>  <SCORE.INTRA.REPUL>
0

>  <SCORE.INTRA.REPUL.0>
0

>  <SCORE.INTRA.SOLV>
0.0780496

>  <SCORE.INTRA.SOLV.lig_0>
-22.5855

>  <SCORE.INTRA.VDW>
0.199603

>  <SCORE.INTRA.VDW.0>
-0.733656

>  <SCORE.INTRA.norm>
0.156394

>  <SCORE.RESTR>
0

>  <SCORE.RESTR.CAVITY>
0

>  <SCORE.RESTR.norm>
0

>  <SCORE.SYSTEM>
0

>  <SCORE.SYSTEM.CONST>
0

>  <SCORE.SYSTEM.DIHEDRAL>
0

>  <SCORE.SYSTEM.SOLV>
0

>  <SCORE.SYSTEM.norm>
0

>  <SCORE.heavy>
13

>  <SCORE.norm>
0.0527367

>  <RMSD>
4.616

$$$$
lig.pdb
 OpenBabel11021811453D
libRbt.so/2013.1/901 2013/11/27
 13 14  0  0  0  0  0  0  0  0999 V2000
   -7.7444    3.4696   -8.5003 N   0  0  0  0  0  0  0  0  0  0  0  0
   -6.9904    3.4530   -7.3612 C   0  0  0  0  0  0  0  0  0  0  0  0
   -7.5708    3.5346   -6.1774 N   0  0  0  0  0  0  0  0  0  0  0  0
   -8.9276    3.6395   -6.0379 C   0  0  0  0  0  0  0  0  0  0  0  0
   -9.7565    3.6672   -7.1857 C   0  0  0  0  0  0  0  0  0  0  0  0
   -9.1207    3.5776   -8.4606 C   0  0  0  0  0  0  0  0  0  0  0  0
   -9.7755    3.5974   -9.4881 O   0  0  0  0  0  0  0  0  0  0  0  0
  -11.1359    3.7950   -6.7010 C   0  0  0  0  0  0  0  0  0  0  0  0
  -12.3945    3.8884   -7.5225 C   0  0  0  0  0  0  0  0  0  0  0  0
  -12.2645    3.0465   -8.7191 N   0  0  0  0  0  0  0  0  0  0  0  0
  -11.0581    3.8184   -5.3647 C   0  0  0  0  0  0  0  0  0  0  0  0
   -9.7524    3.7333   -4.9607 N   0  0  0  0  0  0  0  0  0  0  0  0
   -5.6259    3.3517   -7.4500 N   0  0  0  0  0  0  0  0  0  0  0  0
  1  6  1  0  0  0  0
  2  1  1  0  0  0  0
  3  4  1  0  0  0  0
  3  2  2  0  0  0  0
  4  5  2  0  0  0  0
  5  8  1  0  0  0  0
  5  6  1  0  0  0  0
  6  7  2  0  0  0  0
  8  9  1  0  0  0  0
  9 10  1  0  0  0  0
 11  8  2  0  0  0  0
 12  4  1  0  0  0  0
 12 11  1  0  0  0  0
 13  2  1  0  0  0  0
M  END
>  <CHROM.1>
35.59920513,-152.71554777,-9.37322649,3.56644707,-7.28331224,-0.02606934
0.02891897,-1.65784643

>  <Name>
lig.pdb

>  <RI>
1.51961e+07

>  <Rbt.Current_Directory>
/home/itssahil/PROJECTS/Mol_Feturizer/New_Systems/rnas/2miy

>  <Rbt.Executable>
rbdock ($Id: //depot/dev/client3/rdock/2013.1/src/exe/rbdock.cxx#4 $)

>  <Rbt.Library>
libRbt.so (2013.1, Build901 2013/11/27)

>  <Rbt.Parameter_File>
/export/apps/rDock/src/rDock_2013.1_src/data/scripts/dock_solv.prm

>  <Rbt.Receptor>
prm/pocket_docking_3.prm

>  <SCORE>
0.686155

>  <SCORE.INTER>
-1.39535

>  <SCORE.INTER.CONST>
1

>  <SCORE.INTER.POLAR>
-3.62394

>  <SCORE.INTER.ROT>
2

>  <SCORE.INTER.SOLV>
16.87

>  <SCORE.INTER.VDW>
0.592898

>  <SCORE.INTER.norm>
-0.107334

>  <SCORE.INTRA>
2.0815

>  <SCORE.INTRA.DIHEDRAL>
0.435213

>  <SCORE.INTRA.DIHEDRAL.0>
1.76676

>  <SCORE.INTRA.POLAR>
0.472211

>  <SCORE.INTRA.POLAR.0>
-0.472211

>  <SCORE.INTRA.REPUL>
0

>  <SCORE.INTRA.REPUL.0>
0

>  <SCORE.INTRA.SOLV>
0.0873956

>  <SCORE.INTRA.SOLV.lig_0>
-22.5855

>  <SCORE.INTRA.VDW>
0.214679

>  <SCORE.INTRA.VDW.0>
-0.733656

>  <SCORE.INTRA.norm>
0.160115

>  <SCORE.RESTR>
0

>  <SCORE.RESTR.CAVITY>
0

>  <SCORE.RESTR.norm>
0

>  <SCORE.SYSTEM>
0

>  <SCORE.SYSTEM.CONST>
0

>  <SCORE.SYSTEM.DIHEDRAL>
0

>  <SCORE.SYSTEM.SOLV>
0

>  <SCORE.SYSTEM.norm>
0

>  <SCORE.heavy>
13

>  <SCORE.norm>
0.0527812

>  <RMSD>
4.617

$$$$
lig.pdb
 OpenBabel11021811453D
libRbt.so/2013.1/901 2013/11/27
 13 14  0  0  0  0  0  0  0  0999 V2000
   -7.7293    3.4632   -8.4919 N   0  0  0  0  0  0  0  0  0  0  0  0
   -6.9776    3.4413   -7.3513 C   0  0  0  0  0  0  0  0  0  0  0  0
   -7.5599    3.5240   -6.1685 N   0  0  0  0  0  0  0  0  0  0  0  0
   -8.9165    3.6353   -6.0315 C   0  0  0  0  0  0  0  0  0  0  0  0
   -9.7429    3.6688   -7.1809 C   0  0  0  0  0  0  0  0  0  0  0  0
   -9.1051    3.5778   -8.4547 C   0  0  0  0  0  0  0  0  0  0  0  0
   -9.7577    3.6023   -9.4835 O   0  0  0  0  0  0  0  0  0  0  0  0
  -11.1227    3.8027   -6.6988 C   0  0  0  0  0  0  0  0  0  0  0  0
  -12.3792    3.9035   -7.5227 C   0  0  0  0  0  0  0  0  0  0  0  0
  -12.2583    3.0480   -8.7107 N   0  0  0  0  0  0  0  0  0  0  0  0
  -11.0475    3.8237   -5.3624 C   0  0  0  0  0  0  0  0  0  0  0  0
   -9.7430    3.7316   -4.9558 N   0  0  0  0  0  0  0  0  0  0  0  0
   -5.6134    3.3334   -7.4375 N   0  0  0  0  0  0  0  0  0  0  0  0
  1  6  1  0  0  0  0
  2  1  1  0  0  0  0
  3  4  1  0  0  0  0
  3  2  2  0  0  0  0
  4  5  2  0  0  0  0
  5  8  1  0  0  0  0
  5  6  1  0  0  0  0
  6  7  2  0  0  0  0
  8  9  1  0  0  0  0
  9 10  1  0  0  0  0
 11  8  2  0  0  0  0
 12  4  1  0  0  0  0
 12 11  1  0  0  0  0
 13  2  1  0  0  0  0
M  END
>  <CHROM.1>
36.38353761,26.79296052,-9.36055322,3.56501040,-7.27713167,-0.02696098,0.03298196
-1.65723853

>  <Name>
lig.pdb

>  <RI>
4.2128e+07

>  <Rbt.Current_Directory>
/home/itssahil/PROJECTS/Mol_Feturizer/New_Systems/rnas/2miy

>  <Rbt.Executable>
rbdock ($Id: //depot/dev/client3/rdock/2013.1/src/exe/rbdock.cxx#4 $)

>  <Rbt.Library>
libRbt.so (2013.1, Build901 2013/11/27)

>  <Rbt.Parameter_File>
/export/apps/rDock/src/rDock_2013.1_src/data/scripts/dock_solv.prm

>  <Rbt.Receptor>
prm/pocket_docking_5.prm

>  <SCORE>
0.64575

>  <SCORE.INTER>
-1.42486

>  <SCORE.INTER.CONST>
1

>  <SCORE.INTER.POLAR>
-3.6245

>  <SCORE.INTER.ROT>
2

>  <SCORE.INTER.SOLV>
16.8561

>  <SCORE.INTER.VDW>
0.579711

>  <SCORE.INTER.norm>
-0.109604

>  <SCORE.INTRA>
2.07061

>  <SCORE.INTRA.DIHEDRAL>
0.452301

>  <SCORE.INTRA.DIHEDRAL.0>
1.76676

>  <SCORE.INTRA.POLAR>
0.472211

>  <SCORE.INTRA.POLAR.0>
-0.472211

>  <SCORE.INTRA.REPUL>
0

>  <SCORE.INTRA.REPUL.0>
0

>  <SCORE.INTRA.SOLV>
0.0826265

>  <SCORE.INTRA.SOLV.lig_0>
-22.5855

>  <SCORE.INTRA.VDW>
0.197626

>  <SCORE.INTRA.VDW.0>
-0.733656

>  <SCORE.INTRA.norm>
0.159278

>  <SCORE.RESTR>
0

>  <SCORE.RESTR.CAVITY>
0

>  <SCORE.RESTR.norm>
0

>  <SCORE.SYSTEM>
0

>  <SCORE.SYSTEM.CONST>
0

>  <SCORE.SYSTEM.DIHEDRAL>
0

>  <SCORE.SYSTEM.SOLV>
0

>  <SCORE.SYSTEM.norm>
0

>  <SCORE.heavy>
13

>  <SCORE.norm>
0.0496731

>  <RMSD>
4.617

$$$$
lig.pdb
 OpenBabel11021811453D
libRbt.so/2013.1/901 2013/11/27
 13 14  0  0  0  0  0  0  0  0999 V2000
   -7.6205    3.9511   -8.4818 N   0  0  0  0  0  0  0  0  0  0  0  0
   -6.9726    4.2476   -7.3161 C   0  0  0  0  0  0  0  0  0  0  0  0
   -7.6455    4.3279   -6.1823 N   0  0  0  0  0  0  0  0  0  0  0  0
   -8.9970    4.1241   -6.1222 C   0  0  0  0  0  0  0  0  0  0  0  0
   -9.7193    3.8197   -7.3015 C   0  0  0  0  0  0  0  0  0  0  0  0
   -8.9838    3.7339   -8.5218 C   0  0  0  0  0  0  0  0  0  0  0  0
   -9.5447    3.4772   -9.5727 O   0  0  0  0  0  0  0  0  0  0  0  0
  -11.1244    3.6732   -6.9037 C   0  0  0  0  0  0  0  0  0  0  0  0
  -12.3040    3.3686   -7.7890 C   0  0  0  0  0  0  0  0  0  0  0  0
  -12.1896    4.1299   -9.0400 N   0  0  0  0  0  0  0  0  0  0  0  0
  -11.1572    3.8712   -5.5801 C   0  0  0  0  0  0  0  0  0  0  0  0
   -9.9017    4.1458   -5.1071 N   0  0  0  0  0  0  0  0  0  0  0  0
   -5.6185    4.4626   -7.3261 N   0  0  0  0  0  0  0  0  0  0  0  0
  1  6  1  0  0  0  0
  2  1  1  0  0  0  0
  3  4  1  0  0  0  0
  3  2  2  0  0  0  0
  4  5  2  0  0  0  0
  5  8  1  0  0  0  0
  5  6  1  0  0  0  0
  6  7  2  0  0  0  0
  8  9  1  0  0  0  0
  9 10  1  0  0  0  0
 11  8  2  0  0  0  0
 12  4  1  0  0  0  0
 12 11  1  0  0  0  0
 13  2  1  0  0  0  0
M  END
>  <CHROM.1>
-41.17186083,-77.92725018,-9.34453438,3.95883923,-7.38388009,-0.09617909
-0.09463535,-1.65858086

>  <Name>
lig.pdb

>  <RI>
2.68696e+07

>  <Rbt.Current_Directory>
/home/itssahil/PROJECTS/Mol_Feturizer/New_Systems/rnas/2miy

>  <Rbt.Executable>
rbdock ($Id: //depot/dev/client3/rdock/2013.1/src/exe/rbdock.cxx#4 $)

>  <Rbt.Library>
libRbt.so (2013.1, Build901 2013/11/27)

>  <Rbt.Parameter_File>
/export/apps/rDock/src/rDock_2013.1_src/data/scripts/dock_solv.prm

>  <Rbt.Receptor>
prm/pocket_docking_4.prm

>  <SCORE>
-14.9727

>  <SCORE.INTER>
-16.6589

>  <SCORE.INTER.CONST>
1

>  <SCORE.INTER.POLAR>
-3.27619

>  <SCORE.INTER.ROT>
2

>  <SCORE.INTER.SOLV>
16.4663

>  <SCORE.INTER.VDW>
-10.6074

>  <SCORE.INTER.norm>
-1.28145

>  <SCORE.INTRA>
1.68624

>  <SCORE.INTRA.DIHEDRAL>
0.181229

>  <SCORE.INTRA.DIHEDRAL.0>
1.76676

>  <SCORE.INTRA.POLAR>
0.452317

>  <SCORE.INTRA.POLAR.0>
-0.472211

>  <SCORE.INTRA.REPUL>
0

>  <SCORE.INTRA.REPUL.0>
0

>  <SCORE.INTRA.SOLV>
0.0258311

>  <SCORE.INTRA.SOLV.lig_0>
-22.5855

>  <SCORE.INTRA.VDW>
0.0448319

>  <SCORE.INTRA.VDW.0>
-0.733656

>  <SCORE.INTRA.norm>
0.129711

>  <SCORE.RESTR>
0

>  <SCORE.RESTR.CAVITY>
0

>  <SCORE.RESTR.norm>
0

>  <SCORE.SYSTEM>
0

>  <SCORE.SYSTEM.CONST>
0

>  <SCORE.SYSTEM.DIHEDRAL>
0

>  <SCORE.SYSTEM.SOLV>
0

>  <SCORE.SYSTEM.norm>
0

>  <SCORE.heavy>
13

>  <SCORE.norm>
-1.15174

>  <RMSD>
4.632

$$$$
lig.pdb
 OpenBabel11021811453D
libRbt.so/2013.1/901 2013/11/27
 13 14  0  0  0  0  0  0  0  0999 V2000
   -7.6213    3.9449   -8.4709 N   0  0  0  0  0  0  0  0  0  0  0  0
   -6.9726    4.2399   -7.3053 C   0  0  0  0  0  0  0  0  0  0  0  0
   -7.6450    4.3196   -6.1711 N   0  0  0  0  0  0  0  0  0  0  0  0
   -8.9965    4.1167   -6.1105 C   0  0  0  0  0  0  0  0  0  0  0  0
   -9.7197    3.8139   -7.2897 C   0  0  0  0  0  0  0  0  0  0  0  0
   -8.9847    3.7288   -8.5105 C   0  0  0  0  0  0  0  0  0  0  0  0
   -9.5463    3.4734   -9.5614 O   0  0  0  0  0  0  0  0  0  0  0  0
  -11.1247    3.6681   -6.8915 C   0  0  0  0  0  0  0  0  0  0  0  0
  -12.3049    3.3652   -7.7764 C   0  0  0  0  0  0  0  0  0  0  0  0
  -12.1959    4.1355   -9.0224 N   0  0  0  0  0  0  0  0  0  0  0  0
  -11.1567    3.8649   -5.5677 C   0  0  0  0  0  0  0  0  0  0  0  0
   -9.9008    4.1382   -5.0949 N   0  0  0  0  0  0  0  0  0  0  0  0
   -5.6184    4.4539   -7.3157 N   0  0  0  0  0  0  0  0  0  0  0  0
  1  6  1  0  0  0  0
  2  1  1  0  0  0  0
  3  4  1  0  0  0  0
  3  2  2  0  0  0  0
  4  5  2  0  0  0  0
  5  8  1  0  0  0  0
  5  6  1  0  0  0  0
  6  7  2  0  0  0  0
  8  9  1  0  0  0  0
  9 10  1  0  0  0  0
 11  8  2  0  0  0  0
 12  4  1  0  0  0  0
 12 11  1  0  0  0  0
 13  2  1  0  0  0  0
M  END
>  <CHROM.1>
-41.60858909,-77.60478014,-9.34531775,3.95362172,-7.37178468,-0.09517272
-0.09339749,-1.65714402

>  <Name>
lig.pdb

>  <RI>
4.2128e+07

>  <Rbt.Current_Directory>
/home/itssahil/PROJECTS/Mol_Feturizer/New_Systems/rnas/2miy

>  <Rbt.Executable>
rbdock ($Id: //depot/dev/client3/rdock/2013.1/src/exe/rbdock.cxx#4 $)

>  <Rbt.Library>
libRbt.so (2013.1, Build901 2013/11/27)

>  <Rbt.Parameter_File>
/export/apps/rDock/src/rDock_2013.1_src/data/scripts/dock_solv.prm

>  <Rbt.Receptor>
prm/pocket_docking_5.prm

>  <SCORE>
-14.9464

>  <SCORE.INTER>
-16.6248

>  <SCORE.INTER.CONST>
1

>  <SCORE.INTER.POLAR>
-3.28109

>  <SCORE.INTER.ROT>
2

>  <SCORE.INTER.SOLV>
16.4266

>  <SCORE.INTER.VDW>
-10.5551

>  <SCORE.INTER.norm>
-1.27883

>  <SCORE.INTRA>
1.67685

>  <SCORE.INTRA.DIHEDRAL>
0.160237

>  <SCORE.INTRA.DIHEDRAL.0>
1.76676

>  <SCORE.INTRA.POLAR>
0.454727

>  <SCORE.INTRA.POLAR.0>
-0.472211

>  <SCORE.INTRA.REPUL>
0

>  <SCORE.INTRA.REPUL.0>
0

>  <SCORE.INTRA.SOLV>
0.0216127

>  <SCORE.INTRA.SOLV.lig_0>
-22.5855

>  <SCORE.INTRA.VDW>
0.0398544

>  <SCORE.INTRA.VDW.0>
-0.733656

>  <SCORE.INTRA.norm>
0.128989

>  <SCORE.RESTR>
0.00163374

>  <SCORE.RESTR.CAVITY>
0.00163374

>  <SCORE.RESTR.norm>
0.000125672

>  <SCORE.SYSTEM>
0

>  <SCORE.SYSTEM.CONST>
0

>  <SCORE.SYSTEM.DIHEDRAL>
0

>  <SCORE.SYSTEM.SOLV>
0

>  <SCORE.SYSTEM.norm>
0

>  <SCORE.heavy>
13

>  <SCORE.norm>
-1.14972

>  <RMSD>
4.632

$$$$
lig.pdb
 OpenBabel11021811453D
libRbt.so/2013.1/901 2013/11/27
 13 14  0  0  0  0  0  0  0  0999 V2000
   -7.6207    3.9486   -8.4765 N   0  0  0  0  0  0  0  0  0  0  0  0
   -6.9731    4.2449   -7.3106 C   0  0  0  0  0  0  0  0  0  0  0  0
   -7.6464    4.3255   -6.1770 N   0  0  0  0  0  0  0  0  0  0  0  0
   -8.9979    4.1220   -6.1173 C   0  0  0  0  0  0  0  0  0  0  0  0
   -9.7200    3.8178   -7.2968 C   0  0  0  0  0  0  0  0  0  0  0  0
   -8.9840    3.7318   -8.5170 C   0  0  0  0  0  0  0  0  0  0  0  0
   -9.5446    3.4752   -9.5681 O   0  0  0  0  0  0  0  0  0  0  0  0
  -11.1252    3.6717   -6.8996 C   0  0  0  0  0  0  0  0  0  0  0  0
  -12.3046    3.3675   -7.7852 C   0  0  0  0  0  0  0  0  0  0  0  0
  -12.1927    4.1334   -9.0336 N   0  0  0  0  0  0  0  0  0  0  0  0
  -11.1583    3.8698   -5.5760 C   0  0  0  0  0  0  0  0  0  0  0  0
   -9.9029    4.1441   -5.1025 N   0  0  0  0  0  0  0  0  0  0  0  0
   -5.6189    4.4596   -7.3202 N   0  0  0  0  0  0  0  0  0  0  0  0
  1  6  1  0  0  0  0
  2  1  1  0  0  0  0
  3  4  1  0  0  0  0
  3  2  2  0  0  0  0
  4  5  2  0  0  0  0
  5  8  1  0  0  0  0
  5  6  1  0  0  0  0
  6  7  2  0  0  0  0
  8  9  1  0  0  0  0
  9 10  1  0  0  0  0
 11  8  2  0  0  0  0
 12  4  1  0  0  0  0
 12 11  1  0  0  0  0
 13  2  1  0  0  0  0
M  END
>  <CHROM.1>
-41.42931429,103.14716238,-9.34522647,3.95731606,-7.37887453,-0.09607436
-0.09403343,-1.65838127

>  <Name>
lig.pdb

>  <RI>
4.2128e+07

>  <Rbt.Current_Directory>
/home/itssahil/PROJECTS/Mol_Feturizer/New_Systems/rnas/2miy

>  <Rbt.Executable>
rbdock ($Id: //depot/dev/client3/rdock/2013.1/src/exe/rbdock.cxx#4 $)

>  <Rbt.Library>
libRbt.so (2013.1, Build901 2013/11/27)

>  <Rbt.Parameter_File>
/export/apps/rDock/src/rDock_2013.1_src/data/scripts/dock_solv.prm

>  <Rbt.Receptor>
prm/pocket_docking_5.prm

>  <SCORE>
-14.9349

>  <SCORE.INTER>
-16.5911

>  <SCORE.INTER.CONST>
1

>  <SCORE.INTER.POLAR>
-3.27613

>  <SCORE.INTER.ROT>
2

>  <SCORE.INTER.SOLV>
16.4484

>  <SCORE.INTER.VDW>
-10.5564

>  <SCORE.INTER.norm>
-1.27624

>  <SCORE.INTRA>
1.65304

>  <SCORE.INTRA.DIHEDRAL>
0.122035

>  <SCORE.INTRA.DIHEDRAL.0>
1.76676

>  <SCORE.INTRA.POLAR>
0.452921

>  <SCORE.INTRA.POLAR.0>
-0.472211

>  <SCORE.INTRA.REPUL>
0

>  <SCORE.INTRA.REPUL.0>
0

>  <SCORE.INTRA.SOLV>
0.0255159

>  <SCORE.INTRA.SOLV.lig_0>
-22.5855

>  <SCORE.INTRA.VDW>
0.0393355

>  <SCORE.INTRA.VDW.0>
-0.733656

>  <SCORE.INTRA.norm>
0.127157

>  <SCORE.RESTR>
0.00315506

>  <SCORE.RESTR.CAVITY>
0.00315506

>  <SCORE.RESTR.norm>
0.000242697

>  <SCORE.SYSTEM>
0

>  <SCORE.SYSTEM.CONST>
0

>  <SCORE.SYSTEM.DIHEDRAL>
0

>  <SCORE.SYSTEM.SOLV>
0

>  <SCORE.SYSTEM.norm>
0

>  <SCORE.heavy>
13

>  <SCORE.norm>
-1.14884

>  <RMSD>
4.632

$$$$
lig.pdb
 OpenBabel11021811453D
libRbt.so/2013.1/901 2013/11/27
 13 14  0  0  0  0  0  0  0  0999 V2000
   -7.6757    3.8203   -8.6441 N   0  0  0  0  0  0  0  0  0  0  0  0
   -6.9992    4.0632   -7.4823 C   0  0  0  0  0  0  0  0  0  0  0  0
   -7.6513    4.1420   -6.3362 N   0  0  0  0  0  0  0  0  0  0  0  0
   -9.0085    3.9891   -6.2592 C   0  0  0  0  0  0  0  0  0  0  0  0
   -9.7600    3.7414   -7.4336 C   0  0  0  0  0  0  0  0  0  0  0  0
   -9.0469    3.6569   -8.6673 C   0  0  0  0  0  0  0  0  0  0  0  0
   -9.6332    3.4475   -9.7148 O   0  0  0  0  0  0  0  0  0  0  0  0
  -11.1636    3.6396   -7.0169 C   0  0  0  0  0  0  0  0  0  0  0  0
  -12.3674    3.4024   -7.8900 C   0  0  0  0  0  0  0  0  0  0  0  0
  -12.2026    4.1206   -9.1607 N   0  0  0  0  0  0  0  0  0  0  0  0
  -11.1685    3.8067   -5.6887 C   0  0  0  0  0  0  0  0  0  0  0  0
   -9.8963    4.0211   -5.2295 N   0  0  0  0  0  0  0  0  0  0  0  0
   -5.6381    4.2260   -7.5089 N   0  0  0  0  0  0  0  0  0  0  0  0
  1  6  1  0  0  0  0
  2  1  1  0  0  0  0
  3  4  1  0  0  0  0
  3  2  2  0  0  0  0
  4  5  2  0  0  0  0
  5  8  1  0  0  0  0
  5  6  1  0  0  0  0
  6  7  2  0  0  0  0
  8  9  1  0  0  0  0
  9 10  1  0  0  0  0
 11  8  2  0  0  0  0
 12  4  1  0  0  0  0
 12 11  1  0  0  0  0
 13  2  1  0  0  0  0
M  END
>  <CHROM.1>
-37.57672774,-83.49554457,-9.37764981,3.86158231,-7.52211069,-0.08110256
-0.06172828,-1.63716831

>  <Name>
lig.pdb

>  <RI>
0

>  <Rbt.Current_Directory>
/home/itssahil/PROJECTS/Mol_Feturizer/New_Systems/rnas/2miy

>  <Rbt.Executable>
rbdock ($Id: //depot/dev/client3/rdock/2013.1/src/exe/rbdock.cxx#4 $)

>  <Rbt.Library>
libRbt.so (2013.1, Build901 2013/11/27)

>  <Rbt.Parameter_File>
/export/apps/rDock/src/rDock_2013.1_src/data/scripts/dock_solv.prm

>  <Rbt.Receptor>
prm/blind_docking_60.prm

>  <SCORE>
-12.2477

>  <SCORE.INTER>
-14.9002

>  <SCORE.INTER.CONST>
1

>  <SCORE.INTER.POLAR>
-3.09044

>  <SCORE.INTER.ROT>
2

>  <SCORE.INTER.SOLV>
16.9317

>  <SCORE.INTER.VDW>
-10.2092

>  <SCORE.INTER.norm>
-1.14617

>  <SCORE.INTRA>
1.60847

>  <SCORE.INTRA.DIHEDRAL>
0.366957

>  <SCORE.INTRA.DIHEDRAL.0>
1.76676

>  <SCORE.INTRA.POLAR>
0.382023

>  <SCORE.INTRA.POLAR.0>
-0.472211

>  <SCORE.INTRA.REPUL>
0

>  <SCORE.INTRA.REPUL.0>
0

>  <SCORE.INTRA.SOLV>
0.0595162

>  <SCORE.INTRA.SOLV.lig_0>
-22.5855

>  <SCORE.INTRA.VDW>
0.0963502

>  <SCORE.INTRA.VDW.0>
-0.733656

>  <SCORE.INTRA.norm>
0.123728

>  <SCORE.RESTR>
1.04405

>  <SCORE.RESTR.CAVITY>
1.04405

>  <SCORE.RESTR.norm>
0.0803113

>  <SCORE.SYSTEM>
0

>  <SCORE.SYSTEM.CONST>
0

>  <SCORE.SYSTEM.DIHEDRAL>
0

>  <SCORE.SYSTEM.SOLV>
0

>  <SCORE.SYSTEM.norm>
0

>  <SCORE.heavy>
13

>  <SCORE.norm>
-0.942132

>  <RMSD>
4.633

$$$$
lig.pdb
 OpenBabel11021811453D
libRbt.so/2013.1/901 2013/11/27
 13 14  0  0  0  0  0  0  0  0999 V2000
   -7.6168    3.9469   -8.4769 N   0  0  0  0  0  0  0  0  0  0  0  0
   -6.9705    4.2452   -7.3109 C   0  0  0  0  0  0  0  0  0  0  0  0
   -7.6450    4.3275   -6.1781 N   0  0  0  0  0  0  0  0  0  0  0  0
   -8.9965    4.1238   -6.1195 C   0  0  0  0  0  0  0  0  0  0  0  0
   -9.7173    3.8175   -7.2993 C   0  0  0  0  0  0  0  0  0  0  0  0
   -8.9800    3.7297   -8.5185 C   0  0  0  0  0  0  0  0  0  0  0  0
   -9.5395    3.4713   -9.5698 O   0  0  0  0  0  0  0  0  0  0  0  0
  -11.1230    3.6717   -6.9033 C   0  0  0  0  0  0  0  0  0  0  0  0
  -12.3013    3.3658   -7.7897 C   0  0  0  0  0  0  0  0  0  0  0  0
  -12.1901    4.1323   -9.0378 N   0  0  0  0  0  0  0  0  0  0  0  0
  -11.1575    3.8719   -5.5801 C   0  0  0  0  0  0  0  0  0  0  0  0
   -9.9027    4.1473   -5.1057 N   0  0  0  0  0  0  0  0  0  0  0  0
   -5.6164    4.4602   -7.3193 N   0  0  0  0  0  0  0  0  0  0  0  0
  1  6  1  0  0  0  0
  2  1  1  0  0  0  0
  3  4  1  0  0  0  0
  3  2  2  0  0  0  0
  4  5  2  0  0  0  0
  5  8  1  0  0  0  0
  5  6  1  0  0  0  0
  6  7  2  0  0  0  0
  8  9  1  0  0  0  0
  9 10  1  0  0  0  0
 11  8  2  0  0  0  0
 12  4  1  0  0  0  0
 12 11  1  0  0  0  0
 13  2  1  0  0  0  0
M  END
>  <CHROM.1>
-41.57147548,-77.45992903,-9.34284158,3.95718035,-7.38107513,-0.09713867
-0.09395348,-1.65994588

>  <Name>
lig.pdb

>  <RI>
4.2128e+07

>  <Rbt.Current_Directory>
/home/itssahil/PROJECTS/Mol_Feturizer/New_Systems/rnas/2miy

>  <Rbt.Executable>
rbdock ($Id: //depot/dev/client3/rdock/2013.1/src/exe/rbdock.cxx#4 $)

>  <Rbt.Library>
libRbt.so (2013.1, Build901 2013/11/27)

>  <Rbt.Parameter_File>
/export/apps/rDock/src/rDock_2013.1_src/data/scripts/dock_solv.prm

>  <Rbt.Receptor>
prm/pocket_docking_5.prm

>  <SCORE>
-14.9692

>  <SCORE.INTER>
-16.6517

>  <SCORE.INTER.CONST>
1

>  <SCORE.INTER.POLAR>
-3.26617

>  <SCORE.INTER.ROT>
2

>  <SCORE.INTER.SOLV>
16.4574

>  <SCORE.INTER.VDW>
-10.633

>  <SCORE.INTER.norm>
-1.2809

>  <SCORE.INTRA>
1.68253

>  <SCORE.INTRA.DIHEDRAL>
0.161837

>  <SCORE.INTRA.DIHEDRAL.0>
1.76676

>  <SCORE.INTRA.POLAR>
0.455949

>  <SCORE.INTRA.POLAR.0>
-0.472211

>  <SCORE.INTRA.REPUL>
0

>  <SCORE.INTRA.REPUL.0>
0

>  <SCORE.INTRA.SOLV>
0.0219639

>  <SCORE.INTRA.SOLV.lig_0>
-22.5855

>  <SCORE.INTRA.VDW>
0.0404053

>  <SCORE.INTRA.VDW.0>
-0.733656

>  <SCORE.INTRA.norm>
0.129425

>  <SCORE.RESTR>
0

>  <SCORE.RESTR.CAVITY>
0

>  <SCORE.RESTR.norm>
0

>  <SCORE.SYSTEM>
0

>  <SCORE.SYSTEM.CONST>
0

>  <SCORE.SYSTEM.DIHEDRAL>
0

>  <SCORE.SYSTEM.SOLV>
0

>  <SCORE.SYSTEM.norm>
0

>  <SCORE.heavy>
13

>  <SCORE.norm>
-1.15147

>  <RMSD>
4.633

$$$$
lig.pdb
 OpenBabel11021811453D
libRbt.so/2013.1/901 2013/11/27
 13 14  0  0  0  0  0  0  0  0999 V2000
   -7.6204    3.9449   -8.4792 N   0  0  0  0  0  0  0  0  0  0  0  0
   -6.9752    4.2415   -7.3121 C   0  0  0  0  0  0  0  0  0  0  0  0
   -7.6508    4.3224   -6.1799 N   0  0  0  0  0  0  0  0  0  0  0  0
   -9.0024    4.1193   -6.1230 C   0  0  0  0  0  0  0  0  0  0  0  0
   -9.7221    3.8148   -7.3038 C   0  0  0  0  0  0  0  0  0  0  0  0
   -8.9837    3.7283   -8.5224 C   0  0  0  0  0  0  0  0  0  0  0  0
   -9.5422    3.4715   -9.5746 O   0  0  0  0  0  0  0  0  0  0  0  0
  -11.1282    3.6691   -6.9094 C   0  0  0  0  0  0  0  0  0  0  0  0
  -12.3058    3.3648   -7.7974 C   0  0  0  0  0  0  0  0  0  0  0  0
  -12.1883    4.1258   -9.0482 N   0  0  0  0  0  0  0  0  0  0  0  0
  -11.1640    3.8675   -5.5860 C   0  0  0  0  0  0  0  0  0  0  0  0
   -9.9096    4.1418   -5.1100 N   0  0  0  0  0  0  0  0  0  0  0  0
   -5.6209    4.4559   -7.3189 N   0  0  0  0  0  0  0  0  0  0  0  0
  1  6  1  0  0  0  0
  2  1  1  0  0  0  0
  3  4  1  0  0  0  0
  3  2  2  0  0  0  0
  4  5  2  0  0  0  0
  5  8  1  0  0  0  0
  5  6  1  0  0  0  0
  6  7  2  0  0  0  0
  8  9  1  0  0  0  0
  9 10  1  0  0  0  0
 11  8  2  0  0  0  0
 12  4  1  0  0  0  0
 12 11  1  0  0  0  0
 13  2  1  0  0  0  0
M  END
>  <CHROM.1>
-41.18447013,-77.63360614,-9.34708096,3.95378401,-7.38540970,-0.09851916
-0.09396124,-1.65912448

>  <Name>
lig.pdb

>  <RI>
4.2128e+07

>  <Rbt.Current_Directory>
/home/itssahil/PROJECTS/Mol_Feturizer/New_Systems/rnas/2miy

>  <Rbt.Executable>
rbdock ($Id: //depot/dev/client3/rdock/2013.1/src/exe/rbdock.cxx#4 $)

>  <Rbt.Library>
libRbt.so (2013.1, Build901 2013/11/27)

>  <Rbt.Parameter_File>
/export/apps/rDock/src/rDock_2013.1_src/data/scripts/dock_solv.prm

>  <Rbt.Receptor>
prm/pocket_docking_5.prm

>  <SCORE>
-14.9763

>  <SCORE.INTER>
-16.6734

>  <SCORE.INTER.CONST>
1

>  <SCORE.INTER.POLAR>
-3.25865

>  <SCORE.INTER.ROT>
2

>  <SCORE.INTER.SOLV>
16.4657

>  <SCORE.INTER.VDW>
-10.6753

>  <SCORE.INTER.norm>
-1.28257

>  <SCORE.INTRA>
1.69452

>  <SCORE.INTRA.DIHEDRAL>
0.180339

>  <SCORE.INTRA.DIHEDRAL.0>
1.76676

>  <SCORE.INTRA.POLAR>
0.454878

>  <SCORE.INTRA.POLAR.0>
-0.472211

>  <SCORE.INTRA.REPUL>
0

>  <SCORE.INTRA.REPUL.0>
0

>  <SCORE.INTRA.SOLV>
0.0256962

>  <SCORE.INTRA.SOLV.lig_0>
-22.5855

>  <SCORE.INTRA.VDW>
0.0449124

>  <SCORE.INTRA.VDW.0>
-0.733656

>  <SCORE.INTRA.norm>
0.130347

>  <SCORE.RESTR>
0.00265485

>  <SCORE.RESTR.CAVITY>
0.00265485

>  <SCORE.RESTR.norm>
0.000204219

>  <SCORE.SYSTEM>
0

>  <SCORE.SYSTEM.CONST>
0

>  <SCORE.SYSTEM.DIHEDRAL>
0

>  <SCORE.SYSTEM.SOLV>
0

>  <SCORE.SYSTEM.norm>
0

>  <SCORE.heavy>
13

>  <SCORE.norm>
-1.15202

>  <RMSD>
4.634

$$$$
lig.pdb
 OpenBabel11021811453D
libRbt.so/2013.1/901 2013/11/27
 13 14  0  0  0  0  0  0  0  0999 V2000
   -7.6340    3.9446   -8.4803 N   0  0  0  0  0  0  0  0  0  0  0  0
   -6.9876    4.2424   -7.3142 C   0  0  0  0  0  0  0  0  0  0  0  0
   -7.6622    4.3254   -6.1815 N   0  0  0  0  0  0  0  0  0  0  0  0
   -9.0139    4.1232   -6.1231 C   0  0  0  0  0  0  0  0  0  0  0  0
   -9.7349    3.8176   -7.3030 C   0  0  0  0  0  0  0  0  0  0  0  0
   -8.9975    3.7289   -8.5221 C   0  0  0  0  0  0  0  0  0  0  0  0
   -9.5571    3.4710   -9.5734 O   0  0  0  0  0  0  0  0  0  0  0  0
  -11.1408    3.6734   -6.9072 C   0  0  0  0  0  0  0  0  0  0  0  0
  -12.3193    3.3686   -7.7937 C   0  0  0  0  0  0  0  0  0  0  0  0
  -12.2039    4.1302   -9.0444 N   0  0  0  0  0  0  0  0  0  0  0  0
  -11.1753    3.8737   -5.5840 C   0  0  0  0  0  0  0  0  0  0  0  0
   -9.9202    4.1478   -5.1094 N   0  0  0  0  0  0  0  0  0  0  0  0
   -5.6333    4.4559   -7.3224 N   0  0  0  0  0  0  0  0  0  0  0  0
  1  6  1  0  0  0  0
  2  1  1  0  0  0  0
  3  4  1  0  0  0  0
  3  2  2  0  0  0  0
  4  5  2  0  0  0  0
  5  8  1  0  0  0  0
  5  6  1  0  0  0  0
  6  7  2  0  0  0  0
  8  9  1  0  0  0  0
  9 10  1  0  0  0  0
 11  8  2  0  0  0  0
 12  4  1  0  0  0  0
 12 11  1  0  0  0  0
 13  2  1  0  0  0  0
M  END
>  <CHROM.1>
-41.31242443,102.86123117,-9.35979191,3.95647915,-7.38490308,-0.09732061
-0.09323749,-1.66029618

>  <Name>
lig.pdb

>  <RI>
2.60406e+07

>  <Rbt.Current_Directory>
/home/itssahil/PROJECTS/Mol_Feturizer/New_Systems/rnas/2miy

>  <Rbt.Executable>
rbdock ($Id: //depot/dev/client3/rdock/2013.1/src/exe/rbdock.cxx#4 $)

>  <Rbt.Library>
libRbt.so (2013.1, Build901 2013/11/27)

>  <Rbt.Parameter_File>
/export/apps/rDock/src/rDock_2013.1_src/data/scripts/dock_solv.prm

>  <Rbt.Receptor>
prm/pocket_docking_7.prm

>  <SCORE>
-14.961

>  <SCORE.INTER>
-16.61

>  <SCORE.INTER.CONST>
1

>  <SCORE.INTER.POLAR>
-3.27126

>  <SCORE.INTER.ROT>
2

>  <SCORE.INTER.SOLV>
16.4608

>  <SCORE.INTER.VDW>
-10.5894

>  <SCORE.INTER.norm>
-1.27769

>  <SCORE.INTRA>
1.64898

>  <SCORE.INTRA.DIHEDRAL>
0.127277

>  <SCORE.INTRA.DIHEDRAL.0>
1.76676

>  <SCORE.INTRA.POLAR>
0.450447

>  <SCORE.INTRA.POLAR.0>
-0.472211

>  <SCORE.INTRA.REPUL>
0

>  <SCORE.INTRA.REPUL.0>
0

>  <SCORE.INTRA.SOLV>
0.0266492

>  <SCORE.INTRA.SOLV.lig_0>
-22.5855

>  <SCORE.INTRA.VDW>
0.040501

>  <SCORE.INTRA.VDW.0>
-0.733656

>  <SCORE.INTRA.norm>
0.126845

>  <SCORE.RESTR>
0

>  <SCORE.RESTR.CAVITY>
0

>  <SCORE.RESTR.norm>
0

>  <SCORE.SYSTEM>
0

>  <SCORE.SYSTEM.CONST>
0

>  <SCORE.SYSTEM.DIHEDRAL>
0

>  <SCORE.SYSTEM.SOLV>
0

>  <SCORE.SYSTEM.norm>
0

>  <SCORE.heavy>
13

>  <SCORE.norm>
-1.15085

>  <RMSD>
4.634

$$$$
lig.pdb
 OpenBabel11021811453D
libRbt.so/2013.1/901 2013/11/27
 13 14  0  0  0  0  0  0  0  0999 V2000
   -7.6403    3.9471   -8.4840 N   0  0  0  0  0  0  0  0  0  0  0  0
   -6.9923    4.2399   -7.3176 C   0  0  0  0  0  0  0  0  0  0  0  0
   -7.6652    4.3180   -6.1836 N   0  0  0  0  0  0  0  0  0  0  0  0
   -9.0169    4.1155   -6.1241 C   0  0  0  0  0  0  0  0  0  0  0  0
   -9.7395    3.8149   -7.3042 C   0  0  0  0  0  0  0  0  0  0  0  0
   -9.0039    3.7315   -8.5248 C   0  0  0  0  0  0  0  0  0  0  0  0
   -9.5650    3.4781   -9.5764 O   0  0  0  0  0  0  0  0  0  0  0  0
  -11.1448    3.6689   -6.9070 C   0  0  0  0  0  0  0  0  0  0  0  0
  -12.3246    3.3680   -7.7932 C   0  0  0  0  0  0  0  0  0  0  0  0
  -12.2058    4.1272   -9.0451 N   0  0  0  0  0  0  0  0  0  0  0  0
  -11.1774    3.8635   -5.5829 C   0  0  0  0  0  0  0  0  0  0  0  0
   -9.9217    4.1356   -5.1090 N   0  0  0  0  0  0  0  0  0  0  0  0
   -5.6379    4.4535   -7.3268 N   0  0  0  0  0  0  0  0  0  0  0  0
  1  6  1  0  0  0  0
  2  1  1  0  0  0  0
  3  4  1  0  0  0  0
  3  2  2  0  0  0  0
  4  5  2  0  0  0  0
  5  8  1  0  0  0  0
  5  6  1  0  0  0  0
  6  7  2  0  0  0  0
  8  9  1  0  0  0  0
  9 10  1  0  0  0  0
 11  8  2  0  0  0  0
 12  4  1  0  0  0  0
 12 11  1  0  0  0  0
 13  2  1  0  0  0  0
M  END
>  <CHROM.1>
-40.88807728,102.60322151,-9.36403185,3.95343899,-7.38651081,-0.09634055
-0.09394436,-1.65630538

>  <Name>
lig.pdb

>  <RI>
3.47783e+07

>  <Rbt.Current_Directory>
/home/itssahil/PROJECTS/Mol_Feturizer/New_Systems/rnas/2miy

>  <Rbt.Executable>
rbdock ($Id: //depot/dev/client3/rdock/2013.1/src/exe/rbdock.cxx#4 $)

>  <Rbt.Library>
libRbt.so (2013.1, Build901 2013/11/27)

>  <Rbt.Parameter_File>
/export/apps/rDock/src/rDock_2013.1_src/data/scripts/dock_solv.prm

>  <Rbt.Receptor>
prm/pocket_docking_8.prm

>  <SCORE>
-14.9634

>  <SCORE.INTER>
-16.6226

>  <SCORE.INTER.CONST>
1

>  <SCORE.INTER.POLAR>
-3.28427

>  <SCORE.INTER.ROT>
2

>  <SCORE.INTER.SOLV>
16.4678

>  <SCORE.INTER.VDW>
-10.5567

>  <SCORE.INTER.norm>
-1.27866

>  <SCORE.INTRA>
1.65914

>  <SCORE.INTRA.DIHEDRAL>
0.147314

>  <SCORE.INTRA.DIHEDRAL.0>
1.76676

>  <SCORE.INTRA.POLAR>
0.4484

>  <SCORE.INTRA.POLAR.0>
-0.472211

>  <SCORE.INTRA.REPUL>
0

>  <SCORE.INTRA.REPUL.0>
0

>  <SCORE.INTRA.SOLV>
0.0307255

>  <SCORE.INTRA.SOLV.lig_0>
-22.5855

>  <SCORE.INTRA.VDW>
0.0455589

>  <SCORE.INTRA.VDW.0>
-0.733656

>  <SCORE.INTRA.norm>
0.127626

>  <SCORE.RESTR>
0

>  <SCORE.RESTR.CAVITY>
0

>  <SCORE.RESTR.norm>
0

>  <SCORE.SYSTEM>
0

>  <SCORE.SYSTEM.CONST>
0

>  <SCORE.SYSTEM.DIHEDRAL>
0

>  <SCORE.SYSTEM.SOLV>
0

>  <SCORE.SYSTEM.norm>
0

>  <SCORE.heavy>
13

>  <SCORE.norm>
-1.15103

>  <RMSD>
4.634

$$$$
lig.pdb
 OpenBabel11021811453D
libRbt.so/2013.1/901 2013/11/27
 13 14  0  0  0  0  0  0  0  0999 V2000
   -7.6255    3.9416   -8.4852 N   0  0  0  0  0  0  0  0  0  0  0  0
   -6.9818    4.2432   -7.3185 C   0  0  0  0  0  0  0  0  0  0  0  0
   -7.6586    4.3272   -6.1873 N   0  0  0  0  0  0  0  0  0  0  0  0
   -9.0100    4.1223   -6.1309 C   0  0  0  0  0  0  0  0  0  0  0  0
   -9.7282    3.8126   -7.3114 C   0  0  0  0  0  0  0  0  0  0  0  0
   -8.9884    3.7230   -8.5289 C   0  0  0  0  0  0  0  0  0  0  0  0
   -9.5456    3.4617   -9.5808 O   0  0  0  0  0  0  0  0  0  0  0  0
  -11.1345    3.6663   -6.9178 C   0  0  0  0  0  0  0  0  0  0  0  0
  -12.3107    3.3572   -7.8058 C   0  0  0  0  0  0  0  0  0  0  0  0
  -12.1938    4.1151   -9.0587 N   0  0  0  0  0  0  0  0  0  0  0  0
  -11.1718    3.8693   -5.5951 C   0  0  0  0  0  0  0  0  0  0  0  0
   -9.9182    4.1471   -5.1189 N   0  0  0  0  0  0  0  0  0  0  0  0
   -5.6279    4.4596   -7.3248 N   0  0  0  0  0  0  0  0  0  0  0  0
  1  6  1  0  0  0  0
  2  1  1  0  0  0  0
  3  4  1  0  0  0  0
  3  2  2  0  0  0  0
  4  5  2  0  0  0  0
  5  8  1  0  0  0  0
  5  6  1  0  0  0  0
  6  7  2  0  0  0  0
  8  9  1  0  0  0  0
  9 10  1  0  0  0  0
 11  8  2  0  0  0  0
 12  4  1  0  0  0  0
 12 11  1  0  0  0  0
 13  2  1  0  0  0  0
M  END
>  <CHROM.1>
-41.24316611,103.14919526,-9.35315797,3.95203148,-7.39298634,-0.09941531
-0.09526658,-1.66267950

>  <Name>
lig.pdb

>  <RI>
9.06885e+06

>  <Rbt.Current_Directory>
/home/itssahil/PROJECTS/Mol_Feturizer/New_Systems/rnas/2miy

>  <Rbt.Executable>
rbdock ($Id: //depot/dev/client3/rdock/2013.1/src/exe/rbdock.cxx#4 $)

>  <Rbt.Library>
libRbt.so (2013.1, Build901 2013/11/27)

>  <Rbt.Parameter_File>
/export/apps/rDock/src/rDock_2013.1_src/data/scripts/dock_solv.prm

>  <Rbt.Receptor>
prm/pocket_docking_6.prm

>  <SCORE>
-14.9631

>  <SCORE.INTER>
-16.6244

>  <SCORE.INTER.CONST>
1

>  <SCORE.INTER.POLAR>
-3.24796

>  <SCORE.INTER.ROT>
2

>  <SCORE.INTER.SOLV>
16.4886

>  <SCORE.INTER.VDW>
-10.6859

>  <SCORE.INTER.norm>
-1.2788

>  <SCORE.INTRA>
1.66122

>  <SCORE.INTRA.DIHEDRAL>
0.130867

>  <SCORE.INTRA.DIHEDRAL.0>
1.76676

>  <SCORE.INTRA.POLAR>
0.453105

>  <SCORE.INTRA.POLAR.0>
-0.472211

>  <SCORE.INTRA.REPUL>
0

>  <SCORE.INTRA.REPUL.0>
0

>  <SCORE.INTRA.SOLV>
0.027308

>  <SCORE.INTRA.SOLV.lig_0>
-22.5855

>  <SCORE.INTRA.VDW>
0.0415767

>  <SCORE.INTRA.VDW.0>
-0.733656

>  <SCORE.INTRA.norm>
0.127786

>  <SCORE.RESTR>
0

>  <SCORE.RESTR.CAVITY>
0

>  <SCORE.RESTR.norm>
0

>  <SCORE.SYSTEM>
0

>  <SCORE.SYSTEM.CONST>
0

>  <SCORE.SYSTEM.DIHEDRAL>
0

>  <SCORE.SYSTEM.SOLV>
0

>  <SCORE.SYSTEM.norm>
0

>  <SCORE.heavy>
13

>  <SCORE.norm>
-1.15101

>  <RMSD>
4.635

$$$$
lig.pdb
 OpenBabel11021811453D
libRbt.so/2013.1/901 2013/11/27
 13 14  0  0  0  0  0  0  0  0999 V2000
   -7.6131    3.9476   -8.4920 N   0  0  0  0  0  0  0  0  0  0  0  0
   -6.9722    4.2467   -7.3232 C   0  0  0  0  0  0  0  0  0  0  0  0
   -7.6511    4.3253   -6.1929 N   0  0  0  0  0  0  0  0  0  0  0  0
   -9.0022    4.1171   -6.1395 C   0  0  0  0  0  0  0  0  0  0  0  0
   -9.7175    3.8097   -7.3223 C   0  0  0  0  0  0  0  0  0  0  0  0
   -8.9754    3.7259   -8.5389 C   0  0  0  0  0  0  0  0  0  0  0  0
   -9.5301    3.4668   -9.5926 O   0  0  0  0  0  0  0  0  0  0  0  0
  -11.1241    3.6588   -6.9317 C   0  0  0  0  0  0  0  0  0  0  0  0
  -12.2981    3.3500   -7.8228 C   0  0  0  0  0  0  0  0  0  0  0  0
  -12.1756    4.1048   -9.0770 N   0  0  0  0  0  0  0  0  0  0  0  0
  -11.1643    3.8573   -5.6084 C   0  0  0  0  0  0  0  0  0  0  0  0
   -9.9121    4.1363   -5.1291 N   0  0  0  0  0  0  0  0  0  0  0  0
   -5.6187    4.4662   -7.3263 N   0  0  0  0  0  0  0  0  0  0  0  0
  1  6  1  0  0  0  0
  2  1  1  0  0  0  0
  3  4  1  0  0  0  0
  3  2  2  0  0  0  0
  4  5  2  0  0  0  0
  5  8  1  0  0  0  0
  5  6  1  0  0  0  0
  6  7  2  0  0  0  0
  8  9  1  0  0  0  0
  9 10  1  0  0  0  0
 11  8  2  0  0  0  0
 12  4  1  0  0  0  0
 12 11  1  0  0  0  0
 13  2  1  0  0  0  0
M  END
>  <CHROM.1>
-40.82726347,-77.69509622,-9.34236004,3.94951706,-7.40323865,-0.10195952
-0.09792477,-1.65993124

>  <Name>
lig.pdb

>  <RI>
1.82164e+07

>  <Rbt.Current_Directory>
/home/itssahil/PROJECTS/Mol_Feturizer/New_Systems/rnas/2miy

>  <Rbt.Executable>
rbdock ($Id: //depot/dev/client3/rdock/2013.1/src/exe/rbdock.cxx#4 $)

>  <Rbt.Library>
libRbt.so (2013.1, Build901 2013/11/27)

>  <Rbt.Parameter_File>
/export/apps/rDock/src/rDock_2013.1_src/data/scripts/dock_solv.prm

>  <Rbt.Receptor>
prm/blind_docking_80.prm

>  <SCORE>
-14.1181

>  <SCORE.INTER>
-16.6544

>  <SCORE.INTER.CONST>
1

>  <SCORE.INTER.POLAR>
-3.21726

>  <SCORE.INTER.ROT>
2

>  <SCORE.INTER.SOLV>
16.5298

>  <SCORE.INTER.VDW>
-10.822

>  <SCORE.INTER.norm>
-1.28111

>  <SCORE.INTRA>
1.709

>  <SCORE.INTRA.DIHEDRAL>
0.197543

>  <SCORE.INTRA.DIHEDRAL.0>
1.76676

>  <SCORE.INTRA.POLAR>
0.454796

>  <SCORE.INTRA.POLAR.0>
-0.472211

>  <SCORE.INTRA.REPUL>
0

>  <SCORE.INTRA.REPUL.0>
0

>  <SCORE.INTRA.SOLV>
0.0291161

>  <SCORE.INTRA.SOLV.lig_0>
-22.5855

>  <SCORE.INTRA.VDW>
0.0493645

>  <SCORE.INTRA.VDW.0>
-0.733656

>  <SCORE.INTRA.norm>
0.131462

>  <SCORE.RESTR>
0.827333

>  <SCORE.RESTR.CAVITY>
0.827333

>  <SCORE.RESTR.norm>
0.063641

>  <SCORE.SYSTEM>
0

>  <SCORE.SYSTEM.CONST>
0

>  <SCORE.SYSTEM.DIHEDRAL>
0

>  <SCORE.SYSTEM.SOLV>
0

>  <SCORE.SYSTEM.norm>
0

>  <SCORE.heavy>
13

>  <SCORE.norm>
-1.086

>  <RMSD>
4.636

$$$$
lig.pdb
 OpenBabel11021811453D
libRbt.so/2013.1/901 2013/11/27
 13 14  0  0  0  0  0  0  0  0999 V2000
   -7.6083    3.9550   -8.4493 N   0  0  0  0  0  0  0  0  0  0  0  0
   -6.9481    4.2619   -7.2932 C   0  0  0  0  0  0  0  0  0  0  0  0
   -7.6089    4.3510   -6.1529 N   0  0  0  0  0  0  0  0  0  0  0  0
   -8.9593    4.1464   -6.0764 C   0  0  0  0  0  0  0  0  0  0  0  0
   -9.6941    3.8314   -7.2452 C   0  0  0  0  0  0  0  0  0  0  0  0
   -8.9717    3.7362   -8.4727 C   0  0  0  0  0  0  0  0  0  0  0  0
   -9.5437    3.4701   -9.5153 O   0  0  0  0  0  0  0  0  0  0  0  0
  -11.0947    3.6868   -6.8311 C   0  0  0  0  0  0  0  0  0  0  0  0
  -12.2834    3.3738   -7.7009 C   0  0  0  0  0  0  0  0  0  0  0  0
  -11.9078    3.5091   -9.1145 N   0  0  0  0  0  0  0  0  0  0  0  0
  -11.1133    3.8959   -5.5089 C   0  0  0  0  0  0  0  0  0  0  0  0
   -9.8531    4.1758   -5.0518 N   0  0  0  0  0  0  0  0  0  0  0  0
   -5.5945    4.4782   -7.3197 N   0  0  0  0  0  0  0  0  0  0  0  0
  1  6  1  0  0  0  0
  2  1  1  0  0  0  0
  3  4  1  0  0  0  0
  3  2  2  0  0  0  0
  4  5  2  0  0  0  0
  5  8  1  0  0  0  0
  5  6  1  0  0  0  0
  6  7  2  0  0  0  0
  8  9  1  0  0  0  0
  9 10  1  0  0  0  0
 11  8  2  0  0  0  0
 12  4  1  0  0  0  0
 12 11  1  0  0  0  0
 13  2  1  0  0  0  0
M  END
>  <CHROM.1>
-12.21901613,146.33917466,-9.29451576,3.91278635,-7.34731718,-0.10979438
-0.13656107,-1.71081075

>  <Name>
lig.pdb

>  <RI>
4.2128e+07

>  <Rbt.Current_Directory>
/home/itssahil/PROJECTS/Mol_Feturizer/New_Systems/rnas/2miy

>  <Rbt.Executable>
rbdock ($Id: //depot/dev/client3/rdock/2013.1/src/exe/rbdock.cxx#4 $)

>  <Rbt.Library>
libRbt.so (2013.1, Build901 2013/11/27)

>  <Rbt.Parameter_File>
/export/apps/rDock/src/rDock_2013.1_src/data/scripts/dock_solv.prm

>  <Rbt.Receptor>
prm/pocket_docking_5.prm

>  <SCORE>
-10.1197

>  <SCORE.INTER>
-14.017

>  <SCORE.INTER.CONST>
1

>  <SCORE.INTER.POLAR>
-3.26251

>  <SCORE.INTER.ROT>
2

>  <SCORE.INTER.SOLV>
16.2224

>  <SCORE.INTER.VDW>
-8.81046

>  <SCORE.INTER.norm>
-1.07823

>  <SCORE.INTRA>
3.89728

>  <SCORE.INTRA.DIHEDRAL>
1.67932

>  <SCORE.INTRA.DIHEDRAL.0>
1.76676

>  <SCORE.INTRA.POLAR>
0.421933

>  <SCORE.INTRA.POLAR.0>
-0.472211

>  <SCORE.INTRA.REPUL>
0

>  <SCORE.INTRA.REPUL.0>
0

>  <SCORE.INTRA.SOLV>
0.252982

>  <SCORE.INTRA.SOLV.lig_0>
-22.5855

>  <SCORE.INTRA.VDW>
1.49656

>  <SCORE.INTRA.VDW.0>
-0.733656

>  <SCORE.INTRA.norm>
0.299791

>  <SCORE.RESTR>
0

>  <SCORE.RESTR.CAVITY>
0

>  <SCORE.RESTR.norm>
0

>  <SCORE.SYSTEM>
0

>  <SCORE.SYSTEM.CONST>
0

>  <SCORE.SYSTEM.DIHEDRAL>
0

>  <SCORE.SYSTEM.SOLV>
0

>  <SCORE.SYSTEM.norm>
0

>  <SCORE.heavy>
13

>  <SCORE.norm>
-0.778442

>  <RMSD>
4.636

$$$$
lig.pdb
 OpenBabel11021811453D
libRbt.so/2013.1/901 2013/11/27
 13 14  0  0  0  0  0  0  0  0999 V2000
   -7.6162    3.9472   -8.4966 N   0  0  0  0  0  0  0  0  0  0  0  0
   -6.9760    4.2448   -7.3271 C   0  0  0  0  0  0  0  0  0  0  0  0
   -7.6557    4.3228   -6.1972 N   0  0  0  0  0  0  0  0  0  0  0  0
   -9.0069    4.1155   -6.1450 C   0  0  0  0  0  0  0  0  0  0  0  0
   -9.7216    3.8098   -7.3287 C   0  0  0  0  0  0  0  0  0  0  0  0
   -8.9787    3.7266   -8.5447 C   0  0  0  0  0  0  0  0  0  0  0  0
   -9.5328    3.4689   -9.5991 O   0  0  0  0  0  0  0  0  0  0  0  0
  -11.1287    3.6595   -6.9392 C   0  0  0  0  0  0  0  0  0  0  0  0
  -12.3022    3.3524   -7.8315 C   0  0  0  0  0  0  0  0  0  0  0  0
  -12.1732    4.1007   -9.0889 N   0  0  0  0  0  0  0  0  0  0  0  0
  -11.1696    3.8567   -5.6157 C   0  0  0  0  0  0  0  0  0  0  0  0
   -9.9176    4.1344   -5.1352 N   0  0  0  0  0  0  0  0  0  0  0  0
   -5.6224    4.4633   -7.3290 N   0  0  0  0  0  0  0  0  0  0  0  0
  1  6  1  0  0  0  0
  2  1  1  0  0  0  0
  3  4  1  0  0  0  0
  3  2  2  0  0  0  0
  4  5  2  0  0  0  0
  5  8  1  0  0  0  0
  5  6  1  0  0  0  0
  6  7  2  0  0  0  0
  8  9  1  0  0  0  0
  9 10  1  0  0  0  0
 11  8  2  0  0  0  0
 12  4  1  0  0  0  0
 12 11  1  0  0  0  0
 13  2  1  0  0  0  0
M  END
>  <CHROM.1>
-40.41443491,-77.59047129,-9.34584756,3.94864801,-7.40952814,-0.10307791
-0.09766443,-1.65949478

>  <Name>
lig.pdb

>  <RI>
2.95488e+07

>  <Rbt.Current_Directory>
/home/itssahil/PROJECTS/Mol_Feturizer/New_Systems/rnas/2miy

>  <Rbt.Executable>
rbdock ($Id: //depot/dev/client3/rdock/2013.1/src/exe/rbdock.cxx#4 $)

>  <Rbt.Library>
libRbt.so (2013.1, Build901 2013/11/27)

>  <Rbt.Parameter_File>
/export/apps/rDock/src/rDock_2013.1_src/data/scripts/dock_solv.prm

>  <Rbt.Receptor>
prm/blind_docking_20.prm

>  <SCORE>
-14.7182

>  <SCORE.INTER>
-16.6615

>  <SCORE.INTER.CONST>
1

>  <SCORE.INTER.POLAR>
-3.21621

>  <SCORE.INTER.ROT>
2

>  <SCORE.INTER.SOLV>
16.5435

>  <SCORE.INTER.VDW>
-10.8348

>  <SCORE.INTER.norm>
-1.28166

>  <SCORE.INTRA>
1.73185

>  <SCORE.INTRA.DIHEDRAL>
0.217513

>  <SCORE.INTRA.DIHEDRAL.0>
1.76676

>  <SCORE.INTRA.POLAR>
0.456374

>  <SCORE.INTRA.POLAR.0>
-0.472211

>  <SCORE.INTRA.REPUL>
0

>  <SCORE.INTRA.REPUL.0>
0

>  <SCORE.INTRA.SOLV>
0.0330362

>  <SCORE.INTRA.SOLV.lig_0>
-22.5855

>  <SCORE.INTRA.VDW>
0.0549081

>  <SCORE.INTRA.VDW.0>
-0.733656

>  <SCORE.INTRA.norm>
0.133219

>  <SCORE.RESTR>
0.211495

>  <SCORE.RESTR.CAVITY>
0.211495

>  <SCORE.RESTR.norm>
0.0162689

>  <SCORE.SYSTEM>
0

>  <SCORE.SYSTEM.CONST>
0

>  <SCORE.SYSTEM.DIHEDRAL>
0

>  <SCORE.SYSTEM.SOLV>
0

>  <SCORE.SYSTEM.norm>
0

>  <SCORE.heavy>
13

>  <SCORE.norm>
-1.13217

>  <RMSD>
4.637

$$$$
lig.pdb
 OpenBabel11021811453D
libRbt.so/2013.1/901 2013/11/27
 13 14  0  0  0  0  0  0  0  0999 V2000
   -7.6145    3.9444   -8.4931 N   0  0  0  0  0  0  0  0  0  0  0  0
   -6.9753    4.2450   -7.3238 C   0  0  0  0  0  0  0  0  0  0  0  0
   -7.6563    4.3269   -6.1948 N   0  0  0  0  0  0  0  0  0  0  0  0
   -9.0077    4.1206   -6.1436 C   0  0  0  0  0  0  0  0  0  0  0  0
   -9.7212    3.8118   -7.3271 C   0  0  0  0  0  0  0  0  0  0  0  0
   -8.9770    3.7245   -8.5421 C   0  0  0  0  0  0  0  0  0  0  0  0
   -9.5301    3.4640   -9.5963 O   0  0  0  0  0  0  0  0  0  0  0  0
  -11.1288    3.6635   -6.9388 C   0  0  0  0  0  0  0  0  0  0  0  0
  -12.3016    3.3545   -7.8314 C   0  0  0  0  0  0  0  0  0  0  0  0
  -12.1742    4.1042   -9.0881 N   0  0  0  0  0  0  0  0  0  0  0  0
  -11.1711    3.8647   -5.6159 C   0  0  0  0  0  0  0  0  0  0  0  0
   -9.9195    4.1431   -5.1348 N   0  0  0  0  0  0  0  0  0  0  0  0
   -5.6216    4.4627   -7.3249 N   0  0  0  0  0  0  0  0  0  0  0  0
  1  6  1  0  0  0  0
  2  1  1  0  0  0  0
  3  4  1  0  0  0  0
  3  2  2  0  0  0  0
  4  5  2  0  0  0  0
  5  8  1  0  0  0  0
  5  6  1  0  0  0  0
  6  7  2  0  0  0  0
  8  9  1  0  0  0  0
  9 10  1  0  0  0  0
 11  8  2  0  0  0  0
 12  4  1  0  0  0  0
 12 11  1  0  0  0  0
 13  2  1  0  0  0  0
M  END
>  <CHROM.1>
-40.69881434,-77.41033324,-9.34560090,3.95066141,-7.40769133,-0.10383429
-0.09657973,-1.66227870

>  <Name>
lig.pdb

>  <RI>
1.17462e+07

>  <Rbt.Current_Directory>
/home/itssahil/PROJECTS/Mol_Feturizer/New_Systems/rnas/2miy

>  <Rbt.Executable>
rbdock ($Id: //depot/dev/client3/rdock/2013.1/src/exe/rbdock.cxx#4 $)

>  <Rbt.Library>
libRbt.so (2013.1, Build901 2013/11/27)

>  <Rbt.Parameter_File>
/export/apps/rDock/src/rDock_2013.1_src/data/scripts/dock_solv.prm

>  <Rbt.Receptor>
prm/blind_docking_40.prm

>  <SCORE>
-14.1172

>  <SCORE.INTER>
-16.6643

>  <SCORE.INTER.CONST>
1

>  <SCORE.INTER.POLAR>
-3.20963

>  <SCORE.INTER.ROT>
2

>  <SCORE.INTER.SOLV>
16.5355

>  <SCORE.INTER.VDW>
-10.8559

>  <SCORE.INTER.norm>
-1.28187

>  <SCORE.INTRA>
1.72341

>  <SCORE.INTRA.DIHEDRAL>
0.203476

>  <SCORE.INTRA.DIHEDRAL.0>
1.76676

>  <SCORE.INTRA.POLAR>
0.457426

>  <SCORE.INTRA.POLAR.0>
-0.472211

>  <SCORE.INTRA.REPUL>
0

>  <SCORE.INTRA.REPUL.0>
0

>  <SCORE.INTRA.SOLV>
0.0303269

>  <SCORE.INTRA.SOLV.lig_0>
-22.5855

>  <SCORE.INTRA.VDW>
0.0512598

>  <SCORE.INTRA.VDW.0>
-0.733656

>  <SCORE.INTRA.norm>
0.13257

>  <SCORE.RESTR>
0.823654

>  <SCORE.RESTR.CAVITY>
0.823654

>  <SCORE.RESTR.norm>
0.063358

>  <SCORE.SYSTEM>
0

>  <SCORE.SYSTEM.CONST>
0

>  <SCORE.SYSTEM.DIHEDRAL>
0

>  <SCORE.SYSTEM.SOLV>
0

>  <SCORE.SYSTEM.norm>
0

>  <SCORE.heavy>
13

>  <SCORE.norm>
-1.08594

>  <RMSD>
4.637

$$$$
lig.pdb
 OpenBabel11021811453D
libRbt.so/2013.1/901 2013/11/27
 13 14  0  0  0  0  0  0  0  0999 V2000
   -7.6087    3.9559   -8.4497 N   0  0  0  0  0  0  0  0  0  0  0  0
   -6.9490    4.2628   -7.2935 C   0  0  0  0  0  0  0  0  0  0  0  0
   -7.6101    4.3514   -6.1533 N   0  0  0  0  0  0  0  0  0  0  0  0
   -8.9605    4.1463   -6.0772 C   0  0  0  0  0  0  0  0  0  0  0  0
   -9.6948    3.8312   -7.2463 C   0  0  0  0  0  0  0  0  0  0  0  0
   -8.9720    3.7366   -8.4736 C   0  0  0  0  0  0  0  0  0  0  0  0
   -9.5436    3.4705   -9.5164 O   0  0  0  0  0  0  0  0  0  0  0  0
  -11.0954    3.6861   -6.8326 C   0  0  0  0  0  0  0  0  0  0  0  0
  -12.2838    3.3728   -7.7028 C   0  0  0  0  0  0  0  0  0  0  0  0
  -11.9034    3.4923   -9.1165 N   0  0  0  0  0  0  0  0  0  0  0  0
  -11.1145    3.8949   -5.5104 C   0  0  0  0  0  0  0  0  0  0  0  0
   -9.8545    4.1751   -5.0528 N   0  0  0  0  0  0  0  0  0  0  0  0
   -5.5954    4.4795   -7.3195 N   0  0  0  0  0  0  0  0  0  0  0  0
  1  6  1  0  0  0  0
  2  1  1  0  0  0  0
  3  4  1  0  0  0  0
  3  2  2  0  0  0  0
  4  5  2  0  0  0  0
  5  8  1  0  0  0  0
  5  6  1  0  0  0  0
  6  7  2  0  0  0  0
  8  9  1  0  0  0  0
  9 10  1  0  0  0  0
 11  8  2  0  0  0  0
 12  4  1  0  0  0  0
 12 11  1  0  0  0  0
 13  2  1  0  0  0  0
M  END
>  <CHROM.1>
-11.51952171,-32.88758920,-9.29493631,3.91139419,-7.34829155,-0.11058041
-0.13773739,-1.71184803

>  <Name>
lig.pdb

>  <RI>
1.51961e+07

>  <Rbt.Current_Directory>
/home/itssahil/PROJECTS/Mol_Feturizer/New_Systems/rnas/2miy

>  <Rbt.Executable>
rbdock ($Id: //depot/dev/client3/rdock/2013.1/src/exe/rbdock.cxx#4 $)

>  <Rbt.Library>
libRbt.so (2013.1, Build901 2013/11/27)

>  <Rbt.Parameter_File>
/export/apps/rDock/src/rDock_2013.1_src/data/scripts/dock_solv.prm

>  <Rbt.Receptor>
prm/pocket_docking_3.prm

>  <SCORE>
-10.0476

>  <SCORE.INTER>
-13.9537

>  <SCORE.INTER.CONST>
1

>  <SCORE.INTER.POLAR>
-3.22633

>  <SCORE.INTER.ROT>
2

>  <SCORE.INTER.SOLV>
16.2292

>  <SCORE.INTER.VDW>
-8.89111

>  <SCORE.INTER.norm>
-1.07337

>  <SCORE.INTRA>
3.90614

>  <SCORE.INTRA.DIHEDRAL>
1.64305

>  <SCORE.INTRA.DIHEDRAL.0>
1.76676

>  <SCORE.INTRA.POLAR>
0.413715

>  <SCORE.INTRA.POLAR.0>
-0.472211

>  <SCORE.INTRA.REPUL>
0

>  <SCORE.INTRA.REPUL.0>
0

>  <SCORE.INTRA.SOLV>
0.255055

>  <SCORE.INTRA.SOLV.lig_0>
-22.5855

>  <SCORE.INTRA.VDW>
1.55046

>  <SCORE.INTRA.VDW.0>
-0.733656

>  <SCORE.INTRA.norm>
0.300472

>  <SCORE.RESTR>
0

>  <SCORE.RESTR.CAVITY>
0

>  <SCORE.RESTR.norm>
0

>  <SCORE.SYSTEM>
0

>  <SCORE.SYSTEM.CONST>
0

>  <SCORE.SYSTEM.DIHEDRAL>
0

>  <SCORE.SYSTEM.SOLV>
0

>  <SCORE.SYSTEM.norm>
0

>  <SCORE.heavy>
13

>  <SCORE.norm>
-0.772893

>  <RMSD>
4.637

$$$$
lig.pdb
 OpenBabel11021811453D
libRbt.so/2013.1/901 2013/11/27
 13 14  0  0  0  0  0  0  0  0999 V2000
   -7.6058    3.9542   -8.4479 N   0  0  0  0  0  0  0  0  0  0  0  0
   -6.9470    4.2619   -7.2913 C   0  0  0  0  0  0  0  0  0  0  0  0
   -7.6090    4.3519   -6.1518 N   0  0  0  0  0  0  0  0  0  0  0  0
   -8.9596    4.1473   -6.0767 C   0  0  0  0  0  0  0  0  0  0  0  0
   -9.6930    3.8314   -7.2461 C   0  0  0  0  0  0  0  0  0  0  0  0
   -8.9692    3.7353   -8.4727 C   0  0  0  0  0  0  0  0  0  0  0  0
   -9.5400    3.4684   -9.5157 O   0  0  0  0  0  0  0  0  0  0  0  0
  -11.0940    3.6871   -6.8334 C   0  0  0  0  0  0  0  0  0  0  0  0
  -12.2818    3.3734   -7.7043 C   0  0  0  0  0  0  0  0  0  0  0  0
  -11.9040    3.5055   -9.1176 N   0  0  0  0  0  0  0  0  0  0  0  0
  -11.1141    3.8971   -5.5114 C   0  0  0  0  0  0  0  0  0  0  0  0
   -9.8544    4.1774   -5.0530 N   0  0  0  0  0  0  0  0  0  0  0  0
   -5.5933    4.4782   -7.3164 N   0  0  0  0  0  0  0  0  0  0  0  0
  1  6  1  0  0  0  0
  2  1  1  0  0  0  0
  3  4  1  0  0  0  0
  3  2  2  0  0  0  0
  4  5  2  0  0  0  0
  5  8  1  0  0  0  0
  5  6  1  0  0  0  0
  6  7  2  0  0  0  0
  8  9  1  0  0  0  0
  9 10  1  0  0  0  0
 11  8  2  0  0  0  0
 12  4  1  0  0  0  0
 12 11  1  0  0  0  0
 13  2  1  0  0  0  0
M  END
>  <CHROM.1>
-12.12328635,147.14978835,-9.29325937,3.91250104,-7.34775292,-0.11097229
-0.13654804,-1.71187069

>  <Name>
lig.pdb

>  <RI>
4.2128e+07

>  <Rbt.Current_Directory>
/home/itssahil/PROJECTS/Mol_Feturizer/New_Systems/rnas/2miy

>  <Rbt.Executable>
rbdock ($Id: //depot/dev/client3/rdock/2013.1/src/exe/rbdock.cxx#4 $)

>  <Rbt.Library>
libRbt.so (2013.1, Build901 2013/11/27)

>  <Rbt.Parameter_File>
/export/apps/rDock/src/rDock_2013.1_src/data/scripts/dock_solv.prm

>  <Rbt.Receptor>
prm/pocket_docking_5.prm

>  <SCORE>
-10.1252

>  <SCORE.INTER>
-14.0369

>  <SCORE.INTER.CONST>
1

>  <SCORE.INTER.POLAR>
-3.24604

>  <SCORE.INTER.ROT>
2

>  <SCORE.INTER.SOLV>
16.2203

>  <SCORE.INTER.VDW>
-8.87792

>  <SCORE.INTER.norm>
-1.07976

>  <SCORE.INTRA>
3.91171

>  <SCORE.INTRA.DIHEDRAL>
1.68283

>  <SCORE.INTRA.DIHEDRAL.0>
1.76676

>  <SCORE.INTRA.POLAR>
0.417403

>  <SCORE.INTRA.POLAR.0>
-0.472211

>  <SCORE.INTRA.REPUL>
0

>  <SCORE.INTRA.REPUL.0>
0

>  <SCORE.INTRA.SOLV>
0.255288

>  <SCORE.INTRA.SOLV.lig_0>
-22.5855

>  <SCORE.INTRA.VDW>
1.52348

>  <SCORE.INTRA.VDW.0>
-0.733656

>  <SCORE.INTRA.norm>
0.300901

>  <SCORE.RESTR>
0

>  <SCORE.RESTR.CAVITY>
0

>  <SCORE.RESTR.norm>
0

>  <SCORE.SYSTEM>
0

>  <SCORE.SYSTEM.CONST>
0

>  <SCORE.SYSTEM.DIHEDRAL>
0

>  <SCORE.SYSTEM.SOLV>
0

>  <SCORE.SYSTEM.norm>
0

>  <SCORE.heavy>
13

>  <SCORE.norm>
-0.778861

>  <RMSD>
4.637

$$$$
lig.pdb
 OpenBabel11021811453D
libRbt.so/2013.1/901 2013/11/27
 13 14  0  0  0  0  0  0  0  0999 V2000
   -7.6098    3.9554   -8.4472 N   0  0  0  0  0  0  0  0  0  0  0  0
   -6.9498    4.2614   -7.2908 C   0  0  0  0  0  0  0  0  0  0  0  0
   -7.6108    4.3506   -6.1506 N   0  0  0  0  0  0  0  0  0  0  0  0
   -8.9615    4.1468   -6.0747 C   0  0  0  0  0  0  0  0  0  0  0  0
   -9.6961    3.8326   -7.2438 C   0  0  0  0  0  0  0  0  0  0  0  0
   -8.9733    3.7374   -8.4711 C   0  0  0  0  0  0  0  0  0  0  0  0
   -9.5452    3.4721   -9.5140 O   0  0  0  0  0  0  0  0  0  0  0  0
  -11.0969    3.6888   -6.8301 C   0  0  0  0  0  0  0  0  0  0  0  0
  -12.2855    3.3768   -7.7005 C   0  0  0  0  0  0  0  0  0  0  0  0
  -11.9024    3.4869   -9.1142 N   0  0  0  0  0  0  0  0  0  0  0  0
  -11.1157    3.8974   -5.5079 C   0  0  0  0  0  0  0  0  0  0  0  0
   -9.8555    4.1763   -5.0503 N   0  0  0  0  0  0  0  0  0  0  0  0
   -5.5960    4.4769   -7.3168 N   0  0  0  0  0  0  0  0  0  0  0  0
  1  6  1  0  0  0  0
  2  1  1  0  0  0  0
  3  4  1  0  0  0  0
  3  2  2  0  0  0  0
  4  5  2  0  0  0  0
  5  8  1  0  0  0  0
  5  6  1  0  0  0  0
  6  7  2  0  0  0  0
  8  9  1  0  0  0  0
  9 10  1  0  0  0  0
 11  8  2  0  0  0  0
 12  4  1  0  0  0  0
 12 11  1  0  0  0  0
 13  2  1  0  0  0  0
M  END
>  <CHROM.1>
-11.12046943,-33.00769499,-9.29588355,3.91154067,-7.34578620,-0.11067716
-0.13728315,-1.71246724

>  <Name>
lig.pdb

>  <RI>
2.60406e+07

>  <Rbt.Current_Directory>
/home/itssahil/PROJECTS/Mol_Feturizer/New_Systems/rnas/2miy

>  <Rbt.Executable>
rbdock ($Id: //depot/dev/client3/rdock/2013.1/src/exe/rbdock.cxx#4 $)

>  <Rbt.Library>
libRbt.so (2013.1, Build901 2013/11/27)

>  <Rbt.Parameter_File>
/export/apps/rDock/src/rDock_2013.1_src/data/scripts/dock_solv.prm

>  <Rbt.Receptor>
prm/pocket_docking_7.prm

>  <SCORE>
-10.0511

>  <SCORE.INTER>
-13.9773

>  <SCORE.INTER.CONST>
1

>  <SCORE.INTER.POLAR>
-3.22619

>  <SCORE.INTER.ROT>
2

>  <SCORE.INTER.SOLV>
16.2183

>  <SCORE.INTER.VDW>
-8.90369

>  <SCORE.INTER.norm>
-1.07518

>  <SCORE.INTRA>
3.92626

>  <SCORE.INTRA.DIHEDRAL>
1.65609

>  <SCORE.INTRA.DIHEDRAL.0>
1.76676

>  <SCORE.INTRA.POLAR>
0.408766

>  <SCORE.INTRA.POLAR.0>
-0.472211

>  <SCORE.INTRA.REPUL>
0

>  <SCORE.INTRA.REPUL.0>
0

>  <SCORE.INTRA.SOLV>
0.257089

>  <SCORE.INTRA.SOLV.lig_0>
-22.5855

>  <SCORE.INTRA.VDW>
1.57987

>  <SCORE.INTRA.VDW.0>
-0.733656

>  <SCORE.INTRA.norm>
0.30202

>  <SCORE.RESTR>
0

>  <SCORE.RESTR.CAVITY>
0

>  <SCORE.RESTR.norm>
0

>  <SCORE.SYSTEM>
0

>  <SCORE.SYSTEM.CONST>
0

>  <SCORE.SYSTEM.DIHEDRAL>
0

>  <SCORE.SYSTEM.SOLV>
0

>  <SCORE.SYSTEM.norm>
0

>  <SCORE.heavy>
13

>  <SCORE.norm>
-0.773158

>  <RMSD>
4.637

$$$$
lig.pdb
 OpenBabel11021811453D
libRbt.so/2013.1/901 2013/11/27
 13 14  0  0  0  0  0  0  0  0999 V2000
   -7.6083    3.9603   -8.4487 N   0  0  0  0  0  0  0  0  0  0  0  0
   -6.9474    4.2635   -7.2921 C   0  0  0  0  0  0  0  0  0  0  0  0
   -7.6073    4.3492   -6.1511 N   0  0  0  0  0  0  0  0  0  0  0  0
   -8.9578    4.1447   -6.0744 C   0  0  0  0  0  0  0  0  0  0  0  0
   -9.6934    3.8335   -7.2437 C   0  0  0  0  0  0  0  0  0  0  0  0
   -8.9718    3.7419   -8.4719 C   0  0  0  0  0  0  0  0  0  0  0  0
   -9.5445    3.4792   -9.5150 O   0  0  0  0  0  0  0  0  0  0  0  0
  -11.0937    3.6880   -6.8291 C   0  0  0  0  0  0  0  0  0  0  0  0
  -12.2831    3.3779   -7.6992 C   0  0  0  0  0  0  0  0  0  0  0  0
  -11.8974    3.4769   -9.1131 N   0  0  0  0  0  0  0  0  0  0  0  0
  -11.1115    3.8930   -5.5063 C   0  0  0  0  0  0  0  0  0  0  0  0
   -9.8509    4.1711   -5.0491 N   0  0  0  0  0  0  0  0  0  0  0  0
   -5.5936    4.4795   -7.3187 N   0  0  0  0  0  0  0  0  0  0  0  0
  1  6  1  0  0  0  0
  2  1  1  0  0  0  0
  3  4  1  0  0  0  0
  3  2  2  0  0  0  0
  4  5  2  0  0  0  0
  5  8  1  0  0  0  0
  5  6  1  0  0  0  0
  6  7  2  0  0  0  0
  8  9  1  0  0  0  0
  9 10  1  0  0  0  0
 11  8  2  0  0  0  0
 12  4  1  0  0  0  0
 12 11  1  0  0  0  0
 13  2  1  0  0  0  0
M  END
>  <CHROM.1>
-10.47430033,-32.78166991,-9.29296930,3.91140611,-7.34585692,-0.11012615
-0.13865678,-1.71086645

>  <Name>
lig.pdb

>  <RI>
2.60406e+07

>  <Rbt.Current_Directory>
/home/itssahil/PROJECTS/Mol_Feturizer/New_Systems/rnas/2miy

>  <Rbt.Executable>
rbdock ($Id: //depot/dev/client3/rdock/2013.1/src/exe/rbdock.cxx#4 $)

>  <Rbt.Library>
libRbt.so (2013.1, Build901 2013/11/27)

>  <Rbt.Parameter_File>
/export/apps/rDock/src/rDock_2013.1_src/data/scripts/dock_solv.prm

>  <Rbt.Receptor>
prm/pocket_docking_7.prm

>  <SCORE>
-10.0301

>  <SCORE.INTER>
-13.9901

>  <SCORE.INTER.CONST>
1

>  <SCORE.INTER.POLAR>
-3.22125

>  <SCORE.INTER.ROT>
2

>  <SCORE.INTER.SOLV>
16.2218

>  <SCORE.INTER.VDW>
-8.92984

>  <SCORE.INTER.norm>
-1.07616

>  <SCORE.INTRA>
3.95995

>  <SCORE.INTRA.DIHEDRAL>
1.67628

>  <SCORE.INTRA.DIHEDRAL.0>
1.76676

>  <SCORE.INTRA.POLAR>
0.398081

>  <SCORE.INTRA.POLAR.0>
-0.472211

>  <SCORE.INTRA.REPUL>
0

>  <SCORE.INTRA.REPUL.0>
0

>  <SCORE.INTRA.SOLV>
0.26116

>  <SCORE.INTRA.SOLV.lig_0>
-22.5855

>  <SCORE.INTRA.VDW>
1.63775

>  <SCORE.INTRA.VDW.0>
-0.733656

>  <SCORE.INTRA.norm>
0.304611

>  <SCORE.RESTR>
0

>  <SCORE.RESTR.CAVITY>
0

>  <SCORE.RESTR.norm>
0

>  <SCORE.SYSTEM>
0

>  <SCORE.SYSTEM.CONST>
0

>  <SCORE.SYSTEM.DIHEDRAL>
0

>  <SCORE.SYSTEM.SOLV>
0

>  <SCORE.SYSTEM.norm>
0

>  <SCORE.heavy>
13

>  <SCORE.norm>
-0.771549

>  <RMSD>
4.637

$$$$
lig.pdb
 OpenBabel11021811453D
libRbt.so/2013.1/901 2013/11/27
 13 14  0  0  0  0  0  0  0  0999 V2000
   -7.6441    3.9403   -8.5021 N   0  0  0  0  0  0  0  0  0  0  0  0
   -7.0038    4.2247   -7.3293 C   0  0  0  0  0  0  0  0  0  0  0  0
   -7.6843    4.2948   -6.1993 N   0  0  0  0  0  0  0  0  0  0  0  0
   -9.0363    4.0921   -6.1503 C   0  0  0  0  0  0  0  0  0  0  0  0
   -9.7511    3.8000   -7.3373 C   0  0  0  0  0  0  0  0  0  0  0  0
   -9.0074    3.7253   -8.5534 C   0  0  0  0  0  0  0  0  0  0  0  0
   -9.5615    3.4795   -9.6106 O   0  0  0  0  0  0  0  0  0  0  0  0
  -11.1590    3.6514   -6.9505 C   0  0  0  0  0  0  0  0  0  0  0  0
  -12.3329    3.3570   -7.8466 C   0  0  0  0  0  0  0  0  0  0  0  0
  -12.1927    4.1053   -9.1028 N   0  0  0  0  0  0  0  0  0  0  0  0
  -11.2004    3.8366   -5.6253 C   0  0  0  0  0  0  0  0  0  0  0  0
   -9.9479    4.1051   -5.1411 N   0  0  0  0  0  0  0  0  0  0  0  0
   -5.6494    4.4381   -7.3280 N   0  0  0  0  0  0  0  0  0  0  0  0
  1  6  1  0  0  0  0
  2  1  1  0  0  0  0
  3  4  1  0  0  0  0
  3  2  2  0  0  0  0
  4  5  2  0  0  0  0
  5  8  1  0  0  0  0
  5  6  1  0  0  0  0
  6  7  2  0  0  0  0
  8  9  1  0  0  0  0
  9 10  1  0  0  0  0
 11  8  2  0  0  0  0
 12  4  1  0  0  0  0
 12 11  1  0  0  0  0
 13  2  1  0  0  0  0
M  END
>  <CHROM.1>
-39.81233839,-77.79171974,-9.37403796,3.93719313,-7.41707379,-0.10429259
-0.09461935,-1.65097697

>  <Name>
lig.pdb

>  <RI>
2.95488e+07

>  <Rbt.Current_Directory>
/home/itssahil/PROJECTS/Mol_Feturizer/New_Systems/rnas/2miy

>  <Rbt.Executable>
rbdock ($Id: //depot/dev/client3/rdock/2013.1/src/exe/rbdock.cxx#4 $)

>  <Rbt.Library>
libRbt.so (2013.1, Build901 2013/11/27)

>  <Rbt.Parameter_File>
/export/apps/rDock/src/rDock_2013.1_src/data/scripts/dock_solv.prm

>  <Rbt.Receptor>
prm/blind_docking_20.prm

>  <SCORE>
-14.6478

>  <SCORE.INTER>
-16.6052

>  <SCORE.INTER.CONST>
1

>  <SCORE.INTER.POLAR>
-3.2069

>  <SCORE.INTER.ROT>
2

>  <SCORE.INTER.SOLV>
16.5594

>  <SCORE.INTER.VDW>
-10.8336

>  <SCORE.INTER.norm>
-1.27732

>  <SCORE.INTRA>
1.75605

>  <SCORE.INTRA.DIHEDRAL>
0.247471

>  <SCORE.INTRA.DIHEDRAL.0>
1.76676

>  <SCORE.INTRA.POLAR>
0.455801

>  <SCORE.INTRA.POLAR.0>
-0.472211

>  <SCORE.INTRA.REPUL>
0

>  <SCORE.INTRA.REPUL.0>
0

>  <SCORE.INTRA.SOLV>
0.0387223

>  <SCORE.INTRA.SOLV.lig_0>
-22.5855

>  <SCORE.INTRA.VDW>
0.0632271

>  <SCORE.INTRA.VDW.0>
-0.733656

>  <SCORE.INTRA.norm>
0.135081

>  <SCORE.RESTR>
0.201357

>  <SCORE.RESTR.CAVITY>
0.201357

>  <SCORE.RESTR.norm>
0.015489

>  <SCORE.SYSTEM>
0

>  <SCORE.SYSTEM.CONST>
0

>  <SCORE.SYSTEM.DIHEDRAL>
0

>  <SCORE.SYSTEM.SOLV>
0

>  <SCORE.SYSTEM.norm>
0

>  <SCORE.heavy>
13

>  <SCORE.norm>
-1.12675

>  <RMSD>
4.638

$$$$
lig.pdb
 OpenBabel11021811453D
libRbt.so/2013.1/901 2013/11/27
 13 14  0  0  0  0  0  0  0  0999 V2000
   -7.6152    3.9447   -8.4958 N   0  0  0  0  0  0  0  0  0  0  0  0
   -6.9767    4.2453   -7.3261 C   0  0  0  0  0  0  0  0  0  0  0  0
   -7.6583    4.3266   -6.1975 N   0  0  0  0  0  0  0  0  0  0  0  0
   -9.0097    4.1199   -6.1470 C   0  0  0  0  0  0  0  0  0  0  0  0
   -9.7225    3.8112   -7.3310 C   0  0  0  0  0  0  0  0  0  0  0  0
   -8.9776    3.7244   -8.5456 C   0  0  0  0  0  0  0  0  0  0  0  0
   -9.5301    3.4641   -9.6001 O   0  0  0  0  0  0  0  0  0  0  0  0
  -11.1302    3.6625   -6.9434 C   0  0  0  0  0  0  0  0  0  0  0  0
  -12.3024    3.3533   -7.8368 C   0  0  0  0  0  0  0  0  0  0  0  0
  -12.1732    4.1013   -9.0944 N   0  0  0  0  0  0  0  0  0  0  0  0
  -11.1733    3.8634   -5.6206 C   0  0  0  0  0  0  0  0  0  0  0  0
   -9.9220    4.1419   -5.1387 N   0  0  0  0  0  0  0  0  0  0  0  0
   -5.6230    4.4633   -7.3264 N   0  0  0  0  0  0  0  0  0  0  0  0
  1  6  1  0  0  0  0
  2  1  1  0  0  0  0
  3  4  1  0  0  0  0
  3  2  2  0  0  0  0
  4  5  2  0  0  0  0
  5  8  1  0  0  0  0
  5  6  1  0  0  0  0
  6  7  2  0  0  0  0
  8  9  1  0  0  0  0
  9 10  1  0  0  0  0
 11  8  2  0  0  0  0
 12  4  1  0  0  0  0
 12 11  1  0  0  0  0
 13  2  1  0  0  0  0
M  END
>  <CHROM.1>
-40.58589710,103.70591455,-9.34659605,3.95010465,-7.41140277,-0.10440565
-0.09700890,-1.66223136

>  <Name>
lig.pdb

>  <RI>
1.17462e+07

>  <Rbt.Current_Directory>
/home/itssahil/PROJECTS/Mol_Feturizer/New_Systems/rnas/2miy

>  <Rbt.Executable>
rbdock ($Id: //depot/dev/client3/rdock/2013.1/src/exe/rbdock.cxx#4 $)

>  <Rbt.Library>
libRbt.so (2013.1, Build901 2013/11/27)

>  <Rbt.Parameter_File>
/export/apps/rDock/src/rDock_2013.1_src/data/scripts/dock_solv.prm

>  <Rbt.Receptor>
prm/blind_docking_40.prm

>  <SCORE>
-14.0294

>  <SCORE.INTER>
-16.5574

>  <SCORE.INTER.CONST>
1

>  <SCORE.INTER.POLAR>
-3.20717

>  <SCORE.INTER.ROT>
2

>  <SCORE.INTER.SOLV>
16.5449

>  <SCORE.INTER.VDW>
-10.796

>  <SCORE.INTER.norm>
-1.27364

>  <SCORE.INTRA>
1.70839

>  <SCORE.INTRA.DIHEDRAL>
0.163098

>  <SCORE.INTRA.DIHEDRAL.0>
1.76676

>  <SCORE.INTRA.POLAR>
0.458727

>  <SCORE.INTRA.POLAR.0>
-0.472211

>  <SCORE.INTRA.REPUL>
0

>  <SCORE.INTRA.REPUL.0>
0

>  <SCORE.INTRA.SOLV>
0.0335812

>  <SCORE.INTRA.SOLV.lig_0>
-22.5855

>  <SCORE.INTRA.VDW>
0.0503762

>  <SCORE.INTRA.VDW.0>
-0.733656

>  <SCORE.INTRA.norm>
0.131414

>  <SCORE.RESTR>
0.819535

>  <SCORE.RESTR.CAVITY>
0.819535

>  <SCORE.RESTR.norm>
0.0630411

>  <SCORE.SYSTEM>
0

>  <SCORE.SYSTEM.CONST>
0

>  <SCORE.SYSTEM.DIHEDRAL>
0

>  <SCORE.SYSTEM.SOLV>
0

>  <SCORE.SYSTEM.norm>
0

>  <SCORE.heavy>
13

>  <SCORE.norm>
-1.07919

>  <RMSD>
4.638

$$$$
lig.pdb
 OpenBabel11021811453D
libRbt.so/2013.1/901 2013/11/27
 13 14  0  0  0  0  0  0  0  0999 V2000
   -7.6066    3.9541   -8.4590 N   0  0  0  0  0  0  0  0  0  0  0  0
   -6.9494    4.2596   -7.3009 C   0  0  0  0  0  0  0  0  0  0  0  0
   -7.6125    4.3445   -6.1617 N   0  0  0  0  0  0  0  0  0  0  0  0
   -8.9627    4.1367   -6.0884 C   0  0  0  0  0  0  0  0  0  0  0  0
   -9.6945    3.8230   -7.2594 C   0  0  0  0  0  0  0  0  0  0  0  0
   -8.9695    3.7324   -8.4857 C   0  0  0  0  0  0  0  0  0  0  0  0
   -9.5388    3.4676   -9.5301 O   0  0  0  0  0  0  0  0  0  0  0  0
  -11.0955    3.6743   -6.8483 C   0  0  0  0  0  0  0  0  0  0  0  0
  -12.2819    3.3608   -7.7213 C   0  0  0  0  0  0  0  0  0  0  0  0
  -11.9065    3.5100   -9.1336 N   0  0  0  0  0  0  0  0  0  0  0  0
  -11.1172    3.8801   -5.5257 C   0  0  0  0  0  0  0  0  0  0  0  0
   -9.8585    4.1616   -5.0654 N   0  0  0  0  0  0  0  0  0  0  0  0
   -5.5961    4.4789   -7.3242 N   0  0  0  0  0  0  0  0  0  0  0  0
  1  6  1  0  0  0  0
  2  1  1  0  0  0  0
  3  4  1  0  0  0  0
  3  2  2  0  0  0  0
  4  5  2  0  0  0  0
  5  8  1  0  0  0  0
  5  6  1  0  0  0  0
  6  7  2  0  0  0  0
  8  9  1  0  0  0  0
  9 10  1  0  0  0  0
 11  8  2  0  0  0  0
 12  4  1  0  0  0  0
 12 11  1  0  0  0  0
 13  2  1  0  0  0  0
M  END
>  <CHROM.1>
-12.62877223,-31.06678847,-9.29525910,3.90648351,-7.36046153,-0.11192783
-0.13781595,-1.70766681

>  <Name>
lig.pdb

>  <RI>
1.82164e+07

>  <Rbt.Current_Directory>
/home/itssahil/PROJECTS/Mol_Feturizer/New_Systems/rnas/2miy

>  <Rbt.Executable>
rbdock ($Id: //depot/dev/client3/rdock/2013.1/src/exe/rbdock.cxx#4 $)

>  <Rbt.Library>
libRbt.so (2013.1, Build901 2013/11/27)

>  <Rbt.Parameter_File>
/export/apps/rDock/src/rDock_2013.1_src/data/scripts/dock_solv.prm

>  <Rbt.Receptor>
prm/blind_docking_80.prm

>  <SCORE>
-9.0191

>  <SCORE.INTER>
-13.7909

>  <SCORE.INTER.CONST>
1

>  <SCORE.INTER.POLAR>
-3.18203

>  <SCORE.INTER.ROT>
2

>  <SCORE.INTER.SOLV>
16.2668

>  <SCORE.INTER.VDW>
-8.94278

>  <SCORE.INTER.norm>
-1.06084

>  <SCORE.INTRA>
3.86

>  <SCORE.INTRA.DIHEDRAL>
1.60459

>  <SCORE.INTRA.DIHEDRAL.0>
1.76676

>  <SCORE.INTRA.POLAR>
0.420419

>  <SCORE.INTRA.POLAR.0>
-0.472211

>  <SCORE.INTRA.REPUL>
0

>  <SCORE.INTRA.REPUL.0>
0

>  <SCORE.INTRA.SOLV>
0.252312

>  <SCORE.INTRA.SOLV.lig_0>
-22.5855

>  <SCORE.INTRA.VDW>
1.50212

>  <SCORE.INTRA.VDW.0>
-0.733656

>  <SCORE.INTRA.norm>
0.296923

>  <SCORE.RESTR>
0.911816

>  <SCORE.RESTR.CAVITY>
0.911816

>  <SCORE.RESTR.norm>
0.0701397

>  <SCORE.SYSTEM>
0

>  <SCORE.SYSTEM.CONST>
0

>  <SCORE.SYSTEM.DIHEDRAL>
0

>  <SCORE.SYSTEM.SOLV>
0

>  <SCORE.SYSTEM.norm>
0

>  <SCORE.heavy>
13

>  <SCORE.norm>
-0.693777

>  <RMSD>
4.638

$$$$
lig.pdb
 OpenBabel11021811453D
libRbt.so/2013.1/901 2013/11/27
 13 14  0  0  0  0  0  0  0  0999 V2000
   -7.6146    3.9441   -8.4969 N   0  0  0  0  0  0  0  0  0  0  0  0
   -6.9761    4.2450   -7.3273 C   0  0  0  0  0  0  0  0  0  0  0  0
   -7.6577    4.3272   -6.1988 N   0  0  0  0  0  0  0  0  0  0  0  0
   -9.0091    4.1209   -6.1482 C   0  0  0  0  0  0  0  0  0  0  0  0
   -9.7220    3.8118   -7.3320 C   0  0  0  0  0  0  0  0  0  0  0  0
   -8.9772    3.7242   -8.5466 C   0  0  0  0  0  0  0  0  0  0  0  0
   -9.5297    3.4634   -9.6010 O   0  0  0  0  0  0  0  0  0  0  0  0
  -11.1298    3.6637   -6.9444 C   0  0  0  0  0  0  0  0  0  0  0  0
  -12.3021    3.3545   -7.8376 C   0  0  0  0  0  0  0  0  0  0  0  0
  -12.1732    4.1026   -9.0951 N   0  0  0  0  0  0  0  0  0  0  0  0
  -11.1728    3.8654   -5.6217 C   0  0  0  0  0  0  0  0  0  0  0  0
   -9.9215    4.1438   -5.1400 N   0  0  0  0  0  0  0  0  0  0  0  0
   -5.6224    4.4626   -7.3277 N   0  0  0  0  0  0  0  0  0  0  0  0
  1  6  1  0  0  0  0
  2  1  1  0  0  0  0
  3  4  1  0  0  0  0
  3  2  2  0  0  0  0
  4  5  2  0  0  0  0
  5  8  1  0  0  0  0
  5  6  1  0  0  0  0
  6  7  2  0  0  0  0
  8  9  1  0  0  0  0
  9 10  1  0  0  0  0
 11  8  2  0  0  0  0
 12  4  1  0  0  0  0
 12 11  1  0  0  0  0
 13  2  1  0  0  0  0
M  END
>  <CHROM.1>
-40.63154472,-77.19757596,-9.34628500,3.95059183,-7.41251233,-0.10445625
-0.09658662,-1.66269244

>  <Name>
lig.pdb

>  <RI>
1.82164e+07

>  <Rbt.Current_Directory>
/home/itssahil/PROJECTS/Mol_Feturizer/New_Systems/rnas/2miy

>  <Rbt.Executable>
rbdock ($Id: //depot/dev/client3/rdock/2013.1/src/exe/rbdock.cxx#4 $)

>  <Rbt.Library>
libRbt.so (2013.1, Build901 2013/11/27)

>  <Rbt.Parameter_File>
/export/apps/rDock/src/rDock_2013.1_src/data/scripts/dock_solv.prm

>  <Rbt.Receptor>
prm/blind_docking_80.prm

>  <SCORE>
-14.0866

>  <SCORE.INTER>
-16.6368

>  <SCORE.INTER.CONST>
1

>  <SCORE.INTER.POLAR>
-3.20334

>  <SCORE.INTER.ROT>
2

>  <SCORE.INTER.SOLV>
16.5496

>  <SCORE.INTER.VDW>
-10.8633

>  <SCORE.INTER.norm>
-1.27976

>  <SCORE.INTRA>
1.73262

>  <SCORE.INTRA.DIHEDRAL>
0.206527

>  <SCORE.INTRA.DIHEDRAL.0>
1.76676

>  <SCORE.INTRA.POLAR>
0.459283

>  <SCORE.INTRA.POLAR.0>
-0.472211

>  <SCORE.INTRA.REPUL>
0

>  <SCORE.INTRA.REPUL.0>
0

>  <SCORE.INTRA.SOLV>
0.0309573

>  <SCORE.INTRA.SOLV.lig_0>
-22.5855

>  <SCORE.INTRA.VDW>
0.0523131

>  <SCORE.INTRA.VDW.0>
-0.733656

>  <SCORE.INTRA.norm>
0.133278

>  <SCORE.RESTR>
0.817674

>  <SCORE.RESTR.CAVITY>
0.817674

>  <SCORE.RESTR.norm>
0.062898

>  <SCORE.SYSTEM>
0

>  <SCORE.SYSTEM.CONST>
0

>  <SCORE.SYSTEM.DIHEDRAL>
0

>  <SCORE.SYSTEM.SOLV>
0

>  <SCORE.SYSTEM.norm>
0

>  <SCORE.heavy>
13

>  <SCORE.norm>
-1.08358

>  <RMSD>
4.638

$$$$
lig.pdb
 OpenBabel11021811453D
libRbt.so/2013.1/901 2013/11/27
 13 14  0  0  0  0  0  0  0  0999 V2000
   -7.6041    3.9638   -8.4766 N   0  0  0  0  0  0  0  0  0  0  0  0
   -6.9533    4.2524   -7.3106 C   0  0  0  0  0  0  0  0  0  0  0  0
   -7.6233    4.3246   -6.1745 N   0  0  0  0  0  0  0  0  0  0  0  0
   -8.9745    4.1199   -6.1123 C   0  0  0  0  0  0  0  0  0  0  0  0
   -9.6999    3.8234   -7.2917 C   0  0  0  0  0  0  0  0  0  0  0  0
   -8.9674    3.7465   -8.5146 C   0  0  0  0  0  0  0  0  0  0  0  0
   -9.5310    3.4968   -9.5658 O   0  0  0  0  0  0  0  0  0  0  0  0
  -11.1039    3.6737   -6.8914 C   0  0  0  0  0  0  0  0  0  0  0  0
  -12.2856    3.3749   -7.7756 C   0  0  0  0  0  0  0  0  0  0  0  0
  -11.8939    3.5155   -9.1843 N   0  0  0  0  0  0  0  0  0  0  0  0
  -11.1332    3.8625   -5.5664 C   0  0  0  0  0  0  0  0  0  0  0  0
   -9.8766    4.1343   -5.0946 N   0  0  0  0  0  0  0  0  0  0  0  0
   -5.5993    4.4680   -7.3226 N   0  0  0  0  0  0  0  0  0  0  0  0
  1  6  1  0  0  0  0
  2  1  1  0  0  0  0
  3  4  1  0  0  0  0
  3  2  2  0  0  0  0
  4  5  2  0  0  0  0
  5  8  1  0  0  0  0
  5  6  1  0  0  0  0
  6  7  2  0  0  0  0
  8  9  1  0  0  0  0
  9 10  1  0  0  0  0
 11  8  2  0  0  0  0
 12  4  1  0  0  0  0
 12 11  1  0  0  0  0
 13  2  1  0  0  0  0
M  END
>  <CHROM.1>
-11.52724515,155.77394599,-9.29899423,3.90454894,-7.38931749,-0.11833955
-0.13555088,-1.69775778

>  <Name>
lig.pdb

>  <RI>
1.82164e+07

>  <Rbt.Current_Directory>
/home/itssahil/PROJECTS/Mol_Feturizer/New_Systems/rnas/2miy

>  <Rbt.Executable>
rbdock ($Id: //depot/dev/client3/rdock/2013.1/src/exe/rbdock.cxx#4 $)

>  <Rbt.Library>
libRbt.so (2013.1, Build901 2013/11/27)

>  <Rbt.Parameter_File>
/export/apps/rDock/src/rDock_2013.1_src/data/scripts/dock_solv.prm

>  <Rbt.Receptor>
prm/blind_docking_80.prm

>  <SCORE>
-8.99108

>  <SCORE.INTER>
-13.9477

>  <SCORE.INTER.CONST>
1

>  <SCORE.INTER.POLAR>
-3.02358

>  <SCORE.INTER.ROT>
2

>  <SCORE.INTER.SOLV>
16.3352

>  <SCORE.INTER.VDW>
-9.59824

>  <SCORE.INTER.norm>
-1.0729

>  <SCORE.INTRA>
4.08897

>  <SCORE.INTRA.DIHEDRAL>
1.70163

>  <SCORE.INTRA.DIHEDRAL.0>
1.76676

>  <SCORE.INTRA.POLAR>
0.367043

>  <SCORE.INTRA.POLAR.0>
-0.472211

>  <SCORE.INTRA.REPUL>
0

>  <SCORE.INTRA.REPUL.0>
0

>  <SCORE.INTRA.SOLV>
0.275349

>  <SCORE.INTRA.SOLV.lig_0>
-22.5855

>  <SCORE.INTRA.VDW>
1.85253

>  <SCORE.INTRA.VDW.0>
-0.733656

>  <SCORE.INTRA.norm>
0.314536

>  <SCORE.RESTR>
0.867628

>  <SCORE.RESTR.CAVITY>
0.867628

>  <SCORE.RESTR.norm>
0.0667406

>  <SCORE.SYSTEM>
0

>  <SCORE.SYSTEM.CONST>
0

>  <SCORE.SYSTEM.DIHEDRAL>
0

>  <SCORE.SYSTEM.SOLV>
0

>  <SCORE.SYSTEM.norm>
0

>  <SCORE.heavy>
13

>  <SCORE.norm>
-0.691622

>  <RMSD>
4.641

$$$$
lig.pdb
 OpenBabel11021811453D
libRbt.so/2013.1/901 2013/11/27
 13 14  0  0  0  0  0  0  0  0999 V2000
   -7.6875    3.8077   -8.6696 N   0  0  0  0  0  0  0  0  0  0  0  0
   -6.9592    4.0029   -7.5304 C   0  0  0  0  0  0  0  0  0  0  0  0
   -7.5630    4.0688   -6.3574 N   0  0  0  0  0  0  0  0  0  0  0  0
   -8.9197    3.9491   -6.2296 C   0  0  0  0  0  0  0  0  0  0  0  0
   -9.7235    3.7514   -7.3785 C   0  0  0  0  0  0  0  0  0  0  0  0
   -9.0624    3.6805   -8.6416 C   0  0  0  0  0  0  0  0  0  0  0  0
   -9.6952    3.5135   -9.6696 O   0  0  0  0  0  0  0  0  0  0  0  0
  -11.1117    3.6752   -6.9083 C   0  0  0  0  0  0  0  0  0  0  0  0
  -12.3551    3.4919   -7.7378 C   0  0  0  0  0  0  0  0  0  0  0  0
  -12.0173    2.7861   -8.9810 N   0  0  0  0  0  0  0  0  0  0  0  0
  -11.0595    3.8079   -5.5771 C   0  0  0  0  0  0  0  0  0  0  0  0
   -9.7648    3.9774   -5.1644 N   0  0  0  0  0  0  0  0  0  0  0  0
   -5.5963    4.1311   -7.6078 N   0  0  0  0  0  0  0  0  0  0  0  0
  1  6  1  0  0  0  0
  2  1  1  0  0  0  0
  3  4  1  0  0  0  0
  3  2  2  0  0  0  0
  4  5  2  0  0  0  0
  5  8  1  0  0  0  0
  5  6  1  0  0  0  0
  6  7  2  0  0  0  0
  8  9  1  0  0  0  0
  9 10  1  0  0  0  0
 11  8  2  0  0  0  0
 12  4  1  0  0  0  0
 12 11  1  0  0  0  0
 13  2  1  0  0  0  0
M  END
>  <CHROM.1>
26.40570412,17.78981475,-9.32272000,3.72853374,-7.47795155,-0.06068710,-0.12804586
-1.71996280

>  <Name>
lig.pdb

>  <RI>
0

>  <Rbt.Current_Directory>
/home/itssahil/PROJECTS/Mol_Feturizer/New_Systems/rnas/2miy

>  <Rbt.Executable>
rbdock ($Id: //depot/dev/client3/rdock/2013.1/src/exe/rbdock.cxx#4 $)

>  <Rbt.Library>
libRbt.so (2013.1, Build901 2013/11/27)

>  <Rbt.Parameter_File>
/export/apps/rDock/src/rDock_2013.1_src/data/scripts/dock_solv.prm

>  <Rbt.Receptor>
prm/blind_docking_60.prm

>  <SCORE>
-3.21608

>  <SCORE.INTER>
-7.25848

>  <SCORE.INTER.CONST>
1

>  <SCORE.INTER.POLAR>
-2.77007

>  <SCORE.INTER.ROT>
2

>  <SCORE.INTER.SOLV>
17.1818

>  <SCORE.INTER.VDW>
-6.26603

>  <SCORE.INTER.norm>
-0.558344

>  <SCORE.INTRA>
2.90364

>  <SCORE.INTRA.DIHEDRAL>
1.01407

>  <SCORE.INTRA.DIHEDRAL.0>
1.76676

>  <SCORE.INTRA.POLAR>
0.472211

>  <SCORE.INTRA.POLAR.0>
-0.472211

>  <SCORE.INTRA.REPUL>
0

>  <SCORE.INTRA.REPUL.0>
0

>  <SCORE.INTRA.SOLV>
0.172377

>  <SCORE.INTRA.SOLV.lig_0>
-22.5855

>  <SCORE.INTRA.VDW>
0.704896

>  <SCORE.INTRA.VDW.0>
-0.733656

>  <SCORE.INTRA.norm>
0.223357

>  <SCORE.RESTR>
1.13876

>  <SCORE.RESTR.CAVITY>
1.13876

>  <SCORE.RESTR.norm>
0.0875972

>  <SCORE.SYSTEM>
0

>  <SCORE.SYSTEM.CONST>
0

>  <SCORE.SYSTEM.DIHEDRAL>
0

>  <SCORE.SYSTEM.SOLV>
0

>  <SCORE.SYSTEM.norm>
0

>  <SCORE.heavy>
13

>  <SCORE.norm>
-0.247391

>  <RMSD>
4.648

$$$$
lig.pdb
 OpenBabel11021811453D
libRbt.so/2013.1/901 2013/11/27
 13 14  0  0  0  0  0  0  0  0999 V2000
   -7.6287    3.9666   -8.4574 N   0  0  0  0  0  0  0  0  0  0  0  0
   -6.9594    4.2572   -7.3024 C   0  0  0  0  0  0  0  0  0  0  0  0
   -7.6129    4.3419   -6.1576 N   0  0  0  0  0  0  0  0  0  0  0  0
   -8.9647    4.1485   -6.0753 C   0  0  0  0  0  0  0  0  0  0  0  0
   -9.7088    3.8505   -7.2427 C   0  0  0  0  0  0  0  0  0  0  0  0
   -8.9941    3.7600   -8.4751 C   0  0  0  0  0  0  0  0  0  0  0  0
   -9.5742    3.5084   -9.5168 O   0  0  0  0  0  0  0  0  0  0  0  0
  -11.1082    3.7146   -6.8220 C   0  0  0  0  0  0  0  0  0  0  0  0
  -12.3045    3.4198   -7.6878 C   0  0  0  0  0  0  0  0  0  0  0  0
  -11.8551    2.9264   -8.9963 N   0  0  0  0  0  0  0  0  0  0  0  0
  -11.1176    3.9119   -5.4979 C   0  0  0  0  0  0  0  0  0  0  0  0
   -9.8524    4.1765   -5.0454 N   0  0  0  0  0  0  0  0  0  0  0  0
   -5.6040    4.4617   -7.3346 N   0  0  0  0  0  0  0  0  0  0  0  0
  1  6  1  0  0  0  0
  2  1  1  0  0  0  0
  3  4  1  0  0  0  0
  3  2  2  0  0  0  0
  4  5  2  0  0  0  0
  5  8  1  0  0  0  0
  5  6  1  0  0  0  0
  6  7  2  0  0  0  0
  8  9  1  0  0  0  0
  9 10  1  0  0  0  0
 11  8  2  0  0  0  0
 12  4  1  0  0  0  0
 12 11  1  0  0  0  0
 13  2  1  0  0  0  0
M  END
>  <CHROM.1>
15.02793909,-151.71247247,-9.30165158,3.86971869,-7.33643369,-0.11104825
-0.16325643,-1.75448046

>  <Name>
lig.pdb

>  <RI>
3.47783e+07

>  <Rbt.Current_Directory>
/home/itssahil/PROJECTS/Mol_Feturizer/New_Systems/rnas/2miy

>  <Rbt.Executable>
rbdock ($Id: //depot/dev/client3/rdock/2013.1/src/exe/rbdock.cxx#4 $)

>  <Rbt.Library>
libRbt.so (2013.1, Build901 2013/11/27)

>  <Rbt.Parameter_File>
/export/apps/rDock/src/rDock_2013.1_src/data/scripts/dock_solv.prm

>  <Rbt.Receptor>
prm/pocket_docking_8.prm

>  <SCORE>
-6.54742

>  <SCORE.INTER>
-10.2782

>  <SCORE.INTER.CONST>
1

>  <SCORE.INTER.POLAR>
-2.84026

>  <SCORE.INTER.ROT>
2

>  <SCORE.INTER.SOLV>
16.4863

>  <SCORE.INTER.VDW>
-7.81338

>  <SCORE.INTER.norm>
-0.790632

>  <SCORE.INTRA>
3.73079

>  <SCORE.INTRA.DIHEDRAL>
1.52696

>  <SCORE.INTRA.DIHEDRAL.0>
1.76676

>  <SCORE.INTRA.POLAR>
0.421063

>  <SCORE.INTRA.POLAR.0>
-0.472211

>  <SCORE.INTRA.REPUL>
0

>  <SCORE.INTRA.REPUL.0>
0

>  <SCORE.INTRA.SOLV>
0.244104

>  <SCORE.INTRA.SOLV.lig_0>
-22.5855

>  <SCORE.INTRA.VDW>
1.41365

>  <SCORE.INTRA.VDW.0>
-0.733656

>  <SCORE.INTRA.norm>
0.286984

>  <SCORE.RESTR>
0

>  <SCORE.RESTR.CAVITY>
0

>  <SCORE.RESTR.norm>
0

>  <SCORE.SYSTEM>
0

>  <SCORE.SYSTEM.CONST>
0

>  <SCORE.SYSTEM.DIHEDRAL>
0

>  <SCORE.SYSTEM.SOLV>
0

>  <SCORE.SYSTEM.norm>
0

>  <SCORE.heavy>
13

>  <SCORE.norm>
-0.503648

>  <RMSD>
4.649

$$$$
lig.pdb
 OpenBabel11021811453D
libRbt.so/2013.1/901 2013/11/27
 13 14  0  0  0  0  0  0  0  0999 V2000
   -7.6514    3.9634   -8.4461 N   0  0  0  0  0  0  0  0  0  0  0  0
   -6.9825    4.2414   -7.2878 C   0  0  0  0  0  0  0  0  0  0  0  0
   -7.6371    4.3189   -6.1431 N   0  0  0  0  0  0  0  0  0  0  0  0
   -8.9898    4.1301   -6.0642 C   0  0  0  0  0  0  0  0  0  0  0  0
   -9.7335    3.8451   -7.2351 C   0  0  0  0  0  0  0  0  0  0  0  0
   -9.0175    3.7624   -8.4673 C   0  0  0  0  0  0  0  0  0  0  0  0
   -9.5973    3.5220   -9.5118 O   0  0  0  0  0  0  0  0  0  0  0  0
  -11.1340    3.7111   -6.8173 C   0  0  0  0  0  0  0  0  0  0  0  0
  -12.3303    3.4286   -7.6872 C   0  0  0  0  0  0  0  0  0  0  0  0
  -11.8815    2.9316   -8.9946 N   0  0  0  0  0  0  0  0  0  0  0  0
  -11.1443    3.8971   -5.4916 C   0  0  0  0  0  0  0  0  0  0  0  0
   -9.8787    4.1528   -5.0352 N   0  0  0  0  0  0  0  0  0  0  0  0
   -5.6262    4.4409   -7.3164 N   0  0  0  0  0  0  0  0  0  0  0  0
  1  6  1  0  0  0  0
  2  1  1  0  0  0  0
  3  4  1  0  0  0  0
  3  2  2  0  0  0  0
  4  5  2  0  0  0  0
  5  8  1  0  0  0  0
  5  6  1  0  0  0  0
  6  7  2  0  0  0  0
  8  9  1  0  0  0  0
  9 10  1  0  0  0  0
 11  8  2  0  0  0  0
 12  4  1  0  0  0  0
 12 11  1  0  0  0  0
 13  2  1  0  0  0  0
M  END
>  <CHROM.1>
15.59809380,-149.69861450,-9.32618660,3.86231810,-7.32766560,-0.11161904
-0.15988797,-1.74704149

>  <Name>
lig.pdb

>  <RI>
0

>  <Rbt.Current_Directory>
/home/itssahil/PROJECTS/Mol_Feturizer/New_Systems/rnas/2miy

>  <Rbt.Executable>
rbdock ($Id: //depot/dev/client3/rdock/2013.1/src/exe/rbdock.cxx#4 $)

>  <Rbt.Library>
libRbt.so (2013.1, Build901 2013/11/27)

>  <Rbt.Parameter_File>
/export/apps/rDock/src/rDock_2013.1_src/data/scripts/dock_solv.prm

>  <Rbt.Receptor>
prm/pocket_docking_2.prm

>  <SCORE>
-6.07501

>  <SCORE.INTER>
-10.1773

>  <SCORE.INTER.CONST>
1

>  <SCORE.INTER.POLAR>
-2.85965

>  <SCORE.INTER.ROT>
2

>  <SCORE.INTER.SOLV>
16.4576

>  <SCORE.INTER.VDW>
-7.67188

>  <SCORE.INTER.norm>
-0.782868

>  <SCORE.INTRA>
3.67167

>  <SCORE.INTRA.DIHEDRAL>
1.50354

>  <SCORE.INTRA.DIHEDRAL.0>
1.76676

>  <SCORE.INTRA.POLAR>
0.434923

>  <SCORE.INTRA.POLAR.0>
-0.472211

>  <SCORE.INTRA.REPUL>
0

>  <SCORE.INTRA.REPUL.0>
0

>  <SCORE.INTRA.SOLV>
0.235789

>  <SCORE.INTRA.SOLV.lig_0>
-22.5855

>  <SCORE.INTRA.VDW>
1.32326

>  <SCORE.INTRA.VDW.0>
-0.733656

>  <SCORE.INTRA.norm>
0.282436

>  <SCORE.RESTR>
0.430607

>  <SCORE.RESTR.CAVITY>
0.430607

>  <SCORE.RESTR.norm>
0.0331237

>  <SCORE.SYSTEM>
0

>  <SCORE.SYSTEM.CONST>
0

>  <SCORE.SYSTEM.DIHEDRAL>
0

>  <SCORE.SYSTEM.SOLV>
0

>  <SCORE.SYSTEM.norm>
0

>  <SCORE.heavy>
13

>  <SCORE.norm>
-0.467309

>  <RMSD>
4.650

$$$$
lig.pdb
 OpenBabel11021811453D
libRbt.so/2013.1/901 2013/11/27
 13 14  0  0  0  0  0  0  0  0999 V2000
   -7.6349    3.9658   -8.4580 N   0  0  0  0  0  0  0  0  0  0  0  0
   -6.9672    4.2536   -7.3014 C   0  0  0  0  0  0  0  0  0  0  0  0
   -7.6225    4.3364   -6.1574 N   0  0  0  0  0  0  0  0  0  0  0  0
   -8.9745    4.1439   -6.0776 C   0  0  0  0  0  0  0  0  0  0  0  0
   -9.7170    3.8489   -7.2467 C   0  0  0  0  0  0  0  0  0  0  0  0
   -9.0005    3.7603   -8.4782 C   0  0  0  0  0  0  0  0  0  0  0  0
   -9.5792    3.5113   -9.5213 O   0  0  0  0  0  0  0  0  0  0  0  0
  -11.1172    3.7132   -6.8284 C   0  0  0  0  0  0  0  0  0  0  0  0
  -12.3124    3.4211   -7.6968 C   0  0  0  0  0  0  0  0  0  0  0  0
  -11.8614    2.9271   -9.0045 N   0  0  0  0  0  0  0  0  0  0  0  0
  -11.1285    3.9077   -5.5040 C   0  0  0  0  0  0  0  0  0  0  0  0
   -9.8638    4.1704   -5.0490 N   0  0  0  0  0  0  0  0  0  0  0  0
   -5.6117    4.4572   -7.3310 N   0  0  0  0  0  0  0  0  0  0  0  0
  1  6  1  0  0  0  0
  2  1  1  0  0  0  0
  3  4  1  0  0  0  0
  3  2  2  0  0  0  0
  4  5  2  0  0  0  0
  5  8  1  0  0  0  0
  5  6  1  0  0  0  0
  6  7  2  0  0  0  0
  8  9  1  0  0  0  0
  9 10  1  0  0  0  0
 11  8  2  0  0  0  0
 12  4  1  0  0  0  0
 12 11  1  0  0  0  0
 13  2  1  0  0  0  0
M  END
>  <CHROM.1>
15.15539350,-148.40305248,-9.30971888,3.86769575,-7.33969674,-0.11241854
-0.16237301,-1.75282361

>  <Name>
lig.pdb

>  <RI>
2.68696e+07

>  <Rbt.Current_Directory>
/home/itssahil/PROJECTS/Mol_Feturizer/New_Systems/rnas/2miy

>  <Rbt.Executable>
rbdock ($Id: //depot/dev/client3/rdock/2013.1/src/exe/rbdock.cxx#4 $)

>  <Rbt.Library>
libRbt.so (2013.1, Build901 2013/11/27)

>  <Rbt.Parameter_File>
/export/apps/rDock/src/rDock_2013.1_src/data/scripts/dock_solv.prm

>  <Rbt.Receptor>
prm/pocket_docking_4.prm

>  <SCORE>
-6.49858

>  <SCORE.INTER>
-10.1917

>  <SCORE.INTER.CONST>
1

>  <SCORE.INTER.POLAR>
-2.84194

>  <SCORE.INTER.ROT>
2

>  <SCORE.INTER.SOLV>
16.5014

>  <SCORE.INTER.VDW>
-7.75515

>  <SCORE.INTER.norm>
-0.783981

>  <SCORE.INTRA>
3.69317

>  <SCORE.INTRA.DIHEDRAL>
1.52191

>  <SCORE.INTRA.DIHEDRAL.0>
1.76676

>  <SCORE.INTRA.POLAR>
0.435187

>  <SCORE.INTRA.POLAR.0>
-0.472211

>  <SCORE.INTRA.REPUL>
0

>  <SCORE.INTRA.REPUL.0>
0

>  <SCORE.INTRA.SOLV>
0.235909

>  <SCORE.INTRA.SOLV.lig_0>
-22.5855

>  <SCORE.INTRA.VDW>
1.33462

>  <SCORE.INTRA.VDW.0>
-0.733656

>  <SCORE.INTRA.norm>
0.28409

>  <SCORE.RESTR>
0

>  <SCORE.RESTR.CAVITY>
0

>  <SCORE.RESTR.norm>
0

>  <SCORE.SYSTEM>
0

>  <SCORE.SYSTEM.CONST>
0

>  <SCORE.SYSTEM.DIHEDRAL>
0

>  <SCORE.SYSTEM.SOLV>
0

>  <SCORE.SYSTEM.norm>
0

>  <SCORE.heavy>
13

>  <SCORE.norm>
-0.499891

>  <RMSD>
4.650

$$$$
lig.pdb
 OpenBabel11021811453D
libRbt.so/2013.1/901 2013/11/27
 13 14  0  0  0  0  0  0  0  0999 V2000
   -7.6530    3.9630   -8.4464 N   0  0  0  0  0  0  0  0  0  0  0  0
   -6.9854    4.2390   -7.2868 C   0  0  0  0  0  0  0  0  0  0  0  0
   -7.6416    4.3153   -6.1430 N   0  0  0  0  0  0  0  0  0  0  0  0
   -8.9945    4.1275   -6.0662 C   0  0  0  0  0  0  0  0  0  0  0  0
   -9.7368    3.8447   -7.2384 C   0  0  0  0  0  0  0  0  0  0  0  0
   -9.0193    3.7631   -8.4698 C   0  0  0  0  0  0  0  0  0  0  0  0
   -9.5978    3.5247   -9.5155 O   0  0  0  0  0  0  0  0  0  0  0  0
  -11.1381    3.7113   -6.8228 C   0  0  0  0  0  0  0  0  0  0  0  0
  -12.3334    3.4309   -7.6947 C   0  0  0  0  0  0  0  0  0  0  0  0
  -11.8835    2.9254   -8.9985 N   0  0  0  0  0  0  0  0  0  0  0  0
  -11.1500    3.8954   -5.4968 C   0  0  0  0  0  0  0  0  0  0  0  0
   -9.8848    4.1495   -5.0384 N   0  0  0  0  0  0  0  0  0  0  0  0
   -5.6290    4.4374   -7.3134 N   0  0  0  0  0  0  0  0  0  0  0  0
  1  6  1  0  0  0  0
  2  1  1  0  0  0  0
  3  4  1  0  0  0  0
  3  2  2  0  0  0  0
  4  5  2  0  0  0  0
  5  8  1  0  0  0  0
  5  6  1  0  0  0  0
  6  7  2  0  0  0  0
  8  9  1  0  0  0  0
  9 10  1  0  0  0  0
 11  8  2  0  0  0  0
 12  4  1  0  0  0  0
 12 11  1  0  0  0  0
 13  2  1  0  0  0  0
M  END
>  <CHROM.1>
16.03615215,-150.96184112,-9.32944560,3.86082499,-7.33011169,-0.11286430
-0.15946257,-1.74671610

>  <Name>
lig.pdb

>  <RI>
0

>  <Rbt.Current_Directory>
/home/itssahil/PROJECTS/Mol_Feturizer/New_Systems/rnas/2miy

>  <Rbt.Executable>
rbdock ($Id: //depot/dev/client3/rdock/2013.1/src/exe/rbdock.cxx#4 $)

>  <Rbt.Library>
libRbt.so (2013.1, Build901 2013/11/27)

>  <Rbt.Parameter_File>
/export/apps/rDock/src/rDock_2013.1_src/data/scripts/dock_solv.prm

>  <Rbt.Receptor>
prm/pocket_docking_2.prm

>  <SCORE>
-6.07394

>  <SCORE.INTER>
-10.1509

>  <SCORE.INTER.CONST>
1

>  <SCORE.INTER.POLAR>
-2.85458

>  <SCORE.INTER.ROT>
2

>  <SCORE.INTER.SOLV>
16.4676

>  <SCORE.INTER.VDW>
-7.67453

>  <SCORE.INTER.norm>
-0.780839

>  <SCORE.INTRA>
3.65102

>  <SCORE.INTRA.DIHEDRAL>
1.4851

>  <SCORE.INTRA.DIHEDRAL.0>
1.76676

>  <SCORE.INTRA.POLAR>
0.434939

>  <SCORE.INTRA.POLAR.0>
-0.472211

>  <SCORE.INTRA.REPUL>
0

>  <SCORE.INTRA.REPUL.0>
0

>  <SCORE.INTRA.SOLV>
0.235488

>  <SCORE.INTRA.SOLV.lig_0>
-22.5855

>  <SCORE.INTRA.VDW>
1.31193

>  <SCORE.INTRA.VDW.0>
-0.733656

>  <SCORE.INTRA.norm>
0.280848

>  <SCORE.RESTR>
0.425953

>  <SCORE.RESTR.CAVITY>
0.425953

>  <SCORE.RESTR.norm>
0.0327656

>  <SCORE.SYSTEM>
0

>  <SCORE.SYSTEM.CONST>
0

>  <SCORE.SYSTEM.DIHEDRAL>
0

>  <SCORE.SYSTEM.SOLV>
0

>  <SCORE.SYSTEM.norm>
0

>  <SCORE.heavy>
13

>  <SCORE.norm>
-0.467226

>  <RMSD>
4.651

$$$$
lig.pdb
 OpenBabel11021811453D
libRbt.so/2013.1/901 2013/11/27
 13 14  0  0  0  0  0  0  0  0999 V2000
   -7.6513    3.9636   -8.4455 N   0  0  0  0  0  0  0  0  0  0  0  0
   -6.9821    4.2427   -7.2877 C   0  0  0  0  0  0  0  0  0  0  0  0
   -7.6364    4.3206   -6.1428 N   0  0  0  0  0  0  0  0  0  0  0  0
   -8.9889    4.1311   -6.0633 C   0  0  0  0  0  0  0  0  0  0  0  0
   -9.7329    3.8449   -7.2336 C   0  0  0  0  0  0  0  0  0  0  0  0
   -9.0174    3.7617   -8.4660 C   0  0  0  0  0  0  0  0  0  0  0  0
   -9.5974    3.5203   -9.5102 O   0  0  0  0  0  0  0  0  0  0  0  0
  -11.1332    3.7104   -6.8152 C   0  0  0  0  0  0  0  0  0  0  0  0
  -12.3297    3.4266   -7.6844 C   0  0  0  0  0  0  0  0  0  0  0  0
  -11.8814    2.9198   -8.9882 N   0  0  0  0  0  0  0  0  0  0  0  0
  -11.1431    3.8972   -5.4896 C   0  0  0  0  0  0  0  0  0  0  0  0
   -9.8774    4.1540   -5.0339 N   0  0  0  0  0  0  0  0  0  0  0  0
   -5.6260    4.4430   -7.3170 N   0  0  0  0  0  0  0  0  0  0  0  0
  1  6  1  0  0  0  0
  2  1  1  0  0  0  0
  3  4  1  0  0  0  0
  3  2  2  0  0  0  0
  4  5  2  0  0  0  0
  5  8  1  0  0  0  0
  5  6  1  0  0  0  0
  6  7  2  0  0  0  0
  8  9  1  0  0  0  0
  9 10  1  0  0  0  0
 11  8  2  0  0  0  0
 12  4  1  0  0  0  0
 12 11  1  0  0  0  0
 13  2  1  0  0  0  0
M  END
>  <CHROM.1>
16.00478374,29.51236726,-9.32561078,3.86157233,-7.32611308,-0.11124235,-0.16097757
-1.74830340

>  <Name>
lig.pdb

>  <RI>
0

>  <Rbt.Current_Directory>
/home/itssahil/PROJECTS/Mol_Feturizer/New_Systems/rnas/2miy

>  <Rbt.Executable>
rbdock ($Id: //depot/dev/client3/rdock/2013.1/src/exe/rbdock.cxx#4 $)

>  <Rbt.Library>
libRbt.so (2013.1, Build901 2013/11/27)

>  <Rbt.Parameter_File>
/export/apps/rDock/src/rDock_2013.1_src/data/scripts/dock_solv.prm

>  <Rbt.Receptor>
prm/pocket_docking_2.prm

>  <SCORE>
-6.0003

>  <SCORE.INTER>
-10.1198

>  <SCORE.INTER.CONST>
1

>  <SCORE.INTER.POLAR>
-2.86332

>  <SCORE.INTER.ROT>
2

>  <SCORE.INTER.SOLV>
16.4566

>  <SCORE.INTER.VDW>
-7.62098

>  <SCORE.INTER.norm>
-0.778445

>  <SCORE.INTRA>
3.68771

>  <SCORE.INTRA.DIHEDRAL>
1.54712

>  <SCORE.INTRA.DIHEDRAL.0>
1.76676

>  <SCORE.INTRA.POLAR>
0.432894

>  <SCORE.INTRA.POLAR.0>
-0.472211

>  <SCORE.INTRA.REPUL>
0

>  <SCORE.INTRA.REPUL.0>
0

>  <SCORE.INTRA.SOLV>
0.238126

>  <SCORE.INTRA.SOLV.lig_0>
-22.5855

>  <SCORE.INTRA.VDW>
1.32325

>  <SCORE.INTRA.VDW.0>
-0.733656

>  <SCORE.INTRA.norm>
0.28367

>  <SCORE.RESTR>
0.431771

>  <SCORE.RESTR.CAVITY>
0.431771

>  <SCORE.RESTR.norm>
0.0332131

>  <SCORE.SYSTEM>
0

>  <SCORE.SYSTEM.CONST>
0

>  <SCORE.SYSTEM.DIHEDRAL>
0

>  <SCORE.SYSTEM.SOLV>
0

>  <SCORE.SYSTEM.norm>
0

>  <SCORE.heavy>
13

>  <SCORE.norm>
-0.461561

>  <RMSD>
4.651

$$$$
lig.pdb
 OpenBabel11021811453D
libRbt.so/2013.1/901 2013/11/27
 13 14  0  0  0  0  0  0  0  0999 V2000
   -7.6287    3.9645   -8.4528 N   0  0  0  0  0  0  0  0  0  0  0  0
   -6.9610    4.2549   -7.2969 C   0  0  0  0  0  0  0  0  0  0  0  0
   -7.6160    4.3393   -6.1529 N   0  0  0  0  0  0  0  0  0  0  0  0
   -8.9678    4.1458   -6.0724 C   0  0  0  0  0  0  0  0  0  0  0  0
   -9.7104    3.8480   -7.2407 C   0  0  0  0  0  0  0  0  0  0  0  0
   -8.9941    3.7578   -8.4722 C   0  0  0  0  0  0  0  0  0  0  0  0
   -9.5729    3.5064   -9.5147 O   0  0  0  0  0  0  0  0  0  0  0  0
  -11.1104    3.7119   -6.8218 C   0  0  0  0  0  0  0  0  0  0  0  0
  -12.3055    3.4173   -7.6893 C   0  0  0  0  0  0  0  0  0  0  0  0
  -11.8569    2.8586   -8.9715 N   0  0  0  0  0  0  0  0  0  0  0  0
  -11.1214    3.9090   -5.4977 C   0  0  0  0  0  0  0  0  0  0  0  0
   -9.8568    4.1736   -5.0436 N   0  0  0  0  0  0  0  0  0  0  0  0
   -5.6056    4.4596   -7.3272 N   0  0  0  0  0  0  0  0  0  0  0  0
  1  6  1  0  0  0  0
  2  1  1  0  0  0  0
  3  4  1  0  0  0  0
  3  2  2  0  0  0  0
  4  5  2  0  0  0  0
  5  8  1  0  0  0  0
  5  6  1  0  0  0  0
  6  7  2  0  0  0  0
  8  9  1  0  0  0  0
  9 10  1  0  0  0  0
 11  8  2  0  0  0  0
 12  4  1  0  0  0  0
 12 11  1  0  0  0  0
 13  2  1  0  0  0  0
M  END
>  <CHROM.1>
17.94392216,21.22575606,-9.30328903,3.86133452,-7.33157781,-0.11233632,-0.16694662
-1.76005127

>  <Name>
lig.pdb

>  <RI>
1.51961e+07

>  <Rbt.Current_Directory>
/home/itssahil/PROJECTS/Mol_Feturizer/New_Systems/rnas/2miy

>  <Rbt.Executable>
rbdock ($Id: //depot/dev/client3/rdock/2013.1/src/exe/rbdock.cxx#4 $)

>  <Rbt.Library>
libRbt.so (2013.1, Build901 2013/11/27)

>  <Rbt.Parameter_File>
/export/apps/rDock/src/rDock_2013.1_src/data/scripts/dock_solv.prm

>  <Rbt.Receptor>
prm/pocket_docking_3.prm

>  <SCORE>
-6.45877

>  <SCORE.INTER>
-10.1153

>  <SCORE.INTER.CONST>
1

>  <SCORE.INTER.POLAR>
-2.89147

>  <SCORE.INTER.ROT>
2

>  <SCORE.INTER.SOLV>
16.5092

>  <SCORE.INTER.VDW>
-7.5417

>  <SCORE.INTER.norm>
-0.778102

>  <SCORE.INTRA>
3.64826

>  <SCORE.INTRA.DIHEDRAL>
1.45832

>  <SCORE.INTRA.DIHEDRAL.0>
1.76676

>  <SCORE.INTRA.POLAR>
0.427114

>  <SCORE.INTRA.POLAR.0>
-0.472211

>  <SCORE.INTRA.REPUL>
0

>  <SCORE.INTRA.REPUL.0>
0

>  <SCORE.INTRA.SOLV>
0.240579

>  <SCORE.INTRA.SOLV.lig_0>
-22.5855

>  <SCORE.INTRA.VDW>
1.34662

>  <SCORE.INTRA.VDW.0>
-0.733656

>  <SCORE.INTRA.norm>
0.280635

>  <SCORE.RESTR>
0.00829556

>  <SCORE.RESTR.CAVITY>
0.00829556

>  <SCORE.RESTR.norm>
0.00063812

>  <SCORE.SYSTEM>
0

>  <SCORE.SYSTEM.CONST>
0

>  <SCORE.SYSTEM.DIHEDRAL>
0

>  <SCORE.SYSTEM.SOLV>
0

>  <SCORE.SYSTEM.norm>
0

>  <SCORE.heavy>
13

>  <SCORE.norm>
-0.496828

>  <RMSD>
4.652

$$$$
lig.pdb
 OpenBabel11021811453D
libRbt.so/2013.1/901 2013/11/27
 13 14  0  0  0  0  0  0  0  0999 V2000
   -7.6343    3.9726   -8.4557 N   0  0  0  0  0  0  0  0  0  0  0  0
   -6.9683    4.2590   -7.2978 C   0  0  0  0  0  0  0  0  0  0  0  0
   -7.6248    4.3385   -6.1544 N   0  0  0  0  0  0  0  0  0  0  0  0
   -8.9767    4.1437   -6.0764 C   0  0  0  0  0  0  0  0  0  0  0  0
   -9.7174    3.8499   -7.2469 C   0  0  0  0  0  0  0  0  0  0  0  0
   -8.9995    3.7650   -8.4778 C   0  0  0  0  0  0  0  0  0  0  0  0
   -9.5767    3.5172   -9.5220 O   0  0  0  0  0  0  0  0  0  0  0  0
  -11.1179    3.7112   -6.8304 C   0  0  0  0  0  0  0  0  0  0  0  0
  -12.3117    3.4191   -7.7006 C   0  0  0  0  0  0  0  0  0  0  0  0
  -11.8626    2.8383   -8.9729 N   0  0  0  0  0  0  0  0  0  0  0  0
  -11.1308    3.9031   -5.5056 C   0  0  0  0  0  0  0  0  0  0  0  0
   -9.8670    4.1669   -5.0487 N   0  0  0  0  0  0  0  0  0  0  0  0
   -5.6130    4.4648   -7.3256 N   0  0  0  0  0  0  0  0  0  0  0  0
  1  6  1  0  0  0  0
  2  1  1  0  0  0  0
  3  4  1  0  0  0  0
  3  2  2  0  0  0  0
  4  5  2  0  0  0  0
  5  8  1  0  0  0  0
  5  6  1  0  0  0  0
  6  7  2  0  0  0  0
  8  9  1  0  0  0  0
  9 10  1  0  0  0  0
 11  8  2  0  0  0  0
 12  4  1  0  0  0  0
 12 11  1  0  0  0  0
 13  2  1  0  0  0  0
M  END
>  <CHROM.1>
19.17357041,-161.76644480,-9.31045829,3.86119669,-7.33606588,-0.11382912
-0.16917330,-1.75895008

>  <Name>
lig.pdb

>  <RI>
2.60406e+07

>  <Rbt.Current_Directory>
/home/itssahil/PROJECTS/Mol_Feturizer/New_Systems/rnas/2miy

>  <Rbt.Executable>
rbdock ($Id: //depot/dev/client3/rdock/2013.1/src/exe/rbdock.cxx#4 $)

>  <Rbt.Library>
libRbt.so (2013.1, Build901 2013/11/27)

>  <Rbt.Parameter_File>
/export/apps/rDock/src/rDock_2013.1_src/data/scripts/dock_solv.prm

>  <Rbt.Receptor>
prm/pocket_docking_7.prm

>  <SCORE>
-6.52696

>  <SCORE.INTER>
-10.0777

>  <SCORE.INTER.CONST>
1

>  <SCORE.INTER.POLAR>
-2.90098

>  <SCORE.INTER.ROT>
2

>  <SCORE.INTER.SOLV>
16.5453

>  <SCORE.INTER.VDW>
-7.49699

>  <SCORE.INTER.norm>
-0.775211

>  <SCORE.INTRA>
3.55079

>  <SCORE.INTRA.DIHEDRAL>
1.34748

>  <SCORE.INTRA.DIHEDRAL.0>
1.76676

>  <SCORE.INTRA.POLAR>
0.43463

>  <SCORE.INTRA.POLAR.0>
-0.472211

>  <SCORE.INTRA.REPUL>
0

>  <SCORE.INTRA.REPUL.0>
0

>  <SCORE.INTRA.SOLV>
0.233712

>  <SCORE.INTRA.SOLV.lig_0>
-22.5855

>  <SCORE.INTRA.VDW>
1.28245

>  <SCORE.INTRA.VDW.0>
-0.733656

>  <SCORE.INTRA.norm>
0.273138

>  <SCORE.RESTR>
0

>  <SCORE.RESTR.CAVITY>
0

>  <SCORE.RESTR.norm>
0

>  <SCORE.SYSTEM>
0

>  <SCORE.SYSTEM.CONST>
0

>  <SCORE.SYSTEM.DIHEDRAL>
0

>  <SCORE.SYSTEM.SOLV>
0

>  <SCORE.SYSTEM.norm>
0

>  <SCORE.heavy>
13

>  <SCORE.norm>
-0.502074

>  <RMSD>
4.653

$$$$
lig.pdb
 OpenBabel11021811453D
libRbt.so/2013.1/901 2013/11/27
 13 14  0  0  0  0  0  0  0  0999 V2000
   -7.2025    3.2351   -8.4302 N   0  0  0  0  0  0  0  0  0  0  0  0
   -6.6503    3.1447   -7.1839 C   0  0  0  0  0  0  0  0  0  0  0  0
   -7.4018    3.3055   -6.1096 N   0  0  0  0  0  0  0  0  0  0  0  0
   -8.7421    3.5669   -6.1915 C   0  0  0  0  0  0  0  0  0  0  0  0
   -9.3650    3.6769   -7.4585 C   0  0  0  0  0  0  0  0  0  0  0  0
   -8.5453    3.5007   -8.6138 C   0  0  0  0  0  0  0  0  0  0  0  0
   -9.0180    3.5842   -9.7339 O   0  0  0  0  0  0  0  0  0  0  0  0
  -10.7808    3.9675   -7.2034 C   0  0  0  0  0  0  0  0  0  0  0  0
  -11.8701    4.1956   -8.2178 C   0  0  0  0  0  0  0  0  0  0  0  0
  -12.0788    2.9697   -8.9996 N   0  0  0  0  0  0  0  0  0  0  0  0
  -10.9187    3.9966   -5.8721 C   0  0  0  0  0  0  0  0  0  0  0  0
   -9.7145    3.7667   -5.2619 N   0  0  0  0  0  0  0  0  0  0  0  0
   -5.3103    2.8865   -7.0506 N   0  0  0  0  0  0  0  0  0  0  0  0
  1  6  1  0  0  0  0
  2  1  1  0  0  0  0
  3  4  1  0  0  0  0
  3  2  2  0  0  0  0
  4  5  2  0  0  0  0
  5  8  1  0  0  0  0
  5  6  1  0  0  0  0
  6  7  2  0  0  0  0
  8  9  1  0  0  0  0
  9 10  1  0  0  0  0
 11  8  2  0  0  0  0
 12  4  1  0  0  0  0
 12 11  1  0  0  0  0
 13  2  1  0  0  0  0
M  END
>  <CHROM.1>
64.15458908,-166.72646096,-9.02553430,3.49802736,-7.45746963,-0.14468763
0.12503826,-1.66823334

>  <Name>
lig.pdb

>  <RI>
2.95488e+07

>  <Rbt.Current_Directory>
/home/itssahil/PROJECTS/Mol_Feturizer/New_Systems/rnas/2miy

>  <Rbt.Executable>
rbdock ($Id: //depot/dev/client3/rdock/2013.1/src/exe/rbdock.cxx#4 $)

>  <Rbt.Library>
libRbt.so (2013.1, Build901 2013/11/27)

>  <Rbt.Parameter_File>
/export/apps/rDock/src/rDock_2013.1_src/data/scripts/dock_solv.prm

>  <Rbt.Receptor>
prm/blind_docking_20.prm

>  <SCORE>
-7.73633

>  <SCORE.INTER>
-9.25419

>  <SCORE.INTER.CONST>
1

>  <SCORE.INTER.POLAR>
-3.12533

>  <SCORE.INTER.ROT>
2

>  <SCORE.INTER.SOLV>
17.6782

>  <SCORE.INTER.VDW>
-6.57776

>  <SCORE.INTER.norm>
-0.711861

>  <SCORE.INTRA>
1.42164

>  <SCORE.INTRA.DIHEDRAL>
-0.323029

>  <SCORE.INTRA.DIHEDRAL.0>
1.76676

>  <SCORE.INTRA.POLAR>
0.472211

>  <SCORE.INTRA.POLAR.0>
-0.472211

>  <SCORE.INTRA.REPUL>
0

>  <SCORE.INTRA.REPUL.0>
0

>  <SCORE.INTRA.SOLV>
-0.218744

>  <SCORE.INTRA.SOLV.lig_0>
-22.5855

>  <SCORE.INTRA.VDW>
0.0870065

>  <SCORE.INTRA.VDW.0>
-0.733656

>  <SCORE.INTRA.norm>
0.109357

>  <SCORE.RESTR>
0.0962218

>  <SCORE.RESTR.CAVITY>
0.0962218

>  <SCORE.RESTR.norm>
0.00740168

>  <SCORE.SYSTEM>
0

>  <SCORE.SYSTEM.CONST>
0

>  <SCORE.SYSTEM.DIHEDRAL>
0

>  <SCORE.SYSTEM.SOLV>
0

>  <SCORE.SYSTEM.norm>
0

>  <SCORE.heavy>
13

>  <SCORE.norm>
-0.595102

>  <RMSD>
4.671

$$$$
lig.pdb
 OpenBabel11021811453D
libRbt.so/2013.1/901 2013/11/27
 13 14  0  0  0  0  0  0  0  0999 V2000
   -7.2005    3.2402   -8.4284 N   0  0  0  0  0  0  0  0  0  0  0  0
   -6.6526    3.1552   -7.1798 C   0  0  0  0  0  0  0  0  0  0  0  0
   -7.4080    3.3197   -6.1087 N   0  0  0  0  0  0  0  0  0  0  0  0
   -8.7482    3.5799   -6.1964 C   0  0  0  0  0  0  0  0  0  0  0  0
   -9.3667    3.6844   -7.4660 C   0  0  0  0  0  0  0  0  0  0  0  0
   -8.5428    3.5042   -8.6177 C   0  0  0  0  0  0  0  0  0  0  0  0
   -9.0116    3.5829   -9.7398 O   0  0  0  0  0  0  0  0  0  0  0  0
  -10.7835    3.9751   -7.2171 C   0  0  0  0  0  0  0  0  0  0  0  0
  -11.8695    4.1985   -8.2361 C   0  0  0  0  0  0  0  0  0  0  0  0
  -12.0859    2.9644   -9.0029 N   0  0  0  0  0  0  0  0  0  0  0  0
  -10.9262    4.0094   -5.8864 C   0  0  0  0  0  0  0  0  0  0  0  0
   -9.7240    3.7828   -5.2711 N   0  0  0  0  0  0  0  0  0  0  0  0
   -5.3130    2.8984   -7.0407 N   0  0  0  0  0  0  0  0  0  0  0  0
  1  6  1  0  0  0  0
  2  1  1  0  0  0  0
  3  4  1  0  0  0  0
  3  2  2  0  0  0  0
  4  5  2  0  0  0  0
  5  8  1  0  0  0  0
  5  6  1  0  0  0  0
  6  7  2  0  0  0  0
  8  9  1  0  0  0  0
  9 10  1  0  0  0  0
 11  8  2  0  0  0  0
 12  4  1  0  0  0  0
 12 11  1  0  0  0  0
 13  2  1  0  0  0  0
M  END
>  <CHROM.1>
64.83570691,-167.75366413,-9.02816894,3.50535213,-7.46205219,-0.14726495
0.12404871,-1.67183828

>  <Name>
lig.pdb

>  <RI>
2.95488e+07

>  <Rbt.Current_Directory>
/home/itssahil/PROJECTS/Mol_Feturizer/New_Systems/rnas/2miy

>  <Rbt.Executable>
rbdock ($Id: //depot/dev/client3/rdock/2013.1/src/exe/rbdock.cxx#4 $)

>  <Rbt.Library>
libRbt.so (2013.1, Build901 2013/11/27)

>  <Rbt.Parameter_File>
/export/apps/rDock/src/rDock_2013.1_src/data/scripts/dock_solv.prm

>  <Rbt.Receptor>
prm/blind_docking_20.prm

>  <SCORE>
-7.70262

>  <SCORE.INTER>
-9.21587

>  <SCORE.INTER.CONST>
1

>  <SCORE.INTER.POLAR>
-3.1229

>  <SCORE.INTER.ROT>
2

>  <SCORE.INTER.SOLV>
17.6749

>  <SCORE.INTER.VDW>
-6.55922

>  <SCORE.INTER.norm>
-0.708913

>  <SCORE.INTRA>
1.42623

>  <SCORE.INTRA.DIHEDRAL>
-0.312989

>  <SCORE.INTRA.DIHEDRAL.0>
1.76676

>  <SCORE.INTRA.POLAR>
0.472211

>  <SCORE.INTRA.POLAR.0>
-0.472211

>  <SCORE.INTRA.REPUL>
0

>  <SCORE.INTRA.REPUL.0>
0

>  <SCORE.INTRA.SOLV>
-0.226816

>  <SCORE.INTRA.SOLV.lig_0>
-22.5855

>  <SCORE.INTRA.VDW>
0.0906107

>  <SCORE.INTRA.VDW.0>
-0.733656

>  <SCORE.INTRA.norm>
0.10971

>  <SCORE.RESTR>
0.0870251

>  <SCORE.RESTR.CAVITY>
0.0870251

>  <SCORE.RESTR.norm>
0.00669423

>  <SCORE.SYSTEM>
0

>  <SCORE.SYSTEM.CONST>
0

>  <SCORE.SYSTEM.DIHEDRAL>
0

>  <SCORE.SYSTEM.SOLV>
0

>  <SCORE.SYSTEM.norm>
0

>  <SCORE.heavy>
13

>  <SCORE.norm>
-0.592509

>  <RMSD>
4.673

$$$$
lig.pdb
 OpenBabel11021811453D
libRbt.so/2013.1/901 2013/11/27
 13 14  0  0  0  0  0  0  0  0999 V2000
   -7.2020    3.2420   -8.4294 N   0  0  0  0  0  0  0  0  0  0  0  0
   -6.6526    3.1547   -7.1817 C   0  0  0  0  0  0  0  0  0  0  0  0
   -7.4069    3.3158   -6.1093 N   0  0  0  0  0  0  0  0  0  0  0  0
   -8.7475    3.5747   -6.1949 C   0  0  0  0  0  0  0  0  0  0  0  0
   -9.3676    3.6815   -7.4635 C   0  0  0  0  0  0  0  0  0  0  0  0
   -8.5448    3.5049   -8.6166 C   0  0  0  0  0  0  0  0  0  0  0  0
   -9.0150    3.5857   -9.7379 O   0  0  0  0  0  0  0  0  0  0  0  0
  -10.7845    3.9700   -7.2122 C   0  0  0  0  0  0  0  0  0  0  0  0
  -11.8719    4.1946   -8.2295 C   0  0  0  0  0  0  0  0  0  0  0  0
  -12.0857    2.9629   -9.0009 N   0  0  0  0  0  0  0  0  0  0  0  0
  -10.9256    4.0010   -5.8813 C   0  0  0  0  0  0  0  0  0  0  0  0
   -9.7224    3.7743   -5.2679 N   0  0  0  0  0  0  0  0  0  0  0  0
   -5.3125    2.8991   -7.0448 N   0  0  0  0  0  0  0  0  0  0  0  0
  1  6  1  0  0  0  0
  2  1  1  0  0  0  0
  3  4  1  0  0  0  0
  3  2  2  0  0  0  0
  4  5  2  0  0  0  0
  5  8  1  0  0  0  0
  5  6  1  0  0  0  0
  6  7  2  0  0  0  0
  8  9  1  0  0  0  0
  9 10  1  0  0  0  0
 11  8  2  0  0  0  0
 12  4  1  0  0  0  0
 12 11  1  0  0  0  0
 13  2  1  0  0  0  0
M  END
>  <CHROM.1>
64.71316386,13.79671471,-9.02853814,3.50290719,-7.46063127,-0.14646942,0.12300261
-1.66956748

>  <Name>
lig.pdb

>  <RI>
2.95488e+07

>  <Rbt.Current_Directory>
/home/itssahil/PROJECTS/Mol_Feturizer/New_Systems/rnas/2miy

>  <Rbt.Executable>
rbdock ($Id: //depot/dev/client3/rdock/2013.1/src/exe/rbdock.cxx#4 $)

>  <Rbt.Library>
libRbt.so (2013.1, Build901 2013/11/27)

>  <Rbt.Parameter_File>
/export/apps/rDock/src/rDock_2013.1_src/data/scripts/dock_solv.prm

>  <Rbt.Receptor>
prm/blind_docking_20.prm

>  <SCORE>
-7.83934

>  <SCORE.INTER>
-9.37382

>  <SCORE.INTER.CONST>
1

>  <SCORE.INTER.POLAR>
-3.16836

>  <SCORE.INTER.ROT>
2

>  <SCORE.INTER.SOLV>
17.6776

>  <SCORE.INTER.VDW>
-6.51388

>  <SCORE.INTER.norm>
-0.721063

>  <SCORE.INTRA>
1.44557

>  <SCORE.INTRA.DIHEDRAL>
-0.275271

>  <SCORE.INTRA.DIHEDRAL.0>
1.76676

>  <SCORE.INTRA.POLAR>
0.472211

>  <SCORE.INTRA.POLAR.0>
-0.472211

>  <SCORE.INTRA.REPUL>
0

>  <SCORE.INTRA.REPUL.0>
0

>  <SCORE.INTRA.SOLV>
-0.223222

>  <SCORE.INTRA.SOLV.lig_0>
-22.5855

>  <SCORE.INTRA.VDW>
0.0892946

>  <SCORE.INTRA.VDW.0>
-0.733656

>  <SCORE.INTRA.norm>
0.111197

>  <SCORE.RESTR>
0.0889197

>  <SCORE.RESTR.CAVITY>
0.0889197

>  <SCORE.RESTR.norm>
0.00683998

>  <SCORE.SYSTEM>
0

>  <SCORE.SYSTEM.CONST>
0

>  <SCORE.SYSTEM.DIHEDRAL>
0

>  <SCORE.SYSTEM.SOLV>
0

>  <SCORE.SYSTEM.norm>
0

>  <SCORE.heavy>
13

>  <SCORE.norm>
-0.603026

>  <RMSD>
4.673

$$$$
lig.pdb
 OpenBabel11021811453D
libRbt.so/2013.1/901 2013/11/27
 13 14  0  0  0  0  0  0  0  0999 V2000
   -7.2510    3.2590   -8.4171 N   0  0  0  0  0  0  0  0  0  0  0  0
   -6.6924    3.1685   -7.1736 C   0  0  0  0  0  0  0  0  0  0  0  0
   -7.4424    3.3083   -6.0952 N   0  0  0  0  0  0  0  0  0  0  0  0
   -8.7872    3.5477   -6.1701 C   0  0  0  0  0  0  0  0  0  0  0  0
   -9.4167    3.6568   -7.4338 C   0  0  0  0  0  0  0  0  0  0  0  0
   -8.5987    3.5034   -8.5936 C   0  0  0  0  0  0  0  0  0  0  0  0
   -9.0771    3.5874   -9.7112 O   0  0  0  0  0  0  0  0  0  0  0  0
  -10.8362    3.9216   -7.1712 C   0  0  0  0  0  0  0  0  0  0  0  0
  -11.9332    4.1391   -8.1796 C   0  0  0  0  0  0  0  0  0  0  0  0
  -12.1021    2.9269   -8.9919 N   0  0  0  0  0  0  0  0  0  0  0  0
  -10.9695    3.9382   -5.8392 C   0  0  0  0  0  0  0  0  0  0  0  0
   -9.7591    3.7240   -5.2354 N   0  0  0  0  0  0  0  0  0  0  0  0
   -5.3478    2.9319   -7.0473 N   0  0  0  0  0  0  0  0  0  0  0  0
  1  6  1  0  0  0  0
  2  1  1  0  0  0  0
  3  4  1  0  0  0  0
  3  2  2  0  0  0  0
  4  5  2  0  0  0  0
  5  8  1  0  0  0  0
  5  6  1  0  0  0  0
  6  7  2  0  0  0  0
  8  9  1  0  0  0  0
  9 10  1  0  0  0  0
 11  8  2  0  0  0  0
 12  4  1  0  0  0  0
 12 11  1  0  0  0  0
 13  2  1  0  0  0  0
M  END
>  <CHROM.1>
62.78944165,-168.27546107,-9.07227492,3.48478178,-7.43750965,-0.14441860
0.10933551,-1.66074271

>  <Name>
lig.pdb

>  <RI>
4.2128e+07

>  <Rbt.Current_Directory>
/home/itssahil/PROJECTS/Mol_Feturizer/New_Systems/rnas/2miy

>  <Rbt.Executable>
rbdock ($Id: //depot/dev/client3/rdock/2013.1/src/exe/rbdock.cxx#4 $)

>  <Rbt.Library>
libRbt.so (2013.1, Build901 2013/11/27)

>  <Rbt.Parameter_File>
/export/apps/rDock/src/rDock_2013.1_src/data/scripts/dock_solv.prm

>  <Rbt.Receptor>
prm/pocket_docking_5.prm

>  <SCORE>
-7.68399

>  <SCORE.INTER>
-9.16149

>  <SCORE.INTER.CONST>
1

>  <SCORE.INTER.POLAR>
-3.02271

>  <SCORE.INTER.ROT>
2

>  <SCORE.INTER.SOLV>
17.6455

>  <SCORE.INTER.VDW>
-6.84712

>  <SCORE.INTER.norm>
-0.70473

>  <SCORE.INTRA>
1.42003

>  <SCORE.INTRA.DIHEDRAL>
-0.334594

>  <SCORE.INTRA.DIHEDRAL.0>
1.76676

>  <SCORE.INTRA.POLAR>
0.472211

>  <SCORE.INTRA.POLAR.0>
-0.472211

>  <SCORE.INTRA.REPUL>
0

>  <SCORE.INTRA.REPUL.0>
0

>  <SCORE.INTRA.SOLV>
-0.202342

>  <SCORE.INTRA.SOLV.lig_0>
-22.5855

>  <SCORE.INTRA.VDW>
0.0829752

>  <SCORE.INTRA.VDW.0>
-0.733656

>  <SCORE.INTRA.norm>
0.109233

>  <SCORE.RESTR>
0.0574741

>  <SCORE.RESTR.CAVITY>
0.0574741

>  <SCORE.RESTR.norm>
0.00442109

>  <SCORE.SYSTEM>
0

>  <SCORE.SYSTEM.CONST>
0

>  <SCORE.SYSTEM.DIHEDRAL>
0

>  <SCORE.SYSTEM.SOLV>
0

>  <SCORE.SYSTEM.norm>
0

>  <SCORE.heavy>
13

>  <SCORE.norm>
-0.591076

>  <RMSD>
4.674

$$$$
lig.pdb
 OpenBabel11021811453D
libRbt.so/2013.1/901 2013/11/27
 13 14  0  0  0  0  0  0  0  0999 V2000
   -7.2683    3.2633   -8.4233 N   0  0  0  0  0  0  0  0  0  0  0  0
   -6.7068    3.1748   -7.1810 C   0  0  0  0  0  0  0  0  0  0  0  0
   -7.4547    3.3137   -6.1010 N   0  0  0  0  0  0  0  0  0  0  0  0
   -8.8002    3.5501   -6.1731 C   0  0  0  0  0  0  0  0  0  0  0  0
   -9.4328    3.6569   -7.4355 C   0  0  0  0  0  0  0  0  0  0  0  0
   -8.6170    3.5044   -8.5969 C   0  0  0  0  0  0  0  0  0  0  0  0
   -9.0981    3.5866   -9.7135 O   0  0  0  0  0  0  0  0  0  0  0  0
  -10.8523    3.9186   -7.1699 C   0  0  0  0  0  0  0  0  0  0  0  0
  -11.9520    4.1329   -8.1760 C   0  0  0  0  0  0  0  0  0  0  0  0
  -12.1078    2.9262   -8.9990 N   0  0  0  0  0  0  0  0  0  0  0  0
  -10.9826    3.9359   -5.8376 C   0  0  0  0  0  0  0  0  0  0  0  0
   -9.7705    3.7248   -5.2363 N   0  0  0  0  0  0  0  0  0  0  0  0
   -5.3614    2.9414   -7.0575 N   0  0  0  0  0  0  0  0  0  0  0  0
  1  6  1  0  0  0  0
  2  1  1  0  0  0  0
  3  4  1  0  0  0  0
  3  2  2  0  0  0  0
  4  5  2  0  0  0  0
  5  8  1  0  0  0  0
  5  6  1  0  0  0  0
  6  7  2  0  0  0  0
  8  9  1  0  0  0  0
  9 10  1  0  0  0  0
 11  8  2  0  0  0  0
 12  4  1  0  0  0  0
 12 11  1  0  0  0  0
 13  2  1  0  0  0  0
M  END
>  <CHROM.1>
62.03573721,-168.20060496,-9.08683124,3.48617765,-7.44090697,-0.14349591
0.10765738,-1.66154079

>  <Name>
lig.pdb

>  <RI>
2.60406e+07

>  <Rbt.Current_Directory>
/home/itssahil/PROJECTS/Mol_Feturizer/New_Systems/rnas/2miy

>  <Rbt.Executable>
rbdock ($Id: //depot/dev/client3/rdock/2013.1/src/exe/rbdock.cxx#4 $)

>  <Rbt.Library>
libRbt.so (2013.1, Build901 2013/11/27)

>  <Rbt.Parameter_File>
/export/apps/rDock/src/rDock_2013.1_src/data/scripts/dock_solv.prm

>  <Rbt.Receptor>
prm/pocket_docking_7.prm

>  <SCORE>
-7.63308

>  <SCORE.INTER>
-9.09078

>  <SCORE.INTER.CONST>
1

>  <SCORE.INTER.POLAR>
-2.97014

>  <SCORE.INTER.ROT>
2

>  <SCORE.INTER.SOLV>
17.6497

>  <SCORE.INTER.VDW>
-6.97662

>  <SCORE.INTER.norm>
-0.699291

>  <SCORE.INTRA>
1.41912

>  <SCORE.INTRA.DIHEDRAL>
-0.339749

>  <SCORE.INTRA.DIHEDRAL.0>
1.76676

>  <SCORE.INTRA.POLAR>
0.472211

>  <SCORE.INTRA.POLAR.0>
-0.472211

>  <SCORE.INTRA.REPUL>
0

>  <SCORE.INTRA.REPUL.0>
0

>  <SCORE.INTRA.SOLV>
-0.193391

>  <SCORE.INTRA.SOLV.lig_0>
-22.5855

>  <SCORE.INTRA.VDW>
0.0801706

>  <SCORE.INTRA.VDW.0>
-0.733656

>  <SCORE.INTRA.norm>
0.109163

>  <SCORE.RESTR>
0.0385847

>  <SCORE.RESTR.CAVITY>
0.0385847

>  <SCORE.RESTR.norm>
0.00296805

>  <SCORE.SYSTEM>
0

>  <SCORE.SYSTEM.CONST>
0

>  <SCORE.SYSTEM.DIHEDRAL>
0

>  <SCORE.SYSTEM.SOLV>
0

>  <SCORE.SYSTEM.norm>
0

>  <SCORE.heavy>
13

>  <SCORE.norm>
-0.58716

>  <RMSD>
4.674

$$$$
lig.pdb
 OpenBabel11021811453D
libRbt.so/2013.1/901 2013/11/27
 13 14  0  0  0  0  0  0  0  0999 V2000
   -7.2495    3.2578   -8.4156 N   0  0  0  0  0  0  0  0  0  0  0  0
   -6.6912    3.1678   -7.1720 C   0  0  0  0  0  0  0  0  0  0  0  0
   -7.4411    3.3090   -6.0938 N   0  0  0  0  0  0  0  0  0  0  0  0
   -8.7857    3.5495   -6.1690 C   0  0  0  0  0  0  0  0  0  0  0  0
   -9.4151    3.6581   -7.4329 C   0  0  0  0  0  0  0  0  0  0  0  0
   -8.5970    3.5031   -8.5924 C   0  0  0  0  0  0  0  0  0  0  0  0
   -9.0752    3.5867   -9.7102 O   0  0  0  0  0  0  0  0  0  0  0  0
  -10.8343    3.9242   -7.1706 C   0  0  0  0  0  0  0  0  0  0  0  0
  -11.9311    4.1419   -8.1793 C   0  0  0  0  0  0  0  0  0  0  0  0
  -12.1029    2.9282   -8.9887 N   0  0  0  0  0  0  0  0  0  0  0  0
  -10.9677    3.9420   -5.8387 C   0  0  0  0  0  0  0  0  0  0  0  0
   -9.7576    3.7272   -5.2345 N   0  0  0  0  0  0  0  0  0  0  0  0
   -5.3468    2.9302   -7.0454 N   0  0  0  0  0  0  0  0  0  0  0  0
  1  6  1  0  0  0  0
  2  1  1  0  0  0  0
  3  4  1  0  0  0  0
  3  2  2  0  0  0  0
  4  5  2  0  0  0  0
  5  8  1  0  0  0  0
  5  6  1  0  0  0  0
  6  7  2  0  0  0  0
  8  9  1  0  0  0  0
  9 10  1  0  0  0  0
 11  8  2  0  0  0  0
 12  4  1  0  0  0  0
 12 11  1  0  0  0  0
 13  2  1  0  0  0  0
M  END
>  <CHROM.1>
62.91260613,-168.29433633,-9.07092356,3.48569135,-7.43622333,-0.14427685
0.11001291,-1.66150711

>  <Name>
lig.pdb

>  <RI>
2.60406e+07

>  <Rbt.Current_Directory>
/home/itssahil/PROJECTS/Mol_Feturizer/New_Systems/rnas/2miy

>  <Rbt.Executable>
rbdock ($Id: //depot/dev/client3/rdock/2013.1/src/exe/rbdock.cxx#4 $)

>  <Rbt.Library>
libRbt.so (2013.1, Build901 2013/11/27)

>  <Rbt.Parameter_File>
/export/apps/rDock/src/rDock_2013.1_src/data/scripts/dock_solv.prm

>  <Rbt.Receptor>
prm/pocket_docking_7.prm

>  <SCORE>
-7.69228

>  <SCORE.INTER>
-9.16577

>  <SCORE.INTER.CONST>
1

>  <SCORE.INTER.POLAR>
-3.02864

>  <SCORE.INTER.ROT>
2

>  <SCORE.INTER.SOLV>
17.6391

>  <SCORE.INTER.VDW>
-6.82809

>  <SCORE.INTER.norm>
-0.70506

>  <SCORE.INTRA>
1.42027

>  <SCORE.INTRA.DIHEDRAL>
-0.333581

>  <SCORE.INTRA.DIHEDRAL.0>
1.76676

>  <SCORE.INTRA.POLAR>
0.472211

>  <SCORE.INTRA.POLAR.0>
-0.472211

>  <SCORE.INTRA.REPUL>
0

>  <SCORE.INTRA.REPUL.0>
0

>  <SCORE.INTRA.SOLV>
-0.203807

>  <SCORE.INTRA.SOLV.lig_0>
-22.5855

>  <SCORE.INTRA.VDW>
0.0834504

>  <SCORE.INTRA.VDW.0>
-0.733656

>  <SCORE.INTRA.norm>
0.109252

>  <SCORE.RESTR>
0.0532247

>  <SCORE.RESTR.CAVITY>
0.0532247

>  <SCORE.RESTR.norm>
0.00409421

>  <SCORE.SYSTEM>
0

>  <SCORE.SYSTEM.CONST>
0

>  <SCORE.SYSTEM.DIHEDRAL>
0

>  <SCORE.SYSTEM.SOLV>
0

>  <SCORE.SYSTEM.norm>
0

>  <SCORE.heavy>
13

>  <SCORE.norm>
-0.591714

>  <RMSD>
4.674

$$$$
lig.pdb
 OpenBabel11021811453D
libRbt.so/2013.1/901 2013/11/27
 13 14  0  0  0  0  0  0  0  0999 V2000
   -7.2615    3.2628   -8.4222 N   0  0  0  0  0  0  0  0  0  0  0  0
   -6.7023    3.1751   -7.1788 C   0  0  0  0  0  0  0  0  0  0  0  0
   -7.4523    3.3132   -6.1003 N   0  0  0  0  0  0  0  0  0  0  0  0
   -8.7979    3.5479   -6.1749 C   0  0  0  0  0  0  0  0  0  0  0  0
   -9.4283    3.6539   -7.4384 C   0  0  0  0  0  0  0  0  0  0  0  0
   -8.6102    3.5023   -8.5983 C   0  0  0  0  0  0  0  0  0  0  0  0
   -9.0893    3.5838   -9.7159 O   0  0  0  0  0  0  0  0  0  0  0  0
  -10.8486    3.9139   -7.1755 C   0  0  0  0  0  0  0  0  0  0  0  0
  -11.9468    4.1268   -8.1837 C   0  0  0  0  0  0  0  0  0  0  0  0
  -12.1085    2.9151   -8.9980 N   0  0  0  0  0  0  0  0  0  0  0  0
  -10.9814    3.9311   -5.8435 C   0  0  0  0  0  0  0  0  0  0  0  0
   -9.7701    3.7216   -5.2399 N   0  0  0  0  0  0  0  0  0  0  0  0
   -5.3568    2.9433   -7.0528 N   0  0  0  0  0  0  0  0  0  0  0  0
  1  6  1  0  0  0  0
  2  1  1  0  0  0  0
  3  4  1  0  0  0  0
  3  2  2  0  0  0  0
  4  5  2  0  0  0  0
  5  8  1  0  0  0  0
  5  6  1  0  0  0  0
  6  7  2  0  0  0  0
  8  9  1  0  0  0  0
  9 10  1  0  0  0  0
 11  8  2  0  0  0  0
 12  4  1  0  0  0  0
 12 11  1  0  0  0  0
 13  2  1  0  0  0  0
M  END
>  <CHROM.1>
62.59010560,-167.79825903,-9.08297039,3.48314053,-7.44237770,-0.14466053
0.10604398,-1.66150469

>  <Name>
lig.pdb

>  <RI>
4.2128e+07

>  <Rbt.Current_Directory>
/home/itssahil/PROJECTS/Mol_Feturizer/New_Systems/rnas/2miy

>  <Rbt.Executable>
rbdock ($Id: //depot/dev/client3/rdock/2013.1/src/exe/rbdock.cxx#4 $)

>  <Rbt.Library>
libRbt.so (2013.1, Build901 2013/11/27)

>  <Rbt.Parameter_File>
/export/apps/rDock/src/rDock_2013.1_src/data/scripts/dock_solv.prm

>  <Rbt.Receptor>
prm/pocket_docking_5.prm

>  <SCORE>
-7.66446

>  <SCORE.INTER>
-9.1317

>  <SCORE.INTER.CONST>
1

>  <SCORE.INTER.POLAR>
-3.02095

>  <SCORE.INTER.ROT>
2

>  <SCORE.INTER.SOLV>
17.6658

>  <SCORE.INTER.VDW>
-6.83987

>  <SCORE.INTER.norm>
-0.702438

>  <SCORE.INTRA>
1.41903

>  <SCORE.INTRA.DIHEDRAL>
-0.3367

>  <SCORE.INTRA.DIHEDRAL.0>
1.76676

>  <SCORE.INTRA.POLAR>
0.472211

>  <SCORE.INTRA.POLAR.0>
-0.472211

>  <SCORE.INTRA.REPUL>
0

>  <SCORE.INTRA.REPUL.0>
0

>  <SCORE.INTRA.SOLV>
-0.200011

>  <SCORE.INTRA.SOLV.lig_0>
-22.5855

>  <SCORE.INTRA.VDW>
0.0818726

>  <SCORE.INTRA.VDW.0>
-0.733656

>  <SCORE.INTRA.norm>
0.109157

>  <SCORE.RESTR>
0.0482041

>  <SCORE.RESTR.CAVITY>
0.0482041

>  <SCORE.RESTR.norm>
0.00370801

>  <SCORE.SYSTEM>
0

>  <SCORE.SYSTEM.CONST>
0

>  <SCORE.SYSTEM.DIHEDRAL>
0

>  <SCORE.SYSTEM.SOLV>
0

>  <SCORE.SYSTEM.norm>
0

>  <SCORE.heavy>
13

>  <SCORE.norm>
-0.589574

>  <RMSD>
4.675

$$$$
lig.pdb
 OpenBabel11021811453D
libRbt.so/2013.1/901 2013/11/27
 13 14  0  0  0  0  0  0  0  0999 V2000
   -7.2670    3.2758   -8.4232 N   0  0  0  0  0  0  0  0  0  0  0  0
   -6.7065    3.1907   -7.1803 C   0  0  0  0  0  0  0  0  0  0  0  0
   -7.4560    3.3275   -6.1012 N   0  0  0  0  0  0  0  0  0  0  0  0
   -8.8024    3.5584   -6.1749 C   0  0  0  0  0  0  0  0  0  0  0  0
   -9.4341    3.6616   -7.4380 C   0  0  0  0  0  0  0  0  0  0  0  0
   -8.6164    3.5115   -8.5985 C   0  0  0  0  0  0  0  0  0  0  0  0
   -9.0966    3.5908   -9.7157 O   0  0  0  0  0  0  0  0  0  0  0  0
  -10.8548    3.9179   -7.1741 C   0  0  0  0  0  0  0  0  0  0  0  0
  -11.9544    4.1271   -8.1816 C   0  0  0  0  0  0  0  0  0  0  0  0
  -12.1077    2.9173   -9.0006 N   0  0  0  0  0  0  0  0  0  0  0  0
  -10.9867    3.9358   -5.8420 C   0  0  0  0  0  0  0  0  0  0  0  0
   -9.7743    3.7300   -5.2393 N   0  0  0  0  0  0  0  0  0  0  0  0
   -5.3603    2.9627   -7.0552 N   0  0  0  0  0  0  0  0  0  0  0  0
  1  6  1  0  0  0  0
  2  1  1  0  0  0  0
  3  4  1  0  0  0  0
  3  2  2  0  0  0  0
  4  5  2  0  0  0  0
  5  8  1  0  0  0  0
  5  6  1  0  0  0  0
  6  7  2  0  0  0  0
  8  9  1  0  0  0  0
  9 10  1  0  0  0  0
 11  8  2  0  0  0  0
 12  4  1  0  0  0  0
 12 11  1  0  0  0  0
 13  2  1  0  0  0  0
M  END
>  <CHROM.1>
62.23455551,-168.02197744,-9.08769531,3.49216703,-7.44267212,-0.14463522
0.10358624,-1.66223389

>  <Name>
lig.pdb

>  <RI>
9.06885e+06

>  <Rbt.Current_Directory>
/home/itssahil/PROJECTS/Mol_Feturizer/New_Systems/rnas/2miy

>  <Rbt.Executable>
rbdock ($Id: //depot/dev/client3/rdock/2013.1/src/exe/rbdock.cxx#4 $)

>  <Rbt.Library>
libRbt.so (2013.1, Build901 2013/11/27)

>  <Rbt.Parameter_File>
/export/apps/rDock/src/rDock_2013.1_src/data/scripts/dock_solv.prm

>  <Rbt.Receptor>
prm/pocket_docking_6.prm

>  <SCORE>
-7.57443

>  <SCORE.INTER>
-9.06438

>  <SCORE.INTER.CONST>
1

>  <SCORE.INTER.POLAR>
-2.99338

>  <SCORE.INTER.ROT>
2

>  <SCORE.INTER.SOLV>
17.6414

>  <SCORE.INTER.VDW>
-6.87879

>  <SCORE.INTER.norm>
-0.69726

>  <SCORE.INTRA>
1.41898

>  <SCORE.INTRA.DIHEDRAL>
-0.338806

>  <SCORE.INTRA.DIHEDRAL.0>
1.76676

>  <SCORE.INTRA.POLAR>
0.472211

>  <SCORE.INTRA.POLAR.0>
-0.472211

>  <SCORE.INTRA.REPUL>
0

>  <SCORE.INTRA.REPUL.0>
0

>  <SCORE.INTRA.SOLV>
-0.195767

>  <SCORE.INTRA.SOLV.lig_0>
-22.5855

>  <SCORE.INTRA.VDW>
0.0807479

>  <SCORE.INTRA.VDW.0>
-0.733656

>  <SCORE.INTRA.norm>
0.109152

>  <SCORE.RESTR>
0.0709684

>  <SCORE.RESTR.CAVITY>
0.0709684

>  <SCORE.RESTR.norm>
0.00545911

>  <SCORE.SYSTEM>
0

>  <SCORE.SYSTEM.CONST>
0

>  <SCORE.SYSTEM.DIHEDRAL>
0

>  <SCORE.SYSTEM.SOLV>
0

>  <SCORE.SYSTEM.norm>
0

>  <SCORE.heavy>
13

>  <SCORE.norm>
-0.582648

>  <RMSD>
4.675

$$$$
lig.pdb
 OpenBabel11021811453D
libRbt.so/2013.1/901 2013/11/27
 13 14  0  0  0  0  0  0  0  0999 V2000
   -7.2632    3.2644   -8.4208 N   0  0  0  0  0  0  0  0  0  0  0  0
   -6.7052    3.1718   -7.1772 C   0  0  0  0  0  0  0  0  0  0  0  0
   -7.4560    3.3075   -6.0989 N   0  0  0  0  0  0  0  0  0  0  0  0
   -8.8012    3.5447   -6.1740 C   0  0  0  0  0  0  0  0  0  0  0  0
   -9.4303    3.6558   -7.4378 C   0  0  0  0  0  0  0  0  0  0  0  0
   -8.6113    3.5068   -8.5974 C   0  0  0  0  0  0  0  0  0  0  0  0
   -9.0892    3.5927   -9.7151 O   0  0  0  0  0  0  0  0  0  0  0  0
  -10.8504    3.9173   -7.1753 C   0  0  0  0  0  0  0  0  0  0  0  0
  -11.9472    4.1354   -8.1838 C   0  0  0  0  0  0  0  0  0  0  0  0
  -12.1121    2.9256   -9.0005 N   0  0  0  0  0  0  0  0  0  0  0  0
  -10.9844    3.9304   -5.8434 C   0  0  0  0  0  0  0  0  0  0  0  0
   -9.7740    3.7169   -5.2394 N   0  0  0  0  0  0  0  0  0  0  0  0
   -5.3602    2.9373   -7.0508 N   0  0  0  0  0  0  0  0  0  0  0  0
  1  6  1  0  0  0  0
  2  1  1  0  0  0  0
  3  4  1  0  0  0  0
  3  2  2  0  0  0  0
  4  5  2  0  0  0  0
  5  8  1  0  0  0  0
  5  6  1  0  0  0  0
  6  7  2  0  0  0  0
  8  9  1  0  0  0  0
  9 10  1  0  0  0  0
 11  8  2  0  0  0  0
 12  4  1  0  0  0  0
 12 11  1  0  0  0  0
 13  2  1  0  0  0  0
M  END
>  <CHROM.1>
62.70782228,-168.25460299,-9.08535779,3.48446869,-7.44182584,-0.14527924
0.10764303,-1.65815031

>  <Name>
lig.pdb

>  <RI>
2.60406e+07

>  <Rbt.Current_Directory>
/home/itssahil/PROJECTS/Mol_Feturizer/New_Systems/rnas/2miy

>  <Rbt.Executable>
rbdock ($Id: //depot/dev/client3/rdock/2013.1/src/exe/rbdock.cxx#4 $)

>  <Rbt.Library>
libRbt.so (2013.1, Build901 2013/11/27)

>  <Rbt.Parameter_File>
/export/apps/rDock/src/rDock_2013.1_src/data/scripts/dock_solv.prm

>  <Rbt.Receptor>
prm/pocket_docking_7.prm

>  <SCORE>
-7.65862

>  <SCORE.INTER>
-9.11823

>  <SCORE.INTER.CONST>
1

>  <SCORE.INTER.POLAR>
-2.99554

>  <SCORE.INTER.ROT>
2

>  <SCORE.INTER.SOLV>
17.6665

>  <SCORE.INTER.VDW>
-6.91585

>  <SCORE.INTER.norm>
-0.701402

>  <SCORE.INTRA>
1.41986

>  <SCORE.INTRA.DIHEDRAL>
-0.33525

>  <SCORE.INTRA.DIHEDRAL.0>
1.76676

>  <SCORE.INTRA.POLAR>
0.472211

>  <SCORE.INTRA.POLAR.0>
-0.472211

>  <SCORE.INTRA.REPUL>
0

>  <SCORE.INTRA.REPUL.0>
0

>  <SCORE.INTRA.SOLV>
-0.201373

>  <SCORE.INTRA.SOLV.lig_0>
-22.5855

>  <SCORE.INTRA.VDW>
0.0826559

>  <SCORE.INTRA.VDW.0>
-0.733656

>  <SCORE.INTRA.norm>
0.10922

>  <SCORE.RESTR>
0.0397501

>  <SCORE.RESTR.CAVITY>
0.0397501

>  <SCORE.RESTR.norm>
0.0030577

>  <SCORE.SYSTEM>
0

>  <SCORE.SYSTEM.CONST>
0

>  <SCORE.SYSTEM.DIHEDRAL>
0

>  <SCORE.SYSTEM.SOLV>
0

>  <SCORE.SYSTEM.norm>
0

>  <SCORE.heavy>
13

>  <SCORE.norm>
-0.589125

>  <RMSD>
4.675

$$$$
lig.pdb
 OpenBabel11021811453D
libRbt.so/2013.1/901 2013/11/27
 13 14  0  0  0  0  0  0  0  0999 V2000
   -7.2582    3.2607   -8.4172 N   0  0  0  0  0  0  0  0  0  0  0  0
   -6.7018    3.1705   -7.1728 C   0  0  0  0  0  0  0  0  0  0  0  0
   -7.4541    3.3076   -6.0957 N   0  0  0  0  0  0  0  0  0  0  0  0
   -8.7993    3.5437   -6.1729 C   0  0  0  0  0  0  0  0  0  0  0  0
   -9.4268    3.6523   -7.4377 C   0  0  0  0  0  0  0  0  0  0  0  0
   -8.6062    3.5018   -8.5960 C   0  0  0  0  0  0  0  0  0  0  0  0
   -9.0827    3.5856   -9.7145 O   0  0  0  0  0  0  0  0  0  0  0  0
  -10.8474    3.9134   -7.1775 C   0  0  0  0  0  0  0  0  0  0  0  0
  -11.9431    4.1290   -8.1878 C   0  0  0  0  0  0  0  0  0  0  0  0
  -12.1175    2.9119   -8.9916 N   0  0  0  0  0  0  0  0  0  0  0  0
  -10.9832    3.9286   -5.8458 C   0  0  0  0  0  0  0  0  0  0  0  0
   -9.7735    3.7169   -5.2398 N   0  0  0  0  0  0  0  0  0  0  0  0
   -5.3568    2.9371   -7.0442 N   0  0  0  0  0  0  0  0  0  0  0  0
  1  6  1  0  0  0  0
  2  1  1  0  0  0  0
  3  4  1  0  0  0  0
  3  2  2  0  0  0  0
  4  5  2  0  0  0  0
  5  8  1  0  0  0  0
  5  6  1  0  0  0  0
  6  7  2  0  0  0  0
  8  9  1  0  0  0  0
  9 10  1  0  0  0  0
 11  8  2  0  0  0  0
 12  4  1  0  0  0  0
 12 11  1  0  0  0  0
 13  2  1  0  0  0  0
M  END
>  <CHROM.1>
63.41048995,-169.98300935,-9.08282816,3.48063817,-7.43996254,-0.14558957
0.10641321,-1.65985224

>  <Name>
lig.pdb

>  <RI>
1.51961e+07

>  <Rbt.Current_Directory>
/home/itssahil/PROJECTS/Mol_Feturizer/New_Systems/rnas/2miy

>  <Rbt.Executable>
rbdock ($Id: //depot/dev/client3/rdock/2013.1/src/exe/rbdock.cxx#4 $)

>  <Rbt.Library>
libRbt.so (2013.1, Build901 2013/11/27)

>  <Rbt.Parameter_File>
/export/apps/rDock/src/rDock_2013.1_src/data/scripts/dock_solv.prm

>  <Rbt.Receptor>
prm/pocket_docking_3.prm

>  <SCORE>
-7.64964

>  <SCORE.INTER>
-9.12118

>  <SCORE.INTER.CONST>
1

>  <SCORE.INTER.POLAR>
-2.99058

>  <SCORE.INTER.ROT>
2

>  <SCORE.INTER.SOLV>
17.6732

>  <SCORE.INTER.VDW>
-6.9366

>  <SCORE.INTER.norm>
-0.70163

>  <SCORE.INTRA>
1.42374

>  <SCORE.INTRA.DIHEDRAL>
-0.326901

>  <SCORE.INTRA.DIHEDRAL.0>
1.76676

>  <SCORE.INTRA.POLAR>
0.472211

>  <SCORE.INTRA.POLAR.0>
-0.472211

>  <SCORE.INTRA.REPUL>
0

>  <SCORE.INTRA.REPUL.0>
0

>  <SCORE.INTRA.SOLV>
-0.2096

>  <SCORE.INTRA.SOLV.lig_0>
-22.5855

>  <SCORE.INTRA.VDW>
0.0864738

>  <SCORE.INTRA.VDW.0>
-0.733656

>  <SCORE.INTRA.norm>
0.109519

>  <SCORE.RESTR>
0.0478035

>  <SCORE.RESTR.CAVITY>
0.0478035

>  <SCORE.RESTR.norm>
0.00367719

>  <SCORE.SYSTEM>
0

>  <SCORE.SYSTEM.CONST>
0

>  <SCORE.SYSTEM.DIHEDRAL>
0

>  <SCORE.SYSTEM.SOLV>
0

>  <SCORE.SYSTEM.norm>
0

>  <SCORE.heavy>
13

>  <SCORE.norm>
-0.588434

>  <RMSD>
4.676

$$$$
lig.pdb
 OpenBabel11021811453D
libRbt.so/2013.1/901 2013/11/27
 13 14  0  0  0  0  0  0  0  0999 V2000
   -7.2699    3.2649   -8.4205 N   0  0  0  0  0  0  0  0  0  0  0  0
   -6.7124    3.1745   -7.1765 C   0  0  0  0  0  0  0  0  0  0  0  0
   -7.4640    3.3097   -6.0987 N   0  0  0  0  0  0  0  0  0  0  0  0
   -8.8097    3.5439   -6.1747 C   0  0  0  0  0  0  0  0  0  0  0  0
   -9.4383    3.6526   -7.4389 C   0  0  0  0  0  0  0  0  0  0  0  0
   -8.6184    3.5042   -8.5980 C   0  0  0  0  0  0  0  0  0  0  0  0
   -9.0959    3.5881   -9.7160 O   0  0  0  0  0  0  0  0  0  0  0  0
  -10.8591    3.9113   -7.1774 C   0  0  0  0  0  0  0  0  0  0  0  0
  -11.9558    4.1261   -8.1867 C   0  0  0  0  0  0  0  0  0  0  0  0
  -12.1163    2.9160   -9.0037 N   0  0  0  0  0  0  0  0  0  0  0  0
  -10.9938    3.9253   -5.8456 C   0  0  0  0  0  0  0  0  0  0  0  0
   -9.7833    3.7149   -5.2407 N   0  0  0  0  0  0  0  0  0  0  0  0
   -5.3670    2.9431   -7.0491 N   0  0  0  0  0  0  0  0  0  0  0  0
  1  6  1  0  0  0  0
  2  1  1  0  0  0  0
  3  4  1  0  0  0  0
  3  2  2  0  0  0  0
  4  5  2  0  0  0  0
  5  8  1  0  0  0  0
  5  6  1  0  0  0  0
  6  7  2  0  0  0  0
  8  9  1  0  0  0  0
  9 10  1  0  0  0  0
 11  8  2  0  0  0  0
 12  4  1  0  0  0  0
 12 11  1  0  0  0  0
 13  2  1  0  0  0  0
M  END
>  <CHROM.1>
62.62209027,12.39515316,-9.09275069,3.48205530,-7.44283416,-0.14618841,0.10574380
-1.65893092

>  <Name>
lig.pdb

>  <RI>
4.2128e+07

>  <Rbt.Current_Directory>
/home/itssahil/PROJECTS/Mol_Feturizer/New_Systems/rnas/2miy

>  <Rbt.Executable>
rbdock ($Id: //depot/dev/client3/rdock/2013.1/src/exe/rbdock.cxx#4 $)

>  <Rbt.Library>
libRbt.so (2013.1, Build901 2013/11/27)

>  <Rbt.Parameter_File>
/export/apps/rDock/src/rDock_2013.1_src/data/scripts/dock_solv.prm

>  <Rbt.Receptor>
prm/pocket_docking_5.prm

>  <SCORE>
-7.78877

>  <SCORE.INTER>
-9.26581

>  <SCORE.INTER.CONST>
1

>  <SCORE.INTER.POLAR>
-3.01191

>  <SCORE.INTER.ROT>
2

>  <SCORE.INTER.SOLV>
17.6713

>  <SCORE.INTER.VDW>
-6.96125

>  <SCORE.INTER.norm>
-0.712755

>  <SCORE.INTRA>
1.43928

>  <SCORE.INTRA.DIHEDRAL>
-0.298811

>  <SCORE.INTRA.DIHEDRAL.0>
1.76676

>  <SCORE.INTRA.POLAR>
0.472211

>  <SCORE.INTRA.POLAR.0>
-0.472211

>  <SCORE.INTRA.REPUL>
0

>  <SCORE.INTRA.REPUL.0>
0

>  <SCORE.INTRA.SOLV>
-0.198206

>  <SCORE.INTRA.SOLV.lig_0>
-22.5855

>  <SCORE.INTRA.VDW>
0.0822661

>  <SCORE.INTRA.VDW.0>
-0.733656

>  <SCORE.INTRA.norm>
0.110713

>  <SCORE.RESTR>
0.0377662

>  <SCORE.RESTR.CAVITY>
0.0377662

>  <SCORE.RESTR.norm>
0.00290509

>  <SCORE.SYSTEM>
0

>  <SCORE.SYSTEM.CONST>
0

>  <SCORE.SYSTEM.DIHEDRAL>
0

>  <SCORE.SYSTEM.SOLV>
0

>  <SCORE.SYSTEM.norm>
0

>  <SCORE.heavy>
13

>  <SCORE.norm>
-0.599136

>  <RMSD>
4.676

$$$$
lig.pdb
 OpenBabel11021811453D
libRbt.so/2013.1/901 2013/11/27
 13 14  0  0  0  0  0  0  0  0999 V2000
   -7.2649    3.2678   -8.4223 N   0  0  0  0  0  0  0  0  0  0  0  0
   -6.7086    3.1739   -7.1780 C   0  0  0  0  0  0  0  0  0  0  0  0
   -7.4613    3.3061   -6.1006 N   0  0  0  0  0  0  0  0  0  0  0  0
   -8.8069    3.5406   -6.1772 C   0  0  0  0  0  0  0  0  0  0  0  0
   -9.4343    3.6528   -7.4417 C   0  0  0  0  0  0  0  0  0  0  0  0
   -8.6133    3.5076   -8.6004 C   0  0  0  0  0  0  0  0  0  0  0  0
   -9.0897    3.5947   -9.7186 O   0  0  0  0  0  0  0  0  0  0  0  0
  -10.8553    3.9108   -7.1808 C   0  0  0  0  0  0  0  0  0  0  0  0
  -11.9511    4.1285   -8.1905 C   0  0  0  0  0  0  0  0  0  0  0  0
  -12.1209    2.9155   -9.0013 N   0  0  0  0  0  0  0  0  0  0  0  0
  -10.9913    3.9210   -5.8490 C   0  0  0  0  0  0  0  0  0  0  0  0
   -9.7814    3.7089   -5.2436 N   0  0  0  0  0  0  0  0  0  0  0  0
   -5.3634    2.9421   -7.0500 N   0  0  0  0  0  0  0  0  0  0  0  0
  1  6  1  0  0  0  0
  2  1  1  0  0  0  0
  3  4  1  0  0  0  0
  3  2  2  0  0  0  0
  4  5  2  0  0  0  0
  5  8  1  0  0  0  0
  5  6  1  0  0  0  0
  6  7  2  0  0  0  0
  8  9  1  0  0  0  0
  9 10  1  0  0  0  0
 11  8  2  0  0  0  0
 12  4  1  0  0  0  0
 12 11  1  0  0  0  0
 13  2  1  0  0  0  0
M  END
>  <CHROM.1>
63.24057657,11.53334039,-9.08969160,3.48178315,-7.44484279,-0.14622875,0.10522072
-1.65614364

>  <Name>
lig.pdb

>  <RI>
2.60406e+07

>  <Rbt.Current_Directory>
/home/itssahil/PROJECTS/Mol_Feturizer/New_Systems/rnas/2miy

>  <Rbt.Executable>
rbdock ($Id: //depot/dev/client3/rdock/2013.1/src/exe/rbdock.cxx#4 $)

>  <Rbt.Library>
libRbt.so (2013.1, Build901 2013/11/27)

>  <Rbt.Parameter_File>
/export/apps/rDock/src/rDock_2013.1_src/data/scripts/dock_solv.prm

>  <Rbt.Receptor>
prm/pocket_docking_7.prm

>  <SCORE>
-7.81834

>  <SCORE.INTER>
-9.29557

>  <SCORE.INTER.CONST>
1

>  <SCORE.INTER.POLAR>
-3.0121

>  <SCORE.INTER.ROT>
2

>  <SCORE.INTER.SOLV>
17.6897

>  <SCORE.INTER.VDW>
-6.98662

>  <SCORE.INTER.norm>
-0.715044

>  <SCORE.INTRA>
1.44058

>  <SCORE.INTRA.DIHEDRAL>
-0.294788

>  <SCORE.INTRA.DIHEDRAL.0>
1.76676

>  <SCORE.INTRA.POLAR>
0.472211

>  <SCORE.INTRA.POLAR.0>
-0.472211

>  <SCORE.INTRA.REPUL>
0

>  <SCORE.INTRA.REPUL.0>
0

>  <SCORE.INTRA.SOLV>
-0.205512

>  <SCORE.INTRA.SOLV.lig_0>
-22.5855

>  <SCORE.INTRA.VDW>
0.0852142

>  <SCORE.INTRA.VDW.0>
-0.733656

>  <SCORE.INTRA.norm>
0.110814

>  <SCORE.RESTR>
0.036649

>  <SCORE.RESTR.CAVITY>
0.036649

>  <SCORE.RESTR.norm>
0.00281915

>  <SCORE.SYSTEM>
0

>  <SCORE.SYSTEM.CONST>
0

>  <SCORE.SYSTEM.DIHEDRAL>
0

>  <SCORE.SYSTEM.SOLV>
0

>  <SCORE.SYSTEM.norm>
0

>  <SCORE.heavy>
13

>  <SCORE.norm>
-0.601411

>  <RMSD>
4.676

$$$$
lig.pdb
 OpenBabel11021811453D
libRbt.so/2013.1/901 2013/11/27
 13 14  0  0  0  0  0  0  0  0999 V2000
   -7.2694    3.2652   -8.4218 N   0  0  0  0  0  0  0  0  0  0  0  0
   -6.7123    3.1751   -7.1777 C   0  0  0  0  0  0  0  0  0  0  0  0
   -7.4642    3.3105   -6.1001 N   0  0  0  0  0  0  0  0  0  0  0  0
   -8.8098    3.5449   -6.1765 C   0  0  0  0  0  0  0  0  0  0  0  0
   -9.4381    3.6533   -7.4410 C   0  0  0  0  0  0  0  0  0  0  0  0
   -8.6179    3.5046   -8.5998 C   0  0  0  0  0  0  0  0  0  0  0  0
   -9.0951    3.5883   -9.7179 O   0  0  0  0  0  0  0  0  0  0  0  0
  -10.8589    3.9122   -7.1799 C   0  0  0  0  0  0  0  0  0  0  0  0
  -11.9554    4.1269   -8.1895 C   0  0  0  0  0  0  0  0  0  0  0  0
  -12.1186    2.9151   -9.0035 N   0  0  0  0  0  0  0  0  0  0  0  0
  -10.9941    3.9265   -5.8481 C   0  0  0  0  0  0  0  0  0  0  0  0
   -9.7837    3.7161   -5.2429 N   0  0  0  0  0  0  0  0  0  0  0  0
   -5.3669    2.9436   -7.0499 N   0  0  0  0  0  0  0  0  0  0  0  0
  1  6  1  0  0  0  0
  2  1  1  0  0  0  0
  3  4  1  0  0  0  0
  3  2  2  0  0  0  0
  4  5  2  0  0  0  0
  5  8  1  0  0  0  0
  5  6  1  0  0  0  0
  6  7  2  0  0  0  0
  8  9  1  0  0  0  0
  9 10  1  0  0  0  0
 11  8  2  0  0  0  0
 12  4  1  0  0  0  0
 12 11  1  0  0  0  0
 13  2  1  0  0  0  0
M  END
>  <CHROM.1>
62.79929676,11.50128357,-9.09282432,3.48261132,-7.44446865,-0.14619340,0.10566954
-1.65919894

>  <Name>
lig.pdb

>  <RI>
2.60406e+07

>  <Rbt.Current_Directory>
/home/itssahil/PROJECTS/Mol_Feturizer/New_Systems/rnas/2miy

>  <Rbt.Executable>
rbdock ($Id: //depot/dev/client3/rdock/2013.1/src/exe/rbdock.cxx#4 $)

>  <Rbt.Library>
libRbt.so (2013.1, Build901 2013/11/27)

>  <Rbt.Parameter_File>
/export/apps/rDock/src/rDock_2013.1_src/data/scripts/dock_solv.prm

>  <Rbt.Receptor>
prm/pocket_docking_7.prm

>  <SCORE>
-7.79877

>  <SCORE.INTER>
-9.27152

>  <SCORE.INTER.CONST>
1

>  <SCORE.INTER.POLAR>
-2.99133

>  <SCORE.INTER.ROT>
2

>  <SCORE.INTER.SOLV>
17.6771

>  <SCORE.INTER.VDW>
-7.03562

>  <SCORE.INTER.norm>
-0.713194

>  <SCORE.INTRA>
1.43966

>  <SCORE.INTRA.DIHEDRAL>
-0.298593

>  <SCORE.INTRA.DIHEDRAL.0>
1.76676

>  <SCORE.INTRA.POLAR>
0.472211

>  <SCORE.INTRA.POLAR.0>
-0.472211

>  <SCORE.INTRA.REPUL>
0

>  <SCORE.INTRA.REPUL.0>
0

>  <SCORE.INTRA.SOLV>
-0.200256

>  <SCORE.INTRA.SOLV.lig_0>
-22.5855

>  <SCORE.INTRA.VDW>
0.0835661

>  <SCORE.INTRA.VDW.0>
-0.733656

>  <SCORE.INTRA.norm>
0.110743

>  <SCORE.RESTR>
0.0330869

>  <SCORE.RESTR.CAVITY>
0.0330869

>  <SCORE.RESTR.norm>
0.00254514

>  <SCORE.SYSTEM>
0

>  <SCORE.SYSTEM.CONST>
0

>  <SCORE.SYSTEM.DIHEDRAL>
0

>  <SCORE.SYSTEM.SOLV>
0

>  <SCORE.SYSTEM.norm>
0

>  <SCORE.heavy>
13

>  <SCORE.norm>
-0.599906

>  <RMSD>
4.676

$$$$
lig.pdb
 OpenBabel11021811453D
libRbt.so/2013.1/901 2013/11/27
 13 14  0  0  0  0  0  0  0  0999 V2000
   -7.2722    3.2742   -8.4219 N   0  0  0  0  0  0  0  0  0  0  0  0
   -6.7125    3.1870   -7.1787 C   0  0  0  0  0  0  0  0  0  0  0  0
   -7.4629    3.3203   -6.0999 N   0  0  0  0  0  0  0  0  0  0  0  0
   -8.8096    3.5495   -6.1740 C   0  0  0  0  0  0  0  0  0  0  0  0
   -9.4405    3.6547   -7.4373 C   0  0  0  0  0  0  0  0  0  0  0  0
   -8.6219    3.5084   -8.5975 C   0  0  0  0  0  0  0  0  0  0  0  0
   -9.1014    3.5896   -9.7149 O   0  0  0  0  0  0  0  0  0  0  0  0
  -10.8618    3.9085   -7.1738 C   0  0  0  0  0  0  0  0  0  0  0  0
  -11.9609    4.1183   -8.1816 C   0  0  0  0  0  0  0  0  0  0  0  0
  -12.1105    2.9111   -9.0050 N   0  0  0  0  0  0  0  0  0  0  0  0
  -10.9946    3.9230   -5.8418 C   0  0  0  0  0  0  0  0  0  0  0  0
   -9.7824    3.7176   -5.2386 N   0  0  0  0  0  0  0  0  0  0  0  0
   -5.3660    2.9606   -7.0532 N   0  0  0  0  0  0  0  0  0  0  0  0
  1  6  1  0  0  0  0
  2  1  1  0  0  0  0
  3  4  1  0  0  0  0
  3  2  2  0  0  0  0
  4  5  2  0  0  0  0
  5  8  1  0  0  0  0
  5  6  1  0  0  0  0
  6  7  2  0  0  0  0
  8  9  1  0  0  0  0
  9 10  1  0  0  0  0
 11  8  2  0  0  0  0
 12  4  1  0  0  0  0
 12 11  1  0  0  0  0
 13  2  1  0  0  0  0
M  END
>  <CHROM.1>
62.13935427,-167.51963849,-9.09377062,3.48584102,-7.44223747,-0.14561472
0.10235250,-1.65981840

>  <Name>
lig.pdb

>  <RI>
3.47783e+07

>  <Rbt.Current_Directory>
/home/itssahil/PROJECTS/Mol_Feturizer/New_Systems/rnas/2miy

>  <Rbt.Executable>
rbdock ($Id: //depot/dev/client3/rdock/2013.1/src/exe/rbdock.cxx#4 $)

>  <Rbt.Library>
libRbt.so (2013.1, Build901 2013/11/27)

>  <Rbt.Parameter_File>
/export/apps/rDock/src/rDock_2013.1_src/data/scripts/dock_solv.prm

>  <Rbt.Receptor>
prm/pocket_docking_8.prm

>  <SCORE>
-7.5812

>  <SCORE.INTER>
-9.06661

>  <SCORE.INTER.CONST>
1

>  <SCORE.INTER.POLAR>
-2.99935

>  <SCORE.INTER.ROT>
2

>  <SCORE.INTER.SOLV>
17.6568

>  <SCORE.INTER.VDW>
-6.86551

>  <SCORE.INTER.norm>
-0.697431

>  <SCORE.INTRA>
1.41819

>  <SCORE.INTRA.DIHEDRAL>
-0.340008

>  <SCORE.INTRA.DIHEDRAL.0>
1.76676

>  <SCORE.INTRA.POLAR>
0.472211

>  <SCORE.INTRA.POLAR.0>
-0.472211

>  <SCORE.INTRA.REPUL>
0

>  <SCORE.INTRA.REPUL.0>
0

>  <SCORE.INTRA.SOLV>
-0.194681

>  <SCORE.INTRA.SOLV.lig_0>
-22.5855

>  <SCORE.INTRA.VDW>
0.0800119

>  <SCORE.INTRA.VDW.0>
-0.733656

>  <SCORE.INTRA.norm>
0.109091

>  <SCORE.RESTR>
0.0672186

>  <SCORE.RESTR.CAVITY>
0.0672186

>  <SCORE.RESTR.norm>
0.00517067

>  <SCORE.SYSTEM>
0

>  <SCORE.SYSTEM.CONST>
0

>  <SCORE.SYSTEM.DIHEDRAL>
0

>  <SCORE.SYSTEM.SOLV>
0

>  <SCORE.SYSTEM.norm>
0

>  <SCORE.heavy>
13

>  <SCORE.norm>
-0.583169

>  <RMSD>
4.676

$$$$
lig.pdb
 OpenBabel11021811453D
libRbt.so/2013.1/901 2013/11/27
 13 14  0  0  0  0  0  0  0  0999 V2000
   -7.2699    3.2767   -8.4236 N   0  0  0  0  0  0  0  0  0  0  0  0
   -6.7098    3.1890   -7.1807 C   0  0  0  0  0  0  0  0  0  0  0  0
   -7.4601    3.3209   -6.1015 N   0  0  0  0  0  0  0  0  0  0  0  0
   -8.8069    3.5490   -6.1751 C   0  0  0  0  0  0  0  0  0  0  0  0
   -9.4383    3.6548   -7.4382 C   0  0  0  0  0  0  0  0  0  0  0  0
   -8.6198    3.5099   -8.5988 C   0  0  0  0  0  0  0  0  0  0  0  0
   -9.0997    3.5916   -9.7159 O   0  0  0  0  0  0  0  0  0  0  0  0
  -10.8598    3.9071   -7.1742 C   0  0  0  0  0  0  0  0  0  0  0  0
  -11.9593    4.1169   -8.1815 C   0  0  0  0  0  0  0  0  0  0  0  0
  -12.1154    2.9062   -8.9985 N   0  0  0  0  0  0  0  0  0  0  0  0
  -10.9922    3.9206   -5.8421 C   0  0  0  0  0  0  0  0  0  0  0  0
   -9.7797    3.7157   -5.2394 N   0  0  0  0  0  0  0  0  0  0  0  0
   -5.3631    2.9636   -7.0557 N   0  0  0  0  0  0  0  0  0  0  0  0
  1  6  1  0  0  0  0
  2  1  1  0  0  0  0
  3  4  1  0  0  0  0
  3  2  2  0  0  0  0
  4  5  2  0  0  0  0
  5  8  1  0  0  0  0
  5  6  1  0  0  0  0
  6  7  2  0  0  0  0
  8  9  1  0  0  0  0
  9 10  1  0  0  0  0
 11  8  2  0  0  0  0
 12  4  1  0  0  0  0
 12 11  1  0  0  0  0
 13  2  1  0  0  0  0
M  END
>  <CHROM.1>
62.59564548,12.03470996,-9.09196264,3.48580588,-7.44277845,-0.14481967,0.10113992
-1.65918652

>  <Name>
lig.pdb

>  <RI>
3.47783e+07

>  <Rbt.Current_Directory>
/home/itssahil/PROJECTS/Mol_Feturizer/New_Systems/rnas/2miy

>  <Rbt.Executable>
rbdock ($Id: //depot/dev/client3/rdock/2013.1/src/exe/rbdock.cxx#4 $)

>  <Rbt.Library>
libRbt.so (2013.1, Build901 2013/11/27)

>  <Rbt.Parameter_File>
/export/apps/rDock/src/rDock_2013.1_src/data/scripts/dock_solv.prm

>  <Rbt.Receptor>
prm/pocket_docking_8.prm

>  <SCORE>
-7.75363

>  <SCORE.INTER>
-9.26039

>  <SCORE.INTER.CONST>
1

>  <SCORE.INTER.POLAR>
-3.01607

>  <SCORE.INTER.ROT>
2

>  <SCORE.INTER.SOLV>
17.6642

>  <SCORE.INTER.VDW>
-6.94142

>  <SCORE.INTER.norm>
-0.712337

>  <SCORE.INTRA>
1.43929

>  <SCORE.INTRA.DIHEDRAL>
-0.299454

>  <SCORE.INTRA.DIHEDRAL.0>
1.76676

>  <SCORE.INTRA.POLAR>
0.472211

>  <SCORE.INTRA.POLAR.0>
-0.472211

>  <SCORE.INTRA.REPUL>
0

>  <SCORE.INTRA.REPUL.0>
0

>  <SCORE.INTRA.SOLV>
-0.197869

>  <SCORE.INTRA.SOLV.lig_0>
-22.5855

>  <SCORE.INTRA.VDW>
0.0824351

>  <SCORE.INTRA.VDW.0>
-0.733656

>  <SCORE.INTRA.norm>
0.110715

>  <SCORE.RESTR>
0.0674652

>  <SCORE.RESTR.CAVITY>
0.0674652

>  <SCORE.RESTR.norm>
0.00518963

>  <SCORE.SYSTEM>
0

>  <SCORE.SYSTEM.CONST>
0

>  <SCORE.SYSTEM.DIHEDRAL>
0

>  <SCORE.SYSTEM.SOLV>
0

>  <SCORE.SYSTEM.norm>
0

>  <SCORE.heavy>
13

>  <SCORE.norm>
-0.596433

>  <RMSD>
4.676

$$$$
lig.pdb
 OpenBabel11021811453D
libRbt.so/2013.1/901 2013/11/27
 13 14  0  0  0  0  0  0  0  0999 V2000
   -7.2641    3.2622   -8.4198 N   0  0  0  0  0  0  0  0  0  0  0  0
   -6.7085    3.1711   -7.1751 C   0  0  0  0  0  0  0  0  0  0  0  0
   -7.4618    3.3053   -6.0983 N   0  0  0  0  0  0  0  0  0  0  0  0
   -8.8074    3.5393   -6.1762 C   0  0  0  0  0  0  0  0  0  0  0  0
   -9.4341    3.6487   -7.4413 C   0  0  0  0  0  0  0  0  0  0  0  0
   -8.6124    3.5013   -8.5992 C   0  0  0  0  0  0  0  0  0  0  0  0
   -9.0883    3.5859   -9.7179 O   0  0  0  0  0  0  0  0  0  0  0  0
  -10.8554    3.9069   -7.1817 C   0  0  0  0  0  0  0  0  0  0  0  0
  -11.9506    4.1221   -8.1926 C   0  0  0  0  0  0  0  0  0  0  0  0
  -12.1180    2.9081   -9.0025 N   0  0  0  0  0  0  0  0  0  0  0  0
  -10.9921    3.9199   -5.8501 C   0  0  0  0  0  0  0  0  0  0  0  0
   -9.7825    3.7093   -5.2436 N   0  0  0  0  0  0  0  0  0  0  0  0
   -5.3632    2.9399   -7.0458 N   0  0  0  0  0  0  0  0  0  0  0  0
  1  6  1  0  0  0  0
  2  1  1  0  0  0  0
  3  4  1  0  0  0  0
  3  2  2  0  0  0  0
  4  5  2  0  0  0  0
  5  8  1  0  0  0  0
  5  6  1  0  0  0  0
  6  7  2  0  0  0  0
  8  9  1  0  0  0  0
  9 10  1  0  0  0  0
 11  8  2  0  0  0  0
 12  4  1  0  0  0  0
 12 11  1  0  0  0  0
 13  2  1  0  0  0  0
M  END
>  <CHROM.1>
63.14109681,11.79224309,-9.08931151,3.47783860,-7.44403299,-0.14696749,0.10509574
-1.65817605

>  <Name>
lig.pdb

>  <RI>
4.2128e+07

>  <Rbt.Current_Directory>
/home/itssahil/PROJECTS/Mol_Feturizer/New_Systems/rnas/2miy

>  <Rbt.Executable>
rbdock ($Id: //depot/dev/client3/rdock/2013.1/src/exe/rbdock.cxx#4 $)

>  <Rbt.Library>
libRbt.so (2013.1, Build901 2013/11/27)

>  <Rbt.Parameter_File>
/export/apps/rDock/src/rDock_2013.1_src/data/scripts/dock_solv.prm

>  <Rbt.Receptor>
prm/pocket_docking_5.prm

>  <SCORE>
-7.80532

>  <SCORE.INTER>
-9.28707

>  <SCORE.INTER.CONST>
1

>  <SCORE.INTER.POLAR>
-3.02542

>  <SCORE.INTER.ROT>
2

>  <SCORE.INTER.SOLV>
17.6901

>  <SCORE.INTER.VDW>
-6.93665

>  <SCORE.INTER.norm>
-0.71439

>  <SCORE.INTRA>
1.44032

>  <SCORE.INTRA.DIHEDRAL>
-0.295356

>  <SCORE.INTRA.DIHEDRAL.0>
1.76676

>  <SCORE.INTRA.POLAR>
0.472211

>  <SCORE.INTRA.POLAR.0>
-0.472211

>  <SCORE.INTRA.REPUL>
0

>  <SCORE.INTRA.REPUL.0>
0

>  <SCORE.INTRA.SOLV>
-0.204343

>  <SCORE.INTRA.SOLV.lig_0>
-22.5855

>  <SCORE.INTRA.VDW>
0.0846552

>  <SCORE.INTRA.VDW.0>
-0.733656

>  <SCORE.INTRA.norm>
0.110794

>  <SCORE.RESTR>
0.0414266

>  <SCORE.RESTR.CAVITY>
0.0414266

>  <SCORE.RESTR.norm>
0.00318666

>  <SCORE.SYSTEM>
0

>  <SCORE.SYSTEM.CONST>
0

>  <SCORE.SYSTEM.DIHEDRAL>
0

>  <SCORE.SYSTEM.SOLV>
0

>  <SCORE.SYSTEM.norm>
0

>  <SCORE.heavy>
13

>  <SCORE.norm>
-0.600409

>  <RMSD>
4.677

$$$$
lig.pdb
 OpenBabel11021811453D
libRbt.so/2013.1/901 2013/11/27
 13 14  0  0  0  0  0  0  0  0999 V2000
   -7.2703    3.2751   -8.4234 N   0  0  0  0  0  0  0  0  0  0  0  0
   -6.7100    3.1899   -7.1803 C   0  0  0  0  0  0  0  0  0  0  0  0
   -7.4602    3.3236   -6.1013 N   0  0  0  0  0  0  0  0  0  0  0  0
   -8.8071    3.5513   -6.1751 C   0  0  0  0  0  0  0  0  0  0  0  0
   -9.4387    3.6544   -7.4383 C   0  0  0  0  0  0  0  0  0  0  0  0
   -8.6203    3.5077   -8.5987 C   0  0  0  0  0  0  0  0  0  0  0  0
   -9.1004    3.5871   -9.7160 O   0  0  0  0  0  0  0  0  0  0  0  0
  -10.8601    3.9069   -7.1746 C   0  0  0  0  0  0  0  0  0  0  0  0
  -11.9599    4.1145   -8.1821 C   0  0  0  0  0  0  0  0  0  0  0  0
  -12.1219    2.8990   -8.9908 N   0  0  0  0  0  0  0  0  0  0  0  0
  -10.9924    3.9229   -5.8425 C   0  0  0  0  0  0  0  0  0  0  0  0
   -9.7797    3.7194   -5.2396 N   0  0  0  0  0  0  0  0  0  0  0  0
   -5.3632    2.9651   -7.0551 N   0  0  0  0  0  0  0  0  0  0  0  0
  1  6  1  0  0  0  0
  2  1  1  0  0  0  0
  3  4  1  0  0  0  0
  3  2  2  0  0  0  0
  4  5  2  0  0  0  0
  5  8  1  0  0  0  0
  5  6  1  0  0  0  0
  6  7  2  0  0  0  0
  8  9  1  0  0  0  0
  9 10  1  0  0  0  0
 11  8  2  0  0  0  0
 12  4  1  0  0  0  0
 12 11  1  0  0  0  0
 13  2  1  0  0  0  0
M  END
>  <CHROM.1>
62.97636618,-169.79086059,-9.09298635,3.48523786,-7.44197897,-0.14404602
0.10039862,-1.66120795

>  <Name>
lig.pdb

>  <RI>
9.06885e+06

>  <Rbt.Current_Directory>
/home/itssahil/PROJECTS/Mol_Feturizer/New_Systems/rnas/2miy

>  <Rbt.Executable>
rbdock ($Id: //depot/dev/client3/rdock/2013.1/src/exe/rbdock.cxx#4 $)

>  <Rbt.Library>
libRbt.so (2013.1, Build901 2013/11/27)

>  <Rbt.Parameter_File>
/export/apps/rDock/src/rDock_2013.1_src/data/scripts/dock_solv.prm

>  <Rbt.Receptor>
prm/pocket_docking_6.prm

>  <SCORE>
-7.58877

>  <SCORE.INTER>
-9.0773

>  <SCORE.INTER.CONST>
1

>  <SCORE.INTER.POLAR>
-2.98027

>  <SCORE.INTER.ROT>
2

>  <SCORE.INTER.SOLV>
17.6681

>  <SCORE.INTER.VDW>
-6.93998

>  <SCORE.INTER.norm>
-0.698254

>  <SCORE.INTRA>
1.42246

>  <SCORE.INTRA.DIHEDRAL>
-0.331088

>  <SCORE.INTRA.DIHEDRAL.0>
1.76676

>  <SCORE.INTRA.POLAR>
0.472211

>  <SCORE.INTRA.POLAR.0>
-0.472211

>  <SCORE.INTRA.REPUL>
0

>  <SCORE.INTRA.REPUL.0>
0

>  <SCORE.INTRA.SOLV>
-0.204438

>  <SCORE.INTRA.SOLV.lig_0>
-22.5855

>  <SCORE.INTRA.VDW>
0.0847029

>  <SCORE.INTRA.VDW.0>
-0.733656

>  <SCORE.INTRA.norm>
0.10942

>  <SCORE.RESTR>
0.0660811

>  <SCORE.RESTR.CAVITY>
0.0660811

>  <SCORE.RESTR.norm>
0.00508316

>  <SCORE.SYSTEM>
0

>  <SCORE.SYSTEM.CONST>
0

>  <SCORE.SYSTEM.DIHEDRAL>
0

>  <SCORE.SYSTEM.SOLV>
0

>  <SCORE.SYSTEM.norm>
0

>  <SCORE.heavy>
13

>  <SCORE.norm>
-0.583751

>  <RMSD>
4.677

$$$$
lig.pdb
 OpenBabel11021811453D
libRbt.so/2013.1/901 2013/11/27
 13 14  0  0  0  0  0  0  0  0999 V2000
   -7.2666    3.2680   -8.4227 N   0  0  0  0  0  0  0  0  0  0  0  0
   -6.7105    3.1771   -7.1782 C   0  0  0  0  0  0  0  0  0  0  0  0
   -7.4635    3.3109   -6.1012 N   0  0  0  0  0  0  0  0  0  0  0  0
   -8.8093    3.5444   -6.1786 C   0  0  0  0  0  0  0  0  0  0  0  0
   -9.4364    3.6537   -7.4435 C   0  0  0  0  0  0  0  0  0  0  0  0
   -8.6151    3.5067   -8.6017 C   0  0  0  0  0  0  0  0  0  0  0  0
   -9.0913    3.5912   -9.7202 O   0  0  0  0  0  0  0  0  0  0  0  0
  -10.8577    3.9114   -7.1835 C   0  0  0  0  0  0  0  0  0  0  0  0
  -11.9533    4.1264   -8.1939 C   0  0  0  0  0  0  0  0  0  0  0  0
  -12.1292    2.9080   -8.9954 N   0  0  0  0  0  0  0  0  0  0  0  0
  -10.9940    3.9243   -5.8518 C   0  0  0  0  0  0  0  0  0  0  0  0
   -9.7841    3.7141   -5.2456 N   0  0  0  0  0  0  0  0  0  0  0  0
   -5.3651    2.9462   -7.0494 N   0  0  0  0  0  0  0  0  0  0  0  0
  1  6  1  0  0  0  0
  2  1  1  0  0  0  0
  3  4  1  0  0  0  0
  3  2  2  0  0  0  0
  4  5  2  0  0  0  0
  5  8  1  0  0  0  0
  5  6  1  0  0  0  0
  6  7  2  0  0  0  0
  8  9  1  0  0  0  0
  9 10  1  0  0  0  0
 11  8  2  0  0  0  0
 12  4  1  0  0  0  0
 12 11  1  0  0  0  0
 13  2  1  0  0  0  0
M  END
>  <CHROM.1>
63.67175500,10.13291466,-9.09236290,3.48257369,-7.44556120,-0.14588403,0.10420885
-1.65826635

>  <Name>
lig.pdb

>  <RI>
2.60406e+07

>  <Rbt.Current_Directory>
/home/itssahil/PROJECTS/Mol_Feturizer/New_Systems/rnas/2miy

>  <Rbt.Executable>
rbdock ($Id: //depot/dev/client3/rdock/2013.1/src/exe/rbdock.cxx#4 $)

>  <Rbt.Library>
libRbt.so (2013.1, Build901 2013/11/27)

>  <Rbt.Parameter_File>
/export/apps/rDock/src/rDock_2013.1_src/data/scripts/dock_solv.prm

>  <Rbt.Receptor>
prm/pocket_docking_7.prm

>  <SCORE>
-7.78804

>  <SCORE.INTER>
-9.26468

>  <SCORE.INTER.CONST>
1

>  <SCORE.INTER.POLAR>
-2.98927

>  <SCORE.INTER.ROT>
2

>  <SCORE.INTER.SOLV>
17.6936

>  <SCORE.INTER.VDW>
-7.04342

>  <SCORE.INTER.norm>
-0.712668

>  <SCORE.INTRA>
1.44178

>  <SCORE.INTRA.DIHEDRAL>
-0.292396

>  <SCORE.INTRA.DIHEDRAL.0>
1.76676

>  <SCORE.INTRA.POLAR>
0.472211

>  <SCORE.INTRA.POLAR.0>
-0.472211

>  <SCORE.INTRA.REPUL>
0

>  <SCORE.INTRA.REPUL.0>
0

>  <SCORE.INTRA.SOLV>
-0.210569

>  <SCORE.INTRA.SOLV.lig_0>
-22.5855

>  <SCORE.INTRA.VDW>
0.0877474

>  <SCORE.INTRA.VDW.0>
-0.733656

>  <SCORE.INTRA.norm>
0.110906

>  <SCORE.RESTR>
0.03486

>  <SCORE.RESTR.CAVITY>
0.03486

>  <SCORE.RESTR.norm>
0.00268154

>  <SCORE.SYSTEM>
0

>  <SCORE.SYSTEM.CONST>
0

>  <SCORE.SYSTEM.DIHEDRAL>
0

>  <SCORE.SYSTEM.SOLV>
0

>  <SCORE.SYSTEM.norm>
0

>  <SCORE.heavy>
13

>  <SCORE.norm>
-0.59908

>  <RMSD>
4.677

$$$$
lig.pdb
 OpenBabel11021811453D
libRbt.so/2013.1/901 2013/11/27
 13 14  0  0  0  0  0  0  0  0999 V2000
   -7.2720    3.2755   -8.4219 N   0  0  0  0  0  0  0  0  0  0  0  0
   -6.7108    3.1913   -7.1792 C   0  0  0  0  0  0  0  0  0  0  0  0
   -7.4604    3.3255   -6.0998 N   0  0  0  0  0  0  0  0  0  0  0  0
   -8.8075    3.5527   -6.1730 C   0  0  0  0  0  0  0  0  0  0  0  0
   -9.4398    3.6547   -7.4359 C   0  0  0  0  0  0  0  0  0  0  0  0
   -8.6222    3.5074   -8.5967 C   0  0  0  0  0  0  0  0  0  0  0  0
   -9.1029    3.5859   -9.7137 O   0  0  0  0  0  0  0  0  0  0  0  0
  -10.8613    3.9069   -7.1714 C   0  0  0  0  0  0  0  0  0  0  0  0
  -11.9617    4.1133   -8.1785 C   0  0  0  0  0  0  0  0  0  0  0  0
  -12.1211    2.8986   -8.9889 N   0  0  0  0  0  0  0  0  0  0  0  0
  -10.9927    3.9237   -5.8393 C   0  0  0  0  0  0  0  0  0  0  0  0
   -9.7796    3.7211   -5.2370 N   0  0  0  0  0  0  0  0  0  0  0  0
   -5.3640    2.9671   -7.0546 N   0  0  0  0  0  0  0  0  0  0  0  0
  1  6  1  0  0  0  0
  2  1  1  0  0  0  0
  3  4  1  0  0  0  0
  3  2  2  0  0  0  0
  4  5  2  0  0  0  0
  5  8  1  0  0  0  0
  5  6  1  0  0  0  0
  6  7  2  0  0  0  0
  8  9  1  0  0  0  0
  9 10  1  0  0  0  0
 11  8  2  0  0  0  0
 12  4  1  0  0  0  0
 12 11  1  0  0  0  0
 13  2  1  0  0  0  0
M  END
>  <CHROM.1>
62.81013038,-169.94681974,-9.09385906,3.48575350,-7.43985807,-0.14372404
0.10015823,-1.66195907

>  <Name>
lig.pdb

>  <RI>
3.47783e+07

>  <Rbt.Current_Directory>
/home/itssahil/PROJECTS/Mol_Feturizer/New_Systems/rnas/2miy

>  <Rbt.Executable>
rbdock ($Id: //depot/dev/client3/rdock/2013.1/src/exe/rbdock.cxx#4 $)

>  <Rbt.Library>
libRbt.so (2013.1, Build901 2013/11/27)

>  <Rbt.Parameter_File>
/export/apps/rDock/src/rDock_2013.1_src/data/scripts/dock_solv.prm

>  <Rbt.Receptor>
prm/pocket_docking_8.prm

>  <SCORE>
-7.57706

>  <SCORE.INTER>
-9.06314

>  <SCORE.INTER.CONST>
1

>  <SCORE.INTER.POLAR>
-2.97038

>  <SCORE.INTER.ROT>
2

>  <SCORE.INTER.SOLV>
17.6571

>  <SCORE.INTER.VDW>
-6.95987

>  <SCORE.INTER.norm>
-0.697164

>  <SCORE.INTRA>
1.42235

>  <SCORE.INTRA.DIHEDRAL>
-0.332233

>  <SCORE.INTRA.DIHEDRAL.0>
1.76676

>  <SCORE.INTRA.POLAR>
0.472211

>  <SCORE.INTRA.POLAR.0>
-0.472211

>  <SCORE.INTRA.REPUL>
0

>  <SCORE.INTRA.REPUL.0>
0

>  <SCORE.INTRA.SOLV>
-0.202444

>  <SCORE.INTRA.SOLV.lig_0>
-22.5855

>  <SCORE.INTRA.VDW>
0.0841742

>  <SCORE.INTRA.VDW.0>
-0.733656

>  <SCORE.INTRA.norm>
0.109412

>  <SCORE.RESTR>
0.0637175

>  <SCORE.RESTR.CAVITY>
0.0637175

>  <SCORE.RESTR.norm>
0.00490135

>  <SCORE.SYSTEM>
0

>  <SCORE.SYSTEM.CONST>
0

>  <SCORE.SYSTEM.DIHEDRAL>
0

>  <SCORE.SYSTEM.SOLV>
0

>  <SCORE.SYSTEM.norm>
0

>  <SCORE.heavy>
13

>  <SCORE.norm>
-0.582851

>  <RMSD>
4.677

$$$$
lig.pdb
 OpenBabel11021811453D
libRbt.so/2013.1/901 2013/11/27
 13 14  0  0  0  0  0  0  0  0999 V2000
   -7.2986    3.2868   -8.4515 N   0  0  0  0  0  0  0  0  0  0  0  0
   -6.7387    3.2100   -7.2077 C   0  0  0  0  0  0  0  0  0  0  0  0
   -7.4895    3.3501   -6.1299 N   0  0  0  0  0  0  0  0  0  0  0  0
   -8.8365    3.5764   -6.2058 C   0  0  0  0  0  0  0  0  0  0  0  0
   -9.4676    3.6710   -7.4699 C   0  0  0  0  0  0  0  0  0  0  0  0
   -8.6486    3.5173   -8.6290 C   0  0  0  0  0  0  0  0  0  0  0  0
   -9.1283    3.5891   -9.7469 O   0  0  0  0  0  0  0  0  0  0  0  0
  -10.8894    3.9242   -7.2084 C   0  0  0  0  0  0  0  0  0  0  0  0
  -11.9888    4.1245   -8.2178 C   0  0  0  0  0  0  0  0  0  0  0  0
  -12.1440    2.9066   -9.0242 N   0  0  0  0  0  0  0  0  0  0  0  0
  -11.0222    3.9487   -5.8765 C   0  0  0  0  0  0  0  0  0  0  0  0
   -9.8096    3.7500   -5.2718 N   0  0  0  0  0  0  0  0  0  0  0  0
   -5.3919    2.9869   -7.0805 N   0  0  0  0  0  0  0  0  0  0  0  0
  1  6  1  0  0  0  0
  2  1  1  0  0  0  0
  3  4  1  0  0  0  0
  3  2  2  0  0  0  0
  4  5  2  0  0  0  0
  5  8  1  0  0  0  0
  5  6  1  0  0  0  0
  6  7  2  0  0  0  0
  8  9  1  0  0  0  0
  9 10  1  0  0  0  0
 11  8  2  0  0  0  0
 12  4  1  0  0  0  0
 12 11  1  0  0  0  0
 13  2  1  0  0  0  0
M  END
>  <CHROM.1>
62.62841135,10.85984729,-9.12114065,3.50230008,-7.47293341,-0.14514077,0.10018758
-1.66755322

>  <Name>
lig.pdb

>  <RI>
3.47783e+07

>  <Rbt.Current_Directory>
/home/itssahil/PROJECTS/Mol_Feturizer/New_Systems/rnas/2miy

>  <Rbt.Executable>
rbdock ($Id: //depot/dev/client3/rdock/2013.1/src/exe/rbdock.cxx#4 $)

>  <Rbt.Library>
libRbt.so (2013.1, Build901 2013/11/27)

>  <Rbt.Parameter_File>
/export/apps/rDock/src/rDock_2013.1_src/data/scripts/dock_solv.prm

>  <Rbt.Receptor>
prm/pocket_docking_8.prm

>  <SCORE>
-7.53346

>  <SCORE.INTER>
-8.99243

>  <SCORE.INTER.CONST>
1

>  <SCORE.INTER.POLAR>
-2.91475

>  <SCORE.INTER.ROT>
2

>  <SCORE.INTER.SOLV>
17.7268

>  <SCORE.INTER.VDW>
-7.12141

>  <SCORE.INTER.norm>
-0.691725

>  <SCORE.INTRA>
1.43941

>  <SCORE.INTRA.DIHEDRAL>
-0.300729

>  <SCORE.INTRA.DIHEDRAL.0>
1.76676

>  <SCORE.INTRA.POLAR>
0.472211

>  <SCORE.INTRA.POLAR.0>
-0.472211

>  <SCORE.INTRA.REPUL>
0

>  <SCORE.INTRA.REPUL.0>
0

>  <SCORE.INTRA.SOLV>
-0.19818

>  <SCORE.INTRA.SOLV.lig_0>
-22.5855

>  <SCORE.INTRA.VDW>
0.0833485

>  <SCORE.INTRA.VDW.0>
-0.733656

>  <SCORE.INTRA.norm>
0.110724

>  <SCORE.RESTR>
0.019555

>  <SCORE.RESTR.CAVITY>
0.019555

>  <SCORE.RESTR.norm>
0.00150423

>  <SCORE.SYSTEM>
0

>  <SCORE.SYSTEM.CONST>
0

>  <SCORE.SYSTEM.DIHEDRAL>
0

>  <SCORE.SYSTEM.SOLV>
0

>  <SCORE.SYSTEM.norm>
0

>  <SCORE.heavy>
13

>  <SCORE.norm>
-0.579497

>  <RMSD>
4.677

$$$$
lig.pdb
 OpenBabel11021811453D
libRbt.so/2013.1/901 2013/11/27
 13 14  0  0  0  0  0  0  0  0999 V2000
   -7.2683    3.2746   -8.4253 N   0  0  0  0  0  0  0  0  0  0  0  0
   -6.7107    3.1887   -7.1811 C   0  0  0  0  0  0  0  0  0  0  0  0
   -7.4630    3.3229   -6.1037 N   0  0  0  0  0  0  0  0  0  0  0  0
   -8.8096    3.5517   -6.1803 C   0  0  0  0  0  0  0  0  0  0  0  0
   -9.4384    3.6555   -7.4449 C   0  0  0  0  0  0  0  0  0  0  0  0
   -8.6177    3.5082   -8.6035 C   0  0  0  0  0  0  0  0  0  0  0  0
   -9.0953    3.5882   -9.7218 O   0  0  0  0  0  0  0  0  0  0  0  0
  -10.8602    3.9091   -7.1841 C   0  0  0  0  0  0  0  0  0  0  0  0
  -11.9577    4.1178   -8.1940 C   0  0  0  0  0  0  0  0  0  0  0  0
  -12.1222    2.9009   -9.0001 N   0  0  0  0  0  0  0  0  0  0  0  0
  -10.9953    3.9250   -5.8523 C   0  0  0  0  0  0  0  0  0  0  0  0
   -9.7841    3.7205   -5.2469 N   0  0  0  0  0  0  0  0  0  0  0  0
   -5.3644    2.9628   -7.0531 N   0  0  0  0  0  0  0  0  0  0  0  0
  1  6  1  0  0  0  0
  2  1  1  0  0  0  0
  3  4  1  0  0  0  0
  3  2  2  0  0  0  0
  4  5  2  0  0  0  0
  5  8  1  0  0  0  0
  5  6  1  0  0  0  0
  6  7  2  0  0  0  0
  8  9  1  0  0  0  0
  9 10  1  0  0  0  0
 11  8  2  0  0  0  0
 12  4  1  0  0  0  0
 12 11  1  0  0  0  0
 13  2  1  0  0  0  0
M  END
>  <CHROM.1>
63.17254634,11.38806121,-9.09303510,3.48592843,-7.44760135,-0.14591290,0.10127499
-1.66084464

>  <Name>
lig.pdb

>  <RI>
3.47783e+07

>  <Rbt.Current_Directory>
/home/itssahil/PROJECTS/Mol_Feturizer/New_Systems/rnas/2miy

>  <Rbt.Executable>
rbdock ($Id: //depot/dev/client3/rdock/2013.1/src/exe/rbdock.cxx#4 $)

>  <Rbt.Library>
libRbt.so (2013.1, Build901 2013/11/27)

>  <Rbt.Parameter_File>
/export/apps/rDock/src/rDock_2013.1_src/data/scripts/dock_solv.prm

>  <Rbt.Receptor>
prm/pocket_docking_8.prm

>  <SCORE>
-7.72326

>  <SCORE.INTER>
-9.23061

>  <SCORE.INTER.CONST>
1

>  <SCORE.INTER.POLAR>
-3.01773

>  <SCORE.INTER.ROT>
2

>  <SCORE.INTER.SOLV>
17.683

>  <SCORE.INTER.VDW>
-6.9223

>  <SCORE.INTER.norm>
-0.710047

>  <SCORE.INTRA>
1.44043

>  <SCORE.INTRA.DIHEDRAL>
-0.295593

>  <SCORE.INTRA.DIHEDRAL.0>
1.76676

>  <SCORE.INTRA.POLAR>
0.472211

>  <SCORE.INTRA.POLAR.0>
-0.472211

>  <SCORE.INTRA.REPUL>
0

>  <SCORE.INTRA.REPUL.0>
0

>  <SCORE.INTRA.SOLV>
-0.204693

>  <SCORE.INTRA.SOLV.lig_0>
-22.5855

>  <SCORE.INTRA.VDW>
0.085052

>  <SCORE.INTRA.VDW.0>
-0.733656

>  <SCORE.INTRA.norm>
0.110802

>  <SCORE.RESTR>
0.0669233

>  <SCORE.RESTR.CAVITY>
0.0669233

>  <SCORE.RESTR.norm>
0.00514794

>  <SCORE.SYSTEM>
0

>  <SCORE.SYSTEM.CONST>
0

>  <SCORE.SYSTEM.DIHEDRAL>
0

>  <SCORE.SYSTEM.SOLV>
0

>  <SCORE.SYSTEM.norm>
0

>  <SCORE.heavy>
13

>  <SCORE.norm>
-0.594097

>  <RMSD>
4.678

$$$$
lig.pdb
 OpenBabel11021811453D
libRbt.so/2013.1/901 2013/11/27
 13 14  0  0  0  0  0  0  0  0999 V2000
   -7.2729    3.2706   -8.4470 N   0  0  0  0  0  0  0  0  0  0  0  0
   -6.7222    3.1939   -7.1991 C   0  0  0  0  0  0  0  0  0  0  0  0
   -7.4796    3.3417   -6.1270 N   0  0  0  0  0  0  0  0  0  0  0  0
   -8.8246    3.5761   -6.2129 C   0  0  0  0  0  0  0  0  0  0  0  0
   -9.4463    3.6709   -7.4817 C   0  0  0  0  0  0  0  0  0  0  0  0
   -8.6202    3.5089   -8.6345 C   0  0  0  0  0  0  0  0  0  0  0  0
   -9.0916    3.5805   -9.7560 O   0  0  0  0  0  0  0  0  0  0  0  0
  -10.8682    3.9337   -7.2309 C   0  0  0  0  0  0  0  0  0  0  0  0
  -11.9593    4.1379   -8.2485 C   0  0  0  0  0  0  0  0  0  0  0  0
  -12.1367    2.9087   -9.0329 N   0  0  0  0  0  0  0  0  0  0  0  0
  -11.0102    3.9628   -5.9000 C   0  0  0  0  0  0  0  0  0  0  0  0
   -9.8032    3.7583   -5.2862 N   0  0  0  0  0  0  0  0  0  0  0  0
   -5.3777    2.9628   -7.0618 N   0  0  0  0  0  0  0  0  0  0  0  0
  1  6  1  0  0  0  0
  2  1  1  0  0  0  0
  3  4  1  0  0  0  0
  3  2  2  0  0  0  0
  4  5  2  0  0  0  0
  5  8  1  0  0  0  0
  5  6  1  0  0  0  0
  6  7  2  0  0  0  0
  8  9  1  0  0  0  0
  9 10  1  0  0  0  0
 11  8  2  0  0  0  0
 12  4  1  0  0  0  0
 12 11  1  0  0  0  0
 13  2  1  0  0  0  0
M  END
>  <CHROM.1>
63.86585300,11.03457866,-9.10275430,3.49919719,-7.47996086,-0.14972720,0.10576466
-1.66988159

>  <Name>
lig.pdb

>  <RI>
1.17462e+07

>  <Rbt.Current_Directory>
/home/itssahil/PROJECTS/Mol_Feturizer/New_Systems/rnas/2miy

>  <Rbt.Executable>
rbdock ($Id: //depot/dev/client3/rdock/2013.1/src/exe/rbdock.cxx#4 $)

>  <Rbt.Library>
libRbt.so (2013.1, Build901 2013/11/27)

>  <Rbt.Parameter_File>
/export/apps/rDock/src/rDock_2013.1_src/data/scripts/dock_solv.prm

>  <Rbt.Receptor>
prm/blind_docking_40.prm

>  <SCORE>
-6.99312

>  <SCORE.INTER>
-9.06432

>  <SCORE.INTER.CONST>
1

>  <SCORE.INTER.POLAR>
-2.98122

>  <SCORE.INTER.ROT>
2

>  <SCORE.INTER.SOLV>
17.7532

>  <SCORE.INTER.VDW>
-6.95654

>  <SCORE.INTER.norm>
-0.697256

>  <SCORE.INTRA>
1.44247

>  <SCORE.INTRA.DIHEDRAL>
-0.289109

>  <SCORE.INTRA.DIHEDRAL.0>
1.76676

>  <SCORE.INTRA.POLAR>
0.472211

>  <SCORE.INTRA.POLAR.0>
-0.472211

>  <SCORE.INTRA.REPUL>
0

>  <SCORE.INTRA.REPUL.0>
0

>  <SCORE.INTRA.SOLV>
-0.212942

>  <SCORE.INTRA.SOLV.lig_0>
-22.5855

>  <SCORE.INTRA.VDW>
0.087975

>  <SCORE.INTRA.VDW.0>
-0.733656

>  <SCORE.INTRA.norm>
0.110959

>  <SCORE.RESTR>
0.628732

>  <SCORE.RESTR.CAVITY>
0.628732

>  <SCORE.RESTR.norm>
0.048364

>  <SCORE.SYSTEM>
0

>  <SCORE.SYSTEM.CONST>
0

>  <SCORE.SYSTEM.DIHEDRAL>
0

>  <SCORE.SYSTEM.SOLV>
0

>  <SCORE.SYSTEM.norm>
0

>  <SCORE.heavy>
13

>  <SCORE.norm>
-0.537933

>  <RMSD>
4.679

$$$$
lig.pdb
 OpenBabel11021811453D
libRbt.so/2013.1/901 2013/11/27
 13 14  0  0  0  0  0  0  0  0999 V2000
   -7.2690    3.2753   -8.4480 N   0  0  0  0  0  0  0  0  0  0  0  0
   -6.7194    3.1953   -7.1998 C   0  0  0  0  0  0  0  0  0  0  0  0
   -7.4778    3.3399   -6.1280 N   0  0  0  0  0  0  0  0  0  0  0  0
   -8.8229    3.5741   -6.2145 C   0  0  0  0  0  0  0  0  0  0  0  0
   -9.4434    3.6723   -7.4836 C   0  0  0  0  0  0  0  0  0  0  0  0
   -8.6162    3.5137   -8.6361 C   0  0  0  0  0  0  0  0  0  0  0  0
   -9.0866    3.5884   -9.7578 O   0  0  0  0  0  0  0  0  0  0  0  0
  -10.8657    3.9339   -7.2333 C   0  0  0  0  0  0  0  0  0  0  0  0
  -11.9559    4.1406   -8.2513 C   0  0  0  0  0  0  0  0  0  0  0  0
  -12.1329    2.9132   -9.0386 N   0  0  0  0  0  0  0  0  0  0  0  0
  -11.0089    3.9592   -5.9025 C   0  0  0  0  0  0  0  0  0  0  0  0
   -9.8024    3.7534   -5.2882 N   0  0  0  0  0  0  0  0  0  0  0  0
   -5.3750    2.9643   -7.0619 N   0  0  0  0  0  0  0  0  0  0  0  0
  1  6  1  0  0  0  0
  2  1  1  0  0  0  0
  3  4  1  0  0  0  0
  3  2  2  0  0  0  0
  4  5  2  0  0  0  0
  5  8  1  0  0  0  0
  5  6  1  0  0  0  0
  6  7  2  0  0  0  0
  8  9  1  0  0  0  0
  9 10  1  0  0  0  0
 11  8  2  0  0  0  0
 12  4  1  0  0  0  0
 12 11  1  0  0  0  0
 13  2  1  0  0  0  0
M  END
>  <CHROM.1>
63.91241432,-169.31372795,-9.10001664,3.50059711,-7.48185197,-0.15052751
0.10541758,-1.66697012

>  <Name>
lig.pdb

>  <RI>
1.17462e+07

>  <Rbt.Current_Directory>
/home/itssahil/PROJECTS/Mol_Feturizer/New_Systems/rnas/2miy

>  <Rbt.Executable>
rbdock ($Id: //depot/dev/client3/rdock/2013.1/src/exe/rbdock.cxx#4 $)

>  <Rbt.Library>
libRbt.so (2013.1, Build901 2013/11/27)

>  <Rbt.Parameter_File>
/export/apps/rDock/src/rDock_2013.1_src/data/scripts/dock_solv.prm

>  <Rbt.Receptor>
prm/blind_docking_40.prm

>  <SCORE>
-6.84426

>  <SCORE.INTER>
-8.90004

>  <SCORE.INTER.CONST>
1

>  <SCORE.INTER.POLAR>
-2.96857

>  <SCORE.INTER.ROT>
2

>  <SCORE.INTER.SOLV>
17.7606

>  <SCORE.INTER.VDW>
-6.89164

>  <SCORE.INTER.norm>
-0.684618

>  <SCORE.INTRA>
1.42443

>  <SCORE.INTRA.DIHEDRAL>
-0.32256

>  <SCORE.INTRA.DIHEDRAL.0>
1.76676

>  <SCORE.INTRA.POLAR>
0.472211

>  <SCORE.INTRA.POLAR.0>
-0.472211

>  <SCORE.INTRA.REPUL>
0

>  <SCORE.INTRA.REPUL.0>
0

>  <SCORE.INTRA.SOLV>
-0.215651

>  <SCORE.INTRA.SOLV.lig_0>
-22.5855

>  <SCORE.INTRA.VDW>
0.0880165

>  <SCORE.INTRA.VDW.0>
-0.733656

>  <SCORE.INTRA.norm>
0.109571

>  <SCORE.RESTR>
0.631351

>  <SCORE.RESTR.CAVITY>
0.631351

>  <SCORE.RESTR.norm>
0.0485654

>  <SCORE.SYSTEM>
0

>  <SCORE.SYSTEM.CONST>
0

>  <SCORE.SYSTEM.DIHEDRAL>
0

>  <SCORE.SYSTEM.SOLV>
0

>  <SCORE.SYSTEM.norm>
0

>  <SCORE.heavy>
13

>  <SCORE.norm>
-0.526481

>  <RMSD>
4.679

$$$$
lig.pdb
 OpenBabel11021811453D
libRbt.so/2013.1/901 2013/11/27
 13 14  0  0  0  0  0  0  0  0999 V2000
   -7.2666    3.2834   -8.4786 N   0  0  0  0  0  0  0  0  0  0  0  0
   -6.7139    3.2153   -7.2311 C   0  0  0  0  0  0  0  0  0  0  0  0
   -7.4693    3.3716   -6.1588 N   0  0  0  0  0  0  0  0  0  0  0  0
   -8.8143    3.6064   -6.2441 C   0  0  0  0  0  0  0  0  0  0  0  0
   -9.4380    3.6925   -7.5125 C   0  0  0  0  0  0  0  0  0  0  0  0
   -8.6141    3.5214   -8.6656 C   0  0  0  0  0  0  0  0  0  0  0  0
   -9.0873    3.5853   -9.7867 O   0  0  0  0  0  0  0  0  0  0  0  0
  -10.8594    3.9582   -7.2611 C   0  0  0  0  0  0  0  0  0  0  0  0
  -11.9521    4.1559   -8.2783 C   0  0  0  0  0  0  0  0  0  0  0  0
  -12.1355    2.9194   -9.0498 N   0  0  0  0  0  0  0  0  0  0  0  0
  -10.9991    3.9972   -5.9303 C   0  0  0  0  0  0  0  0  0  0  0  0
   -9.7911    3.7962   -5.3171 N   0  0  0  0  0  0  0  0  0  0  0  0
   -5.3693    2.9842   -7.0944 N   0  0  0  0  0  0  0  0  0  0  0  0
  1  6  1  0  0  0  0
  2  1  1  0  0  0  0
  3  4  1  0  0  0  0
  3  2  2  0  0  0  0
  4  5  2  0  0  0  0
  5  8  1  0  0  0  0
  5  6  1  0  0  0  0
  6  7  2  0  0  0  0
  8  9  1  0  0  0  0
  9 10  1  0  0  0  0
 11  8  2  0  0  0  0
 12  4  1  0  0  0  0
 12 11  1  0  0  0  0
 13  2  1  0  0  0  0
M  END
>  <CHROM.1>
64.09596603,-169.54693122,-9.09514804,3.52033197,-7.50966720,-0.14749944
0.10606880,-1.67737855

>  <Name>
lig.pdb

>  <RI>
0

>  <Rbt.Current_Directory>
/home/itssahil/PROJECTS/Mol_Feturizer/New_Systems/rnas/2miy

>  <Rbt.Executable>
rbdock ($Id: //depot/dev/client3/rdock/2013.1/src/exe/rbdock.cxx#4 $)

>  <Rbt.Library>
libRbt.so (2013.1, Build901 2013/11/27)

>  <Rbt.Parameter_File>
/export/apps/rDock/src/rDock_2013.1_src/data/scripts/dock_solv.prm

>  <Rbt.Receptor>
prm/blind_docking_60.prm

>  <SCORE>
-5.97195

>  <SCORE.INTER>
-8.52339

>  <SCORE.INTER.CONST>
1

>  <SCORE.INTER.POLAR>
-2.94258

>  <SCORE.INTER.ROT>
2

>  <SCORE.INTER.SOLV>
17.8028

>  <SCORE.INTER.VDW>
-6.74125

>  <SCORE.INTER.norm>
-0.655645

>  <SCORE.INTRA>
1.42543

>  <SCORE.INTRA.DIHEDRAL>
-0.320147

>  <SCORE.INTRA.DIHEDRAL.0>
1.76676

>  <SCORE.INTRA.POLAR>
0.472211

>  <SCORE.INTRA.POLAR.0>
-0.472211

>  <SCORE.INTRA.REPUL>
0

>  <SCORE.INTRA.REPUL.0>
0

>  <SCORE.INTRA.SOLV>
-0.217827

>  <SCORE.INTRA.SOLV.lig_0>
-22.5855

>  <SCORE.INTRA.VDW>
0.0888946

>  <SCORE.INTRA.VDW.0>
-0.733656

>  <SCORE.INTRA.norm>
0.109648

>  <SCORE.RESTR>
1.12602

>  <SCORE.RESTR.CAVITY>
1.12602

>  <SCORE.RESTR.norm>
0.0866166

>  <SCORE.SYSTEM>
0

>  <SCORE.SYSTEM.CONST>
0

>  <SCORE.SYSTEM.DIHEDRAL>
0

>  <SCORE.SYSTEM.SOLV>
0

>  <SCORE.SYSTEM.norm>
0

>  <SCORE.heavy>
13

>  <SCORE.norm>
-0.459381

>  <RMSD>
4.679

$$$$
lig.pdb
 OpenBabel11021811453D
libRbt.so/2013.1/901 2013/11/27
 13 14  0  0  0  0  0  0  0  0999 V2000
   -7.2664    3.2816   -8.4779 N   0  0  0  0  0  0  0  0  0  0  0  0
   -6.7140    3.2139   -7.2302 C   0  0  0  0  0  0  0  0  0  0  0  0
   -7.4697    3.3707   -6.1582 N   0  0  0  0  0  0  0  0  0  0  0  0
   -8.8147    3.6057   -6.2440 C   0  0  0  0  0  0  0  0  0  0  0  0
   -9.4380    3.6914   -7.5126 C   0  0  0  0  0  0  0  0  0  0  0  0
   -8.6138    3.5197   -8.6654 C   0  0  0  0  0  0  0  0  0  0  0  0
   -9.0867    3.5832   -9.7867 O   0  0  0  0  0  0  0  0  0  0  0  0
  -10.8594    3.9574   -7.2617 C   0  0  0  0  0  0  0  0  0  0  0  0
  -11.9518    4.1548   -8.2793 C   0  0  0  0  0  0  0  0  0  0  0  0
  -12.1410    2.9154   -9.0446 N   0  0  0  0  0  0  0  0  0  0  0  0
  -10.9994    3.9968   -5.9309 C   0  0  0  0  0  0  0  0  0  0  0  0
   -9.7917    3.7959   -5.3174 N   0  0  0  0  0  0  0  0  0  0  0  0
   -5.3695    2.9826   -7.0931 N   0  0  0  0  0  0  0  0  0  0  0  0
  1  6  1  0  0  0  0
  2  1  1  0  0  0  0
  3  4  1  0  0  0  0
  3  2  2  0  0  0  0
  4  5  2  0  0  0  0
  5  8  1  0  0  0  0
  5  6  1  0  0  0  0
  6  7  2  0  0  0  0
  8  9  1  0  0  0  0
  9 10  1  0  0  0  0
 11  8  2  0  0  0  0
 12  4  1  0  0  0  0
 12 11  1  0  0  0  0
 13  2  1  0  0  0  0
M  END
>  <CHROM.1>
64.45201121,11.28851284,-9.09558060,3.51892023,-7.50915140,-0.14732187,0.10595311
-1.67772928

>  <Name>
lig.pdb

>  <RI>
0

>  <Rbt.Current_Directory>
/home/itssahil/PROJECTS/Mol_Feturizer/New_Systems/rnas/2miy

>  <Rbt.Executable>
rbdock ($Id: //depot/dev/client3/rdock/2013.1/src/exe/rbdock.cxx#4 $)

>  <Rbt.Library>
libRbt.so (2013.1, Build901 2013/11/27)

>  <Rbt.Parameter_File>
/export/apps/rDock/src/rDock_2013.1_src/data/scripts/dock_solv.prm

>  <Rbt.Receptor>
prm/blind_docking_60.prm

>  <SCORE>
-6.17643

>  <SCORE.INTER>
-8.74931

>  <SCORE.INTER.CONST>
1

>  <SCORE.INTER.POLAR>
-2.99483

>  <SCORE.INTER.ROT>
2

>  <SCORE.INTER.SOLV>
17.807

>  <SCORE.INTER.VDW>
-6.71911

>  <SCORE.INTER.norm>
-0.673024

>  <SCORE.INTRA>
1.44479

>  <SCORE.INTRA.DIHEDRAL>
-0.281798

>  <SCORE.INTRA.DIHEDRAL.0>
1.76676

>  <SCORE.INTRA.POLAR>
0.472211

>  <SCORE.INTRA.POLAR.0>
-0.472211

>  <SCORE.INTRA.REPUL>
0

>  <SCORE.INTRA.REPUL.0>
0

>  <SCORE.INTRA.SOLV>
-0.219964

>  <SCORE.INTRA.SOLV.lig_0>
-22.5855

>  <SCORE.INTRA.VDW>
0.0901565

>  <SCORE.INTRA.VDW.0>
-0.733656

>  <SCORE.INTRA.norm>
0.111138

>  <SCORE.RESTR>
1.12809

>  <SCORE.RESTR.CAVITY>
1.12809

>  <SCORE.RESTR.norm>
0.0867762

>  <SCORE.SYSTEM>
0

>  <SCORE.SYSTEM.CONST>
0

>  <SCORE.SYSTEM.DIHEDRAL>
0

>  <SCORE.SYSTEM.SOLV>
0

>  <SCORE.SYSTEM.norm>
0

>  <SCORE.heavy>
13

>  <SCORE.norm>
-0.47511

>  <RMSD>
4.679

$$$$
lig.pdb
 OpenBabel11021811453D
libRbt.so/2013.1/901 2013/11/27
 13 14  0  0  0  0  0  0  0  0999 V2000
   -7.2643    3.2722   -8.4477 N   0  0  0  0  0  0  0  0  0  0  0  0
   -6.7174    3.1961   -7.1981 C   0  0  0  0  0  0  0  0  0  0  0  0
   -7.4773    3.3480   -6.1284 N   0  0  0  0  0  0  0  0  0  0  0  0
   -8.8214    3.5862   -6.2186 C   0  0  0  0  0  0  0  0  0  0  0  0
   -9.4392    3.6807   -7.4892 C   0  0  0  0  0  0  0  0  0  0  0  0
   -8.6104    3.5142   -8.6395 C   0  0  0  0  0  0  0  0  0  0  0  0
   -9.0784    3.5853   -9.7624 O   0  0  0  0  0  0  0  0  0  0  0  0
  -10.8611    3.9481   -7.2428 C   0  0  0  0  0  0  0  0  0  0  0  0
  -11.9487    4.1538   -8.2639 C   0  0  0  0  0  0  0  0  0  0  0  0
  -12.1382    2.9188   -9.0363 N   0  0  0  0  0  0  0  0  0  0  0  0
  -11.0067    3.9799   -5.9124 C   0  0  0  0  0  0  0  0  0  0  0  0
   -9.8020    3.7729   -5.2949 N   0  0  0  0  0  0  0  0  0  0  0  0
   -5.3739    2.9613   -7.0567 N   0  0  0  0  0  0  0  0  0  0  0  0
  1  6  1  0  0  0  0
  2  1  1  0  0  0  0
  3  4  1  0  0  0  0
  3  2  2  0  0  0  0
  4  5  2  0  0  0  0
  5  8  1  0  0  0  0
  5  6  1  0  0  0  0
  6  7  2  0  0  0  0
  8  9  1  0  0  0  0
  9 10  1  0  0  0  0
 11  8  2  0  0  0  0
 12  4  1  0  0  0  0
 12 11  1  0  0  0  0
 13  2  1  0  0  0  0
M  END
>  <CHROM.1>
64.51548233,10.27851214,-9.09719866,3.50749832,-7.48527205,-0.15127176,0.10834043
-1.67140443

>  <Name>
lig.pdb

>  <RI>
1.82164e+07

>  <Rbt.Current_Directory>
/home/itssahil/PROJECTS/Mol_Feturizer/New_Systems/rnas/2miy

>  <Rbt.Executable>
rbdock ($Id: //depot/dev/client3/rdock/2013.1/src/exe/rbdock.cxx#4 $)

>  <Rbt.Library>
libRbt.so (2013.1, Build901 2013/11/27)

>  <Rbt.Parameter_File>
/export/apps/rDock/src/rDock_2013.1_src/data/scripts/dock_solv.prm

>  <Rbt.Receptor>
prm/blind_docking_80.prm

>  <SCORE>
-6.95772

>  <SCORE.INTER>
-9.02422

>  <SCORE.INTER.CONST>
1

>  <SCORE.INTER.POLAR>
-2.97602

>  <SCORE.INTER.ROT>
2

>  <SCORE.INTER.SOLV>
17.7531

>  <SCORE.INTER.VDW>
-6.94712

>  <SCORE.INTER.norm>
-0.694171

>  <SCORE.INTRA>
1.44506

>  <SCORE.INTRA.DIHEDRAL>
-0.282315

>  <SCORE.INTRA.DIHEDRAL.0>
1.76676

>  <SCORE.INTRA.POLAR>
0.472211

>  <SCORE.INTRA.POLAR.0>
-0.472211

>  <SCORE.INTRA.REPUL>
0

>  <SCORE.INTRA.REPUL.0>
0

>  <SCORE.INTRA.SOLV>
-0.220667

>  <SCORE.INTRA.SOLV.lig_0>
-22.5855

>  <SCORE.INTRA.VDW>
0.0910318

>  <SCORE.INTRA.VDW.0>
-0.733656

>  <SCORE.INTRA.norm>
0.111158

>  <SCORE.RESTR>
0.621442

>  <SCORE.RESTR.CAVITY>
0.621442

>  <SCORE.RESTR.norm>
0.0478033

>  <SCORE.SYSTEM>
0

>  <SCORE.SYSTEM.CONST>
0

>  <SCORE.SYSTEM.DIHEDRAL>
0

>  <SCORE.SYSTEM.SOLV>
0

>  <SCORE.SYSTEM.norm>
0

>  <SCORE.heavy>
13

>  <SCORE.norm>
-0.535209

>  <RMSD>
4.679

$$$$
lig.pdb
 OpenBabel11021811453D
libRbt.so/2013.1/901 2013/11/27
 13 14  0  0  0  0  0  0  0  0999 V2000
   -7.2895    3.2826   -8.4530 N   0  0  0  0  0  0  0  0  0  0  0  0
   -6.7303    3.2054   -7.2089 C   0  0  0  0  0  0  0  0  0  0  0  0
   -7.4817    3.3440   -6.1314 N   0  0  0  0  0  0  0  0  0  0  0  0
   -8.8290    3.5691   -6.2079 C   0  0  0  0  0  0  0  0  0  0  0  0
   -9.4594    3.6641   -7.4723 C   0  0  0  0  0  0  0  0  0  0  0  0
   -8.6397    3.5120   -8.6310 C   0  0  0  0  0  0  0  0  0  0  0  0
   -9.1188    3.5843   -9.7492 O   0  0  0  0  0  0  0  0  0  0  0  0
  -10.8816    3.9158   -7.2113 C   0  0  0  0  0  0  0  0  0  0  0  0
  -11.9806    4.1158   -8.2212 C   0  0  0  0  0  0  0  0  0  0  0  0
  -12.1415    2.8947   -9.0216 N   0  0  0  0  0  0  0  0  0  0  0  0
  -11.0152    3.9391   -5.8795 C   0  0  0  0  0  0  0  0  0  0  0  0
   -9.8028    3.7411   -5.2743 N   0  0  0  0  0  0  0  0  0  0  0  0
   -5.3833    2.9834   -7.0811 N   0  0  0  0  0  0  0  0  0  0  0  0
  1  6  1  0  0  0  0
  2  1  1  0  0  0  0
  3  4  1  0  0  0  0
  3  2  2  0  0  0  0
  4  5  2  0  0  0  0
  5  8  1  0  0  0  0
  5  6  1  0  0  0  0
  6  7  2  0  0  0  0
  8  9  1  0  0  0  0
  9 10  1  0  0  0  0
 11  8  2  0  0  0  0
 12  4  1  0  0  0  0
 12 11  1  0  0  0  0
 13  2  1  0  0  0  0
M  END
>  <CHROM.1>
63.07109675,-168.42957561,-9.11362360,3.49531723,-7.47446311,-0.14507216
0.09879026,-1.66675528

>  <Name>
lig.pdb

>  <RI>
9.06885e+06

>  <Rbt.Current_Directory>
/home/itssahil/PROJECTS/Mol_Feturizer/New_Systems/rnas/2miy

>  <Rbt.Executable>
rbdock ($Id: //depot/dev/client3/rdock/2013.1/src/exe/rbdock.cxx#4 $)

>  <Rbt.Library>
libRbt.so (2013.1, Build901 2013/11/27)

>  <Rbt.Parameter_File>
/export/apps/rDock/src/rDock_2013.1_src/data/scripts/dock_solv.prm

>  <Rbt.Receptor>
prm/pocket_docking_6.prm

>  <SCORE>
-7.4143

>  <SCORE.INTER>
-8.8661

>  <SCORE.INTER.CONST>
1

>  <SCORE.INTER.POLAR>
-2.96897

>  <SCORE.INTER.ROT>
2

>  <SCORE.INTER.SOLV>
17.7546

>  <SCORE.INTER.VDW>
-6.8657

>  <SCORE.INTER.norm>
-0.682008

>  <SCORE.INTRA>
1.42079

>  <SCORE.INTRA.DIHEDRAL>
-0.332069

>  <SCORE.INTRA.DIHEDRAL.0>
1.76676

>  <SCORE.INTRA.POLAR>
0.472211

>  <SCORE.INTRA.POLAR.0>
-0.472211

>  <SCORE.INTRA.REPUL>
0

>  <SCORE.INTRA.REPUL.0>
0

>  <SCORE.INTRA.SOLV>
-0.205683

>  <SCORE.INTRA.SOLV.lig_0>
-22.5855

>  <SCORE.INTRA.VDW>
0.0841478

>  <SCORE.INTRA.VDW.0>
-0.733656

>  <SCORE.INTRA.norm>
0.109291

>  <SCORE.RESTR>
0.0310095

>  <SCORE.RESTR.CAVITY>
0.0310095

>  <SCORE.RESTR.norm>
0.00238534

>  <SCORE.SYSTEM>
0

>  <SCORE.SYSTEM.CONST>
0

>  <SCORE.SYSTEM.DIHEDRAL>
0

>  <SCORE.SYSTEM.SOLV>
0

>  <SCORE.SYSTEM.norm>
0

>  <SCORE.heavy>
13

>  <SCORE.norm>
-0.570331

>  <RMSD>
4.679

$$$$
lig.pdb
 OpenBabel11021811453D
libRbt.so/2013.1/901 2013/11/27
 13 14  0  0  0  0  0  0  0  0999 V2000
   -7.2654    3.2660   -8.4396 N   0  0  0  0  0  0  0  0  0  0  0  0
   -6.7184    3.1825   -7.1906 C   0  0  0  0  0  0  0  0  0  0  0  0
   -7.4787    3.3254   -6.1199 N   0  0  0  0  0  0  0  0  0  0  0  0
   -8.8233    3.5613   -6.2085 C   0  0  0  0  0  0  0  0  0  0  0  0
   -9.4412    3.6632   -7.4785 C   0  0  0  0  0  0  0  0  0  0  0  0
   -8.6120    3.5064   -8.6298 C   0  0  0  0  0  0  0  0  0  0  0  0
   -9.0801    3.5842   -9.7522 O   0  0  0  0  0  0  0  0  0  0  0  0
  -10.8637    3.9258   -7.2303 C   0  0  0  0  0  0  0  0  0  0  0  0
  -11.9517    4.1361   -8.2500 C   0  0  0  0  0  0  0  0  0  0  0  0
  -12.1371    2.9067   -9.0322 N   0  0  0  0  0  0  0  0  0  0  0  0
  -11.0095    3.9482   -5.8998 C   0  0  0  0  0  0  0  0  0  0  0  0
   -9.8044    3.7396   -5.2836 N   0  0  0  0  0  0  0  0  0  0  0  0
   -5.3744    2.9496   -7.0506 N   0  0  0  0  0  0  0  0  0  0  0  0
  1  6  1  0  0  0  0
  2  1  1  0  0  0  0
  3  4  1  0  0  0  0
  3  2  2  0  0  0  0
  4  5  2  0  0  0  0
  5  8  1  0  0  0  0
  5  6  1  0  0  0  0
  6  7  2  0  0  0  0
  8  9  1  0  0  0  0
  9 10  1  0  0  0  0
 11  8  2  0  0  0  0
 12  4  1  0  0  0  0
 12 11  1  0  0  0  0
 13  2  1  0  0  0  0
M  END
>  <CHROM.1>
64.43037718,10.74679819,-9.09873506,3.49076172,-7.47582235,-0.15166033,0.10626413
-1.66450198

>  <Name>
lig.pdb

>  <RI>
1.17462e+07

>  <Rbt.Current_Directory>
/home/itssahil/PROJECTS/Mol_Feturizer/New_Systems/rnas/2miy

>  <Rbt.Executable>
rbdock ($Id: //depot/dev/client3/rdock/2013.1/src/exe/rbdock.cxx#4 $)

>  <Rbt.Library>
libRbt.so (2013.1, Build901 2013/11/27)

>  <Rbt.Parameter_File>
/export/apps/rDock/src/rDock_2013.1_src/data/scripts/dock_solv.prm

>  <Rbt.Receptor>
prm/blind_docking_40.prm

>  <SCORE>
-7.01069

>  <SCORE.INTER>
-9.09532

>  <SCORE.INTER.CONST>
1

>  <SCORE.INTER.POLAR>
-3.00256

>  <SCORE.INTER.ROT>
2

>  <SCORE.INTER.SOLV>
17.7666

>  <SCORE.INTER.VDW>
-6.91054

>  <SCORE.INTER.norm>
-0.69964

>  <SCORE.INTRA>
1.4447

>  <SCORE.INTRA.DIHEDRAL>
-0.282783

>  <SCORE.INTRA.DIHEDRAL.0>
1.76676

>  <SCORE.INTRA.POLAR>
0.472211

>  <SCORE.INTRA.POLAR.0>
-0.472211

>  <SCORE.INTRA.REPUL>
0

>  <SCORE.INTRA.REPUL.0>
0

>  <SCORE.INTRA.SOLV>
-0.219675

>  <SCORE.INTRA.SOLV.lig_0>
-22.5855

>  <SCORE.INTRA.VDW>
0.0904119

>  <SCORE.INTRA.VDW.0>
-0.733656

>  <SCORE.INTRA.norm>
0.111131

>  <SCORE.RESTR>
0.639934

>  <SCORE.RESTR.CAVITY>
0.639934

>  <SCORE.RESTR.norm>
0.0492257

>  <SCORE.SYSTEM>
0

>  <SCORE.SYSTEM.CONST>
0

>  <SCORE.SYSTEM.DIHEDRAL>
0

>  <SCORE.SYSTEM.SOLV>
0

>  <SCORE.SYSTEM.norm>
0

>  <SCORE.heavy>
13

>  <SCORE.norm>
-0.539284

>  <RMSD>
4.681

$$$$
lig.pdb
 OpenBabel11021811453D
libRbt.so/2013.1/901 2013/11/27
 13 14  0  0  0  0  0  0  0  0999 V2000
   -7.2677    3.2866   -8.4777 N   0  0  0  0  0  0  0  0  0  0  0  0
   -6.7171    3.2158   -7.2295 C   0  0  0  0  0  0  0  0  0  0  0  0
   -7.4747    3.3672   -6.1581 N   0  0  0  0  0  0  0  0  0  0  0  0
   -8.8200    3.5996   -6.2451 C   0  0  0  0  0  0  0  0  0  0  0  0
   -9.4417    3.6884   -7.5143 C   0  0  0  0  0  0  0  0  0  0  0  0
   -8.6154    3.5225   -8.6664 C   0  0  0  0  0  0  0  0  0  0  0  0
   -9.0867    3.5889   -9.7882 O   0  0  0  0  0  0  0  0  0  0  0  0
  -10.8640    3.9504   -7.2646 C   0  0  0  0  0  0  0  0  0  0  0  0
  -11.9553    4.1491   -8.2832 C   0  0  0  0  0  0  0  0  0  0  0  0
  -12.1407    2.9119   -9.0531 N   0  0  0  0  0  0  0  0  0  0  0  0
  -11.0061    3.9849   -5.9339 C   0  0  0  0  0  0  0  0  0  0  0  0
   -9.7989    3.7845   -5.3193 N   0  0  0  0  0  0  0  0  0  0  0  0
   -5.3723    2.9870   -7.0911 N   0  0  0  0  0  0  0  0  0  0  0  0
  1  6  1  0  0  0  0
  2  1  1  0  0  0  0
  3  4  1  0  0  0  0
  3  2  2  0  0  0  0
  4  5  2  0  0  0  0
  5  8  1  0  0  0  0
  5  6  1  0  0  0  0
  6  7  2  0  0  0  0
  8  9  1  0  0  0  0
  9 10  1  0  0  0  0
 11  8  2  0  0  0  0
 12  4  1  0  0  0  0
 12 11  1  0  0  0  0
 13  2  1  0  0  0  0
M  END
>  <CHROM.1>
64.45417120,11.34518887,-9.09886619,3.51664135,-7.51093910,-0.14905790,0.10395363
-1.67404528

>  <Name>
lig.pdb

>  <RI>
0

>  <Rbt.Current_Directory>
/home/itssahil/PROJECTS/Mol_Feturizer/New_Systems/rnas/2miy

>  <Rbt.Executable>
rbdock ($Id: //depot/dev/client3/rdock/2013.1/src/exe/rbdock.cxx#4 $)

>  <Rbt.Library>
libRbt.so (2013.1, Build901 2013/11/27)

>  <Rbt.Parameter_File>
/export/apps/rDock/src/rDock_2013.1_src/data/scripts/dock_solv.prm

>  <Rbt.Receptor>
prm/blind_docking_60.prm

>  <SCORE>
-6.14183

>  <SCORE.INTER>
-8.70889

>  <SCORE.INTER.CONST>
1

>  <SCORE.INTER.POLAR>
-2.99433

>  <SCORE.INTER.ROT>
2

>  <SCORE.INTER.SOLV>
17.8202

>  <SCORE.INTER.VDW>
-6.69823

>  <SCORE.INTER.norm>
-0.669915

>  <SCORE.INTRA>
1.4448

>  <SCORE.INTRA.DIHEDRAL>
-0.281697

>  <SCORE.INTRA.DIHEDRAL.0>
1.76676

>  <SCORE.INTRA.POLAR>
0.472211

>  <SCORE.INTRA.POLAR.0>
-0.472211

>  <SCORE.INTRA.REPUL>
0

>  <SCORE.INTRA.REPUL.0>
0

>  <SCORE.INTRA.SOLV>
-0.219993

>  <SCORE.INTRA.SOLV.lig_0>
-22.5855

>  <SCORE.INTRA.VDW>
0.0901278

>  <SCORE.INTRA.VDW.0>
-0.733656

>  <SCORE.INTRA.norm>
0.111139

>  <SCORE.RESTR>
1.12226

>  <SCORE.RESTR.CAVITY>
1.12226

>  <SCORE.RESTR.norm>
0.086328

>  <SCORE.SYSTEM>
0

>  <SCORE.SYSTEM.CONST>
0

>  <SCORE.SYSTEM.DIHEDRAL>
0

>  <SCORE.SYSTEM.SOLV>
0

>  <SCORE.SYSTEM.norm>
0

>  <SCORE.heavy>
13

>  <SCORE.norm>
-0.472448

>  <RMSD>
4.681

$$$$
lig.pdb
 OpenBabel11021811453D
libRbt.so/2013.1/901 2013/11/27
 13 14  0  0  0  0  0  0  0  0999 V2000
   -7.2716    3.2710   -8.4667 N   0  0  0  0  0  0  0  0  0  0  0  0
   -6.7315    3.1932   -7.2143 C   0  0  0  0  0  0  0  0  0  0  0  0
   -7.4971    3.3445   -6.1486 N   0  0  0  0  0  0  0  0  0  0  0  0
   -8.8406    3.5836   -6.2457 C   0  0  0  0  0  0  0  0  0  0  0  0
   -9.4514    3.6798   -7.5196 C   0  0  0  0  0  0  0  0  0  0  0  0
   -8.6165    3.5141   -8.6655 C   0  0  0  0  0  0  0  0  0  0  0  0
   -9.0784    3.5867   -9.7909 O   0  0  0  0  0  0  0  0  0  0  0  0
  -10.8745    3.9479   -7.2806 C   0  0  0  0  0  0  0  0  0  0  0  0
  -11.9564    4.1553   -8.3073 C   0  0  0  0  0  0  0  0  0  0  0  0
  -12.2761    2.8741   -8.9508 N   0  0  0  0  0  0  0  0  0  0  0  0
  -11.0273    3.9783   -5.9510 C   0  0  0  0  0  0  0  0  0  0  0  0
   -9.8260    3.7699   -5.3272 N   0  0  0  0  0  0  0  0  0  0  0  0
   -5.3890    2.9574   -7.0658 N   0  0  0  0  0  0  0  0  0  0  0  0
  1  6  1  0  0  0  0
  2  1  1  0  0  0  0
  3  4  1  0  0  0  0
  3  2  2  0  0  0  0
  4  5  2  0  0  0  0
  5  8  1  0  0  0  0
  5  6  1  0  0  0  0
  6  7  2  0  0  0  0
  8  9  1  0  0  0  0
  9 10  1  0  0  0  0
 11  8  2  0  0  0  0
 12  4  1  0  0  0  0
 12 11  1  0  0  0  0
 13  2  1  0  0  0  0
M  END
>  <CHROM.1>
72.51661556,-12.83944999,-9.12204059,3.50200810,-7.50173177,-0.14364908,0.10205300
-1.66959670

>  <Name>
lig.pdb

>  <RI>
2.95488e+07

>  <Rbt.Current_Directory>
/home/itssahil/PROJECTS/Mol_Feturizer/New_Systems/rnas/2miy

>  <Rbt.Executable>
rbdock ($Id: //depot/dev/client3/rdock/2013.1/src/exe/rbdock.cxx#4 $)

>  <Rbt.Library>
libRbt.so (2013.1, Build901 2013/11/27)

>  <Rbt.Parameter_File>
/export/apps/rDock/src/rDock_2013.1_src/data/scripts/dock_solv.prm

>  <Rbt.Receptor>
prm/blind_docking_20.prm

>  <SCORE>
-7.37588

>  <SCORE.INTER>
-8.95604

>  <SCORE.INTER.CONST>
1

>  <SCORE.INTER.POLAR>
-2.59041

>  <SCORE.INTER.ROT>
2

>  <SCORE.INTER.SOLV>
17.9316

>  <SCORE.INTER.VDW>
-8.24651

>  <SCORE.INTER.norm>
-0.688926

>  <SCORE.INTRA>
1.51915

>  <SCORE.INTRA.DIHEDRAL>
-0.123455

>  <SCORE.INTRA.DIHEDRAL.0>
1.76676

>  <SCORE.INTRA.POLAR>
0.472211

>  <SCORE.INTRA.POLAR.0>
-0.472211

>  <SCORE.INTRA.REPUL>
0

>  <SCORE.INTRA.REPUL.0>
0

>  <SCORE.INTRA.SOLV>
-0.288978

>  <SCORE.INTRA.SOLV.lig_0>
-22.5855

>  <SCORE.INTRA.VDW>
0.119847

>  <SCORE.INTRA.VDW.0>
-0.733656

>  <SCORE.INTRA.norm>
0.116858

>  <SCORE.RESTR>
0.0610147

>  <SCORE.RESTR.CAVITY>
0.0610147

>  <SCORE.RESTR.norm>
0.00469344

>  <SCORE.SYSTEM>
0

>  <SCORE.SYSTEM.CONST>
0

>  <SCORE.SYSTEM.DIHEDRAL>
0

>  <SCORE.SYSTEM.SOLV>
0

>  <SCORE.SYSTEM.norm>
0

>  <SCORE.heavy>
13

>  <SCORE.norm>
-0.567375

>  <RMSD>
4.687

$$$$
lig.pdb
 OpenBabel11021811453D
libRbt.so/2013.1/901 2013/11/27
 13 14  0  0  0  0  0  0  0  0999 V2000
   -7.2883    3.2885   -8.4552 N   0  0  0  0  0  0  0  0  0  0  0  0
   -6.7482    3.2035   -7.2032 C   0  0  0  0  0  0  0  0  0  0  0  0
   -7.5156    3.3379   -6.1366 N   0  0  0  0  0  0  0  0  0  0  0  0
   -8.8611    3.5662   -6.2322 C   0  0  0  0  0  0  0  0  0  0  0  0
   -9.4721    3.6692   -7.5055 C   0  0  0  0  0  0  0  0  0  0  0  0
   -8.6352    3.5216   -8.6525 C   0  0  0  0  0  0  0  0  0  0  0  0
   -9.0971    3.6009   -9.7774 O   0  0  0  0  0  0  0  0  0  0  0  0
  -10.8975    3.9225   -7.2648 C   0  0  0  0  0  0  0  0  0  0  0  0
  -11.9807    4.1302   -8.2901 C   0  0  0  0  0  0  0  0  0  0  0  0
  -12.2783    2.8554   -8.9565 N   0  0  0  0  0  0  0  0  0  0  0  0
  -11.0513    3.9390   -5.9351 C   0  0  0  0  0  0  0  0  0  0  0  0
   -9.8486    3.7352   -5.3126 N   0  0  0  0  0  0  0  0  0  0  0  0
   -5.4037    2.9780   -7.0562 N   0  0  0  0  0  0  0  0  0  0  0  0
  1  6  1  0  0  0  0
  2  1  1  0  0  0  0
  3  4  1  0  0  0  0
  3  2  2  0  0  0  0
  4  5  2  0  0  0  0
  5  8  1  0  0  0  0
  5  6  1  0  0  0  0
  6  7  2  0  0  0  0
  8  9  1  0  0  0  0
  9 10  1  0  0  0  0
 11  8  2  0  0  0  0
 12  4  1  0  0  0  0
 12 11  1  0  0  0  0
 13  2  1  0  0  0  0
M  END
>  <CHROM.1>
71.88934308,166.62776763,-9.14026124,3.49432041,-7.49000534,-0.14586497,0.09385740
-1.66013877

>  <Name>
lig.pdb

>  <RI>
9.06885e+06

>  <Rbt.Current_Directory>
/home/itssahil/PROJECTS/Mol_Feturizer/New_Systems/rnas/2miy

>  <Rbt.Executable>
rbdock ($Id: //depot/dev/client3/rdock/2013.1/src/exe/rbdock.cxx#4 $)

>  <Rbt.Library>
libRbt.so (2013.1, Build901 2013/11/27)

>  <Rbt.Parameter_File>
/export/apps/rDock/src/rDock_2013.1_src/data/scripts/dock_solv.prm

>  <Rbt.Receptor>
prm/pocket_docking_6.prm

>  <SCORE>
-7.25387

>  <SCORE.INTER>
-8.7971

>  <SCORE.INTER.CONST>
1

>  <SCORE.INTER.POLAR>
-2.57856

>  <SCORE.INTER.ROT>
2

>  <SCORE.INTER.SOLV>
17.9181

>  <SCORE.INTER.VDW>
-8.17556

>  <SCORE.INTER.norm>
-0.6767

>  <SCORE.INTRA>
1.52747

>  <SCORE.INTRA.DIHEDRAL>
-0.107467

>  <SCORE.INTRA.DIHEDRAL.0>
1.76676

>  <SCORE.INTRA.POLAR>
0.472211

>  <SCORE.INTRA.POLAR.0>
-0.472211

>  <SCORE.INTRA.REPUL>
0

>  <SCORE.INTRA.REPUL.0>
0

>  <SCORE.INTRA.SOLV>
-0.282824

>  <SCORE.INTRA.SOLV.lig_0>
-22.5855

>  <SCORE.INTRA.VDW>
0.117099

>  <SCORE.INTRA.VDW.0>
-0.733656

>  <SCORE.INTRA.norm>
0.117498

>  <SCORE.RESTR>
0.0157551

>  <SCORE.RESTR.CAVITY>
0.0157551

>  <SCORE.RESTR.norm>
0.00121193

>  <SCORE.SYSTEM>
0

>  <SCORE.SYSTEM.CONST>
0

>  <SCORE.SYSTEM.DIHEDRAL>
0

>  <SCORE.SYSTEM.SOLV>
0

>  <SCORE.SYSTEM.norm>
0

>  <SCORE.heavy>
13

>  <SCORE.norm>
-0.55799

>  <RMSD>
4.689

$$$$
lig.pdb
 OpenBabel11021811453D
libRbt.so/2013.1/901 2013/11/27
 13 14  0  0  0  0  0  0  0  0999 V2000
   -7.4001    4.4245   -7.9543 N   0  0  0  0  0  0  0  0  0  0  0  0
   -7.0268    4.8547   -6.7126 C   0  0  0  0  0  0  0  0  0  0  0  0
   -7.8977    4.8579   -5.7194 N   0  0  0  0  0  0  0  0  0  0  0  0
   -9.1902    4.4409   -5.8836 C   0  0  0  0  0  0  0  0  0  0  0  0
   -9.6323    3.9905   -7.1513 C   0  0  0  0  0  0  0  0  0  0  0  0
   -8.6840    3.9895   -8.2183 C   0  0  0  0  0  0  0  0  0  0  0  0
   -8.9997    3.6159   -9.3344 O   0  0  0  0  0  0  0  0  0  0  0  0
  -11.0467    3.6310   -6.9962 C   0  0  0  0  0  0  0  0  0  0  0  0
  -11.9860    3.1153   -8.0543 C   0  0  0  0  0  0  0  0  0  0  0  0
  -11.8644    3.9395   -9.2640 N   0  0  0  0  0  0  0  0  0  0  0  0
  -11.3480    3.8589   -5.7119 C   0  0  0  0  0  0  0  0  0  0  0  0
  -10.2559    4.3456   -5.0441 N   0  0  0  0  0  0  0  0  0  0  0  0
   -5.7424    5.2846   -6.4992 N   0  0  0  0  0  0  0  0  0  0  0  0
  1  6  1  0  0  0  0
  2  1  1  0  0  0  0
  3  4  1  0  0  0  0
  3  2  2  0  0  0  0
  4  5  2  0  0  0  0
  5  8  1  0  0  0  0
  5  6  1  0  0  0  0
  6  7  2  0  0  0  0
  8  9  1  0  0  0  0
  9 10  1  0  0  0  0
 11  8  2  0  0  0  0
 12  4  1  0  0  0  0
 12 11  1  0  0  0  0
 13  2  1  0  0  0  0
M  END
>  <CHROM.1>
-47.00484890,-104.26487585,-9.28379426,4.19421523,-7.17103273,-0.28756169
-0.22383657,-1.72647741

>  <Name>
lig.pdb

>  <RI>
1.82164e+07

>  <Rbt.Current_Directory>
/home/itssahil/PROJECTS/Mol_Feturizer/New_Systems/rnas/2miy

>  <Rbt.Executable>
rbdock ($Id: //depot/dev/client3/rdock/2013.1/src/exe/rbdock.cxx#4 $)

>  <Rbt.Library>
libRbt.so (2013.1, Build901 2013/11/27)

>  <Rbt.Parameter_File>
/export/apps/rDock/src/rDock_2013.1_src/data/scripts/dock_solv.prm

>  <Rbt.Receptor>
prm/blind_docking_80.prm

>  <SCORE>
-13.6219

>  <SCORE.INTER>
-14.3875

>  <SCORE.INTER.CONST>
1

>  <SCORE.INTER.POLAR>
-2.54467

>  <SCORE.INTER.ROT>
2

>  <SCORE.INTER.SOLV>
16.321

>  <SCORE.INTER.VDW>
-11.4831

>  <SCORE.INTER.norm>
-1.10673

>  <SCORE.INTRA>
-0.0933941

>  <SCORE.INTRA.DIHEDRAL>
-0.0655138

>  <SCORE.INTRA.DIHEDRAL.0>
1.76676

>  <SCORE.INTRA.POLAR>
-0.0121277

>  <SCORE.INTRA.POLAR.0>
-0.472211

>  <SCORE.INTRA.REPUL>
0

>  <SCORE.INTRA.REPUL.0>
0

>  <SCORE.INTRA.SOLV>
-0.032296

>  <SCORE.INTRA.SOLV.lig_0>
-22.5855

>  <SCORE.INTRA.VDW>
-0.00325514

>  <SCORE.INTRA.VDW.0>
-0.733656

>  <SCORE.INTRA.norm>
-0.00718416

>  <SCORE.RESTR>
0.85897

>  <SCORE.RESTR.CAVITY>
0.85897

>  <SCORE.RESTR.norm>
0.0660746

>  <SCORE.SYSTEM>
0

>  <SCORE.SYSTEM.CONST>
0

>  <SCORE.SYSTEM.DIHEDRAL>
0

>  <SCORE.SYSTEM.SOLV>
0

>  <SCORE.SYSTEM.norm>
0

>  <SCORE.heavy>
13

>  <SCORE.norm>
-1.04784

>  <RMSD>
4.691

$$$$
lig.pdb
 OpenBabel11021811453D
libRbt.so/2013.1/901 2013/11/27
 13 14  0  0  0  0  0  0  0  0999 V2000
   -7.2682    3.2844   -8.4633 N   0  0  0  0  0  0  0  0  0  0  0  0
   -6.7459    3.1956   -7.2041 C   0  0  0  0  0  0  0  0  0  0  0  0
   -7.5267    3.3367   -6.1480 N   0  0  0  0  0  0  0  0  0  0  0  0
   -8.8688    3.5758   -6.2621 C   0  0  0  0  0  0  0  0  0  0  0  0
   -9.4616    3.6831   -7.5437 C   0  0  0  0  0  0  0  0  0  0  0  0
   -8.6103    3.5282   -8.6790 C   0  0  0  0  0  0  0  0  0  0  0  0
   -9.0562    3.6106   -9.8101 O   0  0  0  0  0  0  0  0  0  0  0  0
  -10.8881    3.9479   -7.3225 C   0  0  0  0  0  0  0  0  0  0  0  0
  -11.9555    4.1638   -8.3626 C   0  0  0  0  0  0  0  0  0  0  0  0
  -12.3164    2.8768   -8.9716 N   0  0  0  0  0  0  0  0  0  0  0  0
  -11.0598    3.9663   -5.9950 C   0  0  0  0  0  0  0  0  0  0  0  0
   -9.8674    3.7531   -5.3561 N   0  0  0  0  0  0  0  0  0  0  0  0
   -5.4054    2.9594   -7.0386 N   0  0  0  0  0  0  0  0  0  0  0  0
  1  6  1  0  0  0  0
  2  1  1  0  0  0  0
  3  4  1  0  0  0  0
  3  2  2  0  0  0  0
  4  5  2  0  0  0  0
  5  8  1  0  0  0  0
  5  6  1  0  0  0  0
  6  7  2  0  0  0  0
  8  9  1  0  0  0  0
  9 10  1  0  0  0  0
 11  8  2  0  0  0  0
 12  4  1  0  0  0  0
 12 11  1  0  0  0  0
 13  2  1  0  0  0  0
M  END
>  <CHROM.1>
75.54156812,161.41252149,-9.13720332,3.50417919,-7.51786796,-0.15266634,0.10001107
-1.65805796

>  <Name>
lig.pdb

>  <RI>
1.17462e+07

>  <Rbt.Current_Directory>
/home/itssahil/PROJECTS/Mol_Feturizer/New_Systems/rnas/2miy

>  <Rbt.Executable>
rbdock ($Id: //depot/dev/client3/rdock/2013.1/src/exe/rbdock.cxx#4 $)

>  <Rbt.Library>
libRbt.so (2013.1, Build901 2013/11/27)

>  <Rbt.Parameter_File>
/export/apps/rDock/src/rDock_2013.1_src/data/scripts/dock_solv.prm

>  <Rbt.Receptor>
prm/blind_docking_40.prm

>  <SCORE>
-6.76352

>  <SCORE.INTER>
-8.89414

>  <SCORE.INTER.CONST>
1

>  <SCORE.INTER.POLAR>
-2.60828

>  <SCORE.INTER.ROT>
2

>  <SCORE.INTER.SOLV>
18.018

>  <SCORE.INTER.VDW>
-8.17448

>  <SCORE.INTER.norm>
-0.684165

>  <SCORE.INTRA>
1.58862

>  <SCORE.INTRA.DIHEDRAL>
0.0349097

>  <SCORE.INTRA.DIHEDRAL.0>
1.76676

>  <SCORE.INTRA.POLAR>
0.472211

>  <SCORE.INTRA.POLAR.0>
-0.472211

>  <SCORE.INTRA.REPUL>
0

>  <SCORE.INTRA.REPUL.0>
0

>  <SCORE.INTRA.SOLV>
-0.31616

>  <SCORE.INTRA.SOLV.lig_0>
-22.5855

>  <SCORE.INTRA.VDW>
0.123722

>  <SCORE.INTRA.VDW.0>
-0.733656

>  <SCORE.INTRA.norm>
0.122201

>  <SCORE.RESTR>
0.542007

>  <SCORE.RESTR.CAVITY>
0.542007

>  <SCORE.RESTR.norm>
0.0416928

>  <SCORE.SYSTEM>
0

>  <SCORE.SYSTEM.CONST>
0

>  <SCORE.SYSTEM.DIHEDRAL>
0

>  <SCORE.SYSTEM.SOLV>
0

>  <SCORE.SYSTEM.norm>
0

>  <SCORE.heavy>
13

>  <SCORE.norm>
-0.520271

>  <RMSD>
4.693

$$$$
lig.pdb
 OpenBabel11021811453D
libRbt.so/2013.1/901 2013/11/27
 13 14  0  0  0  0  0  0  0  0999 V2000
   -7.2688    3.2746   -8.4622 N   0  0  0  0  0  0  0  0  0  0  0  0
   -6.7490    3.1863   -7.2020 C   0  0  0  0  0  0  0  0  0  0  0  0
   -7.5313    3.3309   -6.1475 N   0  0  0  0  0  0  0  0  0  0  0  0
   -8.8726    3.5732   -6.2643 C   0  0  0  0  0  0  0  0  0  0  0  0
   -9.4628    3.6801   -7.5470 C   0  0  0  0  0  0  0  0  0  0  0  0
   -8.6100    3.5215   -8.6807 C   0  0  0  0  0  0  0  0  0  0  0  0
   -9.0536    3.6034   -9.8127 O   0  0  0  0  0  0  0  0  0  0  0  0
  -10.8891    3.9488   -7.3288 C   0  0  0  0  0  0  0  0  0  0  0  0
  -11.9541    4.1660   -8.3710 C   0  0  0  0  0  0  0  0  0  0  0  0
  -12.3213    2.8782   -8.9748 N   0  0  0  0  0  0  0  0  0  0  0  0
  -11.0631    3.9695   -6.0016 C   0  0  0  0  0  0  0  0  0  0  0  0
   -9.8724    3.7543   -5.3603 N   0  0  0  0  0  0  0  0  0  0  0  0
   -5.4094    2.9470   -7.0338 N   0  0  0  0  0  0  0  0  0  0  0  0
  1  6  1  0  0  0  0
  2  1  1  0  0  0  0
  3  4  1  0  0  0  0
  3  2  2  0  0  0  0
  4  5  2  0  0  0  0
  5  8  1  0  0  0  0
  5  6  1  0  0  0  0
  6  7  2  0  0  0  0
  8  9  1  0  0  0  0
  9 10  1  0  0  0  0
 11  8  2  0  0  0  0
 12  4  1  0  0  0  0
 12 11  1  0  0  0  0
 13  2  1  0  0  0  0
M  END
>  <CHROM.1>
75.78184986,-19.96228826,-9.13927446,3.50043325,-7.52016629,-0.15391322,0.10253953
-1.65931045

>  <Name>
lig.pdb

>  <RI>
1.17462e+07

>  <Rbt.Current_Directory>
/home/itssahil/PROJECTS/Mol_Feturizer/New_Systems/rnas/2miy

>  <Rbt.Executable>
rbdock ($Id: //depot/dev/client3/rdock/2013.1/src/exe/rbdock.cxx#4 $)

>  <Rbt.Library>
libRbt.so (2013.1, Build901 2013/11/27)

>  <Rbt.Parameter_File>
/export/apps/rDock/src/rDock_2013.1_src/data/scripts/dock_solv.prm

>  <Rbt.Receptor>
prm/blind_docking_40.prm

>  <SCORE>
-6.8171

>  <SCORE.INTER>
-8.91958

>  <SCORE.INTER.CONST>
1

>  <SCORE.INTER.POLAR>
-2.57756

>  <SCORE.INTER.ROT>
2

>  <SCORE.INTER.SOLV>
18.0291

>  <SCORE.INTER.VDW>
-8.29754

>  <SCORE.INTER.norm>
-0.686122

>  <SCORE.INTRA>
1.5647

>  <SCORE.INTRA.DIHEDRAL>
-0.00557166

>  <SCORE.INTRA.DIHEDRAL.0>
1.76676

>  <SCORE.INTRA.POLAR>
0.472211

>  <SCORE.INTRA.POLAR.0>
-0.472211

>  <SCORE.INTRA.REPUL>
0

>  <SCORE.INTRA.REPUL.0>
0

>  <SCORE.INTRA.SOLV>
-0.31688

>  <SCORE.INTRA.SOLV.lig_0>
-22.5855

>  <SCORE.INTRA.VDW>
0.120409

>  <SCORE.INTRA.VDW.0>
-0.733656

>  <SCORE.INTRA.norm>
0.120362

>  <SCORE.RESTR>
0.53778

>  <SCORE.RESTR.CAVITY>
0.53778

>  <SCORE.RESTR.norm>
0.0413677

>  <SCORE.SYSTEM>
0

>  <SCORE.SYSTEM.CONST>
0

>  <SCORE.SYSTEM.DIHEDRAL>
0

>  <SCORE.SYSTEM.SOLV>
0

>  <SCORE.SYSTEM.norm>
0

>  <SCORE.heavy>
13

>  <SCORE.norm>
-0.524392

>  <RMSD>
4.694

$$$$
lig.pdb
 OpenBabel11021811453D
libRbt.so/2013.1/901 2013/11/27
 13 14  0  0  0  0  0  0  0  0999 V2000
   -7.2741    3.2916   -8.5060 N   0  0  0  0  0  0  0  0  0  0  0  0
   -6.7450    3.2156   -7.2488 C   0  0  0  0  0  0  0  0  0  0  0  0
   -7.5210    3.3620   -6.1900 N   0  0  0  0  0  0  0  0  0  0  0  0
   -8.8647    3.5943   -6.2991 C   0  0  0  0  0  0  0  0  0  0  0  0
   -9.4645    3.6883   -7.5784 C   0  0  0  0  0  0  0  0  0  0  0  0
   -8.6184    3.5278   -8.7168 C   0  0  0  0  0  0  0  0  0  0  0  0
   -9.0704    3.5989   -9.8463 O   0  0  0  0  0  0  0  0  0  0  0  0
  -10.8910    3.9488   -7.3521 C   0  0  0  0  0  0  0  0  0  0  0  0
  -11.9647    4.1514   -8.3883 C   0  0  0  0  0  0  0  0  0  0  0  0
  -12.3325    2.8561   -8.9754 N   0  0  0  0  0  0  0  0  0  0  0  0
  -11.0560    3.9774   -6.0239 C   0  0  0  0  0  0  0  0  0  0  0  0
   -9.8594    3.7748   -5.3894 N   0  0  0  0  0  0  0  0  0  0  0  0
   -5.4027    2.9866   -7.0884 N   0  0  0  0  0  0  0  0  0  0  0  0
  1  6  1  0  0  0  0
  2  1  1  0  0  0  0
  3  4  1  0  0  0  0
  3  2  2  0  0  0  0
  4  5  2  0  0  0  0
  5  8  1  0  0  0  0
  5  6  1  0  0  0  0
  6  7  2  0  0  0  0
  8  9  1  0  0  0  0
  9 10  1  0  0  0  0
 11  8  2  0  0  0  0
 12  4  1  0  0  0  0
 12 11  1  0  0  0  0
 13  2  1  0  0  0  0
M  END
>  <CHROM.1>
76.09727565,-20.20332502,-9.14003166,3.51098159,-7.55205207,-0.14708283,0.09479651
-1.66665275

>  <Name>
lig.pdb

>  <RI>
0

>  <Rbt.Current_Directory>
/home/itssahil/PROJECTS/Mol_Feturizer/New_Systems/rnas/2miy

>  <Rbt.Executable>
rbdock ($Id: //depot/dev/client3/rdock/2013.1/src/exe/rbdock.cxx#4 $)

>  <Rbt.Library>
libRbt.so (2013.1, Build901 2013/11/27)

>  <Rbt.Parameter_File>
/export/apps/rDock/src/rDock_2013.1_src/data/scripts/dock_solv.prm

>  <Rbt.Receptor>
prm/blind_docking_60.prm

>  <SCORE>
-6.0084

>  <SCORE.INTER>
-8.53228

>  <SCORE.INTER.CONST>
1

>  <SCORE.INTER.POLAR>
-2.59181

>  <SCORE.INTER.ROT>
2

>  <SCORE.INTER.SOLV>
18.1201

>  <SCORE.INTER.VDW>
-8.02217

>  <SCORE.INTER.norm>
-0.656329

>  <SCORE.INTRA>
1.57071

>  <SCORE.INTRA.DIHEDRAL>
0.00757544

>  <SCORE.INTRA.DIHEDRAL.0>
1.76676

>  <SCORE.INTRA.POLAR>
0.472211

>  <SCORE.INTRA.POLAR.0>
-0.472211

>  <SCORE.INTRA.REPUL>
0

>  <SCORE.INTRA.REPUL.0>
0

>  <SCORE.INTRA.SOLV>
-0.319955

>  <SCORE.INTRA.SOLV.lig_0>
-22.5855

>  <SCORE.INTRA.VDW>
0.121381

>  <SCORE.INTRA.VDW.0>
-0.733656

>  <SCORE.INTRA.norm>
0.120824

>  <SCORE.RESTR>
0.953175

>  <SCORE.RESTR.CAVITY>
0.953175

>  <SCORE.RESTR.norm>
0.0733212

>  <SCORE.SYSTEM>
0

>  <SCORE.SYSTEM.CONST>
0

>  <SCORE.SYSTEM.DIHEDRAL>
0

>  <SCORE.SYSTEM.SOLV>
0

>  <SCORE.SYSTEM.norm>
0

>  <SCORE.heavy>
13

>  <SCORE.norm>
-0.462184

>  <RMSD>
4.696

$$$$
lig.pdb
 OpenBabel11021811453D
libRbt.so/2013.1/901 2013/11/27
 13 14  0  0  0  0  0  0  0  0999 V2000
   -7.2679    3.2928   -8.5058 N   0  0  0  0  0  0  0  0  0  0  0  0
   -6.7414    3.2161   -7.2476 C   0  0  0  0  0  0  0  0  0  0  0  0
   -7.5191    3.3648   -6.1903 N   0  0  0  0  0  0  0  0  0  0  0  0
   -8.8621    3.6001   -6.3022 C   0  0  0  0  0  0  0  0  0  0  0  0
   -9.4591    3.6950   -7.5827 C   0  0  0  0  0  0  0  0  0  0  0  0
   -8.6112    3.5320   -8.7194 C   0  0  0  0  0  0  0  0  0  0  0  0
   -9.0608    3.6037   -9.8497 O   0  0  0  0  0  0  0  0  0  0  0  0
  -10.8855    3.9588   -7.3593 C   0  0  0  0  0  0  0  0  0  0  0  0
  -11.9567    4.1635   -8.3978 C   0  0  0  0  0  0  0  0  0  0  0  0
  -12.3316    2.8679   -8.9797 N   0  0  0  0  0  0  0  0  0  0  0  0
  -11.0531    3.9884   -6.0315 C   0  0  0  0  0  0  0  0  0  0  0  0
   -9.8582    3.7833   -5.3945 N   0  0  0  0  0  0  0  0  0  0  0  0
   -5.3999    2.9842   -7.0843 N   0  0  0  0  0  0  0  0  0  0  0  0
  1  6  1  0  0  0  0
  2  1  1  0  0  0  0
  3  4  1  0  0  0  0
  3  2  2  0  0  0  0
  4  5  2  0  0  0  0
  5  8  1  0  0  0  0
  5  6  1  0  0  0  0
  6  7  2  0  0  0  0
  8  9  1  0  0  0  0
  9 10  1  0  0  0  0
 11  8  2  0  0  0  0
 12  4  1  0  0  0  0
 12 11  1  0  0  0  0
 13  2  1  0  0  0  0
M  END
>  <CHROM.1>
76.40982559,159.77241511,-9.13570591,3.51680594,-7.55500380,-0.14815734,0.09695873
-1.66669970

>  <Name>
lig.pdb

>  <RI>
0

>  <Rbt.Current_Directory>
/home/itssahil/PROJECTS/Mol_Feturizer/New_Systems/rnas/2miy

>  <Rbt.Executable>
rbdock ($Id: //depot/dev/client3/rdock/2013.1/src/exe/rbdock.cxx#4 $)

>  <Rbt.Library>
libRbt.so (2013.1, Build901 2013/11/27)

>  <Rbt.Parameter_File>
/export/apps/rDock/src/rDock_2013.1_src/data/scripts/dock_solv.prm

>  <Rbt.Receptor>
prm/blind_docking_60.prm

>  <SCORE>
-5.86112

>  <SCORE.INTER>
-8.41179

>  <SCORE.INTER.CONST>
1

>  <SCORE.INTER.POLAR>
-2.61552

>  <SCORE.INTER.ROT>
2

>  <SCORE.INTER.SOLV>
18.1193

>  <SCORE.INTER.VDW>
-7.86255

>  <SCORE.INTER.norm>
-0.647061

>  <SCORE.INTRA>
1.60441

>  <SCORE.INTRA.DIHEDRAL>
0.0731344

>  <SCORE.INTRA.DIHEDRAL.0>
1.76676

>  <SCORE.INTRA.POLAR>
0.472211

>  <SCORE.INTRA.POLAR.0>
-0.472211

>  <SCORE.INTRA.REPUL>
0

>  <SCORE.INTRA.REPUL.0>
0

>  <SCORE.INTRA.SOLV>
-0.323837

>  <SCORE.INTRA.SOLV.lig_0>
-22.5855

>  <SCORE.INTRA.VDW>
0.124239

>  <SCORE.INTRA.VDW.0>
-0.733656

>  <SCORE.INTRA.norm>
0.123416

>  <SCORE.RESTR>
0.946261

>  <SCORE.RESTR.CAVITY>
0.946261

>  <SCORE.RESTR.norm>
0.0727893

>  <SCORE.SYSTEM>
0

>  <SCORE.SYSTEM.CONST>
0

>  <SCORE.SYSTEM.DIHEDRAL>
0

>  <SCORE.SYSTEM.SOLV>
0

>  <SCORE.SYSTEM.norm>
0

>  <SCORE.heavy>
13

>  <SCORE.norm>
-0.450856

>  <RMSD>
4.696

$$$$
lig.pdb
 OpenBabel11021811453D
libRbt.so/2013.1/901 2013/11/27
 13 14  0  0  0  0  0  0  0  0999 V2000
   -7.1659    3.2578   -8.4965 N   0  0  0  0  0  0  0  0  0  0  0  0
   -6.7166    3.1572   -7.2102 C   0  0  0  0  0  0  0  0  0  0  0  0
   -7.5505    3.3209   -6.1990 N   0  0  0  0  0  0  0  0  0  0  0  0
   -8.8774    3.5957   -6.3872 C   0  0  0  0  0  0  0  0  0  0  0  0
   -9.3953    3.7167   -7.6996 C   0  0  0  0  0  0  0  0  0  0  0  0
   -8.4870    3.5371   -8.7861 C   0  0  0  0  0  0  0  0  0  0  0  0
   -8.8673    3.6296   -9.9402 O   0  0  0  0  0  0  0  0  0  0  0  0
  -10.8242    4.0200   -7.5578 C   0  0  0  0  0  0  0  0  0  0  0  0
  -11.8263    4.2628   -8.6553 C   0  0  0  0  0  0  0  0  0  0  0  0
  -12.7420    3.1179   -8.7473 N   0  0  0  0  0  0  0  0  0  0  0  0
  -11.0685    4.0453   -6.2418 C   0  0  0  0  0  0  0  0  0  0  0  0
   -9.9194    3.8013   -5.5379 N   0  0  0  0  0  0  0  0  0  0  0  0
   -5.3942    2.8854   -6.9709 N   0  0  0  0  0  0  0  0  0  0  0  0
  1  6  1  0  0  0  0
  2  1  1  0  0  0  0
  3  4  1  0  0  0  0
  3  2  2  0  0  0  0
  4  5  2  0  0  0  0
  5  8  1  0  0  0  0
  5  6  1  0  0  0  0
  6  7  2  0  0  0  0
  8  9  1  0  0  0  0
  9 10  1  0  0  0  0
 11  8  2  0  0  0  0
 12  4  1  0  0  0  0
 12 11  1  0  0  0  0
 13  2  1  0  0  0  0
M  END
>  <CHROM.1>
108.38169291,69.47033818,-9.12941126,3.54161740,-7.60593133,-0.14788552,0.11878898
-1.62124021

>  <Name>
lig.pdb

>  <RI>
4.2128e+07

>  <Rbt.Current_Directory>
/home/itssahil/PROJECTS/Mol_Feturizer/New_Systems/rnas/2miy

>  <Rbt.Executable>
rbdock ($Id: //depot/dev/client3/rdock/2013.1/src/exe/rbdock.cxx#4 $)

>  <Rbt.Library>
libRbt.so (2013.1, Build901 2013/11/27)

>  <Rbt.Parameter_File>
/export/apps/rDock/src/rDock_2013.1_src/data/scripts/dock_solv.prm

>  <Rbt.Receptor>
prm/pocket_docking_5.prm

>  <SCORE>
-5.82688

>  <SCORE.INTER>
-8.21083

>  <SCORE.INTER.CONST>
1

>  <SCORE.INTER.POLAR>
-3.11238

>  <SCORE.INTER.ROT>
2

>  <SCORE.INTER.SOLV>
18.5581

>  <SCORE.INTER.VDW>
-6.21867

>  <SCORE.INTER.norm>
-0.631602

>  <SCORE.INTRA>
2.34542

>  <SCORE.INTRA.DIHEDRAL>
1.65476

>  <SCORE.INTRA.DIHEDRAL.0>
1.76676

>  <SCORE.INTRA.POLAR>
0.472211

>  <SCORE.INTRA.POLAR.0>
-0.472211

>  <SCORE.INTRA.REPUL>
0

>  <SCORE.INTRA.REPUL.0>
0

>  <SCORE.INTRA.SOLV>
-0.588518

>  <SCORE.INTRA.SOLV.lig_0>
-22.5855

>  <SCORE.INTRA.VDW>
0.206779

>  <SCORE.INTRA.VDW.0>
-0.733656

>  <SCORE.INTRA.norm>
0.180417

>  <SCORE.RESTR>
0.038529

>  <SCORE.RESTR.CAVITY>
0.038529

>  <SCORE.RESTR.norm>
0.00296377

>  <SCORE.SYSTEM>
0

>  <SCORE.SYSTEM.CONST>
0

>  <SCORE.SYSTEM.DIHEDRAL>
0

>  <SCORE.SYSTEM.SOLV>
0

>  <SCORE.SYSTEM.norm>
0

>  <SCORE.heavy>
13

>  <SCORE.norm>
-0.448222

>  <RMSD>
4.713

$$$$
lig.pdb
 OpenBabel11021811453D
libRbt.so/2013.1/901 2013/11/27
 13 14  0  0  0  0  0  0  0  0999 V2000
   -7.1586    3.2580   -8.5076 N   0  0  0  0  0  0  0  0  0  0  0  0
   -6.7146    3.1658   -7.2189 C   0  0  0  0  0  0  0  0  0  0  0  0
   -7.5529    3.3350   -6.2122 N   0  0  0  0  0  0  0  0  0  0  0  0
   -8.8792    3.6074   -6.4077 C   0  0  0  0  0  0  0  0  0  0  0  0
   -9.3917    3.7198   -7.7229 C   0  0  0  0  0  0  0  0  0  0  0  0
   -8.4788    3.5344   -8.8045 C   0  0  0  0  0  0  0  0  0  0  0  0
   -8.8543    3.6193   -9.9607 O   0  0  0  0  0  0  0  0  0  0  0  0
  -10.8215    4.0227   -7.5890 C   0  0  0  0  0  0  0  0  0  0  0  0
  -11.8192    4.2577   -8.6922 C   0  0  0  0  0  0  0  0  0  0  0  0
  -12.7273    3.1071   -8.7874 N   0  0  0  0  0  0  0  0  0  0  0  0
  -11.0714    4.0558   -6.2742 C   0  0  0  0  0  0  0  0  0  0  0  0
   -9.9250    3.8173   -5.5640 N   0  0  0  0  0  0  0  0  0  0  0  0
   -5.3929    2.8968   -6.9723 N   0  0  0  0  0  0  0  0  0  0  0  0
  1  6  1  0  0  0  0
  2  1  1  0  0  0  0
  3  4  1  0  0  0  0
  3  2  2  0  0  0  0
  4  5  2  0  0  0  0
  5  8  1  0  0  0  0
  5  6  1  0  0  0  0
  6  7  2  0  0  0  0
  8  9  1  0  0  0  0
  9 10  1  0  0  0  0
 11  8  2  0  0  0  0
 12  4  1  0  0  0  0
 12 11  1  0  0  0  0
 13  2  1  0  0  0  0
M  END
>  <CHROM.1>
107.96901587,-109.91851103,-9.12563125,3.54524047,-7.62774387,-0.15292312
0.11806801,-1.62745091

>  <Name>
lig.pdb

>  <RI>
1.82164e+07

>  <Rbt.Current_Directory>
/home/itssahil/PROJECTS/Mol_Feturizer/New_Systems/rnas/2miy

>  <Rbt.Executable>
rbdock ($Id: //depot/dev/client3/rdock/2013.1/src/exe/rbdock.cxx#4 $)

>  <Rbt.Library>
libRbt.so (2013.1, Build901 2013/11/27)

>  <Rbt.Parameter_File>
/export/apps/rDock/src/rDock_2013.1_src/data/scripts/dock_solv.prm

>  <Rbt.Receptor>
prm/blind_docking_80.prm

>  <SCORE>
-5.23296

>  <SCORE.INTER>
-7.98897

>  <SCORE.INTER.CONST>
1

>  <SCORE.INTER.POLAR>
-3.07606

>  <SCORE.INTER.ROT>
2

>  <SCORE.INTER.SOLV>
18.5801

>  <SCORE.INTER.VDW>
-6.19916

>  <SCORE.INTER.norm>
-0.614536

>  <SCORE.INTRA>
2.35379

>  <SCORE.INTRA.DIHEDRAL>
1.67184

>  <SCORE.INTRA.DIHEDRAL.0>
1.76676

>  <SCORE.INTRA.POLAR>
0.472211

>  <SCORE.INTRA.POLAR.0>
-0.472211

>  <SCORE.INTRA.REPUL>
0

>  <SCORE.INTRA.REPUL.0>
0

>  <SCORE.INTRA.SOLV>
-0.587304

>  <SCORE.INTRA.SOLV.lig_0>
-22.5855

>  <SCORE.INTRA.VDW>
0.206008

>  <SCORE.INTRA.VDW.0>
-0.733656

>  <SCORE.INTRA.norm>
0.181061

>  <SCORE.RESTR>
0.402214

>  <SCORE.RESTR.CAVITY>
0.402214

>  <SCORE.RESTR.norm>
0.0309395

>  <SCORE.SYSTEM>
0

>  <SCORE.SYSTEM.CONST>
0

>  <SCORE.SYSTEM.DIHEDRAL>
0

>  <SCORE.SYSTEM.SOLV>
0

>  <SCORE.SYSTEM.norm>
0

>  <SCORE.heavy>
13

>  <SCORE.norm>
-0.402536

>  <RMSD>
4.717

$$$$
lig.pdb
 OpenBabel11021811453D
libRbt.so/2013.1/901 2013/11/27
 13 14  0  0  0  0  0  0  0  0999 V2000
   -6.5266    5.8281   -5.4931 N   0  0  0  0  0  0  0  0  0  0  0  0
   -7.0218    4.9115   -6.3768 C   0  0  0  0  0  0  0  0  0  0  0  0
   -8.2191    4.3858   -6.1898 N   0  0  0  0  0  0  0  0  0  0  0  0
   -9.0044    4.7255   -5.1224 C   0  0  0  0  0  0  0  0  0  0  0  0
   -8.5379    5.6663   -4.1723 C   0  0  0  0  0  0  0  0  0  0  0  0
   -7.2434    6.2299   -4.3831 C   0  0  0  0  0  0  0  0  0  0  0  0
   -6.7817    7.0439   -3.6025 O   0  0  0  0  0  0  0  0  0  0  0  0
   -9.5955    5.7997   -3.1635 C   0  0  0  0  0  0  0  0  0  0  0  0
   -9.5858    6.6626   -1.9294 C   0  0  0  0  0  0  0  0  0  0  0  0
  -10.9490    7.1304   -1.6456 N   0  0  0  0  0  0  0  0  0  0  0  0
  -10.5855    4.9884   -3.5555 C   0  0  0  0  0  0  0  0  0  0  0  0
  -10.2430    4.3413   -4.7128 N   0  0  0  0  0  0  0  0  0  0  0  0
   -6.2708    4.5373   -7.4612 N   0  0  0  0  0  0  0  0  0  0  0  0
  1  6  1  0  0  0  0
  2  1  1  0  0  0  0
  3  4  1  0  0  0  0
  3  2  2  0  0  0  0
  4  5  2  0  0  0  0
  5  8  1  0  0  0  0
  5  6  1  0  0  0  0
  6  7  2  0  0  0  0
  8  9  1  0  0  0  0
  9 10  1  0  0  0  0
 11  8  2  0  0  0  0
 12  4  1  0  0  0  0
 12 11  1  0  0  0  0
 13  2  1  0  0  0  0
M  END
>  <CHROM.1>
147.03200671,89.79155931,-8.48853633,5.58229857,-4.44761456,-0.82801027,0.39362870
0.89411863

>  <Name>
lig.pdb

>  <RI>
3.47783e+07

>  <Rbt.Current_Directory>
/home/itssahil/PROJECTS/Mol_Feturizer/New_Systems/rnas/2miy

>  <Rbt.Executable>
rbdock ($Id: //depot/dev/client3/rdock/2013.1/src/exe/rbdock.cxx#4 $)

>  <Rbt.Library>
libRbt.so (2013.1, Build901 2013/11/27)

>  <Rbt.Parameter_File>
/export/apps/rDock/src/rDock_2013.1_src/data/scripts/dock_solv.prm

>  <Rbt.Receptor>
prm/pocket_docking_8.prm

>  <SCORE>
-25.4606

>  <SCORE.INTER>
-27.6515

>  <SCORE.INTER.CONST>
1

>  <SCORE.INTER.POLAR>
-3.42323

>  <SCORE.INTER.ROT>
2

>  <SCORE.INTER.SOLV>
12.3467

>  <SCORE.INTER.VDW>
-16.0724

>  <SCORE.INTER.norm>
-2.12704

>  <SCORE.INTRA>
2.19088

>  <SCORE.INTRA.DIHEDRAL>
0.923441

>  <SCORE.INTRA.DIHEDRAL.0>
1.76676

>  <SCORE.INTRA.POLAR>
0.472211

>  <SCORE.INTRA.POLAR.0>
-0.472211

>  <SCORE.INTRA.REPUL>
0

>  <SCORE.INTRA.REPUL.0>
0

>  <SCORE.INTRA.SOLV>
-0.602889

>  <SCORE.INTRA.SOLV.lig_0>
-22.5855

>  <SCORE.INTRA.VDW>
0.425081

>  <SCORE.INTRA.VDW.0>
-0.733656

>  <SCORE.INTRA.norm>
0.168529

>  <SCORE.RESTR>
0

>  <SCORE.RESTR.CAVITY>
0

>  <SCORE.RESTR.norm>
0

>  <SCORE.SYSTEM>
0

>  <SCORE.SYSTEM.CONST>
0

>  <SCORE.SYSTEM.DIHEDRAL>
0

>  <SCORE.SYSTEM.SOLV>
0

>  <SCORE.SYSTEM.norm>
0

>  <SCORE.heavy>
13

>  <SCORE.norm>
-1.95851

>  <RMSD>
4.717

$$$$
lig.pdb
 OpenBabel11021811453D
libRbt.so/2013.1/901 2013/11/27
 13 14  0  0  0  0  0  0  0  0999 V2000
   -7.1763    3.2736   -8.5327 N   0  0  0  0  0  0  0  0  0  0  0  0
   -6.7276    3.1915   -7.2450 C   0  0  0  0  0  0  0  0  0  0  0  0
   -7.5637    3.3613   -6.2366 N   0  0  0  0  0  0  0  0  0  0  0  0
   -8.8923    3.6243   -6.4292 C   0  0  0  0  0  0  0  0  0  0  0  0
   -9.4098    3.7259   -7.7434 C   0  0  0  0  0  0  0  0  0  0  0  0
   -8.4992    3.5400   -8.8269 C   0  0  0  0  0  0  0  0  0  0  0  0
   -8.8789    3.6160   -9.9823 O   0  0  0  0  0  0  0  0  0  0  0  0
  -10.8410    4.0206   -7.6065 C   0  0  0  0  0  0  0  0  0  0  0  0
  -11.8437    4.2431   -8.7078 C   0  0  0  0  0  0  0  0  0  0  0  0
  -12.7341    3.0788   -8.8049 N   0  0  0  0  0  0  0  0  0  0  0  0
  -11.0868    4.0597   -6.2912 C   0  0  0  0  0  0  0  0  0  0  0  0
   -9.9367    3.8324   -5.5833 N   0  0  0  0  0  0  0  0  0  0  0  0
   -5.4035    2.9322   -7.0012 N   0  0  0  0  0  0  0  0  0  0  0  0
  1  6  1  0  0  0  0
  2  1  1  0  0  0  0
  3  4  1  0  0  0  0
  3  2  2  0  0  0  0
  4  5  2  0  0  0  0
  5  8  1  0  0  0  0
  5  6  1  0  0  0  0
  6  7  2  0  0  0  0
  8  9  1  0  0  0  0
  9 10  1  0  0  0  0
 11  8  2  0  0  0  0
 12  4  1  0  0  0  0
 12 11  1  0  0  0  0
 13  2  1  0  0  0  0
M  END
>  <CHROM.1>
107.25175394,-109.24935837,-9.14126799,3.55286697,-7.64917781,-0.15124747
0.11152123,-1.63442662

>  <Name>
lig.pdb

>  <RI>
0

>  <Rbt.Current_Directory>
/home/itssahil/PROJECTS/Mol_Feturizer/New_Systems/rnas/2miy

>  <Rbt.Executable>
rbdock ($Id: //depot/dev/client3/rdock/2013.1/src/exe/rbdock.cxx#4 $)

>  <Rbt.Library>
libRbt.so (2013.1, Build901 2013/11/27)

>  <Rbt.Parameter_File>
/export/apps/rDock/src/rDock_2013.1_src/data/scripts/dock_solv.prm

>  <Rbt.Receptor>
prm/blind_docking_60.prm

>  <SCORE>
-4.46247

>  <SCORE.INTER>
-7.50215

>  <SCORE.INTER.CONST>
1

>  <SCORE.INTER.POLAR>
-3.03254

>  <SCORE.INTER.ROT>
2

>  <SCORE.INTER.SOLV>
18.6254

>  <SCORE.INTER.VDW>
-6.03476

>  <SCORE.INTER.norm>
-0.577088

>  <SCORE.INTRA>
2.34031

>  <SCORE.INTRA.DIHEDRAL>
1.64747

>  <SCORE.INTRA.DIHEDRAL.0>
1.76676

>  <SCORE.INTRA.POLAR>
0.472211

>  <SCORE.INTRA.POLAR.0>
-0.472211

>  <SCORE.INTRA.REPUL>
0

>  <SCORE.INTRA.REPUL.0>
0

>  <SCORE.INTRA.SOLV>
-0.584221

>  <SCORE.INTRA.SOLV.lig_0>
-22.5855

>  <SCORE.INTRA.VDW>
0.20317

>  <SCORE.INTRA.VDW.0>
-0.733656

>  <SCORE.INTRA.norm>
0.180024

>  <SCORE.RESTR>
0.699365

>  <SCORE.RESTR.CAVITY>
0.699365

>  <SCORE.RESTR.norm>
0.0537973

>  <SCORE.SYSTEM>
0

>  <SCORE.SYSTEM.CONST>
0

>  <SCORE.SYSTEM.DIHEDRAL>
0

>  <SCORE.SYSTEM.SOLV>
0

>  <SCORE.SYSTEM.norm>
0

>  <SCORE.heavy>
13

>  <SCORE.norm>
-0.343267

>  <RMSD>
4.720

$$$$
lig.pdb
 OpenBabel11021811453D
libRbt.so/2013.1/901 2013/11/27
 13 14  0  0  0  0  0  0  0  0999 V2000
   -7.2843    4.4460   -7.9098 N   0  0  0  0  0  0  0  0  0  0  0  0
   -7.0622    4.9156   -6.6462 C   0  0  0  0  0  0  0  0  0  0  0  0
   -8.0381    4.9184   -5.7560 N   0  0  0  0  0  0  0  0  0  0  0  0
   -9.2936    4.4621   -6.0511 C   0  0  0  0  0  0  0  0  0  0  0  0
   -9.5805    3.9698   -7.3475 C   0  0  0  0  0  0  0  0  0  0  0  0
   -8.5196    3.9697   -8.3026 C   0  0  0  0  0  0  0  0  0  0  0  0
   -8.6997    3.5611   -9.4364 O   0  0  0  0  0  0  0  0  0  0  0  0
  -10.9941    3.5752   -7.3404 C   0  0  0  0  0  0  0  0  0  0  0  0
  -11.7967    3.0089   -8.4818 C   0  0  0  0  0  0  0  0  0  0  0  0
  -12.6546    4.0582   -9.0481 N   0  0  0  0  0  0  0  0  0  0  0  0
  -11.4420    3.8251   -6.1038 C   0  0  0  0  0  0  0  0  0  0  0  0
  -10.4435    4.3574   -5.3325 N   0  0  0  0  0  0  0  0  0  0  0  0
   -5.8207    5.3857   -6.3035 N   0  0  0  0  0  0  0  0  0  0  0  0
  1  6  1  0  0  0  0
  2  1  1  0  0  0  0
  3  4  1  0  0  0  0
  3  2  2  0  0  0  0
  4  5  2  0  0  0  0
  5  8  1  0  0  0  0
  5  6  1  0  0  0  0
  6  7  2  0  0  0  0
  8  9  1  0  0  0  0
  9 10  1  0  0  0  0
 11  8  2  0  0  0  0
 12  4  1  0  0  0  0
 12 11  1  0  0  0  0
 13  2  1  0  0  0  0
M  END
>  <CHROM.1>
-102.70352067,-29.53864823,-9.33913674,4.20593320,-7.27379457,-0.31828901
-0.18606307,-1.79145209

>  <Name>
lig.pdb

>  <RI>
2.95488e+07

>  <Rbt.Current_Directory>
/home/itssahil/PROJECTS/Mol_Feturizer/New_Systems/rnas/2miy

>  <Rbt.Executable>
rbdock ($Id: //depot/dev/client3/rdock/2013.1/src/exe/rbdock.cxx#4 $)

>  <Rbt.Library>
libRbt.so (2013.1, Build901 2013/11/27)

>  <Rbt.Parameter_File>
/export/apps/rDock/src/rDock_2013.1_src/data/scripts/dock_solv.prm

>  <Rbt.Receptor>
prm/blind_docking_20.prm

>  <SCORE>
-23.7146

>  <SCORE.INTER>
-26.2826

>  <SCORE.INTER.CONST>
1

>  <SCORE.INTER.POLAR>
-4.07829

>  <SCORE.INTER.ROT>
2

>  <SCORE.INTER.SOLV>
17.0649

>  <SCORE.INTER.VDW>
-14.5491

>  <SCORE.INTER.norm>
-2.02174

>  <SCORE.INTRA>
2.2821

>  <SCORE.INTRA.DIHEDRAL>
1.42998

>  <SCORE.INTRA.DIHEDRAL.0>
1.76676

>  <SCORE.INTRA.POLAR>
0.472211

>  <SCORE.INTRA.POLAR.0>
-0.472211

>  <SCORE.INTRA.REPUL>
0

>  <SCORE.INTRA.REPUL.0>
0

>  <SCORE.INTRA.SOLV>
-0.556551

>  <SCORE.INTRA.SOLV.lig_0>
-22.5855

>  <SCORE.INTRA.VDW>
0.239869

>  <SCORE.INTRA.VDW.0>
-0.733656

>  <SCORE.INTRA.norm>
0.175546

>  <SCORE.RESTR>
0.285891

>  <SCORE.RESTR.CAVITY>
0.285891

>  <SCORE.RESTR.norm>
0.0219916

>  <SCORE.SYSTEM>
0

>  <SCORE.SYSTEM.CONST>
0

>  <SCORE.SYSTEM.DIHEDRAL>
0

>  <SCORE.SYSTEM.SOLV>
0

>  <SCORE.SYSTEM.norm>
0

>  <SCORE.heavy>
13

>  <SCORE.norm>
-1.8242

>  <RMSD>
4.739

$$$$
lig.pdb
 OpenBabel11021811453D
libRbt.so/2013.1/901 2013/11/27
 13 14  0  0  0  0  0  0  0  0999 V2000
   -7.2985    4.4388   -7.9263 N   0  0  0  0  0  0  0  0  0  0  0  0
   -7.0728    4.9021   -6.6611 C   0  0  0  0  0  0  0  0  0  0  0  0
   -8.0470    4.9034   -5.7690 N   0  0  0  0  0  0  0  0  0  0  0  0
   -9.3042    4.4517   -6.0637 C   0  0  0  0  0  0  0  0  0  0  0  0
   -9.5949    3.9660   -7.3617 C   0  0  0  0  0  0  0  0  0  0  0  0
   -8.5359    3.9675   -8.3189 C   0  0  0  0  0  0  0  0  0  0  0  0
   -8.7193    3.5645   -9.4542 O   0  0  0  0  0  0  0  0  0  0  0  0
  -11.0095    3.5751   -7.3536 C   0  0  0  0  0  0  0  0  0  0  0  0
  -11.8158    3.0160   -8.4960 C   0  0  0  0  0  0  0  0  0  0  0  0
  -12.6561    4.0754   -9.0698 N   0  0  0  0  0  0  0  0  0  0  0  0
  -11.4544    3.8205   -6.1151 C   0  0  0  0  0  0  0  0  0  0  0  0
  -10.4529    4.3468   -5.3433 N   0  0  0  0  0  0  0  0  0  0  0  0
   -5.8294    5.3675   -6.3187 N   0  0  0  0  0  0  0  0  0  0  0  0
  1  6  1  0  0  0  0
  2  1  1  0  0  0  0
  3  4  1  0  0  0  0
  3  2  2  0  0  0  0
  4  5  2  0  0  0  0
  5  8  1  0  0  0  0
  5  6  1  0  0  0  0
  6  7  2  0  0  0  0
  8  9  1  0  0  0  0
  9 10  1  0  0  0  0
 11  8  2  0  0  0  0
 12  4  1  0  0  0  0
 12 11  1  0  0  0  0
 13  2  1  0  0  0  0
M  END
>  <CHROM.1>
-101.80255962,148.99539409,-9.35114615,4.20179582,-7.28875976,-0.31723363
-0.18417190,-1.78519345

>  <Name>
lig.pdb

>  <RI>
2.95488e+07

>  <Rbt.Current_Directory>
/home/itssahil/PROJECTS/Mol_Feturizer/New_Systems/rnas/2miy

>  <Rbt.Executable>
rbdock ($Id: //depot/dev/client3/rdock/2013.1/src/exe/rbdock.cxx#4 $)

>  <Rbt.Library>
libRbt.so (2013.1, Build901 2013/11/27)

>  <Rbt.Parameter_File>
/export/apps/rDock/src/rDock_2013.1_src/data/scripts/dock_solv.prm

>  <Rbt.Receptor>
prm/blind_docking_20.prm

>  <SCORE>
-23.7177

>  <SCORE.INTER>
-26.2875

>  <SCORE.INTER.CONST>
1

>  <SCORE.INTER.POLAR>
-4.05107

>  <SCORE.INTER.ROT>
2

>  <SCORE.INTER.SOLV>
17.0611

>  <SCORE.INTER.VDW>
-14.6418

>  <SCORE.INTER.norm>
-2.02212

>  <SCORE.INTRA>
2.2885

>  <SCORE.INTRA.DIHEDRAL>
1.44936

>  <SCORE.INTRA.DIHEDRAL.0>
1.76676

>  <SCORE.INTRA.POLAR>
0.472211

>  <SCORE.INTRA.POLAR.0>
-0.472211

>  <SCORE.INTRA.REPUL>
0

>  <SCORE.INTRA.REPUL.0>
0

>  <SCORE.INTRA.SOLV>
-0.552038

>  <SCORE.INTRA.SOLV.lig_0>
-22.5855

>  <SCORE.INTRA.VDW>
0.234324

>  <SCORE.INTRA.VDW.0>
-0.733656

>  <SCORE.INTRA.norm>
0.176039

>  <SCORE.RESTR>
0.281311

>  <SCORE.RESTR.CAVITY>
0.281311

>  <SCORE.RESTR.norm>
0.0216393

>  <SCORE.SYSTEM>
0

>  <SCORE.SYSTEM.CONST>
0

>  <SCORE.SYSTEM.DIHEDRAL>
0

>  <SCORE.SYSTEM.SOLV>
0

>  <SCORE.SYSTEM.norm>
0

>  <SCORE.heavy>
13

>  <SCORE.norm>
-1.82444

>  <RMSD>
4.739

$$$$
lig.pdb
 OpenBabel11021811453D
libRbt.so/2013.1/901 2013/11/27
 13 14  0  0  0  0  0  0  0  0999 V2000
   -7.2855    4.4430   -7.9089 N   0  0  0  0  0  0  0  0  0  0  0  0
   -7.0625    4.9142   -6.6461 C   0  0  0  0  0  0  0  0  0  0  0  0
   -8.0377    4.9182   -5.7551 N   0  0  0  0  0  0  0  0  0  0  0  0
   -9.2935    4.4617   -6.0487 C   0  0  0  0  0  0  0  0  0  0  0  0
   -9.5814    3.9677   -7.3442 C   0  0  0  0  0  0  0  0  0  0  0  0
   -8.5212    3.9663   -8.3002 C   0  0  0  0  0  0  0  0  0  0  0  0
   -8.7023    3.5564   -9.4334 O   0  0  0  0  0  0  0  0  0  0  0  0
  -10.9950    3.5734   -7.3356 C   0  0  0  0  0  0  0  0  0  0  0  0
  -11.7986    3.0057   -8.4757 C   0  0  0  0  0  0  0  0  0  0  0  0
  -12.6525    4.0558   -9.0464 N   0  0  0  0  0  0  0  0  0  0  0  0
  -11.4420    3.8249   -6.0990 C   0  0  0  0  0  0  0  0  0  0  0  0
  -10.4428    4.3580   -5.3291 N   0  0  0  0  0  0  0  0  0  0  0  0
   -5.8206    5.3846   -6.3049 N   0  0  0  0  0  0  0  0  0  0  0  0
  1  6  1  0  0  0  0
  2  1  1  0  0  0  0
  3  4  1  0  0  0  0
  3  2  2  0  0  0  0
  4  5  2  0  0  0  0
  5  8  1  0  0  0  0
  5  6  1  0  0  0  0
  6  7  2  0  0  0  0
  8  9  1  0  0  0  0
  9 10  1  0  0  0  0
 11  8  2  0  0  0  0
 12  4  1  0  0  0  0
 12 11  1  0  0  0  0
 13  2  1  0  0  0  0
M  END
>  <CHROM.1>
-102.46395658,-29.16363219,-9.33955331,4.20412143,-7.27139337,-0.31792518
-0.18617684,-1.79226799

>  <Name>
lig.pdb

>  <RI>
2.95488e+07

>  <Rbt.Current_Directory>
/home/itssahil/PROJECTS/Mol_Feturizer/New_Systems/rnas/2miy

>  <Rbt.Executable>
rbdock ($Id: //depot/dev/client3/rdock/2013.1/src/exe/rbdock.cxx#4 $)

>  <Rbt.Library>
libRbt.so (2013.1, Build901 2013/11/27)

>  <Rbt.Parameter_File>
/export/apps/rDock/src/rDock_2013.1_src/data/scripts/dock_solv.prm

>  <Rbt.Receptor>
prm/blind_docking_20.prm

>  <SCORE>
-23.7248

>  <SCORE.INTER>
-26.2845

>  <SCORE.INTER.CONST>
1

>  <SCORE.INTER.POLAR>
-4.06608

>  <SCORE.INTER.ROT>
2

>  <SCORE.INTER.SOLV>
17.0559

>  <SCORE.INTER.VDW>
-14.588

>  <SCORE.INTER.norm>
-2.02188

>  <SCORE.INTRA>
2.27716

>  <SCORE.INTRA.DIHEDRAL>
1.41919

>  <SCORE.INTRA.DIHEDRAL.0>
1.76676

>  <SCORE.INTRA.POLAR>
0.472211

>  <SCORE.INTRA.POLAR.0>
-0.472211

>  <SCORE.INTRA.REPUL>
0

>  <SCORE.INTRA.REPUL.0>
0

>  <SCORE.INTRA.SOLV>
-0.555377

>  <SCORE.INTRA.SOLV.lig_0>
-22.5855

>  <SCORE.INTRA.VDW>
0.239735

>  <SCORE.INTRA.VDW.0>
-0.733656

>  <SCORE.INTRA.norm>
0.175166

>  <SCORE.RESTR>
0.282553

>  <SCORE.RESTR.CAVITY>
0.282553

>  <SCORE.RESTR.norm>
0.0217349

>  <SCORE.SYSTEM>
0

>  <SCORE.SYSTEM.CONST>
0

>  <SCORE.SYSTEM.DIHEDRAL>
0

>  <SCORE.SYSTEM.SOLV>
0

>  <SCORE.SYSTEM.norm>
0

>  <SCORE.heavy>
13

>  <SCORE.norm>
-1.82498

>  <RMSD>
4.739

$$$$
lig.pdb
 OpenBabel11021811453D
libRbt.so/2013.1/901 2013/11/27
 13 14  0  0  0  0  0  0  0  0999 V2000
   -7.2886    4.4482   -7.9061 N   0  0  0  0  0  0  0  0  0  0  0  0
   -7.0652    4.9186   -6.6431 C   0  0  0  0  0  0  0  0  0  0  0  0
   -8.0397    4.9206   -5.7514 N   0  0  0  0  0  0  0  0  0  0  0  0
   -9.2951    4.4627   -6.0443 C   0  0  0  0  0  0  0  0  0  0  0  0
   -9.5834    3.9695   -7.3400 C   0  0  0  0  0  0  0  0  0  0  0  0
   -8.5241    3.9703   -8.2968 C   0  0  0  0  0  0  0  0  0  0  0  0
   -8.7055    3.5611   -9.4302 O   0  0  0  0  0  0  0  0  0  0  0  0
  -10.9965    3.5733   -7.3305 C   0  0  0  0  0  0  0  0  0  0  0  0
  -11.8003    3.0056   -8.4704 C   0  0  0  0  0  0  0  0  0  0  0  0
  -12.6521    4.0564   -9.0430 N   0  0  0  0  0  0  0  0  0  0  0  0
  -11.4428    3.8232   -6.0933 C   0  0  0  0  0  0  0  0  0  0  0  0
  -10.4436    4.3570   -5.3238 N   0  0  0  0  0  0  0  0  0  0  0  0
   -5.8236    5.3903   -6.3026 N   0  0  0  0  0  0  0  0  0  0  0  0
  1  6  1  0  0  0  0
  2  1  1  0  0  0  0
  3  4  1  0  0  0  0
  3  2  2  0  0  0  0
  4  5  2  0  0  0  0
  5  8  1  0  0  0  0
  5  6  1  0  0  0  0
  6  7  2  0  0  0  0
  8  9  1  0  0  0  0
  9 10  1  0  0  0  0
 11  8  2  0  0  0  0
 12  4  1  0  0  0  0
 12 11  1  0  0  0  0
 13  2  1  0  0  0  0
M  END
>  <CHROM.1>
-102.24213964,-29.31307224,-9.34146721,4.20627655,-7.26746855,-0.31774490
-0.18766660,-1.79102009

>  <Name>
lig.pdb

>  <RI>
2.95488e+07

>  <Rbt.Current_Directory>
/home/itssahil/PROJECTS/Mol_Feturizer/New_Systems/rnas/2miy

>  <Rbt.Executable>
rbdock ($Id: //depot/dev/client3/rdock/2013.1/src/exe/rbdock.cxx#4 $)

>  <Rbt.Library>
libRbt.so (2013.1, Build901 2013/11/27)

>  <Rbt.Parameter_File>
/export/apps/rDock/src/rDock_2013.1_src/data/scripts/dock_solv.prm

>  <Rbt.Receptor>
prm/blind_docking_20.prm

>  <SCORE>
-23.6548

>  <SCORE.INTER>
-26.1989

>  <SCORE.INTER.CONST>
1

>  <SCORE.INTER.POLAR>
-4.06961

>  <SCORE.INTER.ROT>
2

>  <SCORE.INTER.SOLV>
17.0499

>  <SCORE.INTER.VDW>
-14.5172

>  <SCORE.INTER.norm>
-2.0153

>  <SCORE.INTRA>
2.27143

>  <SCORE.INTRA.DIHEDRAL>
1.40905

>  <SCORE.INTRA.DIHEDRAL.0>
1.76676

>  <SCORE.INTRA.POLAR>
0.472211

>  <SCORE.INTRA.POLAR.0>
-0.472211

>  <SCORE.INTRA.REPUL>
0

>  <SCORE.INTRA.REPUL.0>
0

>  <SCORE.INTRA.SOLV>
-0.554295

>  <SCORE.INTRA.SOLV.lig_0>
-22.5855

>  <SCORE.INTRA.VDW>
0.238537

>  <SCORE.INTRA.VDW.0>
-0.733656

>  <SCORE.INTRA.norm>
0.174726

>  <SCORE.RESTR>
0.272715

>  <SCORE.RESTR.CAVITY>
0.272715

>  <SCORE.RESTR.norm>
0.020978

>  <SCORE.SYSTEM>
0

>  <SCORE.SYSTEM.CONST>
0

>  <SCORE.SYSTEM.DIHEDRAL>
0

>  <SCORE.SYSTEM.SOLV>
0

>  <SCORE.SYSTEM.norm>
0

>  <SCORE.heavy>
13

>  <SCORE.norm>
-1.8196

>  <RMSD>
4.739

$$$$
lig.pdb
 OpenBabel11021811453D
libRbt.so/2013.1/901 2013/11/27
 13 14  0  0  0  0  0  0  0  0999 V2000
   -7.2801    4.4377   -7.9129 N   0  0  0  0  0  0  0  0  0  0  0  0
   -7.0559    4.9068   -6.6496 C   0  0  0  0  0  0  0  0  0  0  0  0
   -8.0309    4.9115   -5.7584 N   0  0  0  0  0  0  0  0  0  0  0  0
   -9.2876    4.4577   -6.0523 C   0  0  0  0  0  0  0  0  0  0  0  0
   -9.5768    3.9660   -7.3483 C   0  0  0  0  0  0  0  0  0  0  0  0
   -8.5168    3.9638   -8.3045 C   0  0  0  0  0  0  0  0  0  0  0  0
   -8.6989    3.5556   -9.4382 O   0  0  0  0  0  0  0  0  0  0  0  0
  -10.9911    3.5742   -7.3398 C   0  0  0  0  0  0  0  0  0  0  0  0
  -11.7960    3.0095   -8.4804 C   0  0  0  0  0  0  0  0  0  0  0  0
  -12.6536    4.0601   -9.0448 N   0  0  0  0  0  0  0  0  0  0  0  0
  -11.4374    3.8250   -6.1028 C   0  0  0  0  0  0  0  0  0  0  0  0
  -10.4369    4.3553   -5.3325 N   0  0  0  0  0  0  0  0  0  0  0  0
   -5.8131    5.3744   -6.3081 N   0  0  0  0  0  0  0  0  0  0  0  0
  1  6  1  0  0  0  0
  2  1  1  0  0  0  0
  3  4  1  0  0  0  0
  3  2  2  0  0  0  0
  4  5  2  0  0  0  0
  5  8  1  0  0  0  0
  5  6  1  0  0  0  0
  6  7  2  0  0  0  0
  8  9  1  0  0  0  0
  9 10  1  0  0  0  0
 11  8  2  0  0  0  0
 12  4  1  0  0  0  0
 12 11  1  0  0  0  0
 13  2  1  0  0  0  0
M  END
>  <CHROM.1>
-102.77614180,-30.02961138,-9.33497626,4.20162329,-7.27477824,-0.31672473
-0.18431913,-1.79124553

>  <Name>
lig.pdb

>  <RI>
1.51961e+07

>  <Rbt.Current_Directory>
/home/itssahil/PROJECTS/Mol_Feturizer/New_Systems/rnas/2miy

>  <Rbt.Executable>
rbdock ($Id: //depot/dev/client3/rdock/2013.1/src/exe/rbdock.cxx#4 $)

>  <Rbt.Library>
libRbt.so (2013.1, Build901 2013/11/27)

>  <Rbt.Parameter_File>
/export/apps/rDock/src/rDock_2013.1_src/data/scripts/dock_solv.prm

>  <Rbt.Receptor>
prm/pocket_docking_3.prm

>  <SCORE>
-23.869

>  <SCORE.INTER>
-26.3198

>  <SCORE.INTER.CONST>
1

>  <SCORE.INTER.POLAR>
-4.07863

>  <SCORE.INTER.ROT>
2

>  <SCORE.INTER.SOLV>
17.0638

>  <SCORE.INTER.VDW>
-14.5723

>  <SCORE.INTER.norm>
-2.0246

>  <SCORE.INTRA>
2.28273

>  <SCORE.INTRA.DIHEDRAL>
1.43321

>  <SCORE.INTRA.DIHEDRAL.0>
1.76676

>  <SCORE.INTRA.POLAR>
0.472211

>  <SCORE.INTRA.POLAR.0>
-0.472211

>  <SCORE.INTRA.REPUL>
0

>  <SCORE.INTRA.REPUL.0>
0

>  <SCORE.INTRA.SOLV>
-0.556954

>  <SCORE.INTRA.SOLV.lig_0>
-22.5855

>  <SCORE.INTRA.VDW>
0.239087

>  <SCORE.INTRA.VDW.0>
-0.733656

>  <SCORE.INTRA.norm>
0.175595

>  <SCORE.RESTR>
0.168011

>  <SCORE.RESTR.CAVITY>
0.168011

>  <SCORE.RESTR.norm>
0.0129239

>  <SCORE.SYSTEM>
0

>  <SCORE.SYSTEM.CONST>
0

>  <SCORE.SYSTEM.DIHEDRAL>
0

>  <SCORE.SYSTEM.SOLV>
0

>  <SCORE.SYSTEM.norm>
0

>  <SCORE.heavy>
13

>  <SCORE.norm>
-1.83608

>  <RMSD>
4.739

$$$$
lig.pdb
 OpenBabel11021811453D
libRbt.so/2013.1/901 2013/11/27
 13 14  0  0  0  0  0  0  0  0999 V2000
   -7.2761    4.4244   -7.9418 N   0  0  0  0  0  0  0  0  0  0  0  0
   -7.0516    4.8833   -6.6748 C   0  0  0  0  0  0  0  0  0  0  0  0
   -8.0273    4.8840   -5.7843 N   0  0  0  0  0  0  0  0  0  0  0  0
   -9.2851    4.4361   -6.0827 C   0  0  0  0  0  0  0  0  0  0  0  0
   -9.5745    3.9550   -7.3827 C   0  0  0  0  0  0  0  0  0  0  0  0
   -8.5138    3.9571   -8.3380 C   0  0  0  0  0  0  0  0  0  0  0  0
   -8.6961    3.5581   -9.4749 O   0  0  0  0  0  0  0  0  0  0  0  0
  -10.9900    3.5673   -7.3783 C   0  0  0  0  0  0  0  0  0  0  0  0
  -11.7956    3.0136   -8.5239 C   0  0  0  0  0  0  0  0  0  0  0  0
  -12.6593    4.0675   -9.0725 N   0  0  0  0  0  0  0  0  0  0  0  0
  -11.4366    3.8099   -6.1398 C   0  0  0  0  0  0  0  0  0  0  0  0
  -10.4353    4.3315   -5.3647 N   0  0  0  0  0  0  0  0  0  0  0  0
   -5.8077    5.3447   -6.3287 N   0  0  0  0  0  0  0  0  0  0  0  0
  1  6  1  0  0  0  0
  2  1  1  0  0  0  0
  3  4  1  0  0  0  0
  3  2  2  0  0  0  0
  4  5  2  0  0  0  0
  5  8  1  0  0  0  0
  5  6  1  0  0  0  0
  6  7  2  0  0  0  0
  8  9  1  0  0  0  0
  9 10  1  0  0  0  0
 11  8  2  0  0  0  0
 12  4  1  0  0  0  0
 12 11  1  0  0  0  0
 13  2  1  0  0  0  0
M  END
>  <CHROM.1>
-103.32624412,-27.95158347,-9.33305021,4.18910924,-7.30638300,-0.31608530
-0.18122646,-1.78444477

>  <Name>
lig.pdb

>  <RI>
1.51961e+07

>  <Rbt.Current_Directory>
/home/itssahil/PROJECTS/Mol_Feturizer/New_Systems/rnas/2miy

>  <Rbt.Executable>
rbdock ($Id: //depot/dev/client3/rdock/2013.1/src/exe/rbdock.cxx#4 $)

>  <Rbt.Library>
libRbt.so (2013.1, Build901 2013/11/27)

>  <Rbt.Parameter_File>
/export/apps/rDock/src/rDock_2013.1_src/data/scripts/dock_solv.prm

>  <Rbt.Receptor>
prm/pocket_docking_3.prm

>  <SCORE>
-23.9555

>  <SCORE.INTER>
-26.4466

>  <SCORE.INTER.CONST>
1

>  <SCORE.INTER.POLAR>
-4.05001

>  <SCORE.INTER.ROT>
2

>  <SCORE.INTER.SOLV>
17.1051

>  <SCORE.INTER.VDW>
-14.7661

>  <SCORE.INTER.norm>
-2.03435

>  <SCORE.INTRA>
2.30064

>  <SCORE.INTRA.DIHEDRAL>
1.45785

>  <SCORE.INTRA.DIHEDRAL.0>
1.76676

>  <SCORE.INTRA.POLAR>
0.472211

>  <SCORE.INTRA.POLAR.0>
-0.472211

>  <SCORE.INTRA.REPUL>
0

>  <SCORE.INTRA.REPUL.0>
0

>  <SCORE.INTRA.SOLV>
-0.559275

>  <SCORE.INTRA.SOLV.lig_0>
-22.5855

>  <SCORE.INTRA.VDW>
0.245831

>  <SCORE.INTRA.VDW.0>
-0.733656

>  <SCORE.INTRA.norm>
0.176972

>  <SCORE.RESTR>
0.190404

>  <SCORE.RESTR.CAVITY>
0.190404

>  <SCORE.RESTR.norm>
0.0146465

>  <SCORE.SYSTEM>
0

>  <SCORE.SYSTEM.CONST>
0

>  <SCORE.SYSTEM.DIHEDRAL>
0

>  <SCORE.SYSTEM.SOLV>
0

>  <SCORE.SYSTEM.norm>
0

>  <SCORE.heavy>
13

>  <SCORE.norm>
-1.84273

>  <RMSD>
4.739

$$$$
lig.pdb
 OpenBabel11021811453D
libRbt.so/2013.1/901 2013/11/27
 13 14  0  0  0  0  0  0  0  0999 V2000
   -7.2796    4.4369   -7.9145 N   0  0  0  0  0  0  0  0  0  0  0  0
   -7.0565    4.9057   -6.6509 C   0  0  0  0  0  0  0  0  0  0  0  0
   -8.0324    4.9105   -5.7607 N   0  0  0  0  0  0  0  0  0  0  0  0
   -9.2889    4.4571   -6.0559 C   0  0  0  0  0  0  0  0  0  0  0  0
   -9.5769    3.9657   -7.3523 C   0  0  0  0  0  0  0  0  0  0  0  0
   -8.5160    3.9634   -8.3074 C   0  0  0  0  0  0  0  0  0  0  0  0
   -8.6970    3.5555   -9.4414 O   0  0  0  0  0  0  0  0  0  0  0  0
  -10.9913    3.5744   -7.3453 C   0  0  0  0  0  0  0  0  0  0  0  0
  -11.7952    3.0101   -8.4869 C   0  0  0  0  0  0  0  0  0  0  0  0
  -12.6531    4.0606   -9.0509 N   0  0  0  0  0  0  0  0  0  0  0  0
  -11.4387    3.8250   -6.1087 C   0  0  0  0  0  0  0  0  0  0  0  0
  -10.4389    4.3549   -5.3373 N   0  0  0  0  0  0  0  0  0  0  0  0
   -5.8139    5.3729   -6.3081 N   0  0  0  0  0  0  0  0  0  0  0  0
  1  6  1  0  0  0  0
  2  1  1  0  0  0  0
  3  4  1  0  0  0  0
  3  2  2  0  0  0  0
  4  5  2  0  0  0  0
  5  8  1  0  0  0  0
  5  6  1  0  0  0  0
  6  7  2  0  0  0  0
  8  9  1  0  0  0  0
  9 10  1  0  0  0  0
 11  8  2  0  0  0  0
 12  4  1  0  0  0  0
 12 11  1  0  0  0  0
 13  2  1  0  0  0  0
M  END
>  <CHROM.1>
-102.83762161,-29.61381204,-9.33518434,4.20123861,-7.27841628,-0.31756140
-0.18382696,-1.79130381

>  <Name>
lig.pdb

>  <RI>
2.68696e+07

>  <Rbt.Current_Directory>
/home/itssahil/PROJECTS/Mol_Feturizer/New_Systems/rnas/2miy

>  <Rbt.Executable>
rbdock ($Id: //depot/dev/client3/rdock/2013.1/src/exe/rbdock.cxx#4 $)

>  <Rbt.Library>
libRbt.so (2013.1, Build901 2013/11/27)

>  <Rbt.Parameter_File>
/export/apps/rDock/src/rDock_2013.1_src/data/scripts/dock_solv.prm

>  <Rbt.Receptor>
prm/pocket_docking_4.prm

>  <SCORE>
-23.8858

>  <SCORE.INTER>
-26.3384

>  <SCORE.INTER.CONST>
1

>  <SCORE.INTER.POLAR>
-4.06697

>  <SCORE.INTER.ROT>
2

>  <SCORE.INTER.SOLV>
17.068

>  <SCORE.INTER.VDW>
-14.625

>  <SCORE.INTER.norm>
-2.02603

>  <SCORE.INTRA>
2.28516

>  <SCORE.INTRA.DIHEDRAL>
1.43599

>  <SCORE.INTRA.DIHEDRAL.0>
1.76676

>  <SCORE.INTRA.POLAR>
0.472211

>  <SCORE.INTRA.POLAR.0>
-0.472211

>  <SCORE.INTRA.REPUL>
0

>  <SCORE.INTRA.REPUL.0>
0

>  <SCORE.INTRA.SOLV>
-0.55719

>  <SCORE.INTRA.SOLV.lig_0>
-22.5855

>  <SCORE.INTRA.VDW>
0.24024

>  <SCORE.INTRA.VDW.0>
-0.733656

>  <SCORE.INTRA.norm>
0.175781

>  <SCORE.RESTR>
0.167456

>  <SCORE.RESTR.CAVITY>
0.167456

>  <SCORE.RESTR.norm>
0.0128813

>  <SCORE.SYSTEM>
0

>  <SCORE.SYSTEM.CONST>
0

>  <SCORE.SYSTEM.DIHEDRAL>
0

>  <SCORE.SYSTEM.SOLV>
0

>  <SCORE.SYSTEM.norm>
0

>  <SCORE.heavy>
13

>  <SCORE.norm>
-1.83737

>  <RMSD>
4.739

$$$$
lig.pdb
 OpenBabel11021811453D
libRbt.so/2013.1/901 2013/11/27
 13 14  0  0  0  0  0  0  0  0999 V2000
   -7.2760    4.4143   -7.9430 N   0  0  0  0  0  0  0  0  0  0  0  0
   -7.0493    4.8717   -6.6758 C   0  0  0  0  0  0  0  0  0  0  0  0
   -8.0244    4.8743   -5.7847 N   0  0  0  0  0  0  0  0  0  0  0  0
   -9.2836    4.4300   -6.0825 C   0  0  0  0  0  0  0  0  0  0  0  0
   -9.5752    3.9506   -7.3826 C   0  0  0  0  0  0  0  0  0  0  0  0
   -8.5152    3.9505   -8.3387 C   0  0  0  0  0  0  0  0  0  0  0  0
   -8.6994    3.5528   -9.4757 O   0  0  0  0  0  0  0  0  0  0  0  0
  -10.9918    3.5666   -7.3775 C   0  0  0  0  0  0  0  0  0  0  0  0
  -11.7996    3.0159   -8.5229 C   0  0  0  0  0  0  0  0  0  0  0  0
  -12.6593    4.0730   -9.0716 N   0  0  0  0  0  0  0  0  0  0  0  0
  -11.4368    3.8096   -6.1385 C   0  0  0  0  0  0  0  0  0  0  0  0
  -10.4335    4.3279   -5.3637 N   0  0  0  0  0  0  0  0  0  0  0  0
   -5.8040    5.3296   -6.3304 N   0  0  0  0  0  0  0  0  0  0  0  0
  1  6  1  0  0  0  0
  2  1  1  0  0  0  0
  3  4  1  0  0  0  0
  3  2  2  0  0  0  0
  4  5  2  0  0  0  0
  5  8  1  0  0  0  0
  5  6  1  0  0  0  0
  6  7  2  0  0  0  0
  8  9  1  0  0  0  0
  9 10  1  0  0  0  0
 11  8  2  0  0  0  0
 12  4  1  0  0  0  0
 12 11  1  0  0  0  0
 13  2  1  0  0  0  0
M  END
>  <CHROM.1>
-103.23284358,-29.52254241,-9.33291140,4.18404419,-7.30643683,-0.31490364
-0.17880501,-1.78335218

>  <Name>
lig.pdb

>  <RI>
2.68696e+07

>  <Rbt.Current_Directory>
/home/itssahil/PROJECTS/Mol_Feturizer/New_Systems/rnas/2miy

>  <Rbt.Executable>
rbdock ($Id: //depot/dev/client3/rdock/2013.1/src/exe/rbdock.cxx#4 $)

>  <Rbt.Library>
libRbt.so (2013.1, Build901 2013/11/27)

>  <Rbt.Parameter_File>
/export/apps/rDock/src/rDock_2013.1_src/data/scripts/dock_solv.prm

>  <Rbt.Receptor>
prm/pocket_docking_4.prm

>  <SCORE>
-23.947

>  <SCORE.INTER>
-26.4278

>  <SCORE.INTER.CONST>
1

>  <SCORE.INTER.POLAR>
-4.05951

>  <SCORE.INTER.ROT>
2

>  <SCORE.INTER.SOLV>
17.0889

>  <SCORE.INTER.VDW>
-14.7165

>  <SCORE.INTER.norm>
-2.03291

>  <SCORE.INTRA>
2.29479

>  <SCORE.INTRA.DIHEDRAL>
1.45352

>  <SCORE.INTRA.DIHEDRAL.0>
1.76676

>  <SCORE.INTRA.POLAR>
0.472211

>  <SCORE.INTRA.POLAR.0>
-0.472211

>  <SCORE.INTRA.REPUL>
0

>  <SCORE.INTRA.REPUL.0>
0

>  <SCORE.INTRA.SOLV>
-0.559028

>  <SCORE.INTRA.SOLV.lig_0>
-22.5855

>  <SCORE.INTRA.VDW>
0.242029

>  <SCORE.INTRA.VDW.0>
-0.733656

>  <SCORE.INTRA.norm>
0.176523

>  <SCORE.RESTR>
0.186045

>  <SCORE.RESTR.CAVITY>
0.186045

>  <SCORE.RESTR.norm>
0.0143111

>  <SCORE.SYSTEM>
0

>  <SCORE.SYSTEM.CONST>
0

>  <SCORE.SYSTEM.DIHEDRAL>
0

>  <SCORE.SYSTEM.SOLV>
0

>  <SCORE.SYSTEM.norm>
0

>  <SCORE.heavy>
13

>  <SCORE.norm>
-1.84208

>  <RMSD>
4.739

$$$$
lig.pdb
 OpenBabel11021811453D
libRbt.so/2013.1/901 2013/11/27
 13 14  0  0  0  0  0  0  0  0999 V2000
   -7.2824    4.4098   -7.9397 N   0  0  0  0  0  0  0  0  0  0  0  0
   -7.0551    4.8736   -6.6750 C   0  0  0  0  0  0  0  0  0  0  0  0
   -8.0293    4.8793   -5.7829 N   0  0  0  0  0  0  0  0  0  0  0  0
   -9.2882    4.4319   -6.0772 C   0  0  0  0  0  0  0  0  0  0  0  0
   -9.5805    3.9459   -7.3747 C   0  0  0  0  0  0  0  0  0  0  0  0
   -8.5215    3.9425   -8.3319 C   0  0  0  0  0  0  0  0  0  0  0  0
   -8.7062    3.5390   -9.4668 O   0  0  0  0  0  0  0  0  0  0  0  0
  -10.9965    3.5601   -7.3663 C   0  0  0  0  0  0  0  0  0  0  0  0
  -11.8048    3.0027   -8.5082 C   0  0  0  0  0  0  0  0  0  0  0  0
  -12.6563    4.0595   -9.0701 N   0  0  0  0  0  0  0  0  0  0  0  0
  -11.4406    3.8084   -6.1281 C   0  0  0  0  0  0  0  0  0  0  0  0
  -10.4373    4.3318   -5.3568 N   0  0  0  0  0  0  0  0  0  0  0  0
   -5.8101    5.3348   -6.3330 N   0  0  0  0  0  0  0  0  0  0  0  0
  1  6  1  0  0  0  0
  2  1  1  0  0  0  0
  3  4  1  0  0  0  0
  3  2  2  0  0  0  0
  4  5  2  0  0  0  0
  5  8  1  0  0  0  0
  5  6  1  0  0  0  0
  6  7  2  0  0  0  0
  8  9  1  0  0  0  0
  9 10  1  0  0  0  0
 11  8  2  0  0  0  0
 12  4  1  0  0  0  0
 12 11  1  0  0  0  0
 13  2  1  0  0  0  0
M  END
>  <CHROM.1>
-102.65482569,-29.34407385,-9.33749317,4.18029247,-7.30078295,-0.31514638
-0.18042131,-1.78733115

>  <Name>
lig.pdb

>  <RI>
4.2128e+07

>  <Rbt.Current_Directory>
/home/itssahil/PROJECTS/Mol_Feturizer/New_Systems/rnas/2miy

>  <Rbt.Executable>
rbdock ($Id: //depot/dev/client3/rdock/2013.1/src/exe/rbdock.cxx#4 $)

>  <Rbt.Library>
libRbt.so (2013.1, Build901 2013/11/27)

>  <Rbt.Parameter_File>
/export/apps/rDock/src/rDock_2013.1_src/data/scripts/dock_solv.prm

>  <Rbt.Receptor>
prm/pocket_docking_5.prm

>  <SCORE>
-23.9144

>  <SCORE.INTER>
-26.3715

>  <SCORE.INTER.CONST>
1

>  <SCORE.INTER.POLAR>
-4.05531

>  <SCORE.INTER.ROT>
2

>  <SCORE.INTER.SOLV>
17.0711

>  <SCORE.INTER.VDW>
-14.687

>  <SCORE.INTER.norm>
-2.02858

>  <SCORE.INTRA>
2.28137

>  <SCORE.INTRA.DIHEDRAL>
1.42781

>  <SCORE.INTRA.DIHEDRAL.0>
1.76676

>  <SCORE.INTRA.POLAR>
0.472211

>  <SCORE.INTRA.POLAR.0>
-0.472211

>  <SCORE.INTRA.REPUL>
0

>  <SCORE.INTRA.REPUL.0>
0

>  <SCORE.INTRA.SOLV>
-0.556297

>  <SCORE.INTRA.SOLV.lig_0>
-22.5855

>  <SCORE.INTRA.VDW>
0.2401

>  <SCORE.INTRA.VDW.0>
-0.733656

>  <SCORE.INTRA.norm>
0.17549

>  <SCORE.RESTR>
0.175775

>  <SCORE.RESTR.CAVITY>
0.175775

>  <SCORE.RESTR.norm>
0.0135212

>  <SCORE.SYSTEM>
0

>  <SCORE.SYSTEM.CONST>
0

>  <SCORE.SYSTEM.DIHEDRAL>
0

>  <SCORE.SYSTEM.SOLV>
0

>  <SCORE.SYSTEM.norm>
0

>  <SCORE.heavy>
13

>  <SCORE.norm>
-1.83957

>  <RMSD>
4.739

$$$$
lig.pdb
 OpenBabel11021811453D
libRbt.so/2013.1/901 2013/11/27
 13 14  0  0  0  0  0  0  0  0999 V2000
   -7.2782    4.4301   -7.9205 N   0  0  0  0  0  0  0  0  0  0  0  0
   -7.0522    4.8950   -6.6559 C   0  0  0  0  0  0  0  0  0  0  0  0
   -8.0265    4.8990   -5.7641 N   0  0  0  0  0  0  0  0  0  0  0  0
   -9.2843    4.4487   -6.0585 C   0  0  0  0  0  0  0  0  0  0  0  0
   -9.5753    3.9614   -7.3558 C   0  0  0  0  0  0  0  0  0  0  0  0
   -8.5161    3.9599   -8.3127 C   0  0  0  0  0  0  0  0  0  0  0  0
   -8.6997    3.5555   -9.4474 O   0  0  0  0  0  0  0  0  0  0  0  0
  -10.9905    3.5725   -7.3475 C   0  0  0  0  0  0  0  0  0  0  0  0
  -11.7973    3.0128   -8.4893 C   0  0  0  0  0  0  0  0  0  0  0  0
  -12.6558    4.0658   -9.0476 N   0  0  0  0  0  0  0  0  0  0  0  0
  -11.4354    3.8205   -6.1095 C   0  0  0  0  0  0  0  0  0  0  0  0
  -10.4334    4.3465   -5.3382 N   0  0  0  0  0  0  0  0  0  0  0  0
   -5.8082    5.3591   -6.3139 N   0  0  0  0  0  0  0  0  0  0  0  0
  1  6  1  0  0  0  0
  2  1  1  0  0  0  0
  3  4  1  0  0  0  0
  3  2  2  0  0  0  0
  4  5  2  0  0  0  0
  5  8  1  0  0  0  0
  5  6  1  0  0  0  0
  6  7  2  0  0  0  0
  8  9  1  0  0  0  0
  9 10  1  0  0  0  0
 11  8  2  0  0  0  0
 12  4  1  0  0  0  0
 12 11  1  0  0  0  0
 13  2  1  0  0  0  0
M  END
>  <CHROM.1>
-102.92808272,-29.57700387,-9.33328595,4.19623778,-7.28149231,-0.31537655
-0.18245967,-1.78828051

>  <Name>
lig.pdb

>  <RI>
9.06885e+06

>  <Rbt.Current_Directory>
/home/itssahil/PROJECTS/Mol_Feturizer/New_Systems/rnas/2miy

>  <Rbt.Executable>
rbdock ($Id: //depot/dev/client3/rdock/2013.1/src/exe/rbdock.cxx#4 $)

>  <Rbt.Library>
libRbt.so (2013.1, Build901 2013/11/27)

>  <Rbt.Parameter_File>
/export/apps/rDock/src/rDock_2013.1_src/data/scripts/dock_solv.prm

>  <Rbt.Receptor>
prm/pocket_docking_6.prm

>  <SCORE>
-23.8816

>  <SCORE.INTER>
-26.3378

>  <SCORE.INTER.CONST>
1

>  <SCORE.INTER.POLAR>
-4.06575

>  <SCORE.INTER.ROT>
2

>  <SCORE.INTER.SOLV>
17.0658

>  <SCORE.INTER.VDW>
-14.6279

>  <SCORE.INTER.norm>
-2.02598

>  <SCORE.INTRA>
2.28741

>  <SCORE.INTRA.DIHEDRAL>
1.44003

>  <SCORE.INTRA.DIHEDRAL.0>
1.76676

>  <SCORE.INTRA.POLAR>
0.472211

>  <SCORE.INTRA.POLAR.0>
-0.472211

>  <SCORE.INTRA.REPUL>
0

>  <SCORE.INTRA.REPUL.0>
0

>  <SCORE.INTRA.SOLV>
-0.557609

>  <SCORE.INTRA.SOLV.lig_0>
-22.5855

>  <SCORE.INTRA.VDW>
0.240682

>  <SCORE.INTRA.VDW.0>
-0.733656

>  <SCORE.INTRA.norm>
0.175955

>  <SCORE.RESTR>
0.168722

>  <SCORE.RESTR.CAVITY>
0.168722

>  <SCORE.RESTR.norm>
0.0129786

>  <SCORE.SYSTEM>
0

>  <SCORE.SYSTEM.CONST>
0

>  <SCORE.SYSTEM.DIHEDRAL>
0

>  <SCORE.SYSTEM.SOLV>
0

>  <SCORE.SYSTEM.norm>
0

>  <SCORE.heavy>
13

>  <SCORE.norm>
-1.83705

>  <RMSD>
4.739

$$$$
lig.pdb
 OpenBabel11021811453D
libRbt.so/2013.1/901 2013/11/27
 13 14  0  0  0  0  0  0  0  0999 V2000
   -7.2885    4.4401   -7.9240 N   0  0  0  0  0  0  0  0  0  0  0  0
   -7.0697    4.9120   -6.6608 C   0  0  0  0  0  0  0  0  0  0  0  0
   -8.0480    4.9167   -5.7731 N   0  0  0  0  0  0  0  0  0  0  0  0
   -9.3028    4.4602   -6.0707 C   0  0  0  0  0  0  0  0  0  0  0  0
   -9.5864    3.9656   -7.3669 C   0  0  0  0  0  0  0  0  0  0  0  0
   -8.5230    3.9634   -8.3192 C   0  0  0  0  0  0  0  0  0  0  0  0
   -8.7003    3.5529   -9.4528 O   0  0  0  0  0  0  0  0  0  0  0  0
  -11.0002    3.5715   -7.3628 C   0  0  0  0  0  0  0  0  0  0  0  0
  -11.7999    3.0033   -8.5053 C   0  0  0  0  0  0  0  0  0  0  0  0
  -12.6552    4.0521   -9.0765 N   0  0  0  0  0  0  0  0  0  0  0  0
  -11.4513    3.8238   -6.1279 C   0  0  0  0  0  0  0  0  0  0  0  0
  -10.4546    4.3572   -5.3550 N   0  0  0  0  0  0  0  0  0  0  0  0
   -5.8289    5.3823   -6.3156 N   0  0  0  0  0  0  0  0  0  0  0  0
  1  6  1  0  0  0  0
  2  1  1  0  0  0  0
  3  4  1  0  0  0  0
  3  2  2  0  0  0  0
  4  5  2  0  0  0  0
  5  8  1  0  0  0  0
  5  6  1  0  0  0  0
  6  7  2  0  0  0  0
  8  9  1  0  0  0  0
  9 10  1  0  0  0  0
 11  8  2  0  0  0  0
 12  4  1  0  0  0  0
 12 11  1  0  0  0  0
 13  2  1  0  0  0  0
M  END
>  <CHROM.1>
-102.65983480,-28.66918384,-9.34510352,4.20187840,-7.29309887,-0.32094603
-0.18519043,-1.79372347

>  <Name>
lig.pdb

>  <RI>
2.95488e+07

>  <Rbt.Current_Directory>
/home/itssahil/PROJECTS/Mol_Feturizer/New_Systems/rnas/2miy

>  <Rbt.Executable>
rbdock ($Id: //depot/dev/client3/rdock/2013.1/src/exe/rbdock.cxx#4 $)

>  <Rbt.Library>
libRbt.so (2013.1, Build901 2013/11/27)

>  <Rbt.Parameter_File>
/export/apps/rDock/src/rDock_2013.1_src/data/scripts/dock_solv.prm

>  <Rbt.Receptor>
prm/blind_docking_20.prm

>  <SCORE>
-23.78

>  <SCORE.INTER>
-26.3544

>  <SCORE.INTER.CONST>
1

>  <SCORE.INTER.POLAR>
-4.06854

>  <SCORE.INTER.ROT>
2

>  <SCORE.INTER.SOLV>
17.0934

>  <SCORE.INTER.VDW>
-14.639

>  <SCORE.INTER.norm>
-2.02726

>  <SCORE.INTRA>
2.28304

>  <SCORE.INTRA.DIHEDRAL>
1.42811

>  <SCORE.INTRA.DIHEDRAL.0>
1.76676

>  <SCORE.INTRA.POLAR>
0.472211

>  <SCORE.INTRA.POLAR.0>
-0.472211

>  <SCORE.INTRA.REPUL>
0

>  <SCORE.INTRA.REPUL.0>
0

>  <SCORE.INTRA.SOLV>
-0.556239

>  <SCORE.INTRA.SOLV.lig_0>
-22.5855

>  <SCORE.INTRA.VDW>
0.241587

>  <SCORE.INTRA.VDW.0>
-0.733656

>  <SCORE.INTRA.norm>
0.175619

>  <SCORE.RESTR>
0.291365

>  <SCORE.RESTR.CAVITY>
0.291365

>  <SCORE.RESTR.norm>
0.0224127

>  <SCORE.SYSTEM>
0

>  <SCORE.SYSTEM.CONST>
0

>  <SCORE.SYSTEM.DIHEDRAL>
0

>  <SCORE.SYSTEM.SOLV>
0

>  <SCORE.SYSTEM.norm>
0

>  <SCORE.heavy>
13

>  <SCORE.norm>
-1.82923

>  <RMSD>
4.740

$$$$
lig.pdb
 OpenBabel11021811453D
libRbt.so/2013.1/901 2013/11/27
 13 14  0  0  0  0  0  0  0  0999 V2000
   -7.2777    4.4134   -7.9500 N   0  0  0  0  0  0  0  0  0  0  0  0
   -7.0560    4.8726   -6.6826 C   0  0  0  0  0  0  0  0  0  0  0  0
   -8.0342    4.8754   -5.7949 N   0  0  0  0  0  0  0  0  0  0  0  0
   -9.2918    4.4294   -6.0965 C   0  0  0  0  0  0  0  0  0  0  0  0
   -9.5784    3.9481   -7.3970 C   0  0  0  0  0  0  0  0  0  0  0  0
   -8.5151    3.9479   -8.3493 C   0  0  0  0  0  0  0  0  0  0  0  0
   -8.6949    3.5486   -9.4865 O   0  0  0  0  0  0  0  0  0  0  0  0
  -10.9946    3.5627   -7.3963 C   0  0  0  0  0  0  0  0  0  0  0  0
  -11.7978    3.0097   -8.5438 C   0  0  0  0  0  0  0  0  0  0  0  0
  -12.6607    4.0638   -9.0933 N   0  0  0  0  0  0  0  0  0  0  0  0
  -11.4441    3.8068   -6.1592 C   0  0  0  0  0  0  0  0  0  0  0  0
  -10.4442    4.3271   -5.3816 N   0  0  0  0  0  0  0  0  0  0  0  0
   -5.8123    5.3323   -6.3334 N   0  0  0  0  0  0  0  0  0  0  0  0
  1  6  1  0  0  0  0
  2  1  1  0  0  0  0
  3  4  1  0  0  0  0
  3  2  2  0  0  0  0
  4  5  2  0  0  0  0
  5  8  1  0  0  0  0
  5  6  1  0  0  0  0
  6  7  2  0  0  0  0
  8  9  1  0  0  0  0
  9 10  1  0  0  0  0
 11  8  2  0  0  0  0
 12  4  1  0  0  0  0
 12 11  1  0  0  0  0
 13  2  1  0  0  0  0
M  END
>  <CHROM.1>
-103.46213482,-28.76911373,-9.33700195,4.18178058,-7.31994811,-0.31823539
-0.17901029,-1.78558704

>  <Name>
lig.pdb

>  <RI>
1.51961e+07

>  <Rbt.Current_Directory>
/home/itssahil/PROJECTS/Mol_Feturizer/New_Systems/rnas/2miy

>  <Rbt.Executable>
rbdock ($Id: //depot/dev/client3/rdock/2013.1/src/exe/rbdock.cxx#4 $)

>  <Rbt.Library>
libRbt.so (2013.1, Build901 2013/11/27)

>  <Rbt.Parameter_File>
/export/apps/rDock/src/rDock_2013.1_src/data/scripts/dock_solv.prm

>  <Rbt.Receptor>
prm/pocket_docking_3.prm

>  <SCORE>
-24.041

>  <SCORE.INTER>
-26.5407

>  <SCORE.INTER.CONST>
1

>  <SCORE.INTER.POLAR>
-4.06285

>  <SCORE.INTER.ROT>
2

>  <SCORE.INTER.SOLV>
17.1115

>  <SCORE.INTER.VDW>
-14.7881

>  <SCORE.INTER.norm>
-2.04159

>  <SCORE.INTRA>
2.30194

>  <SCORE.INTRA.DIHEDRAL>
1.46364

>  <SCORE.INTRA.DIHEDRAL.0>
1.76676

>  <SCORE.INTRA.POLAR>
0.472211

>  <SCORE.INTRA.POLAR.0>
-0.472211

>  <SCORE.INTRA.REPUL>
0

>  <SCORE.INTRA.REPUL.0>
0

>  <SCORE.INTRA.SOLV>
-0.560005

>  <SCORE.INTRA.SOLV.lig_0>
-22.5855

>  <SCORE.INTRA.VDW>
0.244608

>  <SCORE.INTRA.VDW.0>
-0.733656

>  <SCORE.INTRA.norm>
0.177072

>  <SCORE.RESTR>
0.197715

>  <SCORE.RESTR.CAVITY>
0.197715

>  <SCORE.RESTR.norm>
0.0152089

>  <SCORE.SYSTEM>
0

>  <SCORE.SYSTEM.CONST>
0

>  <SCORE.SYSTEM.DIHEDRAL>
0

>  <SCORE.SYSTEM.SOLV>
0

>  <SCORE.SYSTEM.norm>
0

>  <SCORE.heavy>
13

>  <SCORE.norm>
-1.84931

>  <RMSD>
4.740

$$$$
lig.pdb
 OpenBabel11021811453D
libRbt.so/2013.1/901 2013/11/27
 13 14  0  0  0  0  0  0  0  0999 V2000
   -7.2771    4.4143   -7.9359 N   0  0  0  0  0  0  0  0  0  0  0  0
   -7.0524    4.8817   -6.6720 C   0  0  0  0  0  0  0  0  0  0  0  0
   -8.0291    4.8921   -5.7827 N   0  0  0  0  0  0  0  0  0  0  0  0
   -9.2879    4.4462   -6.0791 C   0  0  0  0  0  0  0  0  0  0  0  0
   -9.5777    3.9566   -7.3759 C   0  0  0  0  0  0  0  0  0  0  0  0
   -8.5160    3.9482   -8.3300 C   0  0  0  0  0  0  0  0  0  0  0  0
   -8.6984    3.5415   -9.4642 O   0  0  0  0  0  0  0  0  0  0  0  0
  -10.9944    3.5736   -7.3702 C   0  0  0  0  0  0  0  0  0  0  0  0
  -11.8006    3.0143   -8.5125 C   0  0  0  0  0  0  0  0  0  0  0  0
  -12.6591    4.0674   -9.0708 N   0  0  0  0  0  0  0  0  0  0  0  0
  -11.4414    3.8267   -6.1339 C   0  0  0  0  0  0  0  0  0  0  0  0
  -10.4392    4.3506   -5.3615 N   0  0  0  0  0  0  0  0  0  0  0  0
   -5.8074    5.3415   -6.3281 N   0  0  0  0  0  0  0  0  0  0  0  0
  1  6  1  0  0  0  0
  2  1  1  0  0  0  0
  3  4  1  0  0  0  0
  3  2  2  0  0  0  0
  4  5  2  0  0  0  0
  5  8  1  0  0  0  0
  5  6  1  0  0  0  0
  6  7  2  0  0  0  0
  8  9  1  0  0  0  0
  9 10  1  0  0  0  0
 11  8  2  0  0  0  0
 12  4  1  0  0  0  0
 12 11  1  0  0  0  0
 13  2  1  0  0  0  0
M  END
>  <CHROM.1>
-103.25644082,-29.49599534,-9.33536182,4.19050286,-7.30109624,-0.31645733
-0.17778266,-1.79164558

>  <Name>
lig.pdb

>  <RI>
4.2128e+07

>  <Rbt.Current_Directory>
/home/itssahil/PROJECTS/Mol_Feturizer/New_Systems/rnas/2miy

>  <Rbt.Executable>
rbdock ($Id: //depot/dev/client3/rdock/2013.1/src/exe/rbdock.cxx#4 $)

>  <Rbt.Library>
libRbt.so (2013.1, Build901 2013/11/27)

>  <Rbt.Parameter_File>
/export/apps/rDock/src/rDock_2013.1_src/data/scripts/dock_solv.prm

>  <Rbt.Receptor>
prm/pocket_docking_5.prm

>  <SCORE>
-23.9259

>  <SCORE.INTER>
-26.4031

>  <SCORE.INTER.CONST>
1

>  <SCORE.INTER.POLAR>
-4.05548

>  <SCORE.INTER.ROT>
2

>  <SCORE.INTER.SOLV>
17.0892

>  <SCORE.INTER.VDW>
-14.7135

>  <SCORE.INTER.norm>
-2.03101

>  <SCORE.INTRA>
2.29541

>  <SCORE.INTRA.DIHEDRAL>
1.45456

>  <SCORE.INTRA.DIHEDRAL.0>
1.76676

>  <SCORE.INTRA.POLAR>
0.472211

>  <SCORE.INTRA.POLAR.0>
-0.472211

>  <SCORE.INTRA.REPUL>
0

>  <SCORE.INTRA.REPUL.0>
0

>  <SCORE.INTRA.SOLV>
-0.559135

>  <SCORE.INTRA.SOLV.lig_0>
-22.5855

>  <SCORE.INTRA.VDW>
0.242183

>  <SCORE.INTRA.VDW.0>
-0.733656

>  <SCORE.INTRA.norm>
0.17657

>  <SCORE.RESTR>
0.181796

>  <SCORE.RESTR.CAVITY>
0.181796

>  <SCORE.RESTR.norm>
0.0139843

>  <SCORE.SYSTEM>
0

>  <SCORE.SYSTEM.CONST>
0

>  <SCORE.SYSTEM.DIHEDRAL>
0

>  <SCORE.SYSTEM.SOLV>
0

>  <SCORE.SYSTEM.norm>
0

>  <SCORE.heavy>
13

>  <SCORE.norm>
-1.84045

>  <RMSD>
4.740

$$$$
lig.pdb
 OpenBabel11021811453D
libRbt.so/2013.1/901 2013/11/27
 13 14  0  0  0  0  0  0  0  0999 V2000
   -7.2749    4.4298   -7.9338 N   0  0  0  0  0  0  0  0  0  0  0  0
   -7.0553    4.8971   -6.6690 C   0  0  0  0  0  0  0  0  0  0  0  0
   -8.0338    4.9017   -5.7817 N   0  0  0  0  0  0  0  0  0  0  0  0
   -9.2897    4.4496   -6.0811 C   0  0  0  0  0  0  0  0  0  0  0  0
   -9.5742    3.9598   -7.3789 C   0  0  0  0  0  0  0  0  0  0  0  0
   -8.5105    3.9577   -8.3308 C   0  0  0  0  0  0  0  0  0  0  0  0
   -8.6885    3.5511   -9.4658 O   0  0  0  0  0  0  0  0  0  0  0  0
  -10.9890    3.5695   -7.3765 C   0  0  0  0  0  0  0  0  0  0  0  0
  -11.7899    3.0070   -8.5210 C   0  0  0  0  0  0  0  0  0  0  0  0
  -12.6566    4.0548   -9.0767 N   0  0  0  0  0  0  0  0  0  0  0  0
  -11.4399    3.8192   -6.1410 C   0  0  0  0  0  0  0  0  0  0  0  0
  -10.4420    4.3475   -5.3660 N   0  0  0  0  0  0  0  0  0  0  0  0
   -5.8133    5.3631   -6.3220 N   0  0  0  0  0  0  0  0  0  0  0  0
  1  6  1  0  0  0  0
  2  1  1  0  0  0  0
  3  4  1  0  0  0  0
  3  2  2  0  0  0  0
  4  5  2  0  0  0  0
  5  8  1  0  0  0  0
  5  6  1  0  0  0  0
  6  7  2  0  0  0  0
  8  9  1  0  0  0  0
  9 10  1  0  0  0  0
 11  8  2  0  0  0  0
 12  4  1  0  0  0  0
 12 11  1  0  0  0  0
 13  2  1  0  0  0  0
M  END
>  <CHROM.1>
-103.48323046,-28.16804922,-9.33367290,4.19466811,-7.30309622,-0.31934994
-0.18229019,-1.79166561

>  <Name>
lig.pdb

>  <RI>
9.06885e+06

>  <Rbt.Current_Directory>
/home/itssahil/PROJECTS/Mol_Feturizer/New_Systems/rnas/2miy

>  <Rbt.Executable>
rbdock ($Id: //depot/dev/client3/rdock/2013.1/src/exe/rbdock.cxx#4 $)

>  <Rbt.Library>
libRbt.so (2013.1, Build901 2013/11/27)

>  <Rbt.Parameter_File>
/export/apps/rDock/src/rDock_2013.1_src/data/scripts/dock_solv.prm

>  <Rbt.Receptor>
prm/pocket_docking_6.prm

>  <SCORE>
-23.9693

>  <SCORE.INTER>
-26.4633

>  <SCORE.INTER.CONST>
1

>  <SCORE.INTER.POLAR>
-4.06568

>  <SCORE.INTER.ROT>
2

>  <SCORE.INTER.SOLV>
17.1158

>  <SCORE.INTER.VDW>
-14.7286

>  <SCORE.INTER.norm>
-2.03564

>  <SCORE.INTRA>
2.30383

>  <SCORE.INTRA.DIHEDRAL>
1.46465

>  <SCORE.INTRA.DIHEDRAL.0>
1.76676

>  <SCORE.INTRA.POLAR>
0.472211

>  <SCORE.INTRA.POLAR.0>
-0.472211

>  <SCORE.INTRA.REPUL>
0

>  <SCORE.INTRA.REPUL.0>
0

>  <SCORE.INTRA.SOLV>
-0.560032

>  <SCORE.INTRA.SOLV.lig_0>
-22.5855

>  <SCORE.INTRA.VDW>
0.246003

>  <SCORE.INTRA.VDW.0>
-0.733656

>  <SCORE.INTRA.norm>
0.177218

>  <SCORE.RESTR>
0.190171

>  <SCORE.RESTR.CAVITY>
0.190171

>  <SCORE.RESTR.norm>
0.0146285

>  <SCORE.SYSTEM>
0

>  <SCORE.SYSTEM.CONST>
0

>  <SCORE.SYSTEM.DIHEDRAL>
0

>  <SCORE.SYSTEM.SOLV>
0

>  <SCORE.SYSTEM.norm>
0

>  <SCORE.heavy>
13

>  <SCORE.norm>
-1.84379

>  <RMSD>
4.740

$$$$
lig.pdb
 OpenBabel11021811453D
libRbt.so/2013.1/901 2013/11/27
 13 14  0  0  0  0  0  0  0  0999 V2000
   -7.2787    4.4190   -7.9475 N   0  0  0  0  0  0  0  0  0  0  0  0
   -7.0590    4.8797   -6.6802 C   0  0  0  0  0  0  0  0  0  0  0  0
   -8.0381    4.8817   -5.7935 N   0  0  0  0  0  0  0  0  0  0  0  0
   -9.2947    4.4334   -6.0960 C   0  0  0  0  0  0  0  0  0  0  0  0
   -9.5793    3.9505   -7.3964 C   0  0  0  0  0  0  0  0  0  0  0  0
   -8.5150    3.9512   -8.3477 C   0  0  0  0  0  0  0  0  0  0  0  0
   -8.6929    3.5505   -9.4847 O   0  0  0  0  0  0  0  0  0  0  0  0
  -10.9948    3.5629   -7.3968 C   0  0  0  0  0  0  0  0  0  0  0  0
  -11.7960    3.0075   -8.5446 C   0  0  0  0  0  0  0  0  0  0  0  0
  -12.6621    4.0590   -9.0941 N   0  0  0  0  0  0  0  0  0  0  0  0
  -11.4460    3.8073   -6.1603 C   0  0  0  0  0  0  0  0  0  0  0  0
  -10.4476    4.3299   -5.3822 N   0  0  0  0  0  0  0  0  0  0  0  0
   -5.8164    5.3416   -6.3302 N   0  0  0  0  0  0  0  0  0  0  0  0
  1  6  1  0  0  0  0
  2  1  1  0  0  0  0
  3  4  1  0  0  0  0
  3  2  2  0  0  0  0
  4  5  2  0  0  0  0
  5  8  1  0  0  0  0
  5  6  1  0  0  0  0
  6  7  2  0  0  0  0
  8  9  1  0  0  0  0
  9 10  1  0  0  0  0
 11  8  2  0  0  0  0
 12  4  1  0  0  0  0
 12 11  1  0  0  0  0
 13  2  1  0  0  0  0
M  END
>  <CHROM.1>
-103.57988501,-27.39809081,-9.33845085,4.18454995,-7.31911694,-0.31942873
-0.18033704,-1.78690378

>  <Name>
lig.pdb

>  <RI>
1.51961e+07

>  <Rbt.Current_Directory>
/home/itssahil/PROJECTS/Mol_Feturizer/New_Systems/rnas/2miy

>  <Rbt.Executable>
rbdock ($Id: //depot/dev/client3/rdock/2013.1/src/exe/rbdock.cxx#4 $)

>  <Rbt.Library>
libRbt.so (2013.1, Build901 2013/11/27)

>  <Rbt.Parameter_File>
/export/apps/rDock/src/rDock_2013.1_src/data/scripts/dock_solv.prm

>  <Rbt.Receptor>
prm/pocket_docking_3.prm

>  <SCORE>
-24.0512

>  <SCORE.INTER>
-26.5577

>  <SCORE.INTER.CONST>
1

>  <SCORE.INTER.POLAR>
-4.05154

>  <SCORE.INTER.ROT>
2

>  <SCORE.INTER.SOLV>
17.1176

>  <SCORE.INTER.VDW>
-14.8392

>  <SCORE.INTER.norm>
-2.0429

>  <SCORE.INTRA>
2.3079

>  <SCORE.INTRA.DIHEDRAL>
1.46902

>  <SCORE.INTRA.DIHEDRAL.0>
1.76676

>  <SCORE.INTRA.POLAR>
0.472211

>  <SCORE.INTRA.POLAR.0>
-0.472211

>  <SCORE.INTRA.REPUL>
0

>  <SCORE.INTRA.REPUL.0>
0

>  <SCORE.INTRA.SOLV>
-0.560394

>  <SCORE.INTRA.SOLV.lig_0>
-22.5855

>  <SCORE.INTRA.VDW>
0.248068

>  <SCORE.INTRA.VDW.0>
-0.733656

>  <SCORE.INTRA.norm>
0.177531

>  <SCORE.RESTR>
0.198594

>  <SCORE.RESTR.CAVITY>
0.198594

>  <SCORE.RESTR.norm>
0.0152765

>  <SCORE.SYSTEM>
0

>  <SCORE.SYSTEM.CONST>
0

>  <SCORE.SYSTEM.DIHEDRAL>
0

>  <SCORE.SYSTEM.SOLV>
0

>  <SCORE.SYSTEM.norm>
0

>  <SCORE.heavy>
13

>  <SCORE.norm>
-1.85009

>  <RMSD>
4.741

$$$$
lig.pdb
 OpenBabel11021811453D
libRbt.so/2013.1/901 2013/11/27
 13 14  0  0  0  0  0  0  0  0999 V2000
   -7.2798    4.4122   -7.9526 N   0  0  0  0  0  0  0  0  0  0  0  0
   -7.0581    4.8728   -6.6857 C   0  0  0  0  0  0  0  0  0  0  0  0
   -8.0367    4.8780   -5.7985 N   0  0  0  0  0  0  0  0  0  0  0  0
   -9.2948    4.4331   -6.1001 C   0  0  0  0  0  0  0  0  0  0  0  0
   -9.5813    3.9504   -7.4002 C   0  0  0  0  0  0  0  0  0  0  0  0
   -8.5175    3.9477   -8.3520 C   0  0  0  0  0  0  0  0  0  0  0  0
   -8.6972    3.5471   -9.4888 O   0  0  0  0  0  0  0  0  0  0  0  0
  -10.9979    3.5668   -7.3997 C   0  0  0  0  0  0  0  0  0  0  0  0
  -11.8013    3.0132   -8.5469 C   0  0  0  0  0  0  0  0  0  0  0  0
  -12.6635    4.0673   -9.0974 N   0  0  0  0  0  0  0  0  0  0  0  0
  -11.4478    3.8130   -6.1632 C   0  0  0  0  0  0  0  0  0  0  0  0
  -10.4476    4.3331   -5.3857 N   0  0  0  0  0  0  0  0  0  0  0  0
   -5.8141    5.3314   -6.3364 N   0  0  0  0  0  0  0  0  0  0  0  0
  1  6  1  0  0  0  0
  2  1  1  0  0  0  0
  3  4  1  0  0  0  0
  3  2  2  0  0  0  0
  4  5  2  0  0  0  0
  5  8  1  0  0  0  0
  5  6  1  0  0  0  0
  6  7  2  0  0  0  0
  8  9  1  0  0  0  0
  9 10  1  0  0  0  0
 11  8  2  0  0  0  0
 12  4  1  0  0  0  0
 12 11  1  0  0  0  0
 13  2  1  0  0  0  0
M  END
>  <CHROM.1>
-103.51389792,-28.65412264,-9.33973370,4.18385763,-7.32324127,-0.31839157
-0.17770744,-1.78700522

>  <Name>
lig.pdb

>  <RI>
2.68696e+07

>  <Rbt.Current_Directory>
/home/itssahil/PROJECTS/Mol_Feturizer/New_Systems/rnas/2miy

>  <Rbt.Executable>
rbdock ($Id: //depot/dev/client3/rdock/2013.1/src/exe/rbdock.cxx#4 $)

>  <Rbt.Library>
libRbt.so (2013.1, Build901 2013/11/27)

>  <Rbt.Parameter_File>
/export/apps/rDock/src/rDock_2013.1_src/data/scripts/dock_solv.prm

>  <Rbt.Receptor>
prm/pocket_docking_4.prm

>  <SCORE>
-24.0387

>  <SCORE.INTER>
-26.5381

>  <SCORE.INTER.CONST>
1

>  <SCORE.INTER.POLAR>
-4.0534

>  <SCORE.INTER.ROT>
2

>  <SCORE.INTER.SOLV>
17.1172

>  <SCORE.INTER.VDW>
-14.8198

>  <SCORE.INTER.norm>
-2.04139

>  <SCORE.INTRA>
2.30342

>  <SCORE.INTRA.DIHEDRAL>
1.4659

>  <SCORE.INTRA.DIHEDRAL.0>
1.76676

>  <SCORE.INTRA.POLAR>
0.472211

>  <SCORE.INTRA.POLAR.0>
-0.472211

>  <SCORE.INTRA.REPUL>
0

>  <SCORE.INTRA.REPUL.0>
0

>  <SCORE.INTRA.SOLV>
-0.560232

>  <SCORE.INTRA.SOLV.lig_0>
-22.5855

>  <SCORE.INTRA.VDW>
0.245071

>  <SCORE.INTRA.VDW.0>
-0.733656

>  <SCORE.INTRA.norm>
0.177186

>  <SCORE.RESTR>
0.195997

>  <SCORE.RESTR.CAVITY>
0.195997

>  <SCORE.RESTR.norm>
0.0150767

>  <SCORE.SYSTEM>
0

>  <SCORE.SYSTEM.CONST>
0

>  <SCORE.SYSTEM.DIHEDRAL>
0

>  <SCORE.SYSTEM.SOLV>
0

>  <SCORE.SYSTEM.norm>
0

>  <SCORE.heavy>
13

>  <SCORE.norm>
-1.84913

>  <RMSD>
4.741

$$$$
lig.pdb
 OpenBabel11021811453D
libRbt.so/2013.1/901 2013/11/27
 13 14  0  0  0  0  0  0  0  0999 V2000
   -7.2765    4.4197   -7.9500 N   0  0  0  0  0  0  0  0  0  0  0  0
   -7.0587    4.8809   -6.6826 C   0  0  0  0  0  0  0  0  0  0  0  0
   -8.0396    4.8854   -5.7980 N   0  0  0  0  0  0  0  0  0  0  0  0
   -9.2964    4.4391   -6.1028 C   0  0  0  0  0  0  0  0  0  0  0  0
   -9.5791    3.9558   -7.4034 C   0  0  0  0  0  0  0  0  0  0  0  0
   -8.5128    3.9538   -8.3524 C   0  0  0  0  0  0  0  0  0  0  0  0
   -8.6891    3.5526   -9.4895 O   0  0  0  0  0  0  0  0  0  0  0  0
  -10.9953    3.5707   -7.4066 C   0  0  0  0  0  0  0  0  0  0  0  0
  -11.7951    3.0159   -8.5556 C   0  0  0  0  0  0  0  0  0  0  0  0
  -12.6633    4.0667   -9.1033 N   0  0  0  0  0  0  0  0  0  0  0  0
  -11.4487    3.8168   -6.1712 C   0  0  0  0  0  0  0  0  0  0  0  0
  -10.4510    4.3382   -5.3913 N   0  0  0  0  0  0  0  0  0  0  0  0
   -5.8160    5.3408   -6.3303 N   0  0  0  0  0  0  0  0  0  0  0  0
  1  6  1  0  0  0  0
  2  1  1  0  0  0  0
  3  4  1  0  0  0  0
  3  2  2  0  0  0  0
  4  5  2  0  0  0  0
  5  8  1  0  0  0  0
  5  6  1  0  0  0  0
  6  7  2  0  0  0  0
  8  9  1  0  0  0  0
  9 10  1  0  0  0  0
 11  8  2  0  0  0  0
 12  4  1  0  0  0  0
 12 11  1  0  0  0  0
 13  2  1  0  0  0  0
M  END
>  <CHROM.1>
-103.87319315,-28.84829499,-9.33852960,4.18923052,-7.32540678,-0.32061137
-0.17804593,-1.78829481

>  <Name>
lig.pdb

>  <RI>
4.2128e+07

>  <Rbt.Current_Directory>
/home/itssahil/PROJECTS/Mol_Feturizer/New_Systems/rnas/2miy

>  <Rbt.Executable>
rbdock ($Id: //depot/dev/client3/rdock/2013.1/src/exe/rbdock.cxx#4 $)

>  <Rbt.Library>
libRbt.so (2013.1, Build901 2013/11/27)

>  <Rbt.Parameter_File>
/export/apps/rDock/src/rDock_2013.1_src/data/scripts/dock_solv.prm

>  <Rbt.Receptor>
prm/pocket_docking_5.prm

>  <SCORE>
-24.0558

>  <SCORE.INTER>
-26.5722

>  <SCORE.INTER.CONST>
1

>  <SCORE.INTER.POLAR>
-4.06542

>  <SCORE.INTER.ROT>
2

>  <SCORE.INTER.SOLV>
17.134

>  <SCORE.INTER.VDW>
-14.8081

>  <SCORE.INTER.norm>
-2.04402

>  <SCORE.INTRA>
2.31136

>  <SCORE.INTRA.DIHEDRAL>
1.48134

>  <SCORE.INTRA.DIHEDRAL.0>
1.76676

>  <SCORE.INTRA.POLAR>
0.472211

>  <SCORE.INTRA.POLAR.0>
-0.472211

>  <SCORE.INTRA.REPUL>
0

>  <SCORE.INTRA.REPUL.0>
0

>  <SCORE.INTRA.SOLV>
-0.561924

>  <SCORE.INTRA.SOLV.lig_0>
-22.5855

>  <SCORE.INTRA.VDW>
0.246127

>  <SCORE.INTRA.VDW.0>
-0.733656

>  <SCORE.INTRA.norm>
0.177797

>  <SCORE.RESTR>
0.205081

>  <SCORE.RESTR.CAVITY>
0.205081

>  <SCORE.RESTR.norm>
0.0157754

>  <SCORE.SYSTEM>
0

>  <SCORE.SYSTEM.CONST>
0

>  <SCORE.SYSTEM.DIHEDRAL>
0

>  <SCORE.SYSTEM.SOLV>
0

>  <SCORE.SYSTEM.norm>
0

>  <SCORE.heavy>
13

>  <SCORE.norm>
-1.85044

>  <RMSD>
4.741

$$$$
lig.pdb
 OpenBabel11021811453D
libRbt.so/2013.1/901 2013/11/27
 13 14  0  0  0  0  0  0  0  0999 V2000
   -7.2798    4.4177   -7.9517 N   0  0  0  0  0  0  0  0  0  0  0  0
   -7.0600    4.8795   -6.6849 C   0  0  0  0  0  0  0  0  0  0  0  0
   -8.0396    4.8843   -5.7988 N   0  0  0  0  0  0  0  0  0  0  0  0
   -9.2968    4.4377   -6.1015 C   0  0  0  0  0  0  0  0  0  0  0  0
   -9.5814    3.9538   -7.4015 C   0  0  0  0  0  0  0  0  0  0  0  0
   -8.5166    3.9515   -8.3521 C   0  0  0  0  0  0  0  0  0  0  0  0
   -8.6946    3.5498   -9.4888 O   0  0  0  0  0  0  0  0  0  0  0  0
  -10.9976    3.5685   -7.4023 C   0  0  0  0  0  0  0  0  0  0  0  0
  -11.7991    3.0132   -8.5499 C   0  0  0  0  0  0  0  0  0  0  0  0
  -12.6651    4.0648   -9.0993 N   0  0  0  0  0  0  0  0  0  0  0  0
  -11.4491    3.8152   -6.1664 C   0  0  0  0  0  0  0  0  0  0  0  0
  -10.4504    4.3370   -5.3882 N   0  0  0  0  0  0  0  0  0  0  0  0
   -5.8169    5.3398   -6.3346 N   0  0  0  0  0  0  0  0  0  0  0  0
  1  6  1  0  0  0  0
  2  1  1  0  0  0  0
  3  4  1  0  0  0  0
  3  2  2  0  0  0  0
  4  5  2  0  0  0  0
  5  8  1  0  0  0  0
  5  6  1  0  0  0  0
  6  7  2  0  0  0  0
  8  9  1  0  0  0  0
  9 10  1  0  0  0  0
 11  8  2  0  0  0  0
 12  4  1  0  0  0  0
 12 11  1  0  0  0  0
 13  2  1  0  0  0  0
M  END
>  <CHROM.1>
-103.69827030,-28.60094653,-9.34047869,4.18743431,-7.32416751,-0.31942213
-0.17852213,-1.78823480

>  <Name>
lig.pdb

>  <RI>
4.2128e+07

>  <Rbt.Current_Directory>
/home/itssahil/PROJECTS/Mol_Feturizer/New_Systems/rnas/2miy

>  <Rbt.Executable>
rbdock ($Id: //depot/dev/client3/rdock/2013.1/src/exe/rbdock.cxx#4 $)

>  <Rbt.Library>
libRbt.so (2013.1, Build901 2013/11/27)

>  <Rbt.Parameter_File>
/export/apps/rDock/src/rDock_2013.1_src/data/scripts/dock_solv.prm

>  <Rbt.Receptor>
prm/pocket_docking_5.prm

>  <SCORE>
-24.0416

>  <SCORE.INTER>
-26.5487

>  <SCORE.INTER.CONST>
1

>  <SCORE.INTER.POLAR>
-4.06576

>  <SCORE.INTER.ROT>
2

>  <SCORE.INTER.SOLV>
17.1287

>  <SCORE.INTER.VDW>
-14.7895

>  <SCORE.INTER.norm>
-2.04221

>  <SCORE.INTRA>
2.30786

>  <SCORE.INTRA.DIHEDRAL>
1.47388

>  <SCORE.INTRA.DIHEDRAL.0>
1.76676

>  <SCORE.INTRA.POLAR>
0.472211

>  <SCORE.INTRA.POLAR.0>
-0.472211

>  <SCORE.INTRA.REPUL>
0

>  <SCORE.INTRA.REPUL.0>
0

>  <SCORE.INTRA.SOLV>
-0.561082

>  <SCORE.INTRA.SOLV.lig_0>
-22.5855

>  <SCORE.INTRA.VDW>
0.245945

>  <SCORE.INTRA.VDW.0>
-0.733656

>  <SCORE.INTRA.norm>
0.177528

>  <SCORE.RESTR>
0.199266

>  <SCORE.RESTR.CAVITY>
0.199266

>  <SCORE.RESTR.norm>
0.0153282

>  <SCORE.SYSTEM>
0

>  <SCORE.SYSTEM.CONST>
0

>  <SCORE.SYSTEM.DIHEDRAL>
0

>  <SCORE.SYSTEM.SOLV>
0

>  <SCORE.SYSTEM.norm>
0

>  <SCORE.heavy>
13

>  <SCORE.norm>
-1.84936

>  <RMSD>
4.741

$$$$
lig.pdb
 OpenBabel11021811453D
libRbt.so/2013.1/901 2013/11/27
 13 14  0  0  0  0  0  0  0  0999 V2000
   -7.2807    4.4172   -7.9495 N   0  0  0  0  0  0  0  0  0  0  0  0
   -7.0601    4.8780   -6.6824 C   0  0  0  0  0  0  0  0  0  0  0  0
   -8.0389    4.8811   -5.7954 N   0  0  0  0  0  0  0  0  0  0  0  0
   -9.2960    4.4338   -6.0973 C   0  0  0  0  0  0  0  0  0  0  0  0
   -9.5814    3.9509   -7.3974 C   0  0  0  0  0  0  0  0  0  0  0  0
   -8.5175    3.9504   -8.3491 C   0  0  0  0  0  0  0  0  0  0  0  0
   -8.6962    3.5496   -9.4860 O   0  0  0  0  0  0  0  0  0  0  0  0
  -10.9973    3.5644   -7.3973 C   0  0  0  0  0  0  0  0  0  0  0  0
  -11.7994    3.0095   -8.5447 C   0  0  0  0  0  0  0  0  0  0  0  0
  -12.6619    4.0626   -9.0966 N   0  0  0  0  0  0  0  0  0  0  0  0
  -11.4478    3.8095   -6.1607 C   0  0  0  0  0  0  0  0  0  0  0  0
  -10.4487    4.3315   -5.3830 N   0  0  0  0  0  0  0  0  0  0  0  0
   -5.8170    5.3389   -6.3329 N   0  0  0  0  0  0  0  0  0  0  0  0
  1  6  1  0  0  0  0
  2  1  1  0  0  0  0
  3  4  1  0  0  0  0
  3  2  2  0  0  0  0
  4  5  2  0  0  0  0
  5  8  1  0  0  0  0
  5  6  1  0  0  0  0
  6  7  2  0  0  0  0
  8  9  1  0  0  0  0
  9 10  1  0  0  0  0
 11  8  2  0  0  0  0
 12  4  1  0  0  0  0
 12 11  1  0  0  0  0
 13  2  1  0  0  0  0
M  END
>  <CHROM.1>
-103.41915133,-29.34453971,-9.34012466,4.18479548,-7.32056604,-0.31908706
-0.17959304,-1.78676992

>  <Name>
lig.pdb

>  <RI>
9.06885e+06

>  <Rbt.Current_Directory>
/home/itssahil/PROJECTS/Mol_Feturizer/New_Systems/rnas/2miy

>  <Rbt.Executable>
rbdock ($Id: //depot/dev/client3/rdock/2013.1/src/exe/rbdock.cxx#4 $)

>  <Rbt.Library>
libRbt.so (2013.1, Build901 2013/11/27)

>  <Rbt.Parameter_File>
/export/apps/rDock/src/rDock_2013.1_src/data/scripts/dock_solv.prm

>  <Rbt.Receptor>
prm/pocket_docking_6.prm

>  <SCORE>
-24.0394

>  <SCORE.INTER>
-26.5343

>  <SCORE.INTER.CONST>
1

>  <SCORE.INTER.POLAR>
-4.07755

>  <SCORE.INTER.ROT>
2

>  <SCORE.INTER.SOLV>
17.1173

>  <SCORE.INTER.VDW>
-14.7368

>  <SCORE.INTER.norm>
-2.0411

>  <SCORE.INTRA>
2.2996

>  <SCORE.INTRA.DIHEDRAL>
1.4617

>  <SCORE.INTRA.DIHEDRAL.0>
1.76676

>  <SCORE.INTRA.POLAR>
0.472211

>  <SCORE.INTRA.POLAR.0>
-0.472211

>  <SCORE.INTRA.REPUL>
0

>  <SCORE.INTRA.REPUL.0>
0

>  <SCORE.INTRA.SOLV>
-0.559875

>  <SCORE.INTRA.SOLV.lig_0>
-22.5855

>  <SCORE.INTRA.VDW>
0.243175

>  <SCORE.INTRA.VDW.0>
-0.733656

>  <SCORE.INTRA.norm>
0.176893

>  <SCORE.RESTR>
0.195281

>  <SCORE.RESTR.CAVITY>
0.195281

>  <SCORE.RESTR.norm>
0.0150216

>  <SCORE.SYSTEM>
0

>  <SCORE.SYSTEM.CONST>
0

>  <SCORE.SYSTEM.DIHEDRAL>
0

>  <SCORE.SYSTEM.SOLV>
0

>  <SCORE.SYSTEM.norm>
0

>  <SCORE.heavy>
13

>  <SCORE.norm>
-1.84919

>  <RMSD>
4.741

$$$$
lig.pdb
 OpenBabel11021811453D
libRbt.so/2013.1/901 2013/11/27
 13 14  0  0  0  0  0  0  0  0999 V2000
   -7.2826    4.4161   -7.9517 N   0  0  0  0  0  0  0  0  0  0  0  0
   -7.0615    4.8760   -6.6844 C   0  0  0  0  0  0  0  0  0  0  0  0
   -8.0399    4.8785   -5.7970 N   0  0  0  0  0  0  0  0  0  0  0  0
   -9.2971    4.4315   -6.0987 C   0  0  0  0  0  0  0  0  0  0  0  0
   -9.5831    3.9495   -7.3991 C   0  0  0  0  0  0  0  0  0  0  0  0
   -8.5195    3.9496   -8.3511 C   0  0  0  0  0  0  0  0  0  0  0  0
   -8.6988    3.5496   -9.4882 O   0  0  0  0  0  0  0  0  0  0  0  0
  -10.9990    3.5631   -7.3986 C   0  0  0  0  0  0  0  0  0  0  0  0
  -11.8016    3.0090   -8.5460 C   0  0  0  0  0  0  0  0  0  0  0  0
  -12.6638    4.0627   -9.0973 N   0  0  0  0  0  0  0  0  0  0  0  0
  -11.4490    3.8073   -6.1617 C   0  0  0  0  0  0  0  0  0  0  0  0
  -10.4496    4.3287   -5.3840 N   0  0  0  0  0  0  0  0  0  0  0  0
   -5.8182    5.3366   -6.3351 N   0  0  0  0  0  0  0  0  0  0  0  0
  1  6  1  0  0  0  0
  2  1  1  0  0  0  0
  3  4  1  0  0  0  0
  3  2  2  0  0  0  0
  4  5  2  0  0  0  0
  5  8  1  0  0  0  0
  5  6  1  0  0  0  0
  6  7  2  0  0  0  0
  8  9  1  0  0  0  0
  9 10  1  0  0  0  0
 11  8  2  0  0  0  0
 12  4  1  0  0  0  0
 12 11  1  0  0  0  0
 13  2  1  0  0  0  0
M  END
>  <CHROM.1>
-103.38936949,-29.03063119,-9.34175005,4.18334423,-7.32215501,-0.31874535
-0.17964163,-1.78598510

>  <Name>
lig.pdb

>  <RI>
9.06885e+06

>  <Rbt.Current_Directory>
/home/itssahil/PROJECTS/Mol_Feturizer/New_Systems/rnas/2miy

>  <Rbt.Executable>
rbdock ($Id: //depot/dev/client3/rdock/2013.1/src/exe/rbdock.cxx#4 $)

>  <Rbt.Library>
libRbt.so (2013.1, Build901 2013/11/27)

>  <Rbt.Parameter_File>
/export/apps/rDock/src/rDock_2013.1_src/data/scripts/dock_solv.prm

>  <Rbt.Receptor>
prm/pocket_docking_6.prm

>  <SCORE>
-24.0239

>  <SCORE.INTER>
-26.5177

>  <SCORE.INTER.CONST>
1

>  <SCORE.INTER.POLAR>
-4.07304

>  <SCORE.INTER.ROT>
2

>  <SCORE.INTER.SOLV>
17.116

>  <SCORE.INTER.VDW>
-14.7403

>  <SCORE.INTER.norm>
-2.03982

>  <SCORE.INTRA>
2.29962

>  <SCORE.INTRA.DIHEDRAL>
1.46043

>  <SCORE.INTRA.DIHEDRAL.0>
1.76676

>  <SCORE.INTRA.POLAR>
0.472211

>  <SCORE.INTRA.POLAR.0>
-0.472211

>  <SCORE.INTRA.REPUL>
0

>  <SCORE.INTRA.REPUL.0>
0

>  <SCORE.INTRA.SOLV>
-0.559697

>  <SCORE.INTRA.SOLV.lig_0>
-22.5855

>  <SCORE.INTRA.VDW>
0.24374

>  <SCORE.INTRA.VDW.0>
-0.733656

>  <SCORE.INTRA.norm>
0.176894

>  <SCORE.RESTR>
0.194142

>  <SCORE.RESTR.CAVITY>
0.194142

>  <SCORE.RESTR.norm>
0.014934

>  <SCORE.SYSTEM>
0

>  <SCORE.SYSTEM.CONST>
0

>  <SCORE.SYSTEM.DIHEDRAL>
0

>  <SCORE.SYSTEM.SOLV>
0

>  <SCORE.SYSTEM.norm>
0

>  <SCORE.heavy>
13

>  <SCORE.norm>
-1.84799

>  <RMSD>
4.741

$$$$
lig.pdb
 OpenBabel11021811453D
libRbt.so/2013.1/901 2013/11/27
 13 14  0  0  0  0  0  0  0  0999 V2000
   -7.2807    4.4306   -7.9312 N   0  0  0  0  0  0  0  0  0  0  0  0
   -7.0621    4.8999   -6.6670 C   0  0  0  0  0  0  0  0  0  0  0  0
   -8.0414    4.9062   -5.7806 N   0  0  0  0  0  0  0  0  0  0  0  0
   -9.2972    4.4540   -6.0804 C   0  0  0  0  0  0  0  0  0  0  0  0
   -9.5807    3.9622   -7.3777 C   0  0  0  0  0  0  0  0  0  0  0  0
   -8.5162    3.9583   -8.3287 C   0  0  0  0  0  0  0  0  0  0  0  0
   -8.6933    3.5499   -9.4631 O   0  0  0  0  0  0  0  0  0  0  0  0
  -10.9957    3.5724   -7.3759 C   0  0  0  0  0  0  0  0  0  0  0  0
  -11.7957    3.0084   -8.5203 C   0  0  0  0  0  0  0  0  0  0  0  0
  -12.6591    4.0564   -9.0805 N   0  0  0  0  0  0  0  0  0  0  0  0
  -11.4475    3.8242   -6.1412 C   0  0  0  0  0  0  0  0  0  0  0  0
  -10.4502    4.3534   -5.3662 N   0  0  0  0  0  0  0  0  0  0  0  0
   -5.8203    5.3659   -6.3196 N   0  0  0  0  0  0  0  0  0  0  0  0
  1  6  1  0  0  0  0
  2  1  1  0  0  0  0
  3  4  1  0  0  0  0
  3  2  2  0  0  0  0
  4  5  2  0  0  0  0
  5  8  1  0  0  0  0
  5  6  1  0  0  0  0
  6  7  2  0  0  0  0
  8  9  1  0  0  0  0
  9 10  1  0  0  0  0
 11  8  2  0  0  0  0
 12  4  1  0  0  0  0
 12 11  1  0  0  0  0
 13  2  1  0  0  0  0
M  END
>  <CHROM.1>
-103.34001464,-28.11884628,-9.33990798,4.19722816,-7.30223280,-0.32038847
-0.18181523,-1.79319129

>  <Name>
lig.pdb

>  <RI>
3.47783e+07

>  <Rbt.Current_Directory>
/home/itssahil/PROJECTS/Mol_Feturizer/New_Systems/rnas/2miy

>  <Rbt.Executable>
rbdock ($Id: //depot/dev/client3/rdock/2013.1/src/exe/rbdock.cxx#4 $)

>  <Rbt.Library>
libRbt.so (2013.1, Build901 2013/11/27)

>  <Rbt.Parameter_File>
/export/apps/rDock/src/rDock_2013.1_src/data/scripts/dock_solv.prm

>  <Rbt.Receptor>
prm/pocket_docking_8.prm

>  <SCORE>
-24.004

>  <SCORE.INTER>
-26.4886

>  <SCORE.INTER.CONST>
1

>  <SCORE.INTER.POLAR>
-4.0608

>  <SCORE.INTER.ROT>
2

>  <SCORE.INTER.SOLV>
17.1069

>  <SCORE.INTER.VDW>
-14.7587

>  <SCORE.INTER.norm>
-2.03759

>  <SCORE.INTRA>
2.30057

>  <SCORE.INTRA.DIHEDRAL>
1.45842

>  <SCORE.INTRA.DIHEDRAL.0>
1.76676

>  <SCORE.INTRA.POLAR>
0.472211

>  <SCORE.INTRA.POLAR.0>
-0.472211

>  <SCORE.INTRA.REPUL>
0

>  <SCORE.INTRA.REPUL.0>
0

>  <SCORE.INTRA.SOLV>
-0.559359

>  <SCORE.INTRA.SOLV.lig_0>
-22.5855

>  <SCORE.INTRA.VDW>
0.245524

>  <SCORE.INTRA.VDW.0>
-0.733656

>  <SCORE.INTRA.norm>
0.176967

>  <SCORE.RESTR>
0.184101

>  <SCORE.RESTR.CAVITY>
0.184101

>  <SCORE.RESTR.norm>
0.0141616

>  <SCORE.SYSTEM>
0

>  <SCORE.SYSTEM.CONST>
0

>  <SCORE.SYSTEM.DIHEDRAL>
0

>  <SCORE.SYSTEM.SOLV>
0

>  <SCORE.SYSTEM.norm>
0

>  <SCORE.heavy>
13

>  <SCORE.norm>
-1.84646

>  <RMSD>
4.741

$$$$
lig.pdb
 OpenBabel11021811453D
libRbt.so/2013.1/901 2013/11/27
 13 14  0  0  0  0  0  0  0  0999 V2000
   -7.3095    4.4231   -7.9645 N   0  0  0  0  0  0  0  0  0  0  0  0
   -7.0915    4.8839   -6.6970 C   0  0  0  0  0  0  0  0  0  0  0  0
   -8.0718    4.8861   -5.8117 N   0  0  0  0  0  0  0  0  0  0  0  0
   -9.3280    4.4379   -6.1158 C   0  0  0  0  0  0  0  0  0  0  0  0
   -9.6108    3.9548   -7.4165 C   0  0  0  0  0  0  0  0  0  0  0  0
   -8.5452    3.9552   -8.3663 C   0  0  0  0  0  0  0  0  0  0  0  0
   -8.7216    3.5544   -9.5035 O   0  0  0  0  0  0  0  0  0  0  0  0
  -11.0263    3.5672   -7.4188 C   0  0  0  0  0  0  0  0  0  0  0  0
  -11.8260    3.0117   -8.5676 C   0  0  0  0  0  0  0  0  0  0  0  0
  -12.6691    4.0709   -9.1377 N   0  0  0  0  0  0  0  0  0  0  0  0
  -11.4792    3.8118   -6.1830 C   0  0  0  0  0  0  0  0  0  0  0  0
  -10.4819    4.3345   -5.4035 N   0  0  0  0  0  0  0  0  0  0  0  0
   -5.8494    5.3459   -6.3453 N   0  0  0  0  0  0  0  0  0  0  0  0
  1  6  1  0  0  0  0
  2  1  1  0  0  0  0
  3  4  1  0  0  0  0
  3  2  2  0  0  0  0
  4  5  2  0  0  0  0
  5  8  1  0  0  0  0
  5  6  1  0  0  0  0
  6  7  2  0  0  0  0
  8  9  1  0  0  0  0
  9 10  1  0  0  0  0
 11  8  2  0  0  0  0
 12  4  1  0  0  0  0
 12 11  1  0  0  0  0
 13  2  1  0  0  0  0
M  END
>  <CHROM.1>
-102.32176112,150.97217946,-9.36790140,4.18960904,-7.34078368,-0.32283359
-0.18028632,-1.78554877

>  <Name>
lig.pdb

>  <RI>
2.95488e+07

>  <Rbt.Current_Directory>
/home/itssahil/PROJECTS/Mol_Feturizer/New_Systems/rnas/2miy

>  <Rbt.Executable>
rbdock ($Id: //depot/dev/client3/rdock/2013.1/src/exe/rbdock.cxx#4 $)

>  <Rbt.Library>
libRbt.so (2013.1, Build901 2013/11/27)

>  <Rbt.Parameter_File>
/export/apps/rDock/src/rDock_2013.1_src/data/scripts/dock_solv.prm

>  <Rbt.Receptor>
prm/blind_docking_20.prm

>  <SCORE>
-23.8506

>  <SCORE.INTER>
-26.4596

>  <SCORE.INTER.CONST>
1

>  <SCORE.INTER.POLAR>
-4.03872

>  <SCORE.INTER.ROT>
2

>  <SCORE.INTER.SOLV>
17.1235

>  <SCORE.INTER.VDW>
-14.8185

>  <SCORE.INTER.norm>
-2.03535

>  <SCORE.INTRA>
2.30557

>  <SCORE.INTRA.DIHEDRAL>
1.47325

>  <SCORE.INTRA.DIHEDRAL.0>
1.76676

>  <SCORE.INTRA.POLAR>
0.472211

>  <SCORE.INTRA.POLAR.0>
-0.472211

>  <SCORE.INTRA.REPUL>
0

>  <SCORE.INTRA.REPUL.0>
0

>  <SCORE.INTRA.SOLV>
-0.554506

>  <SCORE.INTRA.SOLV.lig_0>
-22.5855

>  <SCORE.INTRA.VDW>
0.240677

>  <SCORE.INTRA.VDW.0>
-0.733656

>  <SCORE.INTRA.norm>
0.177351

>  <SCORE.RESTR>
0.303373

>  <SCORE.RESTR.CAVITY>
0.303373

>  <SCORE.RESTR.norm>
0.0233364

>  <SCORE.SYSTEM>
0

>  <SCORE.SYSTEM.CONST>
0

>  <SCORE.SYSTEM.DIHEDRAL>
0

>  <SCORE.SYSTEM.SOLV>
0

>  <SCORE.SYSTEM.norm>
0

>  <SCORE.heavy>
13

>  <SCORE.norm>
-1.83466

>  <RMSD>
4.742

$$$$
lig.pdb
 OpenBabel11021811453D
libRbt.so/2013.1/901 2013/11/27
 13 14  0  0  0  0  0  0  0  0999 V2000
   -7.3098    4.3678   -8.0310 N   0  0  0  0  0  0  0  0  0  0  0  0
   -7.0762    4.8210   -6.7636 C   0  0  0  0  0  0  0  0  0  0  0  0
   -8.0501    4.8345   -5.8713 N   0  0  0  0  0  0  0  0  0  0  0  0
   -9.3148    4.4057   -6.1680 C   0  0  0  0  0  0  0  0  0  0  0  0
   -9.6138    3.9313   -7.4683 C   0  0  0  0  0  0  0  0  0  0  0  0
   -8.5550    3.9194   -8.4257 C   0  0  0  0  0  0  0  0  0  0  0  0
   -8.7453    3.5252   -9.5629 O   0  0  0  0  0  0  0  0  0  0  0  0
  -11.0349    3.5644   -7.4619 C   0  0  0  0  0  0  0  0  0  0  0  0
  -11.8506    3.0247   -8.6069 C   0  0  0  0  0  0  0  0  0  0  0  0
  -12.6790    4.0990   -9.1701 N   0  0  0  0  0  0  0  0  0  0  0  0
  -11.4754    3.8113   -6.2221 C   0  0  0  0  0  0  0  0  0  0  0  0
  -10.4651    4.3167   -5.4480 N   0  0  0  0  0  0  0  0  0  0  0  0
   -5.8250    5.2635   -6.4192 N   0  0  0  0  0  0  0  0  0  0  0  0
  1  6  1  0  0  0  0
  2  1  1  0  0  0  0
  3  4  1  0  0  0  0
  3  2  2  0  0  0  0
  4  5  2  0  0  0  0
  5  8  1  0  0  0  0
  5  6  1  0  0  0  0
  6  7  2  0  0  0  0
  8  9  1  0  0  0  0
  9 10  1  0  0  0  0
 11  8  2  0  0  0  0
 12  4  1  0  0  0  0
 12 11  1  0  0  0  0
 13  2  1  0  0  0  0
M  END
>  <CHROM.1>
-102.14767590,149.53258792,-9.36670063,4.16236373,-7.39379508,-0.31293896
-0.16751474,-1.78011748

>  <Name>
lig.pdb

>  <RI>
1.51961e+07

>  <Rbt.Current_Directory>
/home/itssahil/PROJECTS/Mol_Feturizer/New_Systems/rnas/2miy

>  <Rbt.Executable>
rbdock ($Id: //depot/dev/client3/rdock/2013.1/src/exe/rbdock.cxx#4 $)

>  <Rbt.Library>
libRbt.so (2013.1, Build901 2013/11/27)

>  <Rbt.Parameter_File>
/export/apps/rDock/src/rDock_2013.1_src/data/scripts/dock_solv.prm

>  <Rbt.Receptor>
prm/pocket_docking_3.prm

>  <SCORE>
-24.0316

>  <SCORE.INTER>
-26.4844

>  <SCORE.INTER.CONST>
1

>  <SCORE.INTER.POLAR>
-3.99232

>  <SCORE.INTER.ROT>
2

>  <SCORE.INTER.SOLV>
17.1891

>  <SCORE.INTER.VDW>
-15.0116

>  <SCORE.INTER.norm>
-2.03726

>  <SCORE.INTRA>
2.29815

>  <SCORE.INTRA.DIHEDRAL>
1.46536

>  <SCORE.INTRA.DIHEDRAL.0>
1.76676

>  <SCORE.INTRA.POLAR>
0.472211

>  <SCORE.INTRA.POLAR.0>
-0.472211

>  <SCORE.INTRA.REPUL>
0

>  <SCORE.INTRA.REPUL.0>
0

>  <SCORE.INTRA.SOLV>
-0.553772

>  <SCORE.INTRA.SOLV.lig_0>
-22.5855

>  <SCORE.INTRA.VDW>
0.236845

>  <SCORE.INTRA.VDW.0>
-0.733656

>  <SCORE.INTRA.norm>
0.176781

>  <SCORE.RESTR>
0.154683

>  <SCORE.RESTR.CAVITY>
0.154683

>  <SCORE.RESTR.norm>
0.0118987

>  <SCORE.SYSTEM>
0

>  <SCORE.SYSTEM.CONST>
0

>  <SCORE.SYSTEM.DIHEDRAL>
0

>  <SCORE.SYSTEM.SOLV>
0

>  <SCORE.SYSTEM.norm>
0

>  <SCORE.heavy>
13

>  <SCORE.norm>
-1.84858

>  <RMSD>
4.743

$$$$
lig.pdb
 OpenBabel11021811453D
libRbt.so/2013.1/901 2013/11/27
 13 14  0  0  0  0  0  0  0  0999 V2000
   -7.3102    4.3839   -8.0099 N   0  0  0  0  0  0  0  0  0  0  0  0
   -7.0819    4.8398   -6.7424 C   0  0  0  0  0  0  0  0  0  0  0  0
   -8.0590    4.8530   -5.8536 N   0  0  0  0  0  0  0  0  0  0  0  0
   -9.3219    4.4213   -6.1541 C   0  0  0  0  0  0  0  0  0  0  0  0
   -9.6154    3.9441   -7.4546 C   0  0  0  0  0  0  0  0  0  0  0  0
   -8.5532    3.9325   -8.4081 C   0  0  0  0  0  0  0  0  0  0  0  0
   -8.7386    3.5359   -9.5454 O   0  0  0  0  0  0  0  0  0  0  0  0
  -11.0357    3.5746   -7.4526 C   0  0  0  0  0  0  0  0  0  0  0  0
  -11.8464    3.0313   -8.5995 C   0  0  0  0  0  0  0  0  0  0  0  0
  -12.6758    4.1028   -9.1667 N   0  0  0  0  0  0  0  0  0  0  0  0
  -11.4812    3.8228   -6.2148 C   0  0  0  0  0  0  0  0  0  0  0  0
  -10.4746    4.3315   -5.4380 N   0  0  0  0  0  0  0  0  0  0  0  0
   -5.8328    5.2853   -6.3943 N   0  0  0  0  0  0  0  0  0  0  0  0
  1  6  1  0  0  0  0
  2  1  1  0  0  0  0
  3  4  1  0  0  0  0
  3  2  2  0  0  0  0
  4  5  2  0  0  0  0
  5  8  1  0  0  0  0
  5  6  1  0  0  0  0
  6  7  2  0  0  0  0
  8  9  1  0  0  0  0
  9 10  1  0  0  0  0
 11  8  2  0  0  0  0
 12  4  1  0  0  0  0
 12 11  1  0  0  0  0
 13  2  1  0  0  0  0
M  END
>  <CHROM.1>
-102.20416228,150.11867662,-9.36903223,4.17574222,-7.37950634,-0.31679442
-0.16858706,-1.78262621

>  <Name>
lig.pdb

>  <RI>
2.68696e+07

>  <Rbt.Current_Directory>
/home/itssahil/PROJECTS/Mol_Feturizer/New_Systems/rnas/2miy

>  <Rbt.Executable>
rbdock ($Id: //depot/dev/client3/rdock/2013.1/src/exe/rbdock.cxx#4 $)

>  <Rbt.Library>
libRbt.so (2013.1, Build901 2013/11/27)

>  <Rbt.Parameter_File>
/export/apps/rDock/src/rDock_2013.1_src/data/scripts/dock_solv.prm

>  <Rbt.Receptor>
prm/pocket_docking_4.prm

>  <SCORE>
-24.0692

>  <SCORE.INTER>
-26.5314

>  <SCORE.INTER.CONST>
1

>  <SCORE.INTER.POLAR>
-3.9819

>  <SCORE.INTER.ROT>
2

>  <SCORE.INTER.SOLV>
17.1648

>  <SCORE.INTER.VDW>
-15.0695

>  <SCORE.INTER.norm>
-2.04087

>  <SCORE.INTRA>
2.30084

>  <SCORE.INTRA.DIHEDRAL>
1.46794

>  <SCORE.INTRA.DIHEDRAL.0>
1.76676

>  <SCORE.INTRA.POLAR>
0.472211

>  <SCORE.INTRA.POLAR.0>
-0.472211

>  <SCORE.INTRA.REPUL>
0

>  <SCORE.INTRA.REPUL.0>
0

>  <SCORE.INTRA.SOLV>
-0.553995

>  <SCORE.INTRA.SOLV.lig_0>
-22.5855

>  <SCORE.INTRA.VDW>
0.23835

>  <SCORE.INTRA.VDW.0>
-0.733656

>  <SCORE.INTRA.norm>
0.176988

>  <SCORE.RESTR>
0.161353

>  <SCORE.RESTR.CAVITY>
0.161353

>  <SCORE.RESTR.norm>
0.0124117

>  <SCORE.SYSTEM>
0

>  <SCORE.SYSTEM.CONST>
0

>  <SCORE.SYSTEM.DIHEDRAL>
0

>  <SCORE.SYSTEM.SOLV>
0

>  <SCORE.SYSTEM.norm>
0

>  <SCORE.heavy>
13

>  <SCORE.norm>
-1.85148

>  <RMSD>
4.743

$$$$
lig.pdb
 OpenBabel11021811453D
libRbt.so/2013.1/901 2013/11/27
 13 14  0  0  0  0  0  0  0  0999 V2000
   -7.3047    4.3722   -8.0296 N   0  0  0  0  0  0  0  0  0  0  0  0
   -7.0746    4.8302   -6.7632 C   0  0  0  0  0  0  0  0  0  0  0  0
   -8.0516    4.8489   -5.8743 N   0  0  0  0  0  0  0  0  0  0  0  0
   -9.3161    4.4211   -6.1737 C   0  0  0  0  0  0  0  0  0  0  0  0
   -9.6114    3.9420   -7.4731 C   0  0  0  0  0  0  0  0  0  0  0  0
   -8.5493    3.9244   -8.4267 C   0  0  0  0  0  0  0  0  0  0  0  0
   -8.7363    3.5259   -9.5630 O   0  0  0  0  0  0  0  0  0  0  0  0
  -11.0331    3.5776   -7.4702 C   0  0  0  0  0  0  0  0  0  0  0  0
  -11.8458    3.0346   -8.6158 C   0  0  0  0  0  0  0  0  0  0  0  0
  -12.6786    4.1055   -9.1791 N   0  0  0  0  0  0  0  0  0  0  0  0
  -11.4775    3.8303   -6.2329 C   0  0  0  0  0  0  0  0  0  0  0  0
  -10.4690    4.3370   -5.4573 N   0  0  0  0  0  0  0  0  0  0  0  0
   -5.8239    5.2719   -6.4162 N   0  0  0  0  0  0  0  0  0  0  0  0
  1  6  1  0  0  0  0
  2  1  1  0  0  0  0
  3  4  1  0  0  0  0
  3  2  2  0  0  0  0
  4  5  2  0  0  0  0
  5  8  1  0  0  0  0
  5  6  1  0  0  0  0
  6  7  2  0  0  0  0
  8  9  1  0  0  0  0
  9 10  1  0  0  0  0
 11  8  2  0  0  0  0
 12  4  1  0  0  0  0
 12 11  1  0  0  0  0
 13  2  1  0  0  0  0
M  END
>  <CHROM.1>
-102.61452764,148.09675806,-9.36487288,4.17266977,-7.39799308,-0.31517499
-0.16497227,-1.78521351

>  <Name>
lig.pdb

>  <RI>
2.68696e+07

>  <Rbt.Current_Directory>
/home/itssahil/PROJECTS/Mol_Feturizer/New_Systems/rnas/2miy

>  <Rbt.Executable>
rbdock ($Id: //depot/dev/client3/rdock/2013.1/src/exe/rbdock.cxx#4 $)

>  <Rbt.Library>
libRbt.so (2013.1, Build901 2013/11/27)

>  <Rbt.Parameter_File>
/export/apps/rDock/src/rDock_2013.1_src/data/scripts/dock_solv.prm

>  <Rbt.Receptor>
prm/pocket_docking_4.prm

>  <SCORE>
-24.0518

>  <SCORE.INTER>
-26.5217

>  <SCORE.INTER.CONST>
1

>  <SCORE.INTER.POLAR>
-4.00855

>  <SCORE.INTER.ROT>
2

>  <SCORE.INTER.SOLV>
17.2141

>  <SCORE.INTER.VDW>
-14.9907

>  <SCORE.INTER.norm>
-2.04013

>  <SCORE.INTRA>
2.30618

>  <SCORE.INTRA.DIHEDRAL>
1.48655

>  <SCORE.INTRA.DIHEDRAL.0>
1.76676

>  <SCORE.INTRA.POLAR>
0.472211

>  <SCORE.INTRA.POLAR.0>
-0.472211

>  <SCORE.INTRA.REPUL>
0

>  <SCORE.INTRA.REPUL.0>
0

>  <SCORE.INTRA.SOLV>
-0.556259

>  <SCORE.INTRA.SOLV.lig_0>
-22.5855

>  <SCORE.INTRA.VDW>
0.235522

>  <SCORE.INTRA.VDW.0>
-0.733656

>  <SCORE.INTRA.norm>
0.177399

>  <SCORE.RESTR>
0.163701

>  <SCORE.RESTR.CAVITY>
0.163701

>  <SCORE.RESTR.norm>
0.0125924

>  <SCORE.SYSTEM>
0

>  <SCORE.SYSTEM.CONST>
0

>  <SCORE.SYSTEM.DIHEDRAL>
0

>  <SCORE.SYSTEM.SOLV>
0

>  <SCORE.SYSTEM.norm>
0

>  <SCORE.heavy>
13

>  <SCORE.norm>
-1.85014

>  <RMSD>
4.743

$$$$
lig.pdb
 OpenBabel11021811453D
libRbt.so/2013.1/901 2013/11/27
 13 14  0  0  0  0  0  0  0  0999 V2000
   -7.3180    4.3741   -8.0306 N   0  0  0  0  0  0  0  0  0  0  0  0
   -7.0869    4.8295   -6.7634 C   0  0  0  0  0  0  0  0  0  0  0  0
   -8.0627    4.8449   -5.8733 N   0  0  0  0  0  0  0  0  0  0  0  0
   -9.3270    4.4161   -6.1719 C   0  0  0  0  0  0  0  0  0  0  0  0
   -9.6234    3.9396   -7.4720 C   0  0  0  0  0  0  0  0  0  0  0  0
   -8.5625    3.9256   -8.4271 C   0  0  0  0  0  0  0  0  0  0  0  0
   -8.7505    3.5294   -9.5640 O   0  0  0  0  0  0  0  0  0  0  0  0
  -11.0446    3.5733   -7.4680 C   0  0  0  0  0  0  0  0  0  0  0  0
  -11.8581    3.0319   -8.6138 C   0  0  0  0  0  0  0  0  0  0  0  0
  -12.6807    4.1069   -9.1842 N   0  0  0  0  0  0  0  0  0  0  0  0
  -11.4877    3.8226   -6.2296 C   0  0  0  0  0  0  0  0  0  0  0  0
  -10.4788    4.3289   -5.4542 N   0  0  0  0  0  0  0  0  0  0  0  0
   -5.8362    5.2721   -6.4171 N   0  0  0  0  0  0  0  0  0  0  0  0
  1  6  1  0  0  0  0
  2  1  1  0  0  0  0
  3  4  1  0  0  0  0
  3  2  2  0  0  0  0
  4  5  2  0  0  0  0
  5  8  1  0  0  0  0
  5  6  1  0  0  0  0
  6  7  2  0  0  0  0
  8  9  1  0  0  0  0
  9 10  1  0  0  0  0
 11  8  2  0  0  0  0
 12  4  1  0  0  0  0
 12 11  1  0  0  0  0
 13  2  1  0  0  0  0
M  END
>  <CHROM.1>
-101.91845491,150.49685801,-9.37590526,4.17080120,-7.39769321,-0.31539890
-0.16671708,-1.78194657

>  <Name>
lig.pdb

>  <RI>
2.60406e+07

>  <Rbt.Current_Directory>
/home/itssahil/PROJECTS/Mol_Feturizer/New_Systems/rnas/2miy

>  <Rbt.Executable>
rbdock ($Id: //depot/dev/client3/rdock/2013.1/src/exe/rbdock.cxx#4 $)

>  <Rbt.Library>
libRbt.so (2013.1, Build901 2013/11/27)

>  <Rbt.Parameter_File>
/export/apps/rDock/src/rDock_2013.1_src/data/scripts/dock_solv.prm

>  <Rbt.Receptor>
prm/pocket_docking_7.prm

>  <SCORE>
-23.4066

>  <SCORE.INTER>
-26.4083

>  <SCORE.INTER.CONST>
1

>  <SCORE.INTER.POLAR>
-3.94852

>  <SCORE.INTER.ROT>
2

>  <SCORE.INTER.SOLV>
17.189

>  <SCORE.INTER.VDW>
-15.1068

>  <SCORE.INTER.norm>
-2.03141

>  <SCORE.INTRA>
2.29471

>  <SCORE.INTRA.DIHEDRAL>
1.45472

>  <SCORE.INTRA.DIHEDRAL.0>
1.76676

>  <SCORE.INTRA.POLAR>
0.472211

>  <SCORE.INTRA.POLAR.0>
-0.472211

>  <SCORE.INTRA.REPUL>
0

>  <SCORE.INTRA.REPUL.0>
0

>  <SCORE.INTRA.SOLV>
-0.552459

>  <SCORE.INTRA.SOLV.lig_0>
-22.5855

>  <SCORE.INTRA.VDW>
0.238059

>  <SCORE.INTRA.VDW.0>
-0.733656

>  <SCORE.INTRA.norm>
0.176516

>  <SCORE.RESTR>
0.706946

>  <SCORE.RESTR.CAVITY>
0.706946

>  <SCORE.RESTR.norm>
0.0543805

>  <SCORE.SYSTEM>
0

>  <SCORE.SYSTEM.CONST>
0

>  <SCORE.SYSTEM.DIHEDRAL>
0

>  <SCORE.SYSTEM.SOLV>
0

>  <SCORE.SYSTEM.norm>
0

>  <SCORE.heavy>
13

>  <SCORE.norm>
-1.80051

>  <RMSD>
4.743

$$$$
lig.pdb
 OpenBabel11021811453D
libRbt.so/2013.1/901 2013/11/27
 13 14  0  0  0  0  0  0  0  0999 V2000
   -7.3078    4.3664   -8.0318 N   0  0  0  0  0  0  0  0  0  0  0  0
   -7.0753    4.8209   -6.7646 C   0  0  0  0  0  0  0  0  0  0  0  0
   -8.0508    4.8383   -5.8741 N   0  0  0  0  0  0  0  0  0  0  0  0
   -9.3161    4.4123   -6.1725 C   0  0  0  0  0  0  0  0  0  0  0  0
   -9.6140    3.9368   -7.4726 C   0  0  0  0  0  0  0  0  0  0  0  0
   -8.5535    3.9207   -8.4280 C   0  0  0  0  0  0  0  0  0  0  0  0
   -8.7427    3.5253   -9.5650 O   0  0  0  0  0  0  0  0  0  0  0  0
  -11.0360    3.5737   -7.4683 C   0  0  0  0  0  0  0  0  0  0  0  0
  -11.8511    3.0344   -8.6139 C   0  0  0  0  0  0  0  0  0  0  0  0
  -12.6797    4.1087   -9.1767 N   0  0  0  0  0  0  0  0  0  0  0  0
  -11.4782    3.8236   -6.2297 C   0  0  0  0  0  0  0  0  0  0  0  0
  -10.4679    4.3275   -5.4544 N   0  0  0  0  0  0  0  0  0  0  0  0
   -5.8236    5.2607   -6.4185 N   0  0  0  0  0  0  0  0  0  0  0  0
  1  6  1  0  0  0  0
  2  1  1  0  0  0  0
  3  4  1  0  0  0  0
  3  2  2  0  0  0  0
  4  5  2  0  0  0  0
  5  8  1  0  0  0  0
  5  6  1  0  0  0  0
  6  7  2  0  0  0  0
  8  9  1  0  0  0  0
  9 10  1  0  0  0  0
 11  8  2  0  0  0  0
 12  4  1  0  0  0  0
 12 11  1  0  0  0  0
 13  2  1  0  0  0  0
M  END
>  <CHROM.1>
-102.37827689,150.24932893,-9.36676414,4.16722193,-7.39766344,-0.31383164
-0.16450873,-1.78213269

>  <Name>
lig.pdb

>  <RI>
2.60406e+07

>  <Rbt.Current_Directory>
/home/itssahil/PROJECTS/Mol_Feturizer/New_Systems/rnas/2miy

>  <Rbt.Executable>
rbdock ($Id: //depot/dev/client3/rdock/2013.1/src/exe/rbdock.cxx#4 $)

>  <Rbt.Library>
libRbt.so (2013.1, Build901 2013/11/27)

>  <Rbt.Parameter_File>
/export/apps/rDock/src/rDock_2013.1_src/data/scripts/dock_solv.prm

>  <Rbt.Receptor>
prm/pocket_docking_7.prm

>  <SCORE>
-23.503

>  <SCORE.INTER>
-26.5218

>  <SCORE.INTER.CONST>
1

>  <SCORE.INTER.POLAR>
-3.95781

>  <SCORE.INTER.ROT>
2

>  <SCORE.INTER.SOLV>
17.1981

>  <SCORE.INTER.VDW>
-15.1545

>  <SCORE.INTER.norm>
-2.04014

>  <SCORE.INTRA>
2.30535

>  <SCORE.INTRA.DIHEDRAL>
1.47589

>  <SCORE.INTRA.DIHEDRAL.0>
1.76676

>  <SCORE.INTRA.POLAR>
0.472211

>  <SCORE.INTRA.POLAR.0>
-0.472211

>  <SCORE.INTRA.REPUL>
0

>  <SCORE.INTRA.REPUL.0>
0

>  <SCORE.INTRA.SOLV>
-0.554873

>  <SCORE.INTRA.SOLV.lig_0>
-22.5855

>  <SCORE.INTRA.VDW>
0.239322

>  <SCORE.INTRA.VDW.0>
-0.733656

>  <SCORE.INTRA.norm>
0.177335

>  <SCORE.RESTR>
0.713432

>  <SCORE.RESTR.CAVITY>
0.713432

>  <SCORE.RESTR.norm>
0.0548793

>  <SCORE.SYSTEM>
0

>  <SCORE.SYSTEM.CONST>
0

>  <SCORE.SYSTEM.DIHEDRAL>
0

>  <SCORE.SYSTEM.SOLV>
0

>  <SCORE.SYSTEM.norm>
0

>  <SCORE.heavy>
13

>  <SCORE.norm>
-1.80792

>  <RMSD>
4.743

$$$$
lig.pdb
 OpenBabel11021811453D
libRbt.so/2013.1/901 2013/11/27
 13 14  0  0  0  0  0  0  0  0999 V2000
   -7.3094    4.3760   -8.0140 N   0  0  0  0  0  0  0  0  0  0  0  0
   -7.0799    4.8315   -6.7466 C   0  0  0  0  0  0  0  0  0  0  0  0
   -8.0565    4.8454   -5.8572 N   0  0  0  0  0  0  0  0  0  0  0  0
   -9.3199    4.4147   -6.1570 C   0  0  0  0  0  0  0  0  0  0  0  0
   -9.6146    3.9379   -7.4574 C   0  0  0  0  0  0  0  0  0  0  0  0
   -8.5530    3.9257   -8.4115 C   0  0  0  0  0  0  0  0  0  0  0  0
   -8.7395    3.5294   -9.5487 O   0  0  0  0  0  0  0  0  0  0  0  0
  -11.0352    3.5696   -7.4545 C   0  0  0  0  0  0  0  0  0  0  0  0
  -11.8471    3.0271   -8.6010 C   0  0  0  0  0  0  0  0  0  0  0  0
  -12.6749    4.0997   -9.1684 N   0  0  0  0  0  0  0  0  0  0  0  0
  -11.4797    3.8180   -6.2164 C   0  0  0  0  0  0  0  0  0  0  0  0
  -10.4722    4.3257   -5.4401 N   0  0  0  0  0  0  0  0  0  0  0  0
   -5.8302    5.2759   -6.3992 N   0  0  0  0  0  0  0  0  0  0  0  0
  1  6  1  0  0  0  0
  2  1  1  0  0  0  0
  3  4  1  0  0  0  0
  3  2  2  0  0  0  0
  4  5  2  0  0  0  0
  5  8  1  0  0  0  0
  5  6  1  0  0  0  0
  6  7  2  0  0  0  0
  8  9  1  0  0  0  0
  9 10  1  0  0  0  0
 11  8  2  0  0  0  0
 12  4  1  0  0  0  0
 12 11  1  0  0  0  0
 13  2  1  0  0  0  0
M  END
>  <CHROM.1>
-102.14961814,149.79295481,-9.36790061,4.16940038,-7.38245803,-0.31608476
-0.16793291,-1.78226167

>  <Name>
lig.pdb

>  <RI>
2.60406e+07

>  <Rbt.Current_Directory>
/home/itssahil/PROJECTS/Mol_Feturizer/New_Systems/rnas/2miy

>  <Rbt.Executable>
rbdock ($Id: //depot/dev/client3/rdock/2013.1/src/exe/rbdock.cxx#4 $)

>  <Rbt.Library>
libRbt.so (2013.1, Build901 2013/11/27)

>  <Rbt.Parameter_File>
/export/apps/rDock/src/rDock_2013.1_src/data/scripts/dock_solv.prm

>  <Rbt.Receptor>
prm/pocket_docking_7.prm

>  <SCORE>
-23.5102

>  <SCORE.INTER>
-26.5298

>  <SCORE.INTER.CONST>
1

>  <SCORE.INTER.POLAR>
-3.98522

>  <SCORE.INTER.ROT>
2

>  <SCORE.INTER.SOLV>
17.1627

>  <SCORE.INTER.VDW>
-15.0567

>  <SCORE.INTER.norm>
-2.04076

>  <SCORE.INTRA>
2.29879

>  <SCORE.INTRA.DIHEDRAL>
1.46544

>  <SCORE.INTRA.DIHEDRAL.0>
1.76676

>  <SCORE.INTRA.POLAR>
0.472211

>  <SCORE.INTRA.POLAR.0>
-0.472211

>  <SCORE.INTRA.REPUL>
0

>  <SCORE.INTRA.REPUL.0>
0

>  <SCORE.INTRA.SOLV>
-0.55375

>  <SCORE.INTRA.SOLV.lig_0>
-22.5855

>  <SCORE.INTRA.VDW>
0.237423

>  <SCORE.INTRA.VDW.0>
-0.733656

>  <SCORE.INTRA.norm>
0.17683

>  <SCORE.RESTR>
0.720814

>  <SCORE.RESTR.CAVITY>
0.720814

>  <SCORE.RESTR.norm>
0.0554472

>  <SCORE.SYSTEM>
0

>  <SCORE.SYSTEM.CONST>
0

>  <SCORE.SYSTEM.DIHEDRAL>
0

>  <SCORE.SYSTEM.SOLV>
0

>  <SCORE.SYSTEM.norm>
0

>  <SCORE.heavy>
13

>  <SCORE.norm>
-1.80848

>  <RMSD>
4.743

$$$$
lig.pdb
 OpenBabel11021811453D
libRbt.so/2013.1/901 2013/11/27
 13 14  0  0  0  0  0  0  0  0999 V2000
   -7.3090    4.3781   -8.0117 N   0  0  0  0  0  0  0  0  0  0  0  0
   -7.0871    4.8384   -6.7447 C   0  0  0  0  0  0  0  0  0  0  0  0
   -8.0690    4.8559   -5.8612 N   0  0  0  0  0  0  0  0  0  0  0  0
   -9.3306    4.4243   -6.1669 C   0  0  0  0  0  0  0  0  0  0  0  0
   -9.6176    3.9426   -7.4672 C   0  0  0  0  0  0  0  0  0  0  0  0
   -8.5503    3.9265   -8.4150 C   0  0  0  0  0  0  0  0  0  0  0  0
   -8.7301    3.5259   -9.5517 O   0  0  0  0  0  0  0  0  0  0  0  0
  -11.0383    3.5745   -7.4715 C   0  0  0  0  0  0  0  0  0  0  0  0
  -11.8434    3.0278   -8.6207 C   0  0  0  0  0  0  0  0  0  0  0  0
  -12.6791    4.0947   -9.1873 N   0  0  0  0  0  0  0  0  0  0  0  0
  -11.4902    3.8278   -6.2370 C   0  0  0  0  0  0  0  0  0  0  0  0
  -10.4872    4.3383   -5.4567 N   0  0  0  0  0  0  0  0  0  0  0  0
   -5.8394    5.2839   -6.3915 N   0  0  0  0  0  0  0  0  0  0  0  0
  1  6  1  0  0  0  0
  2  1  1  0  0  0  0
  3  4  1  0  0  0  0
  3  2  2  0  0  0  0
  4  5  2  0  0  0  0
  5  8  1  0  0  0  0
  5  6  1  0  0  0  0
  6  7  2  0  0  0  0
  8  9  1  0  0  0  0
  9 10  1  0  0  0  0
 11  8  2  0  0  0  0
 12  4  1  0  0  0  0
 12 11  1  0  0  0  0
 13  2  1  0  0  0  0
M  END
>  <CHROM.1>
-102.79117229,152.19319099,-9.37242088,4.17396990,-7.39079989,-0.32099540
-0.16632791,-1.78795719

>  <Name>
lig.pdb

>  <RI>
1.82164e+07

>  <Rbt.Current_Directory>
/home/itssahil/PROJECTS/Mol_Feturizer/New_Systems/rnas/2miy

>  <Rbt.Executable>
rbdock ($Id: //depot/dev/client3/rdock/2013.1/src/exe/rbdock.cxx#4 $)

>  <Rbt.Library>
libRbt.so (2013.1, Build901 2013/11/27)

>  <Rbt.Parameter_File>
/export/apps/rDock/src/rDock_2013.1_src/data/scripts/dock_solv.prm

>  <Rbt.Receptor>
prm/blind_docking_80.prm

>  <SCORE>
-23.7206

>  <SCORE.INTER>
-26.6416

>  <SCORE.INTER.CONST>
1

>  <SCORE.INTER.POLAR>
-3.95217

>  <SCORE.INTER.ROT>
2

>  <SCORE.INTER.SOLV>
17.1776

>  <SCORE.INTER.VDW>
-15.2463

>  <SCORE.INTER.norm>
-2.04935

>  <SCORE.INTRA>
2.31956

>  <SCORE.INTRA.DIHEDRAL>
1.49428

>  <SCORE.INTRA.DIHEDRAL.0>
1.76676

>  <SCORE.INTRA.POLAR>
0.472211

>  <SCORE.INTRA.POLAR.0>
-0.472211

>  <SCORE.INTRA.REPUL>
0

>  <SCORE.INTRA.REPUL.0>
0

>  <SCORE.INTRA.SOLV>
-0.556596

>  <SCORE.INTRA.SOLV.lig_0>
-22.5855

>  <SCORE.INTRA.VDW>
0.245196

>  <SCORE.INTRA.VDW.0>
-0.733656

>  <SCORE.INTRA.norm>
0.178427

>  <SCORE.RESTR>
0.601396

>  <SCORE.RESTR.CAVITY>
0.601396

>  <SCORE.RESTR.norm>
0.0462612

>  <SCORE.SYSTEM>
0

>  <SCORE.SYSTEM.CONST>
0

>  <SCORE.SYSTEM.DIHEDRAL>
0

>  <SCORE.SYSTEM.SOLV>
0

>  <SCORE.SYSTEM.norm>
0

>  <SCORE.heavy>
13

>  <SCORE.norm>
-1.82466

>  <RMSD>
4.744

$$$$
lig.pdb
 OpenBabel11021811453D
libRbt.so/2013.1/901 2013/11/27
 13 14  0  0  0  0  0  0  0  0999 V2000
   -7.3042    4.3739   -8.0177 N   0  0  0  0  0  0  0  0  0  0  0  0
   -7.0793    4.8290   -6.7493 C   0  0  0  0  0  0  0  0  0  0  0  0
   -8.0597    4.8449   -5.8641 N   0  0  0  0  0  0  0  0  0  0  0  0
   -9.3227    4.4169   -6.1694 C   0  0  0  0  0  0  0  0  0  0  0  0
   -9.6127    3.9407   -7.4710 C   0  0  0  0  0  0  0  0  0  0  0  0
   -8.5470    3.9262   -8.4206 C   0  0  0  0  0  0  0  0  0  0  0  0
   -8.7294    3.5303   -9.5586 O   0  0  0  0  0  0  0  0  0  0  0  0
  -11.0341    3.5753   -7.4744 C   0  0  0  0  0  0  0  0  0  0  0  0
  -11.8421    3.0346   -8.6244 C   0  0  0  0  0  0  0  0  0  0  0  0
  -12.6783    4.1047   -9.1842 N   0  0  0  0  0  0  0  0  0  0  0  0
  -11.4834    3.8247   -6.2382 C   0  0  0  0  0  0  0  0  0  0  0  0
  -10.4782    4.3303   -5.4576 N   0  0  0  0  0  0  0  0  0  0  0  0
   -5.8302    5.2707   -6.3964 N   0  0  0  0  0  0  0  0  0  0  0  0
  1  6  1  0  0  0  0
  2  1  1  0  0  0  0
  3  4  1  0  0  0  0
  3  2  2  0  0  0  0
  4  5  2  0  0  0  0
  5  8  1  0  0  0  0
  5  6  1  0  0  0  0
  6  7  2  0  0  0  0
  8  9  1  0  0  0  0
  9 10  1  0  0  0  0
 11  8  2  0  0  0  0
 12  4  1  0  0  0  0
 12 11  1  0  0  0  0
 13  2  1  0  0  0  0
M  END
>  <CHROM.1>
-102.88018272,150.02731072,-9.36706762,4.17128556,-7.39402817,-0.31873013
-0.16478917,-1.78383589

>  <Name>
lig.pdb

>  <RI>
1.82164e+07

>  <Rbt.Current_Directory>
/home/itssahil/PROJECTS/Mol_Feturizer/New_Systems/rnas/2miy

>  <Rbt.Executable>
rbdock ($Id: //depot/dev/client3/rdock/2013.1/src/exe/rbdock.cxx#4 $)

>  <Rbt.Library>
libRbt.so (2013.1, Build901 2013/11/27)

>  <Rbt.Parameter_File>
/export/apps/rDock/src/rDock_2013.1_src/data/scripts/dock_solv.prm

>  <Rbt.Receptor>
prm/blind_docking_80.prm

>  <SCORE>
-23.714

>  <SCORE.INTER>
-26.6323

>  <SCORE.INTER.CONST>
1

>  <SCORE.INTER.POLAR>
-3.98016

>  <SCORE.INTER.ROT>
2

>  <SCORE.INTER.SOLV>
17.1854

>  <SCORE.INTER.VDW>
-15.1495

>  <SCORE.INTER.norm>
-2.04864

>  <SCORE.INTRA>
2.31699

>  <SCORE.INTRA.DIHEDRAL>
1.49855

>  <SCORE.INTRA.DIHEDRAL.0>
1.76676

>  <SCORE.INTRA.POLAR>
0.472211

>  <SCORE.INTRA.POLAR.0>
-0.472211

>  <SCORE.INTRA.REPUL>
0

>  <SCORE.INTRA.REPUL.0>
0

>  <SCORE.INTRA.SOLV>
-0.55726

>  <SCORE.INTRA.SOLV.lig_0>
-22.5855

>  <SCORE.INTRA.VDW>
0.240833

>  <SCORE.INTRA.VDW.0>
-0.733656

>  <SCORE.INTRA.norm>
0.17823

>  <SCORE.RESTR>
0.601308

>  <SCORE.RESTR.CAVITY>
0.601308

>  <SCORE.RESTR.norm>
0.0462545

>  <SCORE.SYSTEM>
0

>  <SCORE.SYSTEM.CONST>
0

>  <SCORE.SYSTEM.DIHEDRAL>
0

>  <SCORE.SYSTEM.SOLV>
0

>  <SCORE.SYSTEM.norm>
0

>  <SCORE.heavy>
13

>  <SCORE.norm>
-1.82416

>  <RMSD>
4.744

$$$$
lig.pdb
 OpenBabel11021811453D
libRbt.so/2013.1/901 2013/11/27
 13 14  0  0  0  0  0  0  0  0999 V2000
   -7.3078    4.3770   -8.0149 N   0  0  0  0  0  0  0  0  0  0  0  0
   -7.0840    4.8354   -6.7476 C   0  0  0  0  0  0  0  0  0  0  0  0
   -8.0647    4.8522   -5.8628 N   0  0  0  0  0  0  0  0  0  0  0  0
   -9.3270    4.4217   -6.1674 C   0  0  0  0  0  0  0  0  0  0  0  0
   -9.6160    3.9420   -7.4680 C   0  0  0  0  0  0  0  0  0  0  0  0
   -8.5499    3.9266   -8.4172 C   0  0  0  0  0  0  0  0  0  0  0  0
   -8.7314    3.5277   -9.5543 O   0  0  0  0  0  0  0  0  0  0  0  0
  -11.0369    3.5747   -7.4710 C   0  0  0  0  0  0  0  0  0  0  0  0
  -11.8438    3.0301   -8.6199 C   0  0  0  0  0  0  0  0  0  0  0  0
  -12.6781    4.0987   -9.1852 N   0  0  0  0  0  0  0  0  0  0  0  0
  -11.4870    3.8265   -6.2356 C   0  0  0  0  0  0  0  0  0  0  0  0
  -10.4827    4.3354   -5.4558 N   0  0  0  0  0  0  0  0  0  0  0  0
   -5.8356    5.2797   -6.3954 N   0  0  0  0  0  0  0  0  0  0  0  0
  1  6  1  0  0  0  0
  2  1  1  0  0  0  0
  3  4  1  0  0  0  0
  3  2  2  0  0  0  0
  4  5  2  0  0  0  0
  5  8  1  0  0  0  0
  5  6  1  0  0  0  0
  6  7  2  0  0  0  0
  8  9  1  0  0  0  0
  9 10  1  0  0  0  0
 11  8  2  0  0  0  0
 12  4  1  0  0  0  0
 12 11  1  0  0  0  0
 13  2  1  0  0  0  0
M  END
>  <CHROM.1>
-102.70717721,150.13521470,-9.37040794,4.17318035,-7.39175380,-0.31964267
-0.16606189,-1.78616105

>  <Name>
lig.pdb

>  <RI>
1.51961e+07

>  <Rbt.Current_Directory>
/home/itssahil/PROJECTS/Mol_Feturizer/New_Systems/rnas/2miy

>  <Rbt.Executable>
rbdock ($Id: //depot/dev/client3/rdock/2013.1/src/exe/rbdock.cxx#4 $)

>  <Rbt.Library>
libRbt.so (2013.1, Build901 2013/11/27)

>  <Rbt.Parameter_File>
/export/apps/rDock/src/rDock_2013.1_src/data/scripts/dock_solv.prm

>  <Rbt.Receptor>
prm/pocket_docking_3.prm

>  <SCORE>
-24.1405

>  <SCORE.INTER>
-26.6222

>  <SCORE.INTER.CONST>
1

>  <SCORE.INTER.POLAR>
-3.98397

>  <SCORE.INTER.ROT>
2

>  <SCORE.INTER.SOLV>
17.182

>  <SCORE.INTER.VDW>
-15.1289

>  <SCORE.INTER.norm>
-2.04786

>  <SCORE.INTRA>
2.31307

>  <SCORE.INTRA.DIHEDRAL>
1.49079

>  <SCORE.INTRA.DIHEDRAL.0>
1.76676

>  <SCORE.INTRA.POLAR>
0.472211

>  <SCORE.INTRA.POLAR.0>
-0.472211

>  <SCORE.INTRA.REPUL>
0

>  <SCORE.INTRA.REPUL.0>
0

>  <SCORE.INTRA.SOLV>
-0.556435

>  <SCORE.INTRA.SOLV.lig_0>
-22.5855

>  <SCORE.INTRA.VDW>
0.240377

>  <SCORE.INTRA.VDW.0>
-0.733656

>  <SCORE.INTRA.norm>
0.177929

>  <SCORE.RESTR>
0.16859

>  <SCORE.RESTR.CAVITY>
0.16859

>  <SCORE.RESTR.norm>
0.0129684

>  <SCORE.SYSTEM>
0

>  <SCORE.SYSTEM.CONST>
0

>  <SCORE.SYSTEM.DIHEDRAL>
0

>  <SCORE.SYSTEM.SOLV>
0

>  <SCORE.SYSTEM.norm>
0

>  <SCORE.heavy>
13

>  <SCORE.norm>
-1.85696

>  <RMSD>
4.744

$$$$
lig.pdb
 OpenBabel11021811453D
libRbt.so/2013.1/901 2013/11/27
 13 14  0  0  0  0  0  0  0  0999 V2000
   -7.3085    4.3757   -8.0187 N   0  0  0  0  0  0  0  0  0  0  0  0
   -7.0819    4.8311   -6.7507 C   0  0  0  0  0  0  0  0  0  0  0  0
   -8.0607    4.8460   -5.8639 N   0  0  0  0  0  0  0  0  0  0  0  0
   -9.3238    4.4166   -6.1669 C   0  0  0  0  0  0  0  0  0  0  0  0
   -9.6156    3.9400   -7.4680 C   0  0  0  0  0  0  0  0  0  0  0  0
   -8.5515    3.9267   -8.4194 C   0  0  0  0  0  0  0  0  0  0  0  0
   -8.7355    3.5306   -9.5571 O   0  0  0  0  0  0  0  0  0  0  0  0
  -11.0366    3.5731   -7.4689 C   0  0  0  0  0  0  0  0  0  0  0  0
  -11.8460    3.0315   -8.6174 C   0  0  0  0  0  0  0  0  0  0  0  0
  -12.6786    4.1025   -9.1807 N   0  0  0  0  0  0  0  0  0  0  0  0
  -11.4840    3.8221   -6.2319 C   0  0  0  0  0  0  0  0  0  0  0  0
  -10.4780    4.3288   -5.4530 N   0  0  0  0  0  0  0  0  0  0  0  0
   -5.8326    5.2742   -6.4001 N   0  0  0  0  0  0  0  0  0  0  0  0
  1  6  1  0  0  0  0
  2  1  1  0  0  0  0
  3  4  1  0  0  0  0
  3  2  2  0  0  0  0
  4  5  2  0  0  0  0
  5  8  1  0  0  0  0
  5  6  1  0  0  0  0
  6  7  2  0  0  0  0
  8  9  1  0  0  0  0
  9 10  1  0  0  0  0
 11  8  2  0  0  0  0
 12  4  1  0  0  0  0
 12 11  1  0  0  0  0
 13  2  1  0  0  0  0
M  END
>  <CHROM.1>
-102.55623171,150.42302051,-9.36953129,4.17105444,-7.39189406,-0.31778356
-0.16630213,-1.78322235

>  <Name>
lig.pdb

>  <RI>
9.06885e+06

>  <Rbt.Current_Directory>
/home/itssahil/PROJECTS/Mol_Feturizer/New_Systems/rnas/2miy

>  <Rbt.Executable>
rbdock ($Id: //depot/dev/client3/rdock/2013.1/src/exe/rbdock.cxx#4 $)

>  <Rbt.Library>
libRbt.so (2013.1, Build901 2013/11/27)

>  <Rbt.Parameter_File>
/export/apps/rDock/src/rDock_2013.1_src/data/scripts/dock_solv.prm

>  <Rbt.Receptor>
prm/pocket_docking_6.prm

>  <SCORE>
-24.1066

>  <SCORE.INTER>
-26.5812

>  <SCORE.INTER.CONST>
1

>  <SCORE.INTER.POLAR>
-3.97534

>  <SCORE.INTER.ROT>
2

>  <SCORE.INTER.SOLV>
17.1806

>  <SCORE.INTER.VDW>
-15.1299

>  <SCORE.INTER.norm>
-2.04471

>  <SCORE.INTRA>
2.31006

>  <SCORE.INTRA.DIHEDRAL>
1.48396

>  <SCORE.INTRA.DIHEDRAL.0>
1.76676

>  <SCORE.INTRA.POLAR>
0.472211

>  <SCORE.INTRA.POLAR.0>
-0.472211

>  <SCORE.INTRA.REPUL>
0

>  <SCORE.INTRA.REPUL.0>
0

>  <SCORE.INTRA.SOLV>
-0.55569

>  <SCORE.INTRA.SOLV.lig_0>
-22.5855

>  <SCORE.INTRA.VDW>
0.240407

>  <SCORE.INTRA.VDW.0>
-0.733656

>  <SCORE.INTRA.norm>
0.177697

>  <SCORE.RESTR>
0.164539

>  <SCORE.RESTR.CAVITY>
0.164539

>  <SCORE.RESTR.norm>
0.0126568

>  <SCORE.SYSTEM>
0

>  <SCORE.SYSTEM.CONST>
0

>  <SCORE.SYSTEM.DIHEDRAL>
0

>  <SCORE.SYSTEM.SOLV>
0

>  <SCORE.SYSTEM.norm>
0

>  <SCORE.heavy>
13

>  <SCORE.norm>
-1.85435

>  <RMSD>
4.744

$$$$
lig.pdb
 OpenBabel11021811453D
libRbt.so/2013.1/901 2013/11/27
 13 14  0  0  0  0  0  0  0  0999 V2000
   -7.3072    4.3790   -8.0132 N   0  0  0  0  0  0  0  0  0  0  0  0
   -7.0826    4.8403   -6.7471 C   0  0  0  0  0  0  0  0  0  0  0  0
   -8.0629    4.8599   -5.8619 N   0  0  0  0  0  0  0  0  0  0  0  0
   -9.3256    4.4296   -6.1650 C   0  0  0  0  0  0  0  0  0  0  0  0
   -9.6154    3.9470   -7.4644 C   0  0  0  0  0  0  0  0  0  0  0  0
   -8.5497    3.9286   -8.4139 C   0  0  0  0  0  0  0  0  0  0  0  0
   -8.7320    3.5271   -9.5500 O   0  0  0  0  0  0  0  0  0  0  0  0
  -11.0366    3.5806   -7.4659 C   0  0  0  0  0  0  0  0  0  0  0  0
  -11.8443    3.0338   -8.6132 C   0  0  0  0  0  0  0  0  0  0  0  0
  -12.6797    4.1012   -9.1794 N   0  0  0  0  0  0  0  0  0  0  0  0
  -11.4860    3.8357   -6.2309 C   0  0  0  0  0  0  0  0  0  0  0  0
  -10.4811    4.3457   -5.4527 N   0  0  0  0  0  0  0  0  0  0  0  0
   -5.8337    5.2846   -6.3964 N   0  0  0  0  0  0  0  0  0  0  0  0
  1  6  1  0  0  0  0
  2  1  1  0  0  0  0
  3  4  1  0  0  0  0
  3  2  2  0  0  0  0
  4  5  2  0  0  0  0
  5  8  1  0  0  0  0
  5  6  1  0  0  0  0
  6  7  2  0  0  0  0
  8  9  1  0  0  0  0
  9 10  1  0  0  0  0
 11  8  2  0  0  0  0
 12  4  1  0  0  0  0
 12 11  1  0  0  0  0
 13  2  1  0  0  0  0
M  END
>  <CHROM.1>
-102.79289088,150.62944541,-9.36980475,4.17809515,-7.38860424,-0.31898378
-0.16546272,-1.78857578

>  <Name>
lig.pdb

>  <RI>
2.60406e+07

>  <Rbt.Current_Directory>
/home/itssahil/PROJECTS/Mol_Feturizer/New_Systems/rnas/2miy

>  <Rbt.Executable>
rbdock ($Id: //depot/dev/client3/rdock/2013.1/src/exe/rbdock.cxx#4 $)

>  <Rbt.Library>
libRbt.so (2013.1, Build901 2013/11/27)

>  <Rbt.Parameter_File>
/export/apps/rDock/src/rDock_2013.1_src/data/scripts/dock_solv.prm

>  <Rbt.Receptor>
prm/pocket_docking_7.prm

>  <SCORE>
-23.5317

>  <SCORE.INTER>
-26.5791

>  <SCORE.INTER.CONST>
1

>  <SCORE.INTER.POLAR>
-3.9716

>  <SCORE.INTER.ROT>
2

>  <SCORE.INTER.SOLV>
17.1867

>  <SCORE.INTER.VDW>
-15.143

>  <SCORE.INTER.norm>
-2.04455

>  <SCORE.INTRA>
2.31623

>  <SCORE.INTRA.DIHEDRAL>
1.4946

>  <SCORE.INTRA.DIHEDRAL.0>
1.76676

>  <SCORE.INTRA.POLAR>
0.472211

>  <SCORE.INTRA.POLAR.0>
-0.472211

>  <SCORE.INTRA.REPUL>
0

>  <SCORE.INTRA.REPUL.0>
0

>  <SCORE.INTRA.SOLV>
-0.556778

>  <SCORE.INTRA.SOLV.lig_0>
-22.5855

>  <SCORE.INTRA.VDW>
0.241803

>  <SCORE.INTRA.VDW.0>
-0.733656

>  <SCORE.INTRA.norm>
0.178172

>  <SCORE.RESTR>
0.731221

>  <SCORE.RESTR.CAVITY>
0.731221

>  <SCORE.RESTR.norm>
0.0562478

>  <SCORE.SYSTEM>
0

>  <SCORE.SYSTEM.CONST>
0

>  <SCORE.SYSTEM.DIHEDRAL>
0

>  <SCORE.SYSTEM.SOLV>
0

>  <SCORE.SYSTEM.norm>
0

>  <SCORE.heavy>
13

>  <SCORE.norm>
-1.81013

>  <RMSD>
4.744

$$$$
lig.pdb
 OpenBabel11021811453D
libRbt.so/2013.1/901 2013/11/27
 13 14  0  0  0  0  0  0  0  0999 V2000
   -7.3099    4.3747   -8.0210 N   0  0  0  0  0  0  0  0  0  0  0  0
   -7.0835    4.8312   -6.7535 C   0  0  0  0  0  0  0  0  0  0  0  0
   -8.0622    4.8464   -5.8666 N   0  0  0  0  0  0  0  0  0  0  0  0
   -9.3251    4.4163   -6.1691 C   0  0  0  0  0  0  0  0  0  0  0  0
   -9.6168    3.9385   -7.4698 C   0  0  0  0  0  0  0  0  0  0  0  0
   -8.5528    3.9248   -8.4213 C   0  0  0  0  0  0  0  0  0  0  0  0
   -8.7367    3.5276   -9.5586 O   0  0  0  0  0  0  0  0  0  0  0  0
  -11.0377    3.5710   -7.4703 C   0  0  0  0  0  0  0  0  0  0  0  0
  -11.8469    3.0280   -8.6184 C   0  0  0  0  0  0  0  0  0  0  0  0
  -12.6785    4.0987   -9.1838 N   0  0  0  0  0  0  0  0  0  0  0  0
  -11.4851    3.8208   -6.2335 C   0  0  0  0  0  0  0  0  0  0  0  0
  -10.4793    4.3286   -5.4552 N   0  0  0  0  0  0  0  0  0  0  0  0
   -5.8344    5.2752   -6.4033 N   0  0  0  0  0  0  0  0  0  0  0  0
  1  6  1  0  0  0  0
  2  1  1  0  0  0  0
  3  4  1  0  0  0  0
  3  2  2  0  0  0  0
  4  5  2  0  0  0  0
  5  8  1  0  0  0  0
  5  6  1  0  0  0  0
  6  7  2  0  0  0  0
  8  9  1  0  0  0  0
  9 10  1  0  0  0  0
 11  8  2  0  0  0  0
 12  4  1  0  0  0  0
 12 11  1  0  0  0  0
 13  2  1  0  0  0  0
M  END
>  <CHROM.1>
-102.47194591,149.96748697,-9.37071946,4.16971647,-7.39406566,-0.31793557
-0.16675198,-1.78395107

>  <Name>
lig.pdb

>  <RI>
2.60406e+07

>  <Rbt.Current_Directory>
/home/itssahil/PROJECTS/Mol_Feturizer/New_Systems/rnas/2miy

>  <Rbt.Executable>
rbdock ($Id: //depot/dev/client3/rdock/2013.1/src/exe/rbdock.cxx#4 $)

>  <Rbt.Library>
libRbt.so (2013.1, Build901 2013/11/27)

>  <Rbt.Parameter_File>
/export/apps/rDock/src/rDock_2013.1_src/data/scripts/dock_solv.prm

>  <Rbt.Receptor>
prm/pocket_docking_7.prm

>  <SCORE>
-23.533

>  <SCORE.INTER>
-26.5619

>  <SCORE.INTER.CONST>
1

>  <SCORE.INTER.POLAR>
-3.98675

>  <SCORE.INTER.ROT>
2

>  <SCORE.INTER.SOLV>
17.1839

>  <SCORE.INTER.VDW>
-15.0801

>  <SCORE.INTER.norm>
-2.04323

>  <SCORE.INTRA>
2.307

>  <SCORE.INTRA.DIHEDRAL>
1.48017

>  <SCORE.INTRA.DIHEDRAL.0>
1.76676

>  <SCORE.INTRA.POLAR>
0.472211

>  <SCORE.INTRA.POLAR.0>
-0.472211

>  <SCORE.INTRA.REPUL>
0

>  <SCORE.INTRA.REPUL.0>
0

>  <SCORE.INTRA.SOLV>
-0.555348

>  <SCORE.INTRA.SOLV.lig_0>
-22.5855

>  <SCORE.INTRA.VDW>
0.239075

>  <SCORE.INTRA.VDW.0>
-0.733656

>  <SCORE.INTRA.norm>
0.177462

>  <SCORE.RESTR>
0.72195

>  <SCORE.RESTR.CAVITY>
0.72195

>  <SCORE.RESTR.norm>
0.0555346

>  <SCORE.SYSTEM>
0

>  <SCORE.SYSTEM.CONST>
0

>  <SCORE.SYSTEM.DIHEDRAL>
0

>  <SCORE.SYSTEM.SOLV>
0

>  <SCORE.SYSTEM.norm>
0

>  <SCORE.heavy>
13

>  <SCORE.norm>
-1.81023

>  <RMSD>
4.744

$$$$
lig.pdb
 OpenBabel11021811453D
libRbt.so/2013.1/901 2013/11/27
 13 14  0  0  0  0  0  0  0  0999 V2000
   -7.3000    4.3659   -8.0244 N   0  0  0  0  0  0  0  0  0  0  0  0
   -7.0735    4.8215   -6.7566 C   0  0  0  0  0  0  0  0  0  0  0  0
   -8.0528    4.8383   -5.8703 N   0  0  0  0  0  0  0  0  0  0  0  0
   -9.3163    4.4106   -6.1738 C   0  0  0  0  0  0  0  0  0  0  0  0
   -9.6081    3.9339   -7.4749 C   0  0  0  0  0  0  0  0  0  0  0  0
   -8.5435    3.9185   -8.4257 C   0  0  0  0  0  0  0  0  0  0  0  0
   -8.7274    3.5220   -9.5632 O   0  0  0  0  0  0  0  0  0  0  0  0
  -11.0296    3.5691   -7.4764 C   0  0  0  0  0  0  0  0  0  0  0  0
  -11.8392    3.0280   -8.6252 C   0  0  0  0  0  0  0  0  0  0  0  0
  -12.6819    4.0960   -9.1791 N   0  0  0  0  0  0  0  0  0  0  0  0
  -11.4774    3.8193   -6.2398 C   0  0  0  0  0  0  0  0  0  0  0  0
  -10.4711    4.3249   -5.4606 N   0  0  0  0  0  0  0  0  0  0  0  0
   -5.8238    5.2629   -6.4054 N   0  0  0  0  0  0  0  0  0  0  0  0
  1  6  1  0  0  0  0
  2  1  1  0  0  0  0
  3  4  1  0  0  0  0
  3  2  2  0  0  0  0
  4  5  2  0  0  0  0
  5  8  1  0  0  0  0
  5  6  1  0  0  0  0
  6  7  2  0  0  0  0
  8  9  1  0  0  0  0
  9 10  1  0  0  0  0
 11  8  2  0  0  0  0
 12  4  1  0  0  0  0
 12 11  1  0  0  0  0
 13  2  1  0  0  0  0
M  END
>  <CHROM.1>
-103.23607873,-29.17596694,-9.36299333,4.16408994,-7.39774079,-0.31689618
-0.16456651,-1.78473205

>  <Name>
lig.pdb

>  <RI>
2.60406e+07

>  <Rbt.Current_Directory>
/home/itssahil/PROJECTS/Mol_Feturizer/New_Systems/rnas/2miy

>  <Rbt.Executable>
rbdock ($Id: //depot/dev/client3/rdock/2013.1/src/exe/rbdock.cxx#4 $)

>  <Rbt.Library>
libRbt.so (2013.1, Build901 2013/11/27)

>  <Rbt.Parameter_File>
/export/apps/rDock/src/rDock_2013.1_src/data/scripts/dock_solv.prm

>  <Rbt.Receptor>
prm/pocket_docking_7.prm

>  <SCORE>
-23.2365

>  <SCORE.INTER>
-26.2612

>  <SCORE.INTER.CONST>
1

>  <SCORE.INTER.POLAR>
-3.93936

>  <SCORE.INTER.ROT>
2

>  <SCORE.INTER.SOLV>
17.1962

>  <SCORE.INTER.VDW>
-15.0416

>  <SCORE.INTER.norm>
-2.02009

>  <SCORE.INTRA>
2.29567

>  <SCORE.INTRA.DIHEDRAL>
1.4537

>  <SCORE.INTRA.DIHEDRAL.0>
1.76676

>  <SCORE.INTRA.POLAR>
0.472211

>  <SCORE.INTRA.POLAR.0>
-0.472211

>  <SCORE.INTRA.REPUL>
0

>  <SCORE.INTRA.REPUL.0>
0

>  <SCORE.INTRA.SOLV>
-0.559

>  <SCORE.INTRA.SOLV.lig_0>
-22.5855

>  <SCORE.INTRA.VDW>
0.2428

>  <SCORE.INTRA.VDW.0>
-0.733656

>  <SCORE.INTRA.norm>
0.17659

>  <SCORE.RESTR>
0.729053

>  <SCORE.RESTR.CAVITY>
0.729053

>  <SCORE.RESTR.norm>
0.056081

>  <SCORE.SYSTEM>
0

>  <SCORE.SYSTEM.CONST>
0

>  <SCORE.SYSTEM.DIHEDRAL>
0

>  <SCORE.SYSTEM.SOLV>
0

>  <SCORE.SYSTEM.norm>
0

>  <SCORE.heavy>
13

>  <SCORE.norm>
-1.78742

>  <RMSD>
4.744

$$$$
lig.pdb
 OpenBabel11021811453D
libRbt.so/2013.1/901 2013/11/27
 13 14  0  0  0  0  0  0  0  0999 V2000
   -7.3092    4.3731   -8.0227 N   0  0  0  0  0  0  0  0  0  0  0  0
   -7.0846    4.8311   -6.7554 C   0  0  0  0  0  0  0  0  0  0  0  0
   -8.0649    4.8481   -5.8701 N   0  0  0  0  0  0  0  0  0  0  0  0
   -9.3275    4.4185   -6.1742 C   0  0  0  0  0  0  0  0  0  0  0  0
   -9.6173    3.9392   -7.4748 C   0  0  0  0  0  0  0  0  0  0  0  0
   -8.5517    3.9235   -8.4245 C   0  0  0  0  0  0  0  0  0  0  0  0
   -8.7340    3.5250   -9.5616 O   0  0  0  0  0  0  0  0  0  0  0  0
  -11.0385    3.5727   -7.4772 C   0  0  0  0  0  0  0  0  0  0  0  0
  -11.8461    3.0288   -8.6259 C   0  0  0  0  0  0  0  0  0  0  0  0
  -12.6799    4.0981   -9.1908 N   0  0  0  0  0  0  0  0  0  0  0  0
  -11.4878    3.8244   -6.2415 C   0  0  0  0  0  0  0  0  0  0  0  0
  -10.4830    4.3325   -5.4621 N   0  0  0  0  0  0  0  0  0  0  0  0
   -5.8358    5.2747   -6.4036 N   0  0  0  0  0  0  0  0  0  0  0  0
  1  6  1  0  0  0  0
  2  1  1  0  0  0  0
  3  4  1  0  0  0  0
  3  2  2  0  0  0  0
  4  5  2  0  0  0  0
  5  8  1  0  0  0  0
  5  6  1  0  0  0  0
  6  7  2  0  0  0  0
  8  9  1  0  0  0  0
  9 10  1  0  0  0  0
 11  8  2  0  0  0  0
 12  4  1  0  0  0  0
 12 11  1  0  0  0  0
 13  2  1  0  0  0  0
M  END
>  <CHROM.1>
-102.68953220,150.96467421,-9.37158588,4.17024958,-7.39862488,-0.31913037
-0.16566598,-1.78581073

>  <Name>
lig.pdb

>  <RI>
2.60406e+07

>  <Rbt.Current_Directory>
/home/itssahil/PROJECTS/Mol_Feturizer/New_Systems/rnas/2miy

>  <Rbt.Executable>
rbdock ($Id: //depot/dev/client3/rdock/2013.1/src/exe/rbdock.cxx#4 $)

>  <Rbt.Library>
libRbt.so (2013.1, Build901 2013/11/27)

>  <Rbt.Parameter_File>
/export/apps/rDock/src/rDock_2013.1_src/data/scripts/dock_solv.prm

>  <Rbt.Receptor>
prm/pocket_docking_7.prm

>  <SCORE>
-23.5396

>  <SCORE.INTER>
-26.5779

>  <SCORE.INTER.CONST>
1

>  <SCORE.INTER.POLAR>
-3.96934

>  <SCORE.INTER.ROT>
2

>  <SCORE.INTER.SOLV>
17.1921

>  <SCORE.INTER.VDW>
-15.1515

>  <SCORE.INTER.norm>
-2.04446

>  <SCORE.INTRA>
2.31448

>  <SCORE.INTRA.DIHEDRAL>
1.48993

>  <SCORE.INTRA.DIHEDRAL.0>
1.76676

>  <SCORE.INTRA.POLAR>
0.472211

>  <SCORE.INTRA.POLAR.0>
-0.472211

>  <SCORE.INTRA.REPUL>
0

>  <SCORE.INTRA.REPUL.0>
0

>  <SCORE.INTRA.SOLV>
-0.556254

>  <SCORE.INTRA.SOLV.lig_0>
-22.5855

>  <SCORE.INTRA.VDW>
0.242122

>  <SCORE.INTRA.VDW.0>
-0.733656

>  <SCORE.INTRA.norm>
0.178037

>  <SCORE.RESTR>
0.723836

>  <SCORE.RESTR.CAVITY>
0.723836

>  <SCORE.RESTR.norm>
0.0556797

>  <SCORE.SYSTEM>
0

>  <SCORE.SYSTEM.CONST>
0

>  <SCORE.SYSTEM.DIHEDRAL>
0

>  <SCORE.SYSTEM.SOLV>
0

>  <SCORE.SYSTEM.norm>
0

>  <SCORE.heavy>
13

>  <SCORE.norm>
-1.81074

>  <RMSD>
4.744

$$$$
lig.pdb
 OpenBabel11021811453D
libRbt.so/2013.1/901 2013/11/27
 13 14  0  0  0  0  0  0  0  0999 V2000
   -7.3063    4.3637   -8.0344 N   0  0  0  0  0  0  0  0  0  0  0  0
   -7.0812    4.8239   -6.7680 C   0  0  0  0  0  0  0  0  0  0  0  0
   -8.0617    4.8445   -5.8831 N   0  0  0  0  0  0  0  0  0  0  0  0
   -9.3251    4.4164   -6.1867 C   0  0  0  0  0  0  0  0  0  0  0  0
   -9.6153    3.9350   -7.4864 C   0  0  0  0  0  0  0  0  0  0  0  0
   -8.5494    3.9155   -8.4357 C   0  0  0  0  0  0  0  0  0  0  0  0
   -8.7320    3.5150   -9.5721 O   0  0  0  0  0  0  0  0  0  0  0  0
  -11.0371    3.5710   -7.4885 C   0  0  0  0  0  0  0  0  0  0  0  0
  -11.8454    3.0261   -8.6363 C   0  0  0  0  0  0  0  0  0  0  0  0
  -12.6814    4.0943   -9.1999 N   0  0  0  0  0  0  0  0  0  0  0  0
  -11.4864    3.8260   -6.2535 C   0  0  0  0  0  0  0  0  0  0  0  0
  -10.4808    4.3339   -5.4748 N   0  0  0  0  0  0  0  0  0  0  0  0
   -5.8317    5.2660   -6.4168 N   0  0  0  0  0  0  0  0  0  0  0  0
  1  6  1  0  0  0  0
  2  1  1  0  0  0  0
  3  4  1  0  0  0  0
  3  2  2  0  0  0  0
  4  5  2  0  0  0  0
  5  8  1  0  0  0  0
  5  6  1  0  0  0  0
  6  7  2  0  0  0  0
  8  9  1  0  0  0  0
  9 10  1  0  0  0  0
 11  8  2  0  0  0  0
 12  4  1  0  0  0  0
 12 11  1  0  0  0  0
 13  2  1  0  0  0  0
M  END
>  <CHROM.1>
-102.93474456,150.26661656,-9.36956596,4.16563391,-7.41024717,-0.31861917
-0.16381756,-1.78813154

>  <Name>
lig.pdb

>  <RI>
1.17462e+07

>  <Rbt.Current_Directory>
/home/itssahil/PROJECTS/Mol_Feturizer/New_Systems/rnas/2miy

>  <Rbt.Executable>
rbdock ($Id: //depot/dev/client3/rdock/2013.1/src/exe/rbdock.cxx#4 $)

>  <Rbt.Library>
libRbt.so (2013.1, Build901 2013/11/27)

>  <Rbt.Parameter_File>
/export/apps/rDock/src/rDock_2013.1_src/data/scripts/dock_solv.prm

>  <Rbt.Receptor>
prm/blind_docking_40.prm

>  <SCORE>
-23.6673

>  <SCORE.INTER>
-26.5724

>  <SCORE.INTER.CONST>
1

>  <SCORE.INTER.POLAR>
-3.98411

>  <SCORE.INTER.ROT>
2

>  <SCORE.INTER.SOLV>
17.2205

>  <SCORE.INTER.VDW>
-15.1081

>  <SCORE.INTER.norm>
-2.04403

>  <SCORE.INTRA>
2.31884

>  <SCORE.INTRA.DIHEDRAL>
1.50097

>  <SCORE.INTRA.DIHEDRAL.0>
1.76676

>  <SCORE.INTRA.POLAR>
0.472211

>  <SCORE.INTRA.POLAR.0>
-0.472211

>  <SCORE.INTRA.REPUL>
0

>  <SCORE.INTRA.REPUL.0>
0

>  <SCORE.INTRA.SOLV>
-0.557487

>  <SCORE.INTRA.SOLV.lig_0>
-22.5855

>  <SCORE.INTRA.VDW>
0.241577

>  <SCORE.INTRA.VDW.0>
-0.733656

>  <SCORE.INTRA.norm>
0.178372

>  <SCORE.RESTR>
0.586276

>  <SCORE.RESTR.CAVITY>
0.586276

>  <SCORE.RESTR.norm>
0.0450981

>  <SCORE.SYSTEM>
0

>  <SCORE.SYSTEM.CONST>
0

>  <SCORE.SYSTEM.DIHEDRAL>
0

>  <SCORE.SYSTEM.SOLV>
0

>  <SCORE.SYSTEM.norm>
0

>  <SCORE.heavy>
13

>  <SCORE.norm>
-1.82056

>  <RMSD>
4.745

$$$$
lig.pdb
 OpenBabel11021811453D
libRbt.so/2013.1/901 2013/11/27
 13 14  0  0  0  0  0  0  0  0999 V2000
   -7.3119    4.3670   -8.0398 N   0  0  0  0  0  0  0  0  0  0  0  0
   -7.0835    4.8249   -6.7731 C   0  0  0  0  0  0  0  0  0  0  0  0
   -8.0618    4.8447   -5.8858 N   0  0  0  0  0  0  0  0  0  0  0  0
   -9.3262    4.4179   -6.1871 C   0  0  0  0  0  0  0  0  0  0  0  0
   -9.6198    3.9388   -7.4869 C   0  0  0  0  0  0  0  0  0  0  0  0
   -8.5563    3.9202   -8.4388 C   0  0  0  0  0  0  0  0  0  0  0  0
   -8.7418    3.5217   -9.5754 O   0  0  0  0  0  0  0  0  0  0  0  0
  -11.0418    3.5757   -7.4862 C   0  0  0  0  0  0  0  0  0  0  0  0
  -11.8532    3.0333   -8.6330 C   0  0  0  0  0  0  0  0  0  0  0  0
  -12.6850    4.1045   -9.1971 N   0  0  0  0  0  0  0  0  0  0  0  0
  -11.4880    3.8290   -6.2497 C   0  0  0  0  0  0  0  0  0  0  0  0
  -10.4803    4.3350   -5.4725 N   0  0  0  0  0  0  0  0  0  0  0  0
   -5.8329    5.2656   -6.4242 N   0  0  0  0  0  0  0  0  0  0  0  0
  1  6  1  0  0  0  0
  2  1  1  0  0  0  0
  3  4  1  0  0  0  0
  3  2  2  0  0  0  0
  4  5  2  0  0  0  0
  5  8  1  0  0  0  0
  5  6  1  0  0  0  0
  6  7  2  0  0  0  0
  8  9  1  0  0  0  0
  9 10  1  0  0  0  0
 11  8  2  0  0  0  0
 12  4  1  0  0  0  0
 12 11  1  0  0  0  0
 13  2  1  0  0  0  0
M  END
>  <CHROM.1>
-102.65580854,150.83895587,-9.37332270,4.16933378,-7.41138253,-0.31658320
-0.16378444,-1.78572101

>  <Name>
lig.pdb

>  <RI>
1.17462e+07

>  <Rbt.Current_Directory>
/home/itssahil/PROJECTS/Mol_Feturizer/New_Systems/rnas/2miy

>  <Rbt.Executable>
rbdock ($Id: //depot/dev/client3/rdock/2013.1/src/exe/rbdock.cxx#4 $)

>  <Rbt.Library>
libRbt.so (2013.1, Build901 2013/11/27)

>  <Rbt.Parameter_File>
/export/apps/rDock/src/rDock_2013.1_src/data/scripts/dock_solv.prm

>  <Rbt.Receptor>
prm/blind_docking_40.prm

>  <SCORE>
-23.6259

>  <SCORE.INTER>
-26.5173

>  <SCORE.INTER.CONST>
1

>  <SCORE.INTER.POLAR>
-3.95336

>  <SCORE.INTER.ROT>
2

>  <SCORE.INTER.SOLV>
17.2246

>  <SCORE.INTER.VDW>
-15.1752

>  <SCORE.INTER.norm>
-2.03979

>  <SCORE.INTRA>
2.31339

>  <SCORE.INTRA.DIHEDRAL>
1.48842

>  <SCORE.INTRA.DIHEDRAL.0>
1.76676

>  <SCORE.INTRA.POLAR>
0.472211

>  <SCORE.INTRA.POLAR.0>
-0.472211

>  <SCORE.INTRA.REPUL>
0

>  <SCORE.INTRA.REPUL.0>
0

>  <SCORE.INTRA.SOLV>
-0.55611

>  <SCORE.INTRA.SOLV.lig_0>
-22.5855

>  <SCORE.INTRA.VDW>
0.241713

>  <SCORE.INTRA.VDW.0>
-0.733656

>  <SCORE.INTRA.norm>
0.177953

>  <SCORE.RESTR>
0.578028

>  <SCORE.RESTR.CAVITY>
0.578028

>  <SCORE.RESTR.norm>
0.0444637

>  <SCORE.SYSTEM>
0

>  <SCORE.SYSTEM.CONST>
0

>  <SCORE.SYSTEM.DIHEDRAL>
0

>  <SCORE.SYSTEM.SOLV>
0

>  <SCORE.SYSTEM.norm>
0

>  <SCORE.heavy>
13

>  <SCORE.norm>
-1.81738

>  <RMSD>
4.745

$$$$
lig.pdb
 OpenBabel11021811453D
libRbt.so/2013.1/901 2013/11/27
 13 14  0  0  0  0  0  0  0  0999 V2000
   -7.3000    4.3761   -8.0161 N   0  0  0  0  0  0  0  0  0  0  0  0
   -7.0780    4.8371   -6.7494 C   0  0  0  0  0  0  0  0  0  0  0  0
   -8.0594    4.8537   -5.8654 N   0  0  0  0  0  0  0  0  0  0  0  0
   -9.3207    4.4205   -6.1703 C   0  0  0  0  0  0  0  0  0  0  0  0
   -9.6078    3.9379   -7.4702 C   0  0  0  0  0  0  0  0  0  0  0  0
   -8.5409    3.9228   -8.4185 C   0  0  0  0  0  0  0  0  0  0  0  0
   -8.7208    3.5215   -9.5551 O   0  0  0  0  0  0  0  0  0  0  0  0
  -11.0280    3.5681   -7.4736 C   0  0  0  0  0  0  0  0  0  0  0  0
  -11.8330    3.0200   -8.6222 C   0  0  0  0  0  0  0  0  0  0  0  0
  -12.6807    4.0821   -9.1799 N   0  0  0  0  0  0  0  0  0  0  0  0
  -11.4795    3.8213   -6.2390 C   0  0  0  0  0  0  0  0  0  0  0  0
  -10.4768    4.3333   -5.4594 N   0  0  0  0  0  0  0  0  0  0  0  0
   -5.8306    5.2843   -6.3970 N   0  0  0  0  0  0  0  0  0  0  0  0
  1  6  1  0  0  0  0
  2  1  1  0  0  0  0
  3  4  1  0  0  0  0
  3  2  2  0  0  0  0
  4  5  2  0  0  0  0
  5  8  1  0  0  0  0
  5  6  1  0  0  0  0
  6  7  2  0  0  0  0
  8  9  1  0  0  0  0
  9 10  1  0  0  0  0
 11  8  2  0  0  0  0
 12  4  1  0  0  0  0
 12 11  1  0  0  0  0
 13  2  1  0  0  0  0
M  END
>  <CHROM.1>
-103.37721389,-28.96153760,-9.36390674,4.16919925,-7.39318032,-0.31970553
-0.16749901,-1.78910425

>  <Name>
lig.pdb

>  <RI>
1.17462e+07

>  <Rbt.Current_Directory>
/home/itssahil/PROJECTS/Mol_Feturizer/New_Systems/rnas/2miy

>  <Rbt.Executable>
rbdock ($Id: //depot/dev/client3/rdock/2013.1/src/exe/rbdock.cxx#4 $)

>  <Rbt.Library>
libRbt.so (2013.1, Build901 2013/11/27)

>  <Rbt.Parameter_File>
/export/apps/rDock/src/rDock_2013.1_src/data/scripts/dock_solv.prm

>  <Rbt.Receptor>
prm/blind_docking_40.prm

>  <SCORE>
-23.436

>  <SCORE.INTER>
-26.344

>  <SCORE.INTER.CONST>
1

>  <SCORE.INTER.POLAR>
-3.97143

>  <SCORE.INTER.ROT>
2

>  <SCORE.INTER.SOLV>
17.1983

>  <SCORE.INTER.VDW>
-14.9907

>  <SCORE.INTER.norm>
-2.02646

>  <SCORE.INTRA>
2.2995

>  <SCORE.INTRA.DIHEDRAL>
1.45991

>  <SCORE.INTRA.DIHEDRAL.0>
1.76676

>  <SCORE.INTRA.POLAR>
0.472211

>  <SCORE.INTRA.POLAR.0>
-0.472211

>  <SCORE.INTRA.REPUL>
0

>  <SCORE.INTRA.REPUL.0>
0

>  <SCORE.INTRA.SOLV>
-0.559632

>  <SCORE.INTRA.SOLV.lig_0>
-22.5855

>  <SCORE.INTRA.VDW>
0.243842

>  <SCORE.INTRA.VDW.0>
-0.733656

>  <SCORE.INTRA.norm>
0.176884

>  <SCORE.RESTR>
0.608531

>  <SCORE.RESTR.CAVITY>
0.608531

>  <SCORE.RESTR.norm>
0.0468101

>  <SCORE.SYSTEM>
0

>  <SCORE.SYSTEM.CONST>
0

>  <SCORE.SYSTEM.DIHEDRAL>
0

>  <SCORE.SYSTEM.SOLV>
0

>  <SCORE.SYSTEM.norm>
0

>  <SCORE.heavy>
13

>  <SCORE.norm>
-1.80277

>  <RMSD>
4.745

$$$$
lig.pdb
 OpenBabel11021811453D
libRbt.so/2013.1/901 2013/11/27
 13 14  0  0  0  0  0  0  0  0999 V2000
   -7.3062    4.3656   -8.0373 N   0  0  0  0  0  0  0  0  0  0  0  0
   -7.0797    4.8254   -6.7709 C   0  0  0  0  0  0  0  0  0  0  0  0
   -8.0589    4.8447   -5.8846 N   0  0  0  0  0  0  0  0  0  0  0  0
   -9.3223    4.4158   -6.1866 C   0  0  0  0  0  0  0  0  0  0  0  0
   -9.6141    3.9348   -7.4861 C   0  0  0  0  0  0  0  0  0  0  0  0
   -8.5495    3.9166   -8.4370 C   0  0  0  0  0  0  0  0  0  0  0  0
   -8.7334    3.5165   -9.5732 O   0  0  0  0  0  0  0  0  0  0  0  0
  -11.0355    3.5695   -7.4863 C   0  0  0  0  0  0  0  0  0  0  0  0
  -11.8450    3.0246   -8.6333 C   0  0  0  0  0  0  0  0  0  0  0  0
  -12.6812    4.0929   -9.1965 N   0  0  0  0  0  0  0  0  0  0  0  0
  -11.4833    3.8236   -6.2505 C   0  0  0  0  0  0  0  0  0  0  0  0
  -10.4770    4.3320   -5.4730 N   0  0  0  0  0  0  0  0  0  0  0  0
   -5.8300    5.2683   -6.4213 N   0  0  0  0  0  0  0  0  0  0  0  0
  1  6  1  0  0  0  0
  2  1  1  0  0  0  0
  3  4  1  0  0  0  0
  3  2  2  0  0  0  0
  4  5  2  0  0  0  0
  5  8  1  0  0  0  0
  5  6  1  0  0  0  0
  6  7  2  0  0  0  0
  8  9  1  0  0  0  0
  9 10  1  0  0  0  0
 11  8  2  0  0  0  0
 12  4  1  0  0  0  0
 12 11  1  0  0  0  0
 13  2  1  0  0  0  0
M  END
>  <CHROM.1>
-102.84732579,150.56269900,-9.36826787,4.16558954,-7.41033096,-0.31752819
-0.16494558,-1.78733638

>  <Name>
lig.pdb

>  <RI>
1.17462e+07

>  <Rbt.Current_Directory>
/home/itssahil/PROJECTS/Mol_Feturizer/New_Systems/rnas/2miy

>  <Rbt.Executable>
rbdock ($Id: //depot/dev/client3/rdock/2013.1/src/exe/rbdock.cxx#4 $)

>  <Rbt.Library>
libRbt.so (2013.1, Build901 2013/11/27)

>  <Rbt.Parameter_File>
/export/apps/rDock/src/rDock_2013.1_src/data/scripts/dock_solv.prm

>  <Rbt.Receptor>
prm/blind_docking_40.prm

>  <SCORE>
-23.6521

>  <SCORE.INTER>
-26.5556

>  <SCORE.INTER.CONST>
1

>  <SCORE.INTER.POLAR>
-3.98422

>  <SCORE.INTER.ROT>
2

>  <SCORE.INTER.SOLV>
17.227

>  <SCORE.INTER.VDW>
-15.0986

>  <SCORE.INTER.norm>
-2.04274

>  <SCORE.INTRA>
2.3174

>  <SCORE.INTRA.DIHEDRAL>
1.49705

>  <SCORE.INTRA.DIHEDRAL.0>
1.76676

>  <SCORE.INTRA.POLAR>
0.472211

>  <SCORE.INTRA.POLAR.0>
-0.472211

>  <SCORE.INTRA.REPUL>
0

>  <SCORE.INTRA.REPUL.0>
0

>  <SCORE.INTRA.SOLV>
-0.557042

>  <SCORE.INTRA.SOLV.lig_0>
-22.5855

>  <SCORE.INTRA.VDW>
0.241875

>  <SCORE.INTRA.VDW.0>
-0.733656

>  <SCORE.INTRA.norm>
0.178261

>  <SCORE.RESTR>
0.586048

>  <SCORE.RESTR.CAVITY>
0.586048

>  <SCORE.RESTR.norm>
0.0450806

>  <SCORE.SYSTEM>
0

>  <SCORE.SYSTEM.CONST>
0

>  <SCORE.SYSTEM.DIHEDRAL>
0

>  <SCORE.SYSTEM.SOLV>
0

>  <SCORE.SYSTEM.norm>
0

>  <SCORE.heavy>
13

>  <SCORE.norm>
-1.8194

>  <RMSD>
4.745

$$$$
lig.pdb
 OpenBabel11021811453D
libRbt.so/2013.1/901 2013/11/27
 13 14  0  0  0  0  0  0  0  0999 V2000
   -7.2998    4.3851   -8.0132 N   0  0  0  0  0  0  0  0  0  0  0  0
   -7.0793    4.8433   -6.7453 C   0  0  0  0  0  0  0  0  0  0  0  0
   -8.0613    4.8563   -5.8619 N   0  0  0  0  0  0  0  0  0  0  0  0
   -9.3218    4.4221   -6.1687 C   0  0  0  0  0  0  0  0  0  0  0  0
   -9.6073    3.9423   -7.4700 C   0  0  0  0  0  0  0  0  0  0  0  0
   -8.5398    3.9310   -8.4177 C   0  0  0  0  0  0  0  0  0  0  0  0
   -8.7184    3.5324   -9.5553 O   0  0  0  0  0  0  0  0  0  0  0  0
  -11.0271    3.5705   -7.4753 C   0  0  0  0  0  0  0  0  0  0  0  0
  -11.8305    3.0241   -8.6258 C   0  0  0  0  0  0  0  0  0  0  0  0
  -12.6789    4.0866   -9.1818 N   0  0  0  0  0  0  0  0  0  0  0  0
  -11.4797    3.8200   -6.2404 C   0  0  0  0  0  0  0  0  0  0  0  0
  -10.4783    4.3315   -5.4588 N   0  0  0  0  0  0  0  0  0  0  0  0
   -5.8328    5.2913   -6.3909 N   0  0  0  0  0  0  0  0  0  0  0  0
  1  6  1  0  0  0  0
  2  1  1  0  0  0  0
  3  4  1  0  0  0  0
  3  2  2  0  0  0  0
  4  5  2  0  0  0  0
  5  8  1  0  0  0  0
  5  6  1  0  0  0  0
  6  7  2  0  0  0  0
  8  9  1  0  0  0  0
  9 10  1  0  0  0  0
 11  8  2  0  0  0  0
 12  4  1  0  0  0  0
 12 11  1  0  0  0  0
 13  2  1  0  0  0  0
M  END
>  <CHROM.1>
-103.35246869,-29.07622982,-9.36379641,4.17378383,-7.39227694,-0.32071915
-0.16872392,-1.78674026

>  <Name>
lig.pdb

>  <RI>
1.82164e+07

>  <Rbt.Current_Directory>
/home/itssahil/PROJECTS/Mol_Feturizer/New_Systems/rnas/2miy

>  <Rbt.Executable>
rbdock ($Id: //depot/dev/client3/rdock/2013.1/src/exe/rbdock.cxx#4 $)

>  <Rbt.Library>
libRbt.so (2013.1, Build901 2013/11/27)

>  <Rbt.Parameter_File>
/export/apps/rDock/src/rDock_2013.1_src/data/scripts/dock_solv.prm

>  <Rbt.Receptor>
prm/blind_docking_80.prm

>  <SCORE>
-23.4977

>  <SCORE.INTER>
-26.4078

>  <SCORE.INTER.CONST>
1

>  <SCORE.INTER.POLAR>
-3.97564

>  <SCORE.INTER.ROT>
2

>  <SCORE.INTER.SOLV>
17.2012

>  <SCORE.INTER.VDW>
-15.0201

>  <SCORE.INTER.norm>
-2.03137

>  <SCORE.INTRA>
2.29865

>  <SCORE.INTRA.DIHEDRAL>
1.45881

>  <SCORE.INTRA.DIHEDRAL.0>
1.76676

>  <SCORE.INTRA.POLAR>
0.472211

>  <SCORE.INTRA.POLAR.0>
-0.472211

>  <SCORE.INTRA.REPUL>
0

>  <SCORE.INTRA.REPUL.0>
0

>  <SCORE.INTRA.SOLV>
-0.559531

>  <SCORE.INTRA.SOLV.lig_0>
-22.5855

>  <SCORE.INTRA.VDW>
0.24349

>  <SCORE.INTRA.VDW.0>
-0.733656

>  <SCORE.INTRA.norm>
0.176819

>  <SCORE.RESTR>
0.611417

>  <SCORE.RESTR.CAVITY>
0.611417

>  <SCORE.RESTR.norm>
0.0470321

>  <SCORE.SYSTEM>
0

>  <SCORE.SYSTEM.CONST>
0

>  <SCORE.SYSTEM.DIHEDRAL>
0

>  <SCORE.SYSTEM.SOLV>
0

>  <SCORE.SYSTEM.norm>
0

>  <SCORE.heavy>
13

>  <SCORE.norm>
-1.80752

>  <RMSD>
4.745

$$$$
lig.pdb
 OpenBabel11021811453D
libRbt.so/2013.1/901 2013/11/27
 13 14  0  0  0  0  0  0  0  0999 V2000
   -7.3117    4.3686   -8.0406 N   0  0  0  0  0  0  0  0  0  0  0  0
   -7.0837    4.8255   -6.7735 C   0  0  0  0  0  0  0  0  0  0  0  0
   -8.0621    4.8439   -5.8863 N   0  0  0  0  0  0  0  0  0  0  0  0
   -9.3262    4.4167   -6.1881 C   0  0  0  0  0  0  0  0  0  0  0  0
   -9.6195    3.9387   -7.4883 C   0  0  0  0  0  0  0  0  0  0  0  0
   -8.5559    3.9215   -8.4402 C   0  0  0  0  0  0  0  0  0  0  0  0
   -8.7411    3.5239   -9.5771 O   0  0  0  0  0  0  0  0  0  0  0  0
  -11.0414    3.5748   -7.4880 C   0  0  0  0  0  0  0  0  0  0  0  0
  -11.8524    3.0330   -8.6354 C   0  0  0  0  0  0  0  0  0  0  0  0
  -12.6876    4.1033   -9.1960 N   0  0  0  0  0  0  0  0  0  0  0  0
  -11.4877    3.8267   -6.2513 C   0  0  0  0  0  0  0  0  0  0  0  0
  -10.4804    4.3326   -5.4737 N   0  0  0  0  0  0  0  0  0  0  0  0
   -5.8334    5.2665   -6.4241 N   0  0  0  0  0  0  0  0  0  0  0  0
  1  6  1  0  0  0  0
  2  1  1  0  0  0  0
  3  4  1  0  0  0  0
  3  2  2  0  0  0  0
  4  5  2  0  0  0  0
  5  8  1  0  0  0  0
  5  6  1  0  0  0  0
  6  7  2  0  0  0  0
  8  9  1  0  0  0  0
  9 10  1  0  0  0  0
 11  8  2  0  0  0  0
 12  4  1  0  0  0  0
 12 11  1  0  0  0  0
 13  2  1  0  0  0  0
M  END
>  <CHROM.1>
-102.82265065,151.93723036,-9.37342289,4.16914552,-7.41232301,-0.31654696
-0.16424768,-1.78511041

>  <Name>
lig.pdb

>  <RI>
1.82164e+07

>  <Rbt.Current_Directory>
/home/itssahil/PROJECTS/Mol_Feturizer/New_Systems/rnas/2miy

>  <Rbt.Executable>
rbdock ($Id: //depot/dev/client3/rdock/2013.1/src/exe/rbdock.cxx#4 $)

>  <Rbt.Library>
libRbt.so (2013.1, Build901 2013/11/27)

>  <Rbt.Parameter_File>
/export/apps/rDock/src/rDock_2013.1_src/data/scripts/dock_solv.prm

>  <Rbt.Receptor>
prm/blind_docking_80.prm

>  <SCORE>
-23.6445

>  <SCORE.INTER>
-26.5422

>  <SCORE.INTER.CONST>
1

>  <SCORE.INTER.POLAR>
-3.94311

>  <SCORE.INTER.ROT>
2

>  <SCORE.INTER.SOLV>
17.2272

>  <SCORE.INTER.VDW>
-15.2269

>  <SCORE.INTER.norm>
-2.04171

>  <SCORE.INTRA>
2.31977

>  <SCORE.INTRA.DIHEDRAL>
1.49574

>  <SCORE.INTRA.DIHEDRAL.0>
1.76676

>  <SCORE.INTRA.POLAR>
0.472211

>  <SCORE.INTRA.POLAR.0>
-0.472211

>  <SCORE.INTRA.REPUL>
0

>  <SCORE.INTRA.REPUL.0>
0

>  <SCORE.INTRA.SOLV>
-0.556771

>  <SCORE.INTRA.SOLV.lig_0>
-22.5855

>  <SCORE.INTRA.VDW>
0.24477

>  <SCORE.INTRA.VDW.0>
-0.733656

>  <SCORE.INTRA.norm>
0.178444

>  <SCORE.RESTR>
0.577922

>  <SCORE.RESTR.CAVITY>
0.577922

>  <SCORE.RESTR.norm>
0.0444555

>  <SCORE.SYSTEM>
0

>  <SCORE.SYSTEM.CONST>
0

>  <SCORE.SYSTEM.DIHEDRAL>
0

>  <SCORE.SYSTEM.SOLV>
0

>  <SCORE.SYSTEM.norm>
0

>  <SCORE.heavy>
13

>  <SCORE.norm>
-1.81881

>  <RMSD>
4.745

$$$$
lig.pdb
 OpenBabel11021811453D
libRbt.so/2013.1/901 2013/11/27
 13 14  0  0  0  0  0  0  0  0999 V2000
   -7.2993    4.3854   -8.0132 N   0  0  0  0  0  0  0  0  0  0  0  0
   -7.0780    4.8450   -6.7459 C   0  0  0  0  0  0  0  0  0  0  0  0
   -8.0596    4.8597   -5.8621 N   0  0  0  0  0  0  0  0  0  0  0  0
   -9.3205    4.4259   -6.1678 C   0  0  0  0  0  0  0  0  0  0  0  0
   -9.6069    3.9447   -7.4684 C   0  0  0  0  0  0  0  0  0  0  0  0
   -8.5398    3.9316   -8.4165 C   0  0  0  0  0  0  0  0  0  0  0  0
   -8.7191    3.5316   -9.5536 O   0  0  0  0  0  0  0  0  0  0  0  0
  -11.0269    3.5737   -7.4726 C   0  0  0  0  0  0  0  0  0  0  0  0
  -11.8311    3.0264   -8.6221 C   0  0  0  0  0  0  0  0  0  0  0  0
  -12.6819    4.0878   -9.1766 N   0  0  0  0  0  0  0  0  0  0  0  0
  -11.4788    3.8250   -6.2378 C   0  0  0  0  0  0  0  0  0  0  0  0
  -10.4767    4.3369   -5.4573 N   0  0  0  0  0  0  0  0  0  0  0  0
   -5.8311    5.2927   -6.3927 N   0  0  0  0  0  0  0  0  0  0  0  0
  1  6  1  0  0  0  0
  2  1  1  0  0  0  0
  3  4  1  0  0  0  0
  3  2  2  0  0  0  0
  4  5  2  0  0  0  0
  5  8  1  0  0  0  0
  5  6  1  0  0  0  0
  6  7  2  0  0  0  0
  8  9  1  0  0  0  0
  9 10  1  0  0  0  0
 11  8  2  0  0  0  0
 12  4  1  0  0  0  0
 12 11  1  0  0  0  0
 13  2  1  0  0  0  0
M  END
>  <CHROM.1>
-103.50913175,-29.01997986,-9.36344420,4.17601967,-7.39083198,-0.31988639
-0.16819773,-1.78807933

>  <Name>
lig.pdb

>  <RI>
1.82164e+07

>  <Rbt.Current_Directory>
/home/itssahil/PROJECTS/Mol_Feturizer/New_Systems/rnas/2miy

>  <Rbt.Executable>
rbdock ($Id: //depot/dev/client3/rdock/2013.1/src/exe/rbdock.cxx#4 $)

>  <Rbt.Library>
libRbt.so (2013.1, Build901 2013/11/27)

>  <Rbt.Parameter_File>
/export/apps/rDock/src/rDock_2013.1_src/data/scripts/dock_solv.prm

>  <Rbt.Receptor>
prm/blind_docking_80.prm

>  <SCORE>
-23.4742

>  <SCORE.INTER>
-26.3884

>  <SCORE.INTER.CONST>
1

>  <SCORE.INTER.POLAR>
-3.97609

>  <SCORE.INTER.ROT>
2

>  <SCORE.INTER.SOLV>
17.2051

>  <SCORE.INTER.VDW>
-15.007

>  <SCORE.INTER.norm>
-2.02988

>  <SCORE.INTRA>
2.30247

>  <SCORE.INTRA.DIHEDRAL>
1.46565

>  <SCORE.INTRA.DIHEDRAL.0>
1.76676

>  <SCORE.INTRA.POLAR>
0.472211

>  <SCORE.INTRA.POLAR.0>
-0.472211

>  <SCORE.INTRA.REPUL>
0

>  <SCORE.INTRA.REPUL.0>
0

>  <SCORE.INTRA.SOLV>
-0.560254

>  <SCORE.INTRA.SOLV.lig_0>
-22.5855

>  <SCORE.INTRA.VDW>
0.244253

>  <SCORE.INTRA.VDW.0>
-0.733656

>  <SCORE.INTRA.norm>
0.177113

>  <SCORE.RESTR>
0.611738

>  <SCORE.RESTR.CAVITY>
0.611738

>  <SCORE.RESTR.norm>
0.0470568

>  <SCORE.SYSTEM>
0

>  <SCORE.SYSTEM.CONST>
0

>  <SCORE.SYSTEM.DIHEDRAL>
0

>  <SCORE.SYSTEM.SOLV>
0

>  <SCORE.SYSTEM.norm>
0

>  <SCORE.heavy>
13

>  <SCORE.norm>
-1.80571

>  <RMSD>
4.745

$$$$
lig.pdb
 OpenBabel11021811453D
libRbt.so/2013.1/901 2013/11/27
 13 14  0  0  0  0  0  0  0  0999 V2000
   -7.3117    4.3777   -8.0321 N   0  0  0  0  0  0  0  0  0  0  0  0
   -7.0890    4.8370   -6.7649 C   0  0  0  0  0  0  0  0  0  0  0  0
   -8.0703    4.8540   -5.8809 N   0  0  0  0  0  0  0  0  0  0  0  0
   -9.3323    4.4230   -6.1861 C   0  0  0  0  0  0  0  0  0  0  0  0
   -9.6201    3.9423   -7.4866 C   0  0  0  0  0  0  0  0  0  0  0  0
   -8.5533    3.9266   -8.4350 C   0  0  0  0  0  0  0  0  0  0  0  0
   -8.7338    3.5269   -9.5719 O   0  0  0  0  0  0  0  0  0  0  0  0
  -11.0409    3.5745   -7.4904 C   0  0  0  0  0  0  0  0  0  0  0  0
  -11.8467    3.0289   -8.6396 C   0  0  0  0  0  0  0  0  0  0  0  0
  -12.6827    4.0963   -9.2048 N   0  0  0  0  0  0  0  0  0  0  0  0
  -11.4920    3.8270   -6.2555 C   0  0  0  0  0  0  0  0  0  0  0  0
  -10.4885    4.3367   -5.4753 N   0  0  0  0  0  0  0  0  0  0  0  0
   -5.8410    5.2820   -6.4121 N   0  0  0  0  0  0  0  0  0  0  0  0
  1  6  1  0  0  0  0
  2  1  1  0  0  0  0
  3  4  1  0  0  0  0
  3  2  2  0  0  0  0
  4  5  2  0  0  0  0
  5  8  1  0  0  0  0
  5  6  1  0  0  0  0
  6  7  2  0  0  0  0
  8  9  1  0  0  0  0
  9 10  1  0  0  0  0
 11  8  2  0  0  0  0
 12  4  1  0  0  0  0
 12 11  1  0  0  0  0
 13  2  1  0  0  0  0
M  END
>  <CHROM.1>
-102.79860374,150.01460342,-9.37482750,4.17354225,-7.41018139,-0.32029699
-0.16622027,-1.78706580

>  <Name>
lig.pdb

>  <RI>
1.82164e+07

>  <Rbt.Current_Directory>
/home/itssahil/PROJECTS/Mol_Feturizer/New_Systems/rnas/2miy

>  <Rbt.Executable>
rbdock ($Id: //depot/dev/client3/rdock/2013.1/src/exe/rbdock.cxx#4 $)

>  <Rbt.Library>
libRbt.so (2013.1, Build901 2013/11/27)

>  <Rbt.Parameter_File>
/export/apps/rDock/src/rDock_2013.1_src/data/scripts/dock_solv.prm

>  <Rbt.Receptor>
prm/blind_docking_80.prm

>  <SCORE>
-23.6246

>  <SCORE.INTER>
-26.5237

>  <SCORE.INTER.CONST>
1

>  <SCORE.INTER.POLAR>
-3.99581

>  <SCORE.INTER.ROT>
2

>  <SCORE.INTER.SOLV>
17.2243

>  <SCORE.INTER.VDW>
-15.0379

>  <SCORE.INTER.norm>
-2.04029

>  <SCORE.INTRA>
2.31501

>  <SCORE.INTRA.DIHEDRAL>
1.4949

>  <SCORE.INTRA.DIHEDRAL.0>
1.76676

>  <SCORE.INTRA.POLAR>
0.472211

>  <SCORE.INTRA.POLAR.0>
-0.472211

>  <SCORE.INTRA.REPUL>
0

>  <SCORE.INTRA.REPUL.0>
0

>  <SCORE.INTRA.SOLV>
-0.556879

>  <SCORE.INTRA.SOLV.lig_0>
-22.5855

>  <SCORE.INTRA.VDW>
0.240478

>  <SCORE.INTRA.VDW.0>
-0.733656

>  <SCORE.INTRA.norm>
0.178077

>  <SCORE.RESTR>
0.58411

>  <SCORE.RESTR.CAVITY>
0.58411

>  <SCORE.RESTR.norm>
0.0449316

>  <SCORE.SYSTEM>
0

>  <SCORE.SYSTEM.CONST>
0

>  <SCORE.SYSTEM.DIHEDRAL>
0

>  <SCORE.SYSTEM.SOLV>
0

>  <SCORE.SYSTEM.norm>
0

>  <SCORE.heavy>
13

>  <SCORE.norm>
-1.81728

>  <RMSD>
4.745

$$$$
lig.pdb
 OpenBabel11021811453D
libRbt.so/2013.1/901 2013/11/27
 13 14  0  0  0  0  0  0  0  0999 V2000
   -7.2996    4.3848   -8.0134 N   0  0  0  0  0  0  0  0  0  0  0  0
   -7.0798    4.8417   -6.7449 C   0  0  0  0  0  0  0  0  0  0  0  0
   -8.0626    4.8543   -5.8623 N   0  0  0  0  0  0  0  0  0  0  0  0
   -9.3230    4.4211   -6.1704 C   0  0  0  0  0  0  0  0  0  0  0  0
   -9.6078    3.9427   -7.4724 C   0  0  0  0  0  0  0  0  0  0  0  0
   -8.5396    3.9318   -8.4192 C   0  0  0  0  0  0  0  0  0  0  0  0
   -8.7175    3.5343   -9.5574 O   0  0  0  0  0  0  0  0  0  0  0  0
  -11.0277    3.5716   -7.4791 C   0  0  0  0  0  0  0  0  0  0  0  0
  -11.8306    3.0268   -8.6308 C   0  0  0  0  0  0  0  0  0  0  0  0
  -12.6806    4.0893   -9.1841 N   0  0  0  0  0  0  0  0  0  0  0  0
  -11.4812    3.8202   -6.2443 C   0  0  0  0  0  0  0  0  0  0  0  0
  -10.4801    4.3304   -5.4615 N   0  0  0  0  0  0  0  0  0  0  0  0
   -5.8334    5.2887   -6.3892 N   0  0  0  0  0  0  0  0  0  0  0  0
  1  6  1  0  0  0  0
  2  1  1  0  0  0  0
  3  4  1  0  0  0  0
  3  2  2  0  0  0  0
  4  5  2  0  0  0  0
  5  8  1  0  0  0  0
  5  6  1  0  0  0  0
  6  7  2  0  0  0  0
  8  9  1  0  0  0  0
  9 10  1  0  0  0  0
 11  8  2  0  0  0  0
 12  4  1  0  0  0  0
 12 11  1  0  0  0  0
 13  2  1  0  0  0  0
M  END
>  <CHROM.1>
-103.50167947,-28.64469700,-9.36446635,4.17387409,-7.39405025,-0.32112772
-0.16802873,-1.78610081

>  <Name>
lig.pdb

>  <RI>
1.82164e+07

>  <Rbt.Current_Directory>
/home/itssahil/PROJECTS/Mol_Feturizer/New_Systems/rnas/2miy

>  <Rbt.Executable>
rbdock ($Id: //depot/dev/client3/rdock/2013.1/src/exe/rbdock.cxx#4 $)

>  <Rbt.Library>
libRbt.so (2013.1, Build901 2013/11/27)

>  <Rbt.Parameter_File>
/export/apps/rDock/src/rDock_2013.1_src/data/scripts/dock_solv.prm

>  <Rbt.Receptor>
prm/blind_docking_80.prm

>  <SCORE>
-23.493

>  <SCORE.INTER>
-26.4066

>  <SCORE.INTER.CONST>
1

>  <SCORE.INTER.POLAR>
-3.96533

>  <SCORE.INTER.ROT>
2

>  <SCORE.INTER.SOLV>
17.2017

>  <SCORE.INTER.VDW>
-15.0538

>  <SCORE.INTER.norm>
-2.03127

>  <SCORE.INTRA>
2.30316

>  <SCORE.INTRA.DIHEDRAL>
1.46537

>  <SCORE.INTRA.DIHEDRAL.0>
1.76676

>  <SCORE.INTRA.POLAR>
0.472211

>  <SCORE.INTRA.POLAR.0>
-0.472211

>  <SCORE.INTRA.REPUL>
0

>  <SCORE.INTRA.REPUL.0>
0

>  <SCORE.INTRA.SOLV>
-0.560174

>  <SCORE.INTRA.SOLV.lig_0>
-22.5855

>  <SCORE.INTRA.VDW>
0.245041

>  <SCORE.INTRA.VDW.0>
-0.733656

>  <SCORE.INTRA.norm>
0.177166

>  <SCORE.RESTR>
0.610398

>  <SCORE.RESTR.CAVITY>
0.610398

>  <SCORE.RESTR.norm>
0.0469537

>  <SCORE.SYSTEM>
0

>  <SCORE.SYSTEM.CONST>
0

>  <SCORE.SYSTEM.DIHEDRAL>
0

>  <SCORE.SYSTEM.SOLV>
0

>  <SCORE.SYSTEM.norm>
0

>  <SCORE.heavy>
13

>  <SCORE.norm>
-1.80715

>  <RMSD>
4.745

$$$$
lig.pdb
 OpenBabel11021811453D
libRbt.so/2013.1/901 2013/11/27
 13 14  0  0  0  0  0  0  0  0999 V2000
   -7.2856    4.4172   -7.9717 N   0  0  0  0  0  0  0  0  0  0  0  0
   -7.0790    4.8858   -6.7052 C   0  0  0  0  0  0  0  0  0  0  0  0
   -8.0674    4.8940   -5.8289 N   0  0  0  0  0  0  0  0  0  0  0  0
   -9.3210    4.4445   -6.1418 C   0  0  0  0  0  0  0  0  0  0  0  0
   -9.5921    3.9535   -7.4420 C   0  0  0  0  0  0  0  0  0  0  0  0
   -8.5178    3.9475   -8.3820 C   0  0  0  0  0  0  0  0  0  0  0  0
   -8.6841    3.5398   -9.5183 O   0  0  0  0  0  0  0  0  0  0  0  0
  -11.0078    3.5667   -7.4550 C   0  0  0  0  0  0  0  0  0  0  0  0
  -11.7972    3.0045   -8.6076 C   0  0  0  0  0  0  0  0  0  0  0  0
  -12.6740    4.0466   -9.1580 N   0  0  0  0  0  0  0  0  0  0  0  0
  -11.4719    3.8192   -6.2249 C   0  0  0  0  0  0  0  0  0  0  0  0
  -10.4815    4.3462   -5.4395 N   0  0  0  0  0  0  0  0  0  0  0  0
   -5.8399    5.3492   -6.3449 N   0  0  0  0  0  0  0  0  0  0  0  0
  1  6  1  0  0  0  0
  2  1  1  0  0  0  0
  3  4  1  0  0  0  0
  3  2  2  0  0  0  0
  4  5  2  0  0  0  0
  5  8  1  0  0  0  0
  5  6  1  0  0  0  0
  6  7  2  0  0  0  0
  8  9  1  0  0  0  0
  9 10  1  0  0  0  0
 11  8  2  0  0  0  0
 12  4  1  0  0  0  0
 12 11  1  0  0  0  0
 13  2  1  0  0  0  0
M  END
>  <CHROM.1>
-104.55752626,-27.13687356,-9.35363121,4.18729215,-7.36232199,-0.32818392
-0.17723909,-1.79636176

>  <Name>
lig.pdb

>  <RI>
0

>  <Rbt.Current_Directory>
/home/itssahil/PROJECTS/Mol_Feturizer/New_Systems/rnas/2miy

>  <Rbt.Executable>
rbdock ($Id: //depot/dev/client3/rdock/2013.1/src/exe/rbdock.cxx#4 $)

>  <Rbt.Library>
libRbt.so (2013.1, Build901 2013/11/27)

>  <Rbt.Parameter_File>
/export/apps/rDock/src/rDock_2013.1_src/data/scripts/dock_solv.prm

>  <Rbt.Receptor>
prm/pocket_docking_2.prm

>  <SCORE>
-24.155

>  <SCORE.INTER>
-26.5461

>  <SCORE.INTER.CONST>
1

>  <SCORE.INTER.POLAR>
-4.07396

>  <SCORE.INTER.ROT>
2

>  <SCORE.INTER.SOLV>
17.1983

>  <SCORE.INTER.VDW>
-14.7836

>  <SCORE.INTER.norm>
-2.04201

>  <SCORE.INTRA>
2.33102

>  <SCORE.INTRA.DIHEDRAL>
1.51043

>  <SCORE.INTRA.DIHEDRAL.0>
1.76676

>  <SCORE.INTRA.POLAR>
0.472211

>  <SCORE.INTRA.POLAR.0>
-0.472211

>  <SCORE.INTRA.REPUL>
0

>  <SCORE.INTRA.REPUL.0>
0

>  <SCORE.INTRA.SOLV>
-0.564884

>  <SCORE.INTRA.SOLV.lig_0>
-22.5855

>  <SCORE.INTRA.VDW>
0.25273

>  <SCORE.INTRA.VDW.0>
-0.733656

>  <SCORE.INTRA.norm>
0.179309

>  <SCORE.RESTR>
0.0601144

>  <SCORE.RESTR.CAVITY>
0.0601144

>  <SCORE.RESTR.norm>
0.00462418

>  <SCORE.SYSTEM>
0

>  <SCORE.SYSTEM.CONST>
0

>  <SCORE.SYSTEM.DIHEDRAL>
0

>  <SCORE.SYSTEM.SOLV>
0

>  <SCORE.SYSTEM.norm>
0

>  <SCORE.heavy>
13

>  <SCORE.norm>
-1.85808

>  <RMSD>
4.745

$$$$
lig.pdb
 OpenBabel11021811453D
libRbt.so/2013.1/901 2013/11/27
 13 14  0  0  0  0  0  0  0  0999 V2000
   -7.3066    4.3929   -8.0024 N   0  0  0  0  0  0  0  0  0  0  0  0
   -7.0899    4.8535   -6.7346 C   0  0  0  0  0  0  0  0  0  0  0  0
   -8.0742    4.8666   -5.8537 N   0  0  0  0  0  0  0  0  0  0  0  0
   -9.3333    4.4302   -6.1630 C   0  0  0  0  0  0  0  0  0  0  0  0
   -9.6149    3.9479   -7.4643 C   0  0  0  0  0  0  0  0  0  0  0  0
   -8.5450    3.9366   -8.4092 C   0  0  0  0  0  0  0  0  0  0  0  0
   -8.7201    3.5358   -9.5466 O   0  0  0  0  0  0  0  0  0  0  0  0
  -11.0341    3.5742   -7.4725 C   0  0  0  0  0  0  0  0  0  0  0  0
  -11.8339    3.0249   -8.6242 C   0  0  0  0  0  0  0  0  0  0  0  0
  -12.6784    4.0866   -9.1874 N   0  0  0  0  0  0  0  0  0  0  0  0
  -11.4902    3.8250   -6.2392 C   0  0  0  0  0  0  0  0  0  0  0  0
  -10.4914    4.3392   -5.4559 N   0  0  0  0  0  0  0  0  0  0  0  0
   -5.8449    5.3038   -6.3778 N   0  0  0  0  0  0  0  0  0  0  0  0
  1  6  1  0  0  0  0
  2  1  1  0  0  0  0
  3  4  1  0  0  0  0
  3  2  2  0  0  0  0
  4  5  2  0  0  0  0
  5  8  1  0  0  0  0
  5  6  1  0  0  0  0
  6  7  2  0  0  0  0
  8  9  1  0  0  0  0
  9 10  1  0  0  0  0
 11  8  2  0  0  0  0
 12  4  1  0  0  0  0
 12 11  1  0  0  0  0
 13  2  1  0  0  0  0
M  END
>  <CHROM.1>
-103.13194067,150.86065299,-9.37135697,4.18006052,-7.38662658,-0.32391006
-0.16955973,-1.78846118

>  <Name>
lig.pdb

>  <RI>
0

>  <Rbt.Current_Directory>
/home/itssahil/PROJECTS/Mol_Feturizer/New_Systems/rnas/2miy

>  <Rbt.Executable>
rbdock ($Id: //depot/dev/client3/rdock/2013.1/src/exe/rbdock.cxx#4 $)

>  <Rbt.Library>
libRbt.so (2013.1, Build901 2013/11/27)

>  <Rbt.Parameter_File>
/export/apps/rDock/src/rDock_2013.1_src/data/scripts/dock_solv.prm

>  <Rbt.Receptor>
prm/pocket_docking_2.prm

>  <SCORE>
-24.2397

>  <SCORE.INTER>
-26.6196

>  <SCORE.INTER.CONST>
1

>  <SCORE.INTER.POLAR>
-4.00392

>  <SCORE.INTER.ROT>
2

>  <SCORE.INTER.SOLV>
17.1851

>  <SCORE.INTER.VDW>
-15.0617

>  <SCORE.INTER.norm>
-2.04766

>  <SCORE.INTRA>
2.32485

>  <SCORE.INTRA.DIHEDRAL>
1.50966

>  <SCORE.INTRA.DIHEDRAL.0>
1.76676

>  <SCORE.INTRA.POLAR>
0.472211

>  <SCORE.INTRA.POLAR.0>
-0.472211

>  <SCORE.INTRA.REPUL>
0

>  <SCORE.INTRA.REPUL.0>
0

>  <SCORE.INTRA.SOLV>
-0.55834

>  <SCORE.INTRA.SOLV.lig_0>
-22.5855

>  <SCORE.INTRA.VDW>
0.243675

>  <SCORE.INTRA.VDW.0>
-0.733656

>  <SCORE.INTRA.norm>
0.178835

>  <SCORE.RESTR>
0.0550631

>  <SCORE.RESTR.CAVITY>
0.0550631

>  <SCORE.RESTR.norm>
0.00423563

>  <SCORE.SYSTEM>
0

>  <SCORE.SYSTEM.CONST>
0

>  <SCORE.SYSTEM.DIHEDRAL>
0

>  <SCORE.SYSTEM.SOLV>
0

>  <SCORE.SYSTEM.norm>
0

>  <SCORE.heavy>
13

>  <SCORE.norm>
-1.86459

>  <RMSD>
4.745

$$$$
lig.pdb
 OpenBabel11021811453D
libRbt.so/2013.1/901 2013/11/27
 13 14  0  0  0  0  0  0  0  0999 V2000
   -7.3068    4.3935   -8.0114 N   0  0  0  0  0  0  0  0  0  0  0  0
   -7.0896    4.8505   -6.7424 C   0  0  0  0  0  0  0  0  0  0  0  0
   -8.0735    4.8609   -5.8611 N   0  0  0  0  0  0  0  0  0  0  0  0
   -9.3327    4.4251   -6.1710 C   0  0  0  0  0  0  0  0  0  0  0  0
   -9.6148    3.9465   -7.4735 C   0  0  0  0  0  0  0  0  0  0  0  0
   -8.5453    3.9380   -8.4190 C   0  0  0  0  0  0  0  0  0  0  0  0
   -8.7209    3.5405   -9.5574 O   0  0  0  0  0  0  0  0  0  0  0  0
  -11.0339    3.5725   -7.4822 C   0  0  0  0  0  0  0  0  0  0  0  0
  -11.8342    3.0263   -8.6350 C   0  0  0  0  0  0  0  0  0  0  0  0
  -12.6779    4.0900   -9.1958 N   0  0  0  0  0  0  0  0  0  0  0  0
  -11.4895    3.8198   -6.2479 C   0  0  0  0  0  0  0  0  0  0  0  0
  -10.4904    4.3319   -5.4636 N   0  0  0  0  0  0  0  0  0  0  0  0
   -5.8446    5.3000   -6.3850 N   0  0  0  0  0  0  0  0  0  0  0  0
  1  6  1  0  0  0  0
  2  1  1  0  0  0  0
  3  4  1  0  0  0  0
  3  2  2  0  0  0  0
  4  5  2  0  0  0  0
  5  8  1  0  0  0  0
  5  6  1  0  0  0  0
  6  7  2  0  0  0  0
  8  9  1  0  0  0  0
  9 10  1  0  0  0  0
 11  8  2  0  0  0  0
 12  4  1  0  0  0  0
 12 11  1  0  0  0  0
 13  2  1  0  0  0  0
M  END
>  <CHROM.1>
-103.06292895,152.32640058,-9.37115522,4.17852204,-7.39541463,-0.32364841
-0.16986196,-1.78549928

>  <Name>
lig.pdb

>  <RI>
0

>  <Rbt.Current_Directory>
/home/itssahil/PROJECTS/Mol_Feturizer/New_Systems/rnas/2miy

>  <Rbt.Executable>
rbdock ($Id: //depot/dev/client3/rdock/2013.1/src/exe/rbdock.cxx#4 $)

>  <Rbt.Library>
libRbt.so (2013.1, Build901 2013/11/27)

>  <Rbt.Parameter_File>
/export/apps/rDock/src/rDock_2013.1_src/data/scripts/dock_solv.prm

>  <Rbt.Receptor>
prm/pocket_docking_2.prm

>  <SCORE>
-24.237

>  <SCORE.INTER>
-26.6188

>  <SCORE.INTER.CONST>
1

>  <SCORE.INTER.POLAR>
-3.97405

>  <SCORE.INTER.ROT>
2

>  <SCORE.INTER.SOLV>
17.2004

>  <SCORE.INTER.VDW>
-15.1658

>  <SCORE.INTER.norm>
-2.0476

>  <SCORE.INTRA>
2.32635

>  <SCORE.INTRA.DIHEDRAL>
1.50636

>  <SCORE.INTRA.DIHEDRAL.0>
1.76676

>  <SCORE.INTRA.POLAR>
0.472211

>  <SCORE.INTRA.POLAR.0>
-0.472211

>  <SCORE.INTRA.REPUL>
0

>  <SCORE.INTRA.REPUL.0>
0

>  <SCORE.INTRA.SOLV>
-0.557855

>  <SCORE.INTRA.SOLV.lig_0>
-22.5855

>  <SCORE.INTRA.VDW>
0.246582

>  <SCORE.INTRA.VDW.0>
-0.733656

>  <SCORE.INTRA.norm>
0.17895

>  <SCORE.RESTR>
0.0554235

>  <SCORE.RESTR.CAVITY>
0.0554235

>  <SCORE.RESTR.norm>
0.00426335

>  <SCORE.SYSTEM>
0

>  <SCORE.SYSTEM.CONST>
0

>  <SCORE.SYSTEM.DIHEDRAL>
0

>  <SCORE.SYSTEM.SOLV>
0

>  <SCORE.SYSTEM.norm>
0

>  <SCORE.heavy>
13

>  <SCORE.norm>
-1.86439

>  <RMSD>
4.745

$$$$
lig.pdb
 OpenBabel11021811453D
libRbt.so/2013.1/901 2013/11/27
 13 14  0  0  0  0  0  0  0  0999 V2000
   -7.3033    4.3498   -8.0265 N   0  0  0  0  0  0  0  0  0  0  0  0
   -7.0807    4.8188   -6.7628 C   0  0  0  0  0  0  0  0  0  0  0  0
   -8.0635    4.8478   -5.8808 N   0  0  0  0  0  0  0  0  0  0  0  0
   -9.3269    4.4201   -6.1847 C   0  0  0  0  0  0  0  0  0  0  0  0
   -9.6146    3.9298   -7.4816 C   0  0  0  0  0  0  0  0  0  0  0  0
   -8.5462    3.9012   -8.4279 C   0  0  0  0  0  0  0  0  0  0  0  0
   -8.7266    3.4928   -9.5618 O   0  0  0  0  0  0  0  0  0  0  0  0
  -11.0371    3.5687   -7.4849 C   0  0  0  0  0  0  0  0  0  0  0  0
  -11.8434    3.0171   -8.6310 C   0  0  0  0  0  0  0  0  0  0  0  0
  -12.6796    4.0816   -9.2014 N   0  0  0  0  0  0  0  0  0  0  0  0
  -11.4892    3.8336   -6.2530 C   0  0  0  0  0  0  0  0  0  0  0  0
  -10.4848    4.3452   -5.4753 N   0  0  0  0  0  0  0  0  0  0  0  0
   -5.8312    5.2609   -6.4115 N   0  0  0  0  0  0  0  0  0  0  0  0
  1  6  1  0  0  0  0
  2  1  1  0  0  0  0
  3  4  1  0  0  0  0
  3  2  2  0  0  0  0
  4  5  2  0  0  0  0
  5  8  1  0  0  0  0
  5  6  1  0  0  0  0
  6  7  2  0  0  0  0
  8  9  1  0  0  0  0
  9 10  1  0  0  0  0
 11  8  2  0  0  0  0
 12  4  1  0  0  0  0
 12 11  1  0  0  0  0
 13  2  1  0  0  0  0
M  END
>  <CHROM.1>
-103.14784982,150.76089658,-9.36899652,4.16038622,-7.40620892,-0.32050280
-0.16118963,-1.79607817

>  <Name>
lig.pdb

>  <RI>
1.82164e+07

>  <Rbt.Current_Directory>
/home/itssahil/PROJECTS/Mol_Feturizer/New_Systems/rnas/2miy

>  <Rbt.Executable>
rbdock ($Id: //depot/dev/client3/rdock/2013.1/src/exe/rbdock.cxx#4 $)

>  <Rbt.Library>
libRbt.so (2013.1, Build901 2013/11/27)

>  <Rbt.Parameter_File>
/export/apps/rDock/src/rDock_2013.1_src/data/scripts/dock_solv.prm

>  <Rbt.Receptor>
prm/blind_docking_80.prm

>  <SCORE>
-23.617

>  <SCORE.INTER>
-26.5333

>  <SCORE.INTER.CONST>
1

>  <SCORE.INTER.POLAR>
-3.96697

>  <SCORE.INTER.ROT>
2

>  <SCORE.INTER.SOLV>
17.2029

>  <SCORE.INTER.VDW>
-15.1333

>  <SCORE.INTER.norm>
-2.04102

>  <SCORE.INTRA>
2.32501

>  <SCORE.INTRA.DIHEDRAL>
1.51038

>  <SCORE.INTRA.DIHEDRAL.0>
1.76676

>  <SCORE.INTRA.POLAR>
0.472211

>  <SCORE.INTRA.POLAR.0>
-0.472211

>  <SCORE.INTRA.REPUL>
0

>  <SCORE.INTRA.REPUL.0>
0

>  <SCORE.INTRA.SOLV>
-0.558426

>  <SCORE.INTRA.SOLV.lig_0>
-22.5855

>  <SCORE.INTRA.VDW>
0.243521

>  <SCORE.INTRA.VDW.0>
-0.733656

>  <SCORE.INTRA.norm>
0.178847

>  <SCORE.RESTR>
0.591321

>  <SCORE.RESTR.CAVITY>
0.591321

>  <SCORE.RESTR.norm>
0.0454862

>  <SCORE.SYSTEM>
0

>  <SCORE.SYSTEM.CONST>
0

>  <SCORE.SYSTEM.DIHEDRAL>
0

>  <SCORE.SYSTEM.SOLV>
0

>  <SCORE.SYSTEM.norm>
0

>  <SCORE.heavy>
13

>  <SCORE.norm>
-1.81669

>  <RMSD>
4.746

$$$$
lig.pdb
 OpenBabel11021811453D
libRbt.so/2013.1/901 2013/11/27
 13 14  0  0  0  0  0  0  0  0999 V2000
   -7.3012    4.3563   -8.0288 N   0  0  0  0  0  0  0  0  0  0  0  0
   -7.0791    4.8222   -6.7639 C   0  0  0  0  0  0  0  0  0  0  0  0
   -8.0616    4.8465   -5.8813 N   0  0  0  0  0  0  0  0  0  0  0  0
   -9.3241    4.4168   -6.1859 C   0  0  0  0  0  0  0  0  0  0  0  0
   -9.6113    3.9294   -7.4841 C   0  0  0  0  0  0  0  0  0  0  0  0
   -8.5433    3.9059   -8.4309 C   0  0  0  0  0  0  0  0  0  0  0  0
   -8.7232    3.5002   -9.5658 O   0  0  0  0  0  0  0  0  0  0  0  0
  -11.0330    3.5650   -7.4877 C   0  0  0  0  0  0  0  0  0  0  0  0
  -11.8385    3.0148   -8.6349 C   0  0  0  0  0  0  0  0  0  0  0  0
  -12.6862    4.0760   -9.1944 N   0  0  0  0  0  0  0  0  0  0  0  0
  -11.4851    3.8255   -6.2549 C   0  0  0  0  0  0  0  0  0  0  0  0
  -10.4815    4.3372   -5.4762 N   0  0  0  0  0  0  0  0  0  0  0  0
   -5.8305    5.2662   -6.4119 N   0  0  0  0  0  0  0  0  0  0  0  0
  1  6  1  0  0  0  0
  2  1  1  0  0  0  0
  3  4  1  0  0  0  0
  3  2  2  0  0  0  0
  4  5  2  0  0  0  0
  5  8  1  0  0  0  0
  5  6  1  0  0  0  0
  6  7  2  0  0  0  0
  8  9  1  0  0  0  0
  9 10  1  0  0  0  0
 11  8  2  0  0  0  0
 12  4  1  0  0  0  0
 12 11  1  0  0  0  0
 13  2  1  0  0  0  0
M  END
>  <CHROM.1>
-103.64734301,-28.52514521,-9.36713071,4.15997823,-7.40734388,-0.31974690
-0.16341319,-1.79405758

>  <Name>
lig.pdb

>  <RI>
1.82164e+07

>  <Rbt.Current_Directory>
/home/itssahil/PROJECTS/Mol_Feturizer/New_Systems/rnas/2miy

>  <Rbt.Executable>
rbdock ($Id: //depot/dev/client3/rdock/2013.1/src/exe/rbdock.cxx#4 $)

>  <Rbt.Library>
libRbt.so (2013.1, Build901 2013/11/27)

>  <Rbt.Parameter_File>
/export/apps/rDock/src/rDock_2013.1_src/data/scripts/dock_solv.prm

>  <Rbt.Receptor>
prm/blind_docking_80.prm

>  <SCORE>
-23.3798

>  <SCORE.INTER>
-26.2807

>  <SCORE.INTER.CONST>
1

>  <SCORE.INTER.POLAR>
-3.94795

>  <SCORE.INTER.ROT>
2

>  <SCORE.INTER.SOLV>
17.2149

>  <SCORE.INTER.VDW>
-15.0322

>  <SCORE.INTER.norm>
-2.02159

>  <SCORE.INTRA>
2.30685

>  <SCORE.INTRA.DIHEDRAL>
1.4717

>  <SCORE.INTRA.DIHEDRAL.0>
1.76676

>  <SCORE.INTRA.POLAR>
0.472211

>  <SCORE.INTRA.POLAR.0>
-0.472211

>  <SCORE.INTRA.REPUL>
0

>  <SCORE.INTRA.REPUL.0>
0

>  <SCORE.INTRA.SOLV>
-0.560837

>  <SCORE.INTRA.SOLV.lig_0>
-22.5855

>  <SCORE.INTRA.VDW>
0.2459

>  <SCORE.INTRA.VDW.0>
-0.733656

>  <SCORE.INTRA.norm>
0.17745

>  <SCORE.RESTR>
0.594046

>  <SCORE.RESTR.CAVITY>
0.594046

>  <SCORE.RESTR.norm>
0.0456959

>  <SCORE.SYSTEM>
0

>  <SCORE.SYSTEM.CONST>
0

>  <SCORE.SYSTEM.DIHEDRAL>
0

>  <SCORE.SYSTEM.SOLV>
0

>  <SCORE.SYSTEM.norm>
0

>  <SCORE.heavy>
13

>  <SCORE.norm>
-1.79844

>  <RMSD>
4.746

$$$$
lig.pdb
 OpenBabel11021811453D
libRbt.so/2013.1/901 2013/11/27
 13 14  0  0  0  0  0  0  0  0999 V2000
   -7.2813    4.4191   -7.9815 N   0  0  0  0  0  0  0  0  0  0  0  0
   -7.0779    4.8856   -6.7137 C   0  0  0  0  0  0  0  0  0  0  0  0
   -8.0689    4.8941   -5.8404 N   0  0  0  0  0  0  0  0  0  0  0  0
   -9.3223    4.4470   -6.1577 C   0  0  0  0  0  0  0  0  0  0  0  0
   -9.5902    3.9582   -7.4595 C   0  0  0  0  0  0  0  0  0  0  0  0
   -8.5130    3.9519   -8.3962 C   0  0  0  0  0  0  0  0  0  0  0  0
   -8.6764    3.5459   -9.5335 O   0  0  0  0  0  0  0  0  0  0  0  0
  -11.0064    3.5736   -7.4773 C   0  0  0  0  0  0  0  0  0  0  0  0
  -11.7932    3.0143   -8.6331 C   0  0  0  0  0  0  0  0  0  0  0  0
  -12.6780    4.0541   -9.1749 N   0  0  0  0  0  0  0  0  0  0  0  0
  -11.4739    3.8251   -6.2483 C   0  0  0  0  0  0  0  0  0  0  0  0
  -10.4850    4.3495   -5.4592 N   0  0  0  0  0  0  0  0  0  0  0  0
   -5.8391    5.3466   -6.3490 N   0  0  0  0  0  0  0  0  0  0  0  0
  1  6  1  0  0  0  0
  2  1  1  0  0  0  0
  3  4  1  0  0  0  0
  3  2  2  0  0  0  0
  4  5  2  0  0  0  0
  5  8  1  0  0  0  0
  5  6  1  0  0  0  0
  6  7  2  0  0  0  0
  8  9  1  0  0  0  0
  9 10  1  0  0  0  0
 11  8  2  0  0  0  0
 12  4  1  0  0  0  0
 12 11  1  0  0  0  0
 13  2  1  0  0  0  0
M  END
>  <CHROM.1>
-105.20613516,-27.36720489,-9.35261486,4.19112773,-7.37782017,-0.32978407
-0.17493903,-1.79630545

>  <Name>
lig.pdb

>  <RI>
0

>  <Rbt.Current_Directory>
/home/itssahil/PROJECTS/Mol_Feturizer/New_Systems/rnas/2miy

>  <Rbt.Executable>
rbdock ($Id: //depot/dev/client3/rdock/2013.1/src/exe/rbdock.cxx#4 $)

>  <Rbt.Library>
libRbt.so (2013.1, Build901 2013/11/27)

>  <Rbt.Parameter_File>
/export/apps/rDock/src/rDock_2013.1_src/data/scripts/dock_solv.prm

>  <Rbt.Receptor>
prm/pocket_docking_2.prm

>  <SCORE>
-24.1662

>  <SCORE.INTER>
-26.572

>  <SCORE.INTER.CONST>
1

>  <SCORE.INTER.POLAR>
-4.06768

>  <SCORE.INTER.ROT>
2

>  <SCORE.INTER.SOLV>
17.2376

>  <SCORE.INTER.VDW>
-14.835

>  <SCORE.INTER.norm>
-2.044

>  <SCORE.INTRA>
2.34495

>  <SCORE.INTRA.DIHEDRAL>
1.5367

>  <SCORE.INTRA.DIHEDRAL.0>
1.76676

>  <SCORE.INTRA.POLAR>
0.472211

>  <SCORE.INTRA.POLAR.0>
-0.472211

>  <SCORE.INTRA.REPUL>
0

>  <SCORE.INTRA.REPUL.0>
0

>  <SCORE.INTRA.SOLV>
-0.567878

>  <SCORE.INTRA.SOLV.lig_0>
-22.5855

>  <SCORE.INTRA.VDW>
0.255028

>  <SCORE.INTRA.VDW.0>
-0.733656

>  <SCORE.INTRA.norm>
0.180381

>  <SCORE.RESTR>
0.0608544

>  <SCORE.RESTR.CAVITY>
0.0608544

>  <SCORE.RESTR.norm>
0.00468111

>  <SCORE.SYSTEM>
0

>  <SCORE.SYSTEM.CONST>
0

>  <SCORE.SYSTEM.DIHEDRAL>
0

>  <SCORE.SYSTEM.SOLV>
0

>  <SCORE.SYSTEM.norm>
0

>  <SCORE.heavy>
13

>  <SCORE.norm>
-1.85894

>  <RMSD>
4.746

$$$$
lig.pdb
 OpenBabel11021811453D
libRbt.so/2013.1/901 2013/11/27
 13 14  0  0  0  0  0  0  0  0999 V2000
   -7.2836    4.4204   -7.9770 N   0  0  0  0  0  0  0  0  0  0  0  0
   -7.0785    4.8884   -6.7100 C   0  0  0  0  0  0  0  0  0  0  0  0
   -8.0682    4.8971   -5.8352 N   0  0  0  0  0  0  0  0  0  0  0  0
   -9.3217    4.4487   -6.1501 C   0  0  0  0  0  0  0  0  0  0  0  0
   -9.5913    3.9584   -7.4509 C   0  0  0  0  0  0  0  0  0  0  0  0
   -8.5156    3.9519   -8.3893 C   0  0  0  0  0  0  0  0  0  0  0  0
   -8.6805    3.5447   -9.5259 O   0  0  0  0  0  0  0  0  0  0  0  0
  -11.0073    3.5727   -7.4661 C   0  0  0  0  0  0  0  0  0  0  0  0
  -11.7954    3.0116   -8.6201 C   0  0  0  0  0  0  0  0  0  0  0  0
  -12.6745    4.0532   -9.1680 N   0  0  0  0  0  0  0  0  0  0  0  0
  -11.4730    3.8252   -6.2366 C   0  0  0  0  0  0  0  0  0  0  0  0
  -10.4833    4.3511   -5.4496 N   0  0  0  0  0  0  0  0  0  0  0  0
   -5.8396    5.3507   -6.3478 N   0  0  0  0  0  0  0  0  0  0  0  0
  1  6  1  0  0  0  0
  2  1  1  0  0  0  0
  3  4  1  0  0  0  0
  3  2  2  0  0  0  0
  4  5  2  0  0  0  0
  5  8  1  0  0  0  0
  5  6  1  0  0  0  0
  6  7  2  0  0  0  0
  8  9  1  0  0  0  0
  9 10  1  0  0  0  0
 11  8  2  0  0  0  0
 12  4  1  0  0  0  0
 12 11  1  0  0  0  0
 13  2  1  0  0  0  0
M  END
>  <CHROM.1>
-104.77997286,-27.12563607,-9.35309914,4.19184033,-7.37044561,-0.32909971
-0.17607338,-1.79653174

>  <Name>
lig.pdb

>  <RI>
0

>  <Rbt.Current_Directory>
/home/itssahil/PROJECTS/Mol_Feturizer/New_Systems/rnas/2miy

>  <Rbt.Executable>
rbdock ($Id: //depot/dev/client3/rdock/2013.1/src/exe/rbdock.cxx#4 $)

>  <Rbt.Library>
libRbt.so (2013.1, Build901 2013/11/27)

>  <Rbt.Parameter_File>
/export/apps/rDock/src/rDock_2013.1_src/data/scripts/dock_solv.prm

>  <Rbt.Receptor>
prm/pocket_docking_2.prm

>  <SCORE>
-24.1443

>  <SCORE.INTER>
-26.5408

>  <SCORE.INTER.CONST>
1

>  <SCORE.INTER.POLAR>
-4.06103

>  <SCORE.INTER.ROT>
2

>  <SCORE.INTER.SOLV>
17.2232

>  <SCORE.INTER.VDW>
-14.8315

>  <SCORE.INTER.norm>
-2.0416

>  <SCORE.INTRA>
2.33605

>  <SCORE.INTRA.DIHEDRAL>
1.51956

>  <SCORE.INTRA.DIHEDRAL.0>
1.76676

>  <SCORE.INTRA.POLAR>
0.472211

>  <SCORE.INTRA.POLAR.0>
-0.472211

>  <SCORE.INTRA.REPUL>
0

>  <SCORE.INTRA.REPUL.0>
0

>  <SCORE.INTRA.SOLV>
-0.565904

>  <SCORE.INTRA.SOLV.lig_0>
-22.5855

>  <SCORE.INTRA.VDW>
0.253707

>  <SCORE.INTRA.VDW.0>
-0.733656

>  <SCORE.INTRA.norm>
0.179697

>  <SCORE.RESTR>
0.0604456

>  <SCORE.RESTR.CAVITY>
0.0604456

>  <SCORE.RESTR.norm>
0.00464966

>  <SCORE.SYSTEM>
0

>  <SCORE.SYSTEM.CONST>
0

>  <SCORE.SYSTEM.DIHEDRAL>
0

>  <SCORE.SYSTEM.SOLV>
0

>  <SCORE.SYSTEM.norm>
0

>  <SCORE.heavy>
13

>  <SCORE.norm>
-1.85725

>  <RMSD>
4.746

$$$$
lig.pdb
 OpenBabel11021811453D
libRbt.so/2013.1/901 2013/11/27
 13 14  0  0  0  0  0  0  0  0999 V2000
   -7.3313    4.3295   -8.0967 N   0  0  0  0  0  0  0  0  0  0  0  0
   -7.1020    4.7617   -6.8212 C   0  0  0  0  0  0  0  0  0  0  0  0
   -8.0817    4.7712   -5.9352 N   0  0  0  0  0  0  0  0  0  0  0  0
   -9.3484    4.3587   -6.2466 C   0  0  0  0  0  0  0  0  0  0  0  0
   -9.6430    3.9065   -7.5557 C   0  0  0  0  0  0  0  0  0  0  0  0
   -8.5780    3.8988   -8.5061 C   0  0  0  0  0  0  0  0  0  0  0  0
   -8.7643    3.5232   -9.6504 O   0  0  0  0  0  0  0  0  0  0  0  0
  -11.0675    3.5530   -7.5642 C   0  0  0  0  0  0  0  0  0  0  0  0
  -11.8805    3.0379   -8.7224 C   0  0  0  0  0  0  0  0  0  0  0  0
  -12.6985    4.1271   -9.2720 N   0  0  0  0  0  0  0  0  0  0  0  0
  -11.5140    3.7857   -6.3238 C   0  0  0  0  0  0  0  0  0  0  0  0
  -10.5043    4.2700   -5.5356 N   0  0  0  0  0  0  0  0  0  0  0  0
   -5.8491    5.1873   -6.4619 N   0  0  0  0  0  0  0  0  0  0  0  0
  1  6  1  0  0  0  0
  2  1  1  0  0  0  0
  3  4  1  0  0  0  0
  3  2  2  0  0  0  0
  4  5  2  0  0  0  0
  5  8  1  0  0  0  0
  5  6  1  0  0  0  0
  6  7  2  0  0  0  0
  8  9  1  0  0  0  0
  9 10  1  0  0  0  0
 11  8  2  0  0  0  0
 12  4  1  0  0  0  0
 12 11  1  0  0  0  0
 13  2  1  0  0  0  0
M  END
>  <CHROM.1>
-102.34551570,-28.29061317,-9.39473928,4.13389763,-7.47584614,-0.31736302
-0.15693049,-1.76646320

>  <Name>
lig.pdb

>  <RI>
0

>  <Rbt.Current_Directory>
/home/itssahil/PROJECTS/Mol_Feturizer/New_Systems/rnas/2miy

>  <Rbt.Executable>
rbdock ($Id: //depot/dev/client3/rdock/2013.1/src/exe/rbdock.cxx#4 $)

>  <Rbt.Library>
libRbt.so (2013.1, Build901 2013/11/27)

>  <Rbt.Parameter_File>
/export/apps/rDock/src/rDock_2013.1_src/data/scripts/dock_solv.prm

>  <Rbt.Receptor>
prm/blind_docking_60.prm

>  <SCORE>
-21.4493

>  <SCORE.INTER>
-25.2741

>  <SCORE.INTER.CONST>
1

>  <SCORE.INTER.POLAR>
-3.77846

>  <SCORE.INTER.ROT>
2

>  <SCORE.INTER.SOLV>
17.2512

>  <SCORE.INTER.VDW>
-14.9383

>  <SCORE.INTER.norm>
-1.94416

>  <SCORE.INTRA>
2.27628

>  <SCORE.INTRA.DIHEDRAL>
1.41392

>  <SCORE.INTRA.DIHEDRAL.0>
1.76676

>  <SCORE.INTRA.POLAR>
0.472211

>  <SCORE.INTRA.POLAR.0>
-0.472211

>  <SCORE.INTRA.REPUL>
0

>  <SCORE.INTRA.REPUL.0>
0

>  <SCORE.INTRA.SOLV>
-0.55471

>  <SCORE.INTRA.SOLV.lig_0>
-22.5855

>  <SCORE.INTRA.VDW>
0.241161

>  <SCORE.INTRA.VDW.0>
-0.733656

>  <SCORE.INTRA.norm>
0.175099

>  <SCORE.RESTR>
1.54857

>  <SCORE.RESTR.CAVITY>
1.54857

>  <SCORE.RESTR.norm>
0.11912

>  <SCORE.SYSTEM>
0

>  <SCORE.SYSTEM.CONST>
0

>  <SCORE.SYSTEM.DIHEDRAL>
0

>  <SCORE.SYSTEM.SOLV>
0

>  <SCORE.SYSTEM.norm>
0

>  <SCORE.heavy>
13

>  <SCORE.norm>
-1.64994

>  <RMSD>
4.748

$$$$
lig.pdb
 OpenBabel11021811453D
libRbt.so/2013.1/901 2013/11/27
 13 14  0  0  0  0  0  0  0  0999 V2000
   -7.3348    4.3349   -8.0994 N   0  0  0  0  0  0  0  0  0  0  0  0
   -7.1060    4.7682   -6.8242 C   0  0  0  0  0  0  0  0  0  0  0  0
   -8.0864    4.7795   -5.9390 N   0  0  0  0  0  0  0  0  0  0  0  0
   -9.3532    4.3680   -6.2509 C   0  0  0  0  0  0  0  0  0  0  0  0
   -9.6474    3.9147   -7.5597 C   0  0  0  0  0  0  0  0  0  0  0  0
   -8.5816    3.9050   -8.5094 C   0  0  0  0  0  0  0  0  0  0  0  0
   -8.7675    3.5284   -9.6533 O   0  0  0  0  0  0  0  0  0  0  0  0
  -11.0721    3.5626   -7.5688 C   0  0  0  0  0  0  0  0  0  0  0  0
  -11.8848    3.0472   -8.7271 C   0  0  0  0  0  0  0  0  0  0  0  0
  -12.7031    4.1361   -9.2771 N   0  0  0  0  0  0  0  0  0  0  0  0
  -11.5194    3.7970   -6.3290 C   0  0  0  0  0  0  0  0  0  0  0  0
  -10.5097    4.2812   -5.5406 N   0  0  0  0  0  0  0  0  0  0  0  0
   -5.8529    5.1929   -6.4645 N   0  0  0  0  0  0  0  0  0  0  0  0
  1  6  1  0  0  0  0
  2  1  1  0  0  0  0
  3  4  1  0  0  0  0
  3  2  2  0  0  0  0
  4  5  2  0  0  0  0
  5  8  1  0  0  0  0
  5  6  1  0  0  0  0
  6  7  2  0  0  0  0
  8  9  1  0  0  0  0
  9 10  1  0  0  0  0
 11  8  2  0  0  0  0
 12  4  1  0  0  0  0
 12 11  1  0  0  0  0
 13  2  1  0  0  0  0
M  END
>  <CHROM.1>
-102.43803790,149.96622938,-9.39891744,4.14199524,-7.47979264,-0.31769801
-0.15580013,-1.76754889

>  <Name>
lig.pdb

>  <RI>
1.8118e+07

>  <Rbt.Current_Directory>
/home/itssahil/PROJECTS/Mol_Feturizer/New_Systems/rnas/2miy

>  <Rbt.Executable>
rbdock ($Id: //depot/dev/client3/rdock/2013.1/src/exe/rbdock.cxx#4 $)

>  <Rbt.Library>
libRbt.so (2013.1, Build901 2013/11/27)

>  <Rbt.Parameter_File>
/export/apps/rDock/src/rDock_2013.1_src/data/scripts/dock_solv.prm

>  <Rbt.Receptor>
prm/blind_docking_100.prm

>  <SCORE>
-21.8073

>  <SCORE.INTER>
-25.651

>  <SCORE.INTER.CONST>
1

>  <SCORE.INTER.POLAR>
-3.85377

>  <SCORE.INTER.ROT>
2

>  <SCORE.INTER.SOLV>
17.2664

>  <SCORE.INTER.VDW>
-14.9436

>  <SCORE.INTER.norm>
-1.97315

>  <SCORE.INTRA>
2.30618

>  <SCORE.INTRA.DIHEDRAL>
1.47863

>  <SCORE.INTRA.DIHEDRAL.0>
1.76676

>  <SCORE.INTRA.POLAR>
0.472211

>  <SCORE.INTRA.POLAR.0>
-0.472211

>  <SCORE.INTRA.REPUL>
0

>  <SCORE.INTRA.REPUL.0>
0

>  <SCORE.INTRA.SOLV>
-0.555189

>  <SCORE.INTRA.SOLV.lig_0>
-22.5855

>  <SCORE.INTRA.VDW>
0.238938

>  <SCORE.INTRA.VDW.0>
-0.733656

>  <SCORE.INTRA.norm>
0.177398

>  <SCORE.RESTR>
1.53754

>  <SCORE.RESTR.CAVITY>
1.53754

>  <SCORE.RESTR.norm>
0.118273

>  <SCORE.SYSTEM>
0

>  <SCORE.SYSTEM.CONST>
0

>  <SCORE.SYSTEM.DIHEDRAL>
0

>  <SCORE.SYSTEM.SOLV>
0

>  <SCORE.SYSTEM.norm>
0

>  <SCORE.heavy>
13

>  <SCORE.norm>
-1.67748

>  <RMSD>
4.749

$$$$
lig.pdb
 OpenBabel11021811453D
libRbt.so/2013.1/901 2013/11/27
 13 14  0  0  0  0  0  0  0  0999 V2000
   -7.3359    4.3329   -8.0982 N   0  0  0  0  0  0  0  0  0  0  0  0
   -7.1062    4.7663   -6.8231 C   0  0  0  0  0  0  0  0  0  0  0  0
   -8.0861    4.7781   -5.9374 N   0  0  0  0  0  0  0  0  0  0  0  0
   -9.3533    4.3670   -6.2485 C   0  0  0  0  0  0  0  0  0  0  0  0
   -9.6483    3.9136   -7.5571 C   0  0  0  0  0  0  0  0  0  0  0  0
   -8.5831    3.9034   -8.5073 C   0  0  0  0  0  0  0  0  0  0  0  0
   -8.7697    3.5267   -9.6511 O   0  0  0  0  0  0  0  0  0  0  0  0
  -11.0732    3.5620   -7.5653 C   0  0  0  0  0  0  0  0  0  0  0  0
  -11.8867    3.0466   -8.7231 C   0  0  0  0  0  0  0  0  0  0  0  0
  -12.7022    4.1366   -9.2750 N   0  0  0  0  0  0  0  0  0  0  0  0
  -11.5197    3.7968   -6.3253 C   0  0  0  0  0  0  0  0  0  0  0  0
  -10.5094    4.2807   -5.5375 N   0  0  0  0  0  0  0  0  0  0  0  0
   -5.8528    5.1906   -6.4642 N   0  0  0  0  0  0  0  0  0  0  0  0
  1  6  1  0  0  0  0
  2  1  1  0  0  0  0
  3  4  1  0  0  0  0
  3  2  2  0  0  0  0
  4  5  2  0  0  0  0
  5  8  1  0  0  0  0
  5  6  1  0  0  0  0
  6  7  2  0  0  0  0
  8  9  1  0  0  0  0
  9 10  1  0  0  0  0
 11  8  2  0  0  0  0
 12  4  1  0  0  0  0
 12 11  1  0  0  0  0
 13  2  1  0  0  0  0
M  END
>  <CHROM.1>
-102.28682097,-28.65806089,-9.39961183,4.14080405,-7.47752173,-0.31734683
-0.15560591,-1.76754943

>  <Name>
lig.pdb

>  <RI>
1.8118e+07

>  <Rbt.Current_Directory>
/home/itssahil/PROJECTS/Mol_Feturizer/New_Systems/rnas/2miy

>  <Rbt.Executable>
rbdock ($Id: //depot/dev/client3/rdock/2013.1/src/exe/rbdock.cxx#4 $)

>  <Rbt.Library>
libRbt.so (2013.1, Build901 2013/11/27)

>  <Rbt.Parameter_File>
/export/apps/rDock/src/rDock_2013.1_src/data/scripts/dock_solv.prm

>  <Rbt.Receptor>
prm/blind_docking_100.prm

>  <SCORE>
-21.4633

>  <SCORE.INTER>
-25.2767

>  <SCORE.INTER.CONST>
1

>  <SCORE.INTER.POLAR>
-3.76232

>  <SCORE.INTER.ROT>
2

>  <SCORE.INTER.SOLV>
17.2555

>  <SCORE.INTER.VDW>
-14.9952

>  <SCORE.INTER.norm>
-1.94436

>  <SCORE.INTRA>
2.27402

>  <SCORE.INTRA.DIHEDRAL>
1.41118

>  <SCORE.INTRA.DIHEDRAL.0>
1.76676

>  <SCORE.INTRA.POLAR>
0.472211

>  <SCORE.INTRA.POLAR.0>
-0.472211

>  <SCORE.INTRA.REPUL>
0

>  <SCORE.INTRA.REPUL.0>
0

>  <SCORE.INTRA.SOLV>
-0.554448

>  <SCORE.INTRA.SOLV.lig_0>
-22.5855

>  <SCORE.INTRA.VDW>
0.240134

>  <SCORE.INTRA.VDW.0>
-0.733656

>  <SCORE.INTRA.norm>
0.174924

>  <SCORE.RESTR>
1.53936

>  <SCORE.RESTR.CAVITY>
1.53936

>  <SCORE.RESTR.norm>
0.118412

>  <SCORE.SYSTEM>
0

>  <SCORE.SYSTEM.CONST>
0

>  <SCORE.SYSTEM.DIHEDRAL>
0

>  <SCORE.SYSTEM.SOLV>
0

>  <SCORE.SYSTEM.norm>
0

>  <SCORE.heavy>
13

>  <SCORE.norm>
-1.65102

>  <RMSD>
4.749

$$$$
lig.pdb
 OpenBabel11021811453D
libRbt.so/2013.1/901 2013/11/27
 13 14  0  0  0  0  0  0  0  0999 V2000
   -7.3439    4.3387   -8.0885 N   0  0  0  0  0  0  0  0  0  0  0  0
   -7.1170    4.7761   -6.8144 C   0  0  0  0  0  0  0  0  0  0  0  0
   -8.0971    4.7844   -5.9289 N   0  0  0  0  0  0  0  0  0  0  0  0
   -9.3619    4.3655   -6.2394 C   0  0  0  0  0  0  0  0  0  0  0  0
   -9.6540    3.9076   -7.5471 C   0  0  0  0  0  0  0  0  0  0  0  0
   -8.5885    3.9013   -8.4970 C   0  0  0  0  0  0  0  0  0  0  0  0
   -8.7728    3.5210   -9.6401 O   0  0  0  0  0  0  0  0  0  0  0  0
  -11.0769    3.5480   -7.5549 C   0  0  0  0  0  0  0  0  0  0  0  0
  -11.8873    3.0256   -8.7117 C   0  0  0  0  0  0  0  0  0  0  0  0
  -12.7018    4.1120   -9.2720 N   0  0  0  0  0  0  0  0  0  0  0  0
  -11.5250    3.7830   -6.3155 C   0  0  0  0  0  0  0  0  0  0  0  0
  -10.5176    4.2743   -5.5285 N   0  0  0  0  0  0  0  0  0  0  0  0
   -5.8660    5.2082   -6.4561 N   0  0  0  0  0  0  0  0  0  0  0  0
  1  6  1  0  0  0  0
  2  1  1  0  0  0  0
  3  4  1  0  0  0  0
  3  2  2  0  0  0  0
  4  5  2  0  0  0  0
  5  8  1  0  0  0  0
  5  6  1  0  0  0  0
  6  7  2  0  0  0  0
  8  9  1  0  0  0  0
  9 10  1  0  0  0  0
 11  8  2  0  0  0  0
 12  4  1  0  0  0  0
 12 11  1  0  0  0  0
 13  2  1  0  0  0  0
M  END
>  <CHROM.1>
-101.90460551,149.81352111,-9.40584547,4.13667193,-7.46851299,-0.31931148
-0.16114211,-1.76933019

>  <Name>
lig.pdb

>  <RI>
1.8118e+07

>  <Rbt.Current_Directory>
/home/itssahil/PROJECTS/Mol_Feturizer/New_Systems/rnas/2miy

>  <Rbt.Executable>
rbdock ($Id: //depot/dev/client3/rdock/2013.1/src/exe/rbdock.cxx#4 $)

>  <Rbt.Library>
libRbt.so (2013.1, Build901 2013/11/27)

>  <Rbt.Parameter_File>
/export/apps/rDock/src/rDock_2013.1_src/data/scripts/dock_solv.prm

>  <Rbt.Receptor>
prm/blind_docking_100.prm

>  <SCORE>
-21.885

>  <SCORE.INTER>
-25.7435

>  <SCORE.INTER.CONST>
1

>  <SCORE.INTER.POLAR>
-3.90008

>  <SCORE.INTER.ROT>
2

>  <SCORE.INTER.SOLV>
17.2311

>  <SCORE.INTER.VDW>
-14.8391

>  <SCORE.INTER.norm>
-1.98027

>  <SCORE.INTRA>
2.29285

>  <SCORE.INTRA.DIHEDRAL>
1.45412

>  <SCORE.INTRA.DIHEDRAL.0>
1.76676

>  <SCORE.INTRA.POLAR>
0.472211

>  <SCORE.INTRA.POLAR.0>
-0.472211

>  <SCORE.INTRA.REPUL>
0

>  <SCORE.INTRA.REPUL.0>
0

>  <SCORE.INTRA.SOLV>
-0.552469

>  <SCORE.INTRA.SOLV.lig_0>
-22.5855

>  <SCORE.INTRA.VDW>
0.236512

>  <SCORE.INTRA.VDW.0>
-0.733656

>  <SCORE.INTRA.norm>
0.176373

>  <SCORE.RESTR>
1.5656

>  <SCORE.RESTR.CAVITY>
1.5656

>  <SCORE.RESTR.norm>
0.120431

>  <SCORE.SYSTEM>
0

>  <SCORE.SYSTEM.CONST>
0

>  <SCORE.SYSTEM.DIHEDRAL>
0

>  <SCORE.SYSTEM.SOLV>
0

>  <SCORE.SYSTEM.norm>
0

>  <SCORE.heavy>
13

>  <SCORE.norm>
-1.68346

>  <RMSD>
4.749

$$$$
lig.pdb
 OpenBabel11021811453D
libRbt.so/2013.1/901 2013/11/27
 13 14  0  0  0  0  0  0  0  0999 V2000
   -7.3284    4.3291   -8.0941 N   0  0  0  0  0  0  0  0  0  0  0  0
   -7.0999    4.7656   -6.8198 C   0  0  0  0  0  0  0  0  0  0  0  0
   -8.0803    4.7785   -5.9347 N   0  0  0  0  0  0  0  0  0  0  0  0
   -9.3469    4.3654   -6.2456 C   0  0  0  0  0  0  0  0  0  0  0  0
   -9.6407    3.9087   -7.5534 C   0  0  0  0  0  0  0  0  0  0  0  0
   -8.5749    3.8974   -8.5030 C   0  0  0  0  0  0  0  0  0  0  0  0
   -8.7605    3.5179   -9.6460 O   0  0  0  0  0  0  0  0  0  0  0  0
  -11.0652    3.5557   -7.5617 C   0  0  0  0  0  0  0  0  0  0  0  0
  -11.8776    3.0370   -8.7188 C   0  0  0  0  0  0  0  0  0  0  0  0
  -12.6986    4.1233   -9.2696 N   0  0  0  0  0  0  0  0  0  0  0  0
  -11.5127    3.7928   -6.3225 C   0  0  0  0  0  0  0  0  0  0  0  0
  -10.5034    4.2795   -5.5352 N   0  0  0  0  0  0  0  0  0  0  0  0
   -5.8471    5.1920   -6.4611 N   0  0  0  0  0  0  0  0  0  0  0  0
  1  6  1  0  0  0  0
  2  1  1  0  0  0  0
  3  4  1  0  0  0  0
  3  2  2  0  0  0  0
  4  5  2  0  0  0  0
  5  8  1  0  0  0  0
  5  6  1  0  0  0  0
  6  7  2  0  0  0  0
  8  9  1  0  0  0  0
  9 10  1  0  0  0  0
 11  8  2  0  0  0  0
 12  4  1  0  0  0  0
 12 11  1  0  0  0  0
 13  2  1  0  0  0  0
M  END
>  <CHROM.1>
-102.55957734,150.11292097,-9.39259878,4.13631508,-7.47384989,-0.31766716
-0.15638393,-1.77015562

>  <Name>
lig.pdb

>  <RI>
0

>  <Rbt.Current_Directory>
/home/itssahil/PROJECTS/Mol_Feturizer/New_Systems/rnas/2miy

>  <Rbt.Executable>
rbdock ($Id: //depot/dev/client3/rdock/2013.1/src/exe/rbdock.cxx#4 $)

>  <Rbt.Library>
libRbt.so (2013.1, Build901 2013/11/27)

>  <Rbt.Parameter_File>
/export/apps/rDock/src/rDock_2013.1_src/data/scripts/dock_solv.prm

>  <Rbt.Receptor>
prm/blind_docking_60.prm

>  <SCORE>
-21.8883

>  <SCORE.INTER>
-25.7627

>  <SCORE.INTER.CONST>
1

>  <SCORE.INTER.POLAR>
-3.87406

>  <SCORE.INTER.ROT>
2

>  <SCORE.INTER.SOLV>
17.2575

>  <SCORE.INTER.VDW>
-14.9475

>  <SCORE.INTER.norm>
-1.98175

>  <SCORE.INTRA>
2.30945

>  <SCORE.INTRA.DIHEDRAL>
1.48413

>  <SCORE.INTRA.DIHEDRAL.0>
1.76676

>  <SCORE.INTRA.POLAR>
0.472211

>  <SCORE.INTRA.POLAR.0>
-0.472211

>  <SCORE.INTRA.REPUL>
0

>  <SCORE.INTRA.REPUL.0>
0

>  <SCORE.INTRA.SOLV>
-0.555743

>  <SCORE.INTRA.SOLV.lig_0>
-22.5855

>  <SCORE.INTRA.VDW>
0.239741

>  <SCORE.INTRA.VDW.0>
-0.733656

>  <SCORE.INTRA.norm>
0.17765

>  <SCORE.RESTR>
1.56502

>  <SCORE.RESTR.CAVITY>
1.56502

>  <SCORE.RESTR.norm>
0.120386

>  <SCORE.SYSTEM>
0

>  <SCORE.SYSTEM.CONST>
0

>  <SCORE.SYSTEM.DIHEDRAL>
0

>  <SCORE.SYSTEM.SOLV>
0

>  <SCORE.SYSTEM.norm>
0

>  <SCORE.heavy>
13

>  <SCORE.norm>
-1.68371

>  <RMSD>
4.749

$$$$
lig.pdb
 OpenBabel11021811453D
libRbt.so/2013.1/901 2013/11/27
 13 14  0  0  0  0  0  0  0  0999 V2000
   -7.3376    4.3356   -8.1006 N   0  0  0  0  0  0  0  0  0  0  0  0
   -7.1091    4.7649   -6.8240 C   0  0  0  0  0  0  0  0  0  0  0  0
   -8.0891    4.7713   -5.9384 N   0  0  0  0  0  0  0  0  0  0  0  0
   -9.3553    4.3586   -6.2512 C   0  0  0  0  0  0  0  0  0  0  0  0
   -9.6492    3.9094   -7.5615 C   0  0  0  0  0  0  0  0  0  0  0  0
   -8.5838    3.9049   -8.5116 C   0  0  0  0  0  0  0  0  0  0  0  0
   -8.7693    3.5320   -9.6568 O   0  0  0  0  0  0  0  0  0  0  0  0
  -11.0733    3.5547   -7.5713 C   0  0  0  0  0  0  0  0  0  0  0  0
  -11.8855    3.0419   -8.7311 C   0  0  0  0  0  0  0  0  0  0  0  0
  -12.7014    4.1327   -9.2807 N   0  0  0  0  0  0  0  0  0  0  0  0
  -11.5205    3.7840   -6.3305 C   0  0  0  0  0  0  0  0  0  0  0  0
  -10.5114    4.2672   -5.5408 N   0  0  0  0  0  0  0  0  0  0  0  0
   -5.8566    5.1905   -6.4633 N   0  0  0  0  0  0  0  0  0  0  0  0
  1  6  1  0  0  0  0
  2  1  1  0  0  0  0
  3  4  1  0  0  0  0
  3  2  2  0  0  0  0
  4  5  2  0  0  0  0
  5  8  1  0  0  0  0
  5  6  1  0  0  0  0
  6  7  2  0  0  0  0
  8  9  1  0  0  0  0
  9 10  1  0  0  0  0
 11  8  2  0  0  0  0
 12  4  1  0  0  0  0
 12 11  1  0  0  0  0
 13  2  1  0  0  0  0
M  END
>  <CHROM.1>
-102.18517710,150.10106082,-9.40064814,4.13695949,-7.48124449,-0.31810149
-0.15770472,-1.76373045

>  <Name>
lig.pdb

>  <RI>
0

>  <Rbt.Current_Directory>
/home/itssahil/PROJECTS/Mol_Feturizer/New_Systems/rnas/2miy

>  <Rbt.Executable>
rbdock ($Id: //depot/dev/client3/rdock/2013.1/src/exe/rbdock.cxx#4 $)

>  <Rbt.Library>
libRbt.so (2013.1, Build901 2013/11/27)

>  <Rbt.Parameter_File>
/export/apps/rDock/src/rDock_2013.1_src/data/scripts/dock_solv.prm

>  <Rbt.Receptor>
prm/blind_docking_60.prm

>  <SCORE>
-21.7418

>  <SCORE.INTER>
-25.5669

>  <SCORE.INTER.CONST>
1

>  <SCORE.INTER.POLAR>
-3.85296

>  <SCORE.INTER.ROT>
2

>  <SCORE.INTER.SOLV>
17.2591

>  <SCORE.INTER.VDW>
-14.8878

>  <SCORE.INTER.norm>
-1.96669

>  <SCORE.INTRA>
2.30034

>  <SCORE.INTRA.DIHEDRAL>
1.46706

>  <SCORE.INTRA.DIHEDRAL.0>
1.76676

>  <SCORE.INTRA.POLAR>
0.472211

>  <SCORE.INTRA.POLAR.0>
-0.472211

>  <SCORE.INTRA.REPUL>
0

>  <SCORE.INTRA.REPUL.0>
0

>  <SCORE.INTRA.SOLV>
-0.553898

>  <SCORE.INTRA.SOLV.lig_0>
-22.5855

>  <SCORE.INTRA.VDW>
0.238237

>  <SCORE.INTRA.VDW.0>
-0.733656

>  <SCORE.INTRA.norm>
0.176949

>  <SCORE.RESTR>
1.52474

>  <SCORE.RESTR.CAVITY>
1.52474

>  <SCORE.RESTR.norm>
0.117288

>  <SCORE.SYSTEM>
0

>  <SCORE.SYSTEM.CONST>
0

>  <SCORE.SYSTEM.DIHEDRAL>
0

>  <SCORE.SYSTEM.SOLV>
0

>  <SCORE.SYSTEM.norm>
0

>  <SCORE.heavy>
13

>  <SCORE.norm>
-1.67245

>  <RMSD>
4.749

$$$$
lig.pdb
 OpenBabel11021811453D
libRbt.so/2013.1/901 2013/11/27
 13 14  0  0  0  0  0  0  0  0999 V2000
   -7.3245    4.3281   -8.0965 N   0  0  0  0  0  0  0  0  0  0  0  0
   -7.1002    4.7746   -6.8249 C   0  0  0  0  0  0  0  0  0  0  0  0
   -8.0837    4.7952   -5.9434 N   0  0  0  0  0  0  0  0  0  0  0  0
   -9.3495    4.3807   -6.2556 C   0  0  0  0  0  0  0  0  0  0  0  0
   -9.6390    3.9139   -7.5608 C   0  0  0  0  0  0  0  0  0  0  0  0
   -8.5699    3.8942   -8.5064 C   0  0  0  0  0  0  0  0  0  0  0  0
   -8.7517    3.5059   -9.6471 O   0  0  0  0  0  0  0  0  0  0  0  0
  -11.0638    3.5620   -7.5714 C   0  0  0  0  0  0  0  0  0  0  0  0
  -11.8724    3.0347   -8.7272 C   0  0  0  0  0  0  0  0  0  0  0  0
  -12.7037    4.1131   -9.2784 N   0  0  0  0  0  0  0  0  0  0  0  0
  -11.5155    3.8093   -6.3356 C   0  0  0  0  0  0  0  0  0  0  0  0
  -10.5086    4.3014   -5.5486 N   0  0  0  0  0  0  0  0  0  0  0  0
   -5.8483    5.2027   -6.4651 N   0  0  0  0  0  0  0  0  0  0  0  0
  1  6  1  0  0  0  0
  2  1  1  0  0  0  0
  3  4  1  0  0  0  0
  3  2  2  0  0  0  0
  4  5  2  0  0  0  0
  5  8  1  0  0  0  0
  5  6  1  0  0  0  0
  6  7  2  0  0  0  0
  8  9  1  0  0  0  0
  9 10  1  0  0  0  0
 11  8  2  0  0  0  0
 12  4  1  0  0  0  0
 12 11  1  0  0  0  0
 13  2  1  0  0  0  0
M  END
>  <CHROM.1>
-103.29169992,-27.80428981,-9.39238176,4.14143746,-7.48104316,-0.31985161
-0.15470237,-1.77967372

>  <Name>
lig.pdb

>  <RI>
1.8118e+07

>  <Rbt.Current_Directory>
/home/itssahil/PROJECTS/Mol_Feturizer/New_Systems/rnas/2miy

>  <Rbt.Executable>
rbdock ($Id: //depot/dev/client3/rdock/2013.1/src/exe/rbdock.cxx#4 $)

>  <Rbt.Library>
libRbt.so (2013.1, Build901 2013/11/27)

>  <Rbt.Parameter_File>
/export/apps/rDock/src/rDock_2013.1_src/data/scripts/dock_solv.prm

>  <Rbt.Receptor>
prm/blind_docking_100.prm

>  <SCORE>
-21.5325

>  <SCORE.INTER>
-25.3923

>  <SCORE.INTER.CONST>
1

>  <SCORE.INTER.POLAR>
-3.79266

>  <SCORE.INTER.ROT>
2

>  <SCORE.INTER.SOLV>
17.2881

>  <SCORE.INTER.VDW>
-14.982

>  <SCORE.INTER.norm>
-1.95325

>  <SCORE.INTRA>
2.30016

>  <SCORE.INTRA.DIHEDRAL>
1.45637

>  <SCORE.INTRA.DIHEDRAL.0>
1.76676

>  <SCORE.INTRA.POLAR>
0.472211

>  <SCORE.INTRA.POLAR.0>
-0.472211

>  <SCORE.INTRA.REPUL>
0

>  <SCORE.INTRA.REPUL.0>
0

>  <SCORE.INTRA.SOLV>
-0.559097

>  <SCORE.INTRA.SOLV.lig_0>
-22.5855

>  <SCORE.INTRA.VDW>
0.246009

>  <SCORE.INTRA.VDW.0>
-0.733656

>  <SCORE.INTRA.norm>
0.176936

>  <SCORE.RESTR>
1.55956

>  <SCORE.RESTR.CAVITY>
1.55956

>  <SCORE.RESTR.norm>
0.119966

>  <SCORE.SYSTEM>
0

>  <SCORE.SYSTEM.CONST>
0

>  <SCORE.SYSTEM.DIHEDRAL>
0

>  <SCORE.SYSTEM.SOLV>
0

>  <SCORE.SYSTEM.norm>
0

>  <SCORE.heavy>
13

>  <SCORE.norm>
-1.65635

>  <RMSD>
4.750

$$$$
lig.pdb
 OpenBabel11021811453D
libRbt.so/2013.1/901 2013/11/27
 13 14  0  0  0  0  0  0  0  0999 V2000
   -7.3245    4.3313   -8.0986 N   0  0  0  0  0  0  0  0  0  0  0  0
   -7.1008    4.7778   -6.8270 C   0  0  0  0  0  0  0  0  0  0  0  0
   -8.0844    4.7973   -5.9455 N   0  0  0  0  0  0  0  0  0  0  0  0
   -9.3497    4.3816   -6.2578 C   0  0  0  0  0  0  0  0  0  0  0  0
   -9.6387    3.9146   -7.5631 C   0  0  0  0  0  0  0  0  0  0  0  0
   -8.5694    3.8962   -8.5086 C   0  0  0  0  0  0  0  0  0  0  0  0
   -8.7507    3.5078   -9.6494 O   0  0  0  0  0  0  0  0  0  0  0  0
  -11.0631    3.5612   -7.5738 C   0  0  0  0  0  0  0  0  0  0  0  0
  -11.8711    3.0333   -8.7297 C   0  0  0  0  0  0  0  0  0  0  0  0
  -12.7036    4.1108   -9.2807 N   0  0  0  0  0  0  0  0  0  0  0  0
  -11.5151    3.8079   -6.3381 C   0  0  0  0  0  0  0  0  0  0  0  0
  -10.5087    4.3010   -5.5509 N   0  0  0  0  0  0  0  0  0  0  0  0
   -5.8494    5.2072   -6.4670 N   0  0  0  0  0  0  0  0  0  0  0  0
  1  6  1  0  0  0  0
  2  1  1  0  0  0  0
  3  4  1  0  0  0  0
  3  2  2  0  0  0  0
  4  5  2  0  0  0  0
  5  8  1  0  0  0  0
  5  6  1  0  0  0  0
  6  7  2  0  0  0  0
  8  9  1  0  0  0  0
  9 10  1  0  0  0  0
 11  8  2  0  0  0  0
 12  4  1  0  0  0  0
 12 11  1  0  0  0  0
 13  2  1  0  0  0  0
M  END
>  <CHROM.1>
-103.30115492,150.95089669,-9.39214164,4.14248374,-7.48333564,-0.32010612
-0.15569305,-1.77949233

>  <Name>
lig.pdb

>  <RI>
0

>  <Rbt.Current_Directory>
/home/itssahil/PROJECTS/Mol_Feturizer/New_Systems/rnas/2miy

>  <Rbt.Executable>
rbdock ($Id: //depot/dev/client3/rdock/2013.1/src/exe/rbdock.cxx#4 $)

>  <Rbt.Library>
libRbt.so (2013.1, Build901 2013/11/27)

>  <Rbt.Parameter_File>
/export/apps/rDock/src/rDock_2013.1_src/data/scripts/dock_solv.prm

>  <Rbt.Receptor>
prm/blind_docking_60.prm

>  <SCORE>
-21.873

>  <SCORE.INTER>
-25.759

>  <SCORE.INTER.CONST>
1

>  <SCORE.INTER.POLAR>
-3.88106

>  <SCORE.INTER.ROT>
2

>  <SCORE.INTER.SOLV>
17.2998

>  <SCORE.INTER.VDW>
-14.9358

>  <SCORE.INTER.norm>
-1.98146

>  <SCORE.INTRA>
2.32907

>  <SCORE.INTRA.DIHEDRAL>
1.5171

>  <SCORE.INTRA.DIHEDRAL.0>
1.76676

>  <SCORE.INTRA.POLAR>
0.472211

>  <SCORE.INTRA.POLAR.0>
-0.472211

>  <SCORE.INTRA.REPUL>
0

>  <SCORE.INTRA.REPUL.0>
0

>  <SCORE.INTRA.SOLV>
-0.559119

>  <SCORE.INTRA.SOLV.lig_0>
-22.5855

>  <SCORE.INTRA.VDW>
0.24456

>  <SCORE.INTRA.VDW.0>
-0.733656

>  <SCORE.INTRA.norm>
0.179159

>  <SCORE.RESTR>
1.55692

>  <SCORE.RESTR.CAVITY>
1.55692

>  <SCORE.RESTR.norm>
0.119763

>  <SCORE.SYSTEM>
0

>  <SCORE.SYSTEM.CONST>
0

>  <SCORE.SYSTEM.DIHEDRAL>
0

>  <SCORE.SYSTEM.SOLV>
0

>  <SCORE.SYSTEM.norm>
0

>  <SCORE.heavy>
13

>  <SCORE.norm>
-1.68254

>  <RMSD>
4.750

$$$$
lig.pdb
 OpenBabel11021811453D
libRbt.so/2013.1/901 2013/11/27
 13 14  0  0  0  0  0  0  0  0999 V2000
   -7.2537    4.4243   -7.4965 N   0  0  0  0  0  0  0  0  0  0  0  0
   -7.2046    4.8065   -6.1858 C   0  0  0  0  0  0  0  0  0  0  0  0
   -8.2940    4.7680   -5.4399 N   0  0  0  0  0  0  0  0  0  0  0  0
   -9.5003    4.3537   -5.9345 C   0  0  0  0  0  0  0  0  0  0  0  0
   -9.6094    3.9521   -7.2880 C   0  0  0  0  0  0  0  0  0  0  0  0
   -8.4268    3.9960   -8.0862 C   0  0  0  0  0  0  0  0  0  0  0  0
   -8.4518    3.6655   -9.2589 O   0  0  0  0  0  0  0  0  0  0  0  0
  -11.0136    3.5824   -7.5015 C   0  0  0  0  0  0  0  0  0  0  0  0
  -11.6554    3.1057   -8.7777 C   0  0  0  0  0  0  0  0  0  0  0  0
  -12.6813    4.0678   -9.2015 N   0  0  0  0  0  0  0  0  0  0  0  0
  -11.6260    3.7587   -6.3242 C   0  0  0  0  0  0  0  0  0  0  0  0
  -10.7392    4.2222   -5.3892 N   0  0  0  0  0  0  0  0  0  0  0  0
   -6.0185    5.2317   -5.6452 N   0  0  0  0  0  0  0  0  0  0  0  0
  1  6  1  0  0  0  0
  2  1  1  0  0  0  0
  3  4  1  0  0  0  0
  3  2  2  0  0  0  0
  4  5  2  0  0  0  0
  5  8  1  0  0  0  0
  5  6  1  0  0  0  0
  6  7  2  0  0  0  0
  8  9  1  0  0  0  0
  9 10  1  0  0  0  0
 11  8  2  0  0  0  0
 12  4  1  0  0  0  0
 12 11  1  0  0  0  0
 13  2  1  0  0  0  0
M  END
>  <CHROM.1>
-117.16808590,166.45375594,-9.40301661,4.16606955,-7.14914498,-0.43007680
-0.14403795,-1.76711253

>  <Name>
lig.pdb

>  <RI>
0

>  <Rbt.Current_Directory>
/home/itssahil/PROJECTS/Mol_Feturizer/New_Systems/rnas/2miy

>  <Rbt.Executable>
rbdock ($Id: //depot/dev/client3/rdock/2013.1/src/exe/rbdock.cxx#4 $)

>  <Rbt.Library>
libRbt.so (2013.1, Build901 2013/11/27)

>  <Rbt.Parameter_File>
/export/apps/rDock/src/rDock_2013.1_src/data/scripts/dock_solv.prm

>  <Rbt.Receptor>
prm/pocket_docking_2.prm

>  <SCORE>
-20.0102

>  <SCORE.INTER>
-22.6055

>  <SCORE.INTER.CONST>
1

>  <SCORE.INTER.POLAR>
-3.11646

>  <SCORE.INTER.ROT>
2

>  <SCORE.INTER.SOLV>
15.998

>  <SCORE.INTER.VDW>
-14.9481

>  <SCORE.INTER.norm>
-1.73889

>  <SCORE.INTRA>
2.5953

>  <SCORE.INTRA.DIHEDRAL>
1.88181

>  <SCORE.INTRA.DIHEDRAL.0>
1.76676

>  <SCORE.INTRA.POLAR>
0.472211

>  <SCORE.INTRA.POLAR.0>
-0.472211

>  <SCORE.INTRA.REPUL>
0

>  <SCORE.INTRA.REPUL.0>
0

>  <SCORE.INTRA.SOLV>
-0.616695

>  <SCORE.INTRA.SOLV.lig_0>
-22.5855

>  <SCORE.INTRA.VDW>
0.357228

>  <SCORE.INTRA.VDW.0>
-0.733656

>  <SCORE.INTRA.norm>
0.199639

>  <SCORE.RESTR>
0

>  <SCORE.RESTR.CAVITY>
0

>  <SCORE.RESTR.norm>
0

>  <SCORE.SYSTEM>
0

>  <SCORE.SYSTEM.CONST>
0

>  <SCORE.SYSTEM.DIHEDRAL>
0

>  <SCORE.SYSTEM.SOLV>
0

>  <SCORE.SYSTEM.norm>
0

>  <SCORE.heavy>
13

>  <SCORE.norm>
-1.53925

>  <RMSD>
4.754

$$$$
lig.pdb
 OpenBabel11021811453D
libRbt.so/2013.1/901 2013/11/27
 13 14  0  0  0  0  0  0  0  0999 V2000
   -7.2573    4.4121   -7.4840 N   0  0  0  0  0  0  0  0  0  0  0  0
   -7.2119    4.8099   -6.1778 C   0  0  0  0  0  0  0  0  0  0  0  0
   -8.3036    4.7808   -5.4347 N   0  0  0  0  0  0  0  0  0  0  0  0
   -9.5086    4.3612   -5.9279 C   0  0  0  0  0  0  0  0  0  0  0  0
   -9.6138    3.9435   -7.2769 C   0  0  0  0  0  0  0  0  0  0  0  0
   -8.4289    3.9774   -8.0721 C   0  0  0  0  0  0  0  0  0  0  0  0
   -8.4506    3.6330   -9.2408 O   0  0  0  0  0  0  0  0  0  0  0  0
  -11.0176    3.5719   -7.4902 C   0  0  0  0  0  0  0  0  0  0  0  0
  -11.6558    3.0804   -8.7625 C   0  0  0  0  0  0  0  0  0  0  0  0
  -12.6808    4.0372   -9.2001 N   0  0  0  0  0  0  0  0  0  0  0  0
  -11.6334    3.7626   -6.3169 C   0  0  0  0  0  0  0  0  0  0  0  0
  -10.7492    4.2368   -5.3848 N   0  0  0  0  0  0  0  0  0  0  0  0
   -6.0272    5.2410   -5.6388 N   0  0  0  0  0  0  0  0  0  0  0  0
  1  6  1  0  0  0  0
  2  1  1  0  0  0  0
  3  4  1  0  0  0  0
  3  2  2  0  0  0  0
  4  5  2  0  0  0  0
  5  8  1  0  0  0  0
  5  6  1  0  0  0  0
  6  7  2  0  0  0  0
  8  9  1  0  0  0  0
  9 10  1  0  0  0  0
 11  8  2  0  0  0  0
 12  4  1  0  0  0  0
 12 11  1  0  0  0  0
 13  2  1  0  0  0  0
M  END
>  <CHROM.1>
-117.21993246,166.56913203,-9.40785973,4.15900502,-7.13992125,-0.43284077
-0.14297523,-1.77950979

>  <Name>
lig.pdb

>  <RI>
1.82164e+07

>  <Rbt.Current_Directory>
/home/itssahil/PROJECTS/Mol_Feturizer/New_Systems/rnas/2miy

>  <Rbt.Executable>
rbdock ($Id: //depot/dev/client3/rdock/2013.1/src/exe/rbdock.cxx#4 $)

>  <Rbt.Library>
libRbt.so (2013.1, Build901 2013/11/27)

>  <Rbt.Parameter_File>
/export/apps/rDock/src/rDock_2013.1_src/data/scripts/dock_solv.prm

>  <Rbt.Receptor>
prm/blind_docking_80.prm

>  <SCORE>
-19.2514

>  <SCORE.INTER>
-22.5676

>  <SCORE.INTER.CONST>
1

>  <SCORE.INTER.POLAR>
-3.15844

>  <SCORE.INTER.ROT>
2

>  <SCORE.INTER.SOLV>
15.9774

>  <SCORE.INTER.VDW>
-14.776

>  <SCORE.INTER.norm>
-1.73597

>  <SCORE.INTRA>
2.59581

>  <SCORE.INTRA.DIHEDRAL>
1.88207

>  <SCORE.INTRA.DIHEDRAL.0>
1.76676

>  <SCORE.INTRA.POLAR>
0.472211

>  <SCORE.INTRA.POLAR.0>
-0.472211

>  <SCORE.INTRA.REPUL>
0

>  <SCORE.INTRA.REPUL.0>
0

>  <SCORE.INTRA.SOLV>
-0.616878

>  <SCORE.INTRA.SOLV.lig_0>
-22.5855

>  <SCORE.INTRA.VDW>
0.357696

>  <SCORE.INTRA.VDW.0>
-0.733656

>  <SCORE.INTRA.norm>
0.199678

>  <SCORE.RESTR>
0.720397

>  <SCORE.RESTR.CAVITY>
0.720397

>  <SCORE.RESTR.norm>
0.0554151

>  <SCORE.SYSTEM>
0

>  <SCORE.SYSTEM.CONST>
0

>  <SCORE.SYSTEM.DIHEDRAL>
0

>  <SCORE.SYSTEM.SOLV>
0

>  <SCORE.SYSTEM.norm>
0

>  <SCORE.heavy>
13

>  <SCORE.norm>
-1.48088

>  <RMSD>
4.755

$$$$
lig.pdb
 OpenBabel11021811453D
libRbt.so/2013.1/901 2013/11/27
 13 14  0  0  0  0  0  0  0  0999 V2000
   -7.2609    4.4227   -7.4868 N   0  0  0  0  0  0  0  0  0  0  0  0
   -7.2123    4.8198   -6.1805 C   0  0  0  0  0  0  0  0  0  0  0  0
   -8.3016    4.7880   -5.4340 N   0  0  0  0  0  0  0  0  0  0  0  0
   -9.5073    4.3663   -5.9238 C   0  0  0  0  0  0  0  0  0  0  0  0
   -9.6159    3.9491   -7.2726 C   0  0  0  0  0  0  0  0  0  0  0  0
   -8.4334    3.9859   -8.0715 C   0  0  0  0  0  0  0  0  0  0  0  0
   -8.4580    3.6421   -9.2403 O   0  0  0  0  0  0  0  0  0  0  0  0
  -11.0195    3.5748   -7.4818 C   0  0  0  0  0  0  0  0  0  0  0  0
  -11.6606    3.0827   -8.7524 C   0  0  0  0  0  0  0  0  0  0  0  0
  -12.6802    4.0438   -9.1932 N   0  0  0  0  0  0  0  0  0  0  0  0
  -11.6321    3.7635   -6.3065 C   0  0  0  0  0  0  0  0  0  0  0  0
  -10.7460    4.2390   -5.3769 N   0  0  0  0  0  0  0  0  0  0  0  0
   -6.0269    5.2531   -5.6448 N   0  0  0  0  0  0  0  0  0  0  0  0
  1  6  1  0  0  0  0
  2  1  1  0  0  0  0
  3  4  1  0  0  0  0
  3  2  2  0  0  0  0
  4  5  2  0  0  0  0
  5  8  1  0  0  0  0
  5  6  1  0  0  0  0
  6  7  2  0  0  0  0
  8  9  1  0  0  0  0
  9 10  1  0  0  0  0
 11  8  2  0  0  0  0
 12  4  1  0  0  0  0
 12 11  1  0  0  0  0
 13  2  1  0  0  0  0
M  END
>  <CHROM.1>
-116.69595357,166.57851677,-9.40908635,4.16555689,-7.13682490,-0.43103350
-0.14557957,-1.77782286

>  <Name>
lig.pdb

>  <RI>
9.06885e+06

>  <Rbt.Current_Directory>
/home/itssahil/PROJECTS/Mol_Feturizer/New_Systems/rnas/2miy

>  <Rbt.Executable>
rbdock ($Id: //depot/dev/client3/rdock/2013.1/src/exe/rbdock.cxx#4 $)

>  <Rbt.Library>
libRbt.so (2013.1, Build901 2013/11/27)

>  <Rbt.Parameter_File>
/export/apps/rDock/src/rDock_2013.1_src/data/scripts/dock_solv.prm

>  <Rbt.Receptor>
prm/pocket_docking_6.prm

>  <SCORE>
-19.8697

>  <SCORE.INTER>
-22.5951

>  <SCORE.INTER.CONST>
1

>  <SCORE.INTER.POLAR>
-3.1366

>  <SCORE.INTER.ROT>
2

>  <SCORE.INTER.SOLV>
15.9901

>  <SCORE.INTER.VDW>
-14.8714

>  <SCORE.INTER.norm>
-1.73809

>  <SCORE.INTRA>
2.59082

>  <SCORE.INTRA.DIHEDRAL>
1.87756

>  <SCORE.INTRA.DIHEDRAL.0>
1.76676

>  <SCORE.INTRA.POLAR>
0.472211

>  <SCORE.INTRA.POLAR.0>
-0.472211

>  <SCORE.INTRA.REPUL>
0

>  <SCORE.INTRA.REPUL.0>
0

>  <SCORE.INTRA.SOLV>
-0.614965

>  <SCORE.INTRA.SOLV.lig_0>
-22.5855

>  <SCORE.INTRA.VDW>
0.354004

>  <SCORE.INTRA.VDW.0>
-0.733656

>  <SCORE.INTRA.norm>
0.199294

>  <SCORE.RESTR>
0.13459

>  <SCORE.RESTR.CAVITY>
0.13459

>  <SCORE.RESTR.norm>
0.0103531

>  <SCORE.SYSTEM>
0

>  <SCORE.SYSTEM.CONST>
0

>  <SCORE.SYSTEM.DIHEDRAL>
0

>  <SCORE.SYSTEM.SOLV>
0

>  <SCORE.SYSTEM.norm>
0

>  <SCORE.heavy>
13

>  <SCORE.norm>
-1.52844

>  <RMSD>
4.755

$$$$
lig.pdb
 OpenBabel11021811453D
libRbt.so/2013.1/901 2013/11/27
 13 14  0  0  0  0  0  0  0  0999 V2000
   -6.5957    4.8081   -6.1838 N   0  0  0  0  0  0  0  0  0  0  0  0
   -6.8488    5.0688   -4.8668 C   0  0  0  0  0  0  0  0  0  0  0  0
   -8.0707    4.9320   -4.3839 N   0  0  0  0  0  0  0  0  0  0  0  0
   -9.1210    4.5325   -5.1642 C   0  0  0  0  0  0  0  0  0  0  0  0
   -8.9161    4.2547   -6.5375 C   0  0  0  0  0  0  0  0  0  0  0  0
   -7.5924    4.4044   -7.0504 C   0  0  0  0  0  0  0  0  0  0  0  0
   -7.3481    4.1830   -8.2235 O   0  0  0  0  0  0  0  0  0  0  0  0
  -10.2222    3.8683   -7.0842 C   0  0  0  0  0  0  0  0  0  0  0  0
  -10.5502    3.4942   -8.5056 C   0  0  0  0  0  0  0  0  0  0  0  0
  -12.0075    3.4061   -8.6672 N   0  0  0  0  0  0  0  0  0  0  0  0
  -11.0820    3.9184   -6.0594 C   0  0  0  0  0  0  0  0  0  0  0  0
  -10.4409    4.3175   -4.9170 N   0  0  0  0  0  0  0  0  0  0  0  0
   -5.8287    5.4744   -4.0453 N   0  0  0  0  0  0  0  0  0  0  0  0
  1  6  1  0  0  0  0
  2  1  1  0  0  0  0
  3  4  1  0  0  0  0
  3  2  2  0  0  0  0
  4  5  2  0  0  0  0
  5  8  1  0  0  0  0
  5  6  1  0  0  0  0
  6  7  2  0  0  0  0
  8  9  1  0  0  0  0
  9 10  1  0  0  0  0
 11  8  2  0  0  0  0
 12  4  1  0  0  0  0
 12 11  1  0  0  0  0
 13  2  1  0  0  0  0
M  END
>  <CHROM.1>
-170.17970673,-162.16357915,-8.80189207,4.36195687,-6.30254413,-0.60840552
-0.18091855,-1.78516751

>  <Name>
lig.pdb

>  <RI>
0

>  <Rbt.Current_Directory>
/home/itssahil/PROJECTS/Mol_Feturizer/New_Systems/rnas/2miy

>  <Rbt.Executable>
rbdock ($Id: //depot/dev/client3/rdock/2013.1/src/exe/rbdock.cxx#4 $)

>  <Rbt.Library>
libRbt.so (2013.1, Build901 2013/11/27)

>  <Rbt.Parameter_File>
/export/apps/rDock/src/rDock_2013.1_src/data/scripts/dock_solv.prm

>  <Rbt.Receptor>
prm/pocket_docking_2.prm

>  <SCORE>
-25.1257

>  <SCORE.INTER>
-28.2079

>  <SCORE.INTER.CONST>
1

>  <SCORE.INTER.POLAR>
-3.21768

>  <SCORE.INTER.ROT>
2

>  <SCORE.INTER.SOLV>
13.6929

>  <SCORE.INTER.VDW>
-17.5773

>  <SCORE.INTER.norm>
-2.16984

>  <SCORE.INTRA>
2.22233

>  <SCORE.INTRA.DIHEDRAL>
-0.214431

>  <SCORE.INTRA.DIHEDRAL.0>
1.76676

>  <SCORE.INTRA.POLAR>
0.472211

>  <SCORE.INTRA.POLAR.0>
-0.472211

>  <SCORE.INTRA.REPUL>
0

>  <SCORE.INTRA.REPUL.0>
0

>  <SCORE.INTRA.SOLV>
-0.56527

>  <SCORE.INTRA.SOLV.lig_0>
-22.5855

>  <SCORE.INTRA.VDW>
1.00666

>  <SCORE.INTRA.VDW.0>
-0.733656

>  <SCORE.INTRA.norm>
0.170948

>  <SCORE.RESTR>
0.85993

>  <SCORE.RESTR.CAVITY>
0.85993

>  <SCORE.RESTR.norm>
0.0661485

>  <SCORE.SYSTEM>
0

>  <SCORE.SYSTEM.CONST>
0

>  <SCORE.SYSTEM.DIHEDRAL>
0

>  <SCORE.SYSTEM.SOLV>
0

>  <SCORE.SYSTEM.norm>
0

>  <SCORE.heavy>
13

>  <SCORE.norm>
-1.93274

>  <RMSD>
4.838

$$$$
lig.pdb
 OpenBabel11021811453D
libRbt.so/2013.1/901 2013/11/27
 13 14  0  0  0  0  0  0  0  0999 V2000
   -6.6327    4.7562   -5.7983 N   0  0  0  0  0  0  0  0  0  0  0  0
   -6.9405    4.9198   -4.4773 C   0  0  0  0  0  0  0  0  0  0  0  0
   -8.1788    4.7381   -4.0548 N   0  0  0  0  0  0  0  0  0  0  0  0
   -9.1928    4.3864   -4.9030 C   0  0  0  0  0  0  0  0  0  0  0  0
   -8.9309    4.2094   -6.2833 C   0  0  0  0  0  0  0  0  0  0  0  0
   -7.5898    4.4069   -6.7307 C   0  0  0  0  0  0  0  0  0  0  0  0
   -7.2969    4.2722   -7.9059 O   0  0  0  0  0  0  0  0  0  0  0  0
  -10.2099    3.8517   -6.9080 C   0  0  0  0  0  0  0  0  0  0  0  0
  -10.4773    3.5775   -8.3644 C   0  0  0  0  0  0  0  0  0  0  0  0
  -11.9201    3.3993   -8.5745 N   0  0  0  0  0  0  0  0  0  0  0  0
  -11.1099    3.8209   -5.9175 C   0  0  0  0  0  0  0  0  0  0  0  0
  -10.5189    4.1428   -4.7248 N   0  0  0  0  0  0  0  0  0  0  0  0
   -5.9583    5.2745   -3.5888 N   0  0  0  0  0  0  0  0  0  0  0  0
  1  6  1  0  0  0  0
  2  1  1  0  0  0  0
  3  4  1  0  0  0  0
  3  2  2  0  0  0  0
  4  5  2  0  0  0  0
  5  8  1  0  0  0  0
  5  6  1  0  0  0  0
  6  7  2  0  0  0  0
  8  9  1  0  0  0  0
  9 10  1  0  0  0  0
 11  8  2  0  0  0  0
 12  4  1  0  0  0  0
 12 11  1  0  0  0  0
 13  2  1  0  0  0  0
M  END
>  <CHROM.1>
-173.93114577,27.31126736,-8.82668184,4.29207808,-6.03532674,-0.64999351
-0.18845992,-1.72682306

>  <Name>
lig.pdb

>  <RI>
1.51961e+07

>  <Rbt.Current_Directory>
/home/itssahil/PROJECTS/Mol_Feturizer/New_Systems/rnas/2miy

>  <Rbt.Executable>
rbdock ($Id: //depot/dev/client3/rdock/2013.1/src/exe/rbdock.cxx#4 $)

>  <Rbt.Library>
libRbt.so (2013.1, Build901 2013/11/27)

>  <Rbt.Parameter_File>
/export/apps/rDock/src/rDock_2013.1_src/data/scripts/dock_solv.prm

>  <Rbt.Receptor>
prm/pocket_docking_3.prm

>  <SCORE>
-27.3392

>  <SCORE.INTER>
-29.4528

>  <SCORE.INTER.CONST>
1

>  <SCORE.INTER.POLAR>
-3.42098

>  <SCORE.INTER.ROT>
2

>  <SCORE.INTER.SOLV>
12.1878

>  <SCORE.INTER.VDW>
-17.2279

>  <SCORE.INTER.norm>
-2.2656

>  <SCORE.INTRA>
2.11363

>  <SCORE.INTRA.DIHEDRAL>
-0.244728

>  <SCORE.INTRA.DIHEDRAL.0>
1.76676

>  <SCORE.INTRA.POLAR>
0.472211

>  <SCORE.INTRA.POLAR.0>
-0.472211

>  <SCORE.INTRA.REPUL>
0

>  <SCORE.INTRA.REPUL.0>
0

>  <SCORE.INTRA.SOLV>
-0.572302

>  <SCORE.INTRA.SOLV.lig_0>
-22.5855

>  <SCORE.INTRA.VDW>
0.916622

>  <SCORE.INTRA.VDW.0>
-0.733656

>  <SCORE.INTRA.norm>
0.162587

>  <SCORE.RESTR>
0

>  <SCORE.RESTR.CAVITY>
0

>  <SCORE.RESTR.norm>
0

>  <SCORE.SYSTEM>
0

>  <SCORE.SYSTEM.CONST>
0

>  <SCORE.SYSTEM.DIHEDRAL>
0

>  <SCORE.SYSTEM.SOLV>
0

>  <SCORE.SYSTEM.norm>
0

>  <SCORE.heavy>
13

>  <SCORE.norm>
-2.10301

>  <RMSD>
4.869

$$$$
lig.pdb
 OpenBabel11021811453D
libRbt.so/2013.1/901 2013/11/27
 13 14  0  0  0  0  0  0  0  0999 V2000
   -6.6277    4.8053   -5.8009 N   0  0  0  0  0  0  0  0  0  0  0  0
   -6.9292    4.9460   -4.4759 C   0  0  0  0  0  0  0  0  0  0  0  0
   -8.1634    4.7470   -4.0492 N   0  0  0  0  0  0  0  0  0  0  0  0
   -9.1793    4.3995   -4.8970 C   0  0  0  0  0  0  0  0  0  0  0  0
   -8.9238    4.2461   -6.2813 C   0  0  0  0  0  0  0  0  0  0  0  0
   -7.5871    4.4621   -6.7332 C   0  0  0  0  0  0  0  0  0  0  0  0
   -7.2998    4.3480   -7.9119 O   0  0  0  0  0  0  0  0  0  0  0  0
  -10.2032    3.8869   -6.9042 C   0  0  0  0  0  0  0  0  0  0  0  0
  -10.4767    3.6328   -8.3631 C   0  0  0  0  0  0  0  0  0  0  0  0
  -11.9135    3.4004   -8.5611 N   0  0  0  0  0  0  0  0  0  0  0  0
  -11.0973    3.8331   -5.9093 C   0  0  0  0  0  0  0  0  0  0  0  0
  -10.5021    4.1418   -4.7151 N   0  0  0  0  0  0  0  0  0  0  0  0
   -5.9449    5.2954   -3.5876 N   0  0  0  0  0  0  0  0  0  0  0  0
  1  6  1  0  0  0  0
  2  1  1  0  0  0  0
  3  4  1  0  0  0  0
  3  2  2  0  0  0  0
  4  5  2  0  0  0  0
  5  8  1  0  0  0  0
  5  6  1  0  0  0  0
  6  7  2  0  0  0  0
  8  9  1  0  0  0  0
  9 10  1  0  0  0  0
 11  8  2  0  0  0  0
 12  4  1  0  0  0  0
 12 11  1  0  0  0  0
 13  2  1  0  0  0  0
M  END
>  <CHROM.1>
-175.82943073,29.36637602,-8.81835782,4.32165663,-6.03206584,-0.64575217
-0.20030847,-1.71318714

>  <Name>
lig.pdb

>  <RI>
9.06885e+06

>  <Rbt.Current_Directory>
/home/itssahil/PROJECTS/Mol_Feturizer/New_Systems/rnas/2miy

>  <Rbt.Executable>
rbdock ($Id: //depot/dev/client3/rdock/2013.1/src/exe/rbdock.cxx#4 $)

>  <Rbt.Library>
libRbt.so (2013.1, Build901 2013/11/27)

>  <Rbt.Parameter_File>
/export/apps/rDock/src/rDock_2013.1_src/data/scripts/dock_solv.prm

>  <Rbt.Receptor>
prm/pocket_docking_6.prm

>  <SCORE>
-27.3388

>  <SCORE.INTER>
-29.424

>  <SCORE.INTER.CONST>
1

>  <SCORE.INTER.POLAR>
-3.37849

>  <SCORE.INTER.ROT>
2

>  <SCORE.INTER.SOLV>
12.2807

>  <SCORE.INTER.VDW>
-17.3812

>  <SCORE.INTER.norm>
-2.26338

>  <SCORE.INTRA>
2.08517

>  <SCORE.INTRA.DIHEDRAL>
-0.272472

>  <SCORE.INTRA.DIHEDRAL.0>
1.76676

>  <SCORE.INTRA.POLAR>
0.472211

>  <SCORE.INTRA.POLAR.0>
-0.472211

>  <SCORE.INTRA.REPUL>
0

>  <SCORE.INTRA.REPUL.0>
0

>  <SCORE.INTRA.SOLV>
-0.573164

>  <SCORE.INTRA.SOLV.lig_0>
-22.5855

>  <SCORE.INTRA.VDW>
0.902472

>  <SCORE.INTRA.VDW.0>
-0.733656

>  <SCORE.INTRA.norm>
0.160398

>  <SCORE.RESTR>
0

>  <SCORE.RESTR.CAVITY>
0

>  <SCORE.RESTR.norm>
0

>  <SCORE.SYSTEM>
0

>  <SCORE.SYSTEM.CONST>
0

>  <SCORE.SYSTEM.DIHEDRAL>
0

>  <SCORE.SYSTEM.SOLV>
0

>  <SCORE.SYSTEM.norm>
0

>  <SCORE.heavy>
13

>  <SCORE.norm>
-2.10298

>  <RMSD>
4.871

$$$$
lig.pdb
 OpenBabel11021811453D
libRbt.so/2013.1/901 2013/11/27
 13 14  0  0  0  0  0  0  0  0999 V2000
   -6.2916    5.1963   -5.4366 N   0  0  0  0  0  0  0  0  0  0  0  0
   -6.7001    5.3728   -4.1450 C   0  0  0  0  0  0  0  0  0  0  0  0
   -7.9534    5.1322   -3.8043 N   0  0  0  0  0  0  0  0  0  0  0  0
   -8.8847    4.7051   -4.7108 C   0  0  0  0  0  0  0  0  0  0  0  0
   -8.5170    4.5113   -6.0645 C   0  0  0  0  0  0  0  0  0  0  0  0
   -7.1603    4.7729   -6.4232 C   0  0  0  0  0  0  0  0  0  0  0  0
   -6.7785    4.6277   -7.5714 O   0  0  0  0  0  0  0  0  0  0  0  0
   -9.7276    4.0686   -6.7663 C   0  0  0  0  0  0  0  0  0  0  0  0
   -9.8765    3.7465   -8.2298 C   0  0  0  0  0  0  0  0  0  0  0  0
  -11.2682    3.3705   -8.5115 N   0  0  0  0  0  0  0  0  0  0  0  0
  -10.6922    4.0105   -5.8398 C   0  0  0  0  0  0  0  0  0  0  0  0
  -10.2049    4.3921   -4.6182 N   0  0  0  0  0  0  0  0  0  0  0  0
   -5.8035    5.8020   -3.2006 N   0  0  0  0  0  0  0  0  0  0  0  0
  1  6  1  0  0  0  0
  2  1  1  0  0  0  0
  3  4  1  0  0  0  0
  3  2  2  0  0  0  0
  4  5  2  0  0  0  0
  5  8  1  0  0  0  0
  5  6  1  0  0  0  0
  6  7  2  0  0  0  0
  8  9  1  0  0  0  0
  9 10  1  0  0  0  0
 11  8  2  0  0  0  0
 12  4  1  0  0  0  0
 12 11  1  0  0  0  0
 13  2  1  0  0  0  0
M  END
>  <CHROM.1>
-178.78510856,-91.33142241,-8.43315738,4.59483555,-5.81021338,-0.73031813
-0.23711663,-1.77378658

>  <Name>
lig.pdb

>  <RI>
3.47783e+07

>  <Rbt.Current_Directory>
/home/itssahil/PROJECTS/Mol_Feturizer/New_Systems/rnas/2miy

>  <Rbt.Executable>
rbdock ($Id: //depot/dev/client3/rdock/2013.1/src/exe/rbdock.cxx#4 $)

>  <Rbt.Library>
libRbt.so (2013.1, Build901 2013/11/27)

>  <Rbt.Parameter_File>
/export/apps/rDock/src/rDock_2013.1_src/data/scripts/dock_solv.prm

>  <Rbt.Receptor>
prm/pocket_docking_8.prm

>  <SCORE>
-23.1181

>  <SCORE.INTER>
-24.9004

>  <SCORE.INTER.CONST>
1

>  <SCORE.INTER.POLAR>
-2.73735

>  <SCORE.INTER.ROT>
2

>  <SCORE.INTER.SOLV>
12.8092

>  <SCORE.INTER.VDW>
-16.6788

>  <SCORE.INTER.norm>
-1.91541

>  <SCORE.INTRA>
1.78233

>  <SCORE.INTRA.DIHEDRAL>
-0.294801

>  <SCORE.INTRA.DIHEDRAL.0>
1.76676

>  <SCORE.INTRA.POLAR>
0.472211

>  <SCORE.INTRA.POLAR.0>
-0.472211

>  <SCORE.INTRA.REPUL>
0

>  <SCORE.INTRA.REPUL.0>
0

>  <SCORE.INTRA.SOLV>
-0.576742

>  <SCORE.INTRA.SOLV.lig_0>
-22.5855

>  <SCORE.INTRA.VDW>
0.61258

>  <SCORE.INTRA.VDW.0>
-0.733656

>  <SCORE.INTRA.norm>
0.137102

>  <SCORE.RESTR>
0

>  <SCORE.RESTR.CAVITY>
0

>  <SCORE.RESTR.norm>
0

>  <SCORE.SYSTEM>
0

>  <SCORE.SYSTEM.CONST>
0

>  <SCORE.SYSTEM.DIHEDRAL>
0

>  <SCORE.SYSTEM.SOLV>
0

>  <SCORE.SYSTEM.norm>
0

>  <SCORE.heavy>
13

>  <SCORE.norm>
-1.77831

>  <RMSD>
4.960

$$$$
lig.pdb
 OpenBabel11021811453D
libRbt.so/2013.1/901 2013/11/27
 13 14  0  0  0  0  0  0  0  0999 V2000
  -14.4634   -4.0703  -11.2438 N   0  0  0  0  0  0  0  0  0  0  0  0
  -14.8817   -3.2776  -12.2749 C   0  0  0  0  0  0  0  0  0  0  0  0
  -13.9997   -2.6598  -13.0399 N   0  0  0  0  0  0  0  0  0  0  0  0
  -12.6518   -2.7800  -12.8393 C   0  0  0  0  0  0  0  0  0  0  0  0
  -12.1632   -3.5844  -11.7812 C   0  0  0  0  0  0  0  0  0  0  0  0
  -13.1236   -4.2489  -10.9604 C   0  0  0  0  0  0  0  0  0  0  0  0
  -12.7704   -4.9548  -10.0319 O   0  0  0  0  0  0  0  0  0  0  0  0
  -10.6992   -3.4946  -11.8307 C   0  0  0  0  0  0  0  0  0  0  0  0
   -9.7057   -4.1505  -10.9085 C   0  0  0  0  0  0  0  0  0  0  0  0
   -9.0679   -3.1299  -10.0664 N   0  0  0  0  0  0  0  0  0  0  0  0
  -10.4119   -2.6989  -12.8683 C   0  0  0  0  0  0  0  0  0  0  0  0
  -11.5628   -2.2642  -13.4699 N   0  0  0  0  0  0  0  0  0  0  0  0
  -16.2230   -3.1240  -12.5141 N   0  0  0  0  0  0  0  0  0  0  0  0
  1  6  1  0  0  0  0
  2  1  1  0  0  0  0
  3  4  1  0  0  0  0
  3  2  2  0  0  0  0
  4  5  2  0  0  0  0
  5  8  1  0  0  0  0
  5  6  1  0  0  0  0
  6  7  2  0  0  0  0
  8  9  1  0  0  0  0
  9 10  1  0  0  0  0
 11  8  2  0  0  0  0
 12  4  1  0  0  0  0
 12 11  1  0  0  0  0
 13  2  1  0  0  0  0
M  END
>  <CHROM.1>
-109.72358473,73.77250144,-12.45806253,-3.42133018,-11.79408492,2.95558046
-0.11205255,-0.97817840

>  <Name>
lig.pdb

>  <RI>
1.8118e+07

>  <Rbt.Current_Directory>
/home/itssahil/PROJECTS/Mol_Feturizer/New_Systems/rnas/2miy

>  <Rbt.Executable>
rbdock ($Id: //depot/dev/client3/rdock/2013.1/src/exe/rbdock.cxx#4 $)

>  <Rbt.Library>
libRbt.so (2013.1, Build901 2013/11/27)

>  <Rbt.Parameter_File>
/export/apps/rDock/src/rDock_2013.1_src/data/scripts/dock_solv.prm

>  <Rbt.Receptor>
prm/blind_docking_100.prm

>  <SCORE>
-34.7823

>  <SCORE.INTER>
-37.1541

>  <SCORE.INTER.CONST>
1

>  <SCORE.INTER.POLAR>
-5.71601

>  <SCORE.INTER.ROT>
2

>  <SCORE.INTER.SOLV>
12.5355

>  <SCORE.INTER.VDW>
-14.8279

>  <SCORE.INTER.norm>
-2.85801

>  <SCORE.INTRA>
2.37173

>  <SCORE.INTRA.DIHEDRAL>
1.70247

>  <SCORE.INTRA.DIHEDRAL.0>
1.76676

>  <SCORE.INTRA.POLAR>
0.472211

>  <SCORE.INTRA.POLAR.0>
-0.472211

>  <SCORE.INTRA.REPUL>
0

>  <SCORE.INTRA.REPUL.0>
0

>  <SCORE.INTRA.SOLV>
-0.590939

>  <SCORE.INTRA.SOLV.lig_0>
-22.5855

>  <SCORE.INTRA.VDW>
0.210448

>  <SCORE.INTRA.VDW.0>
-0.733656

>  <SCORE.INTRA.norm>
0.182441

>  <SCORE.RESTR>
0

>  <SCORE.RESTR.CAVITY>
0

>  <SCORE.RESTR.norm>
0

>  <SCORE.SYSTEM>
0

>  <SCORE.SYSTEM.CONST>
0

>  <SCORE.SYSTEM.DIHEDRAL>
0

>  <SCORE.SYSTEM.SOLV>
0

>  <SCORE.SYSTEM.norm>
0

>  <SCORE.heavy>
13

>  <SCORE.norm>
-2.67556

>  <RMSD>
9.598

$$$$
lig.pdb
 OpenBabel11021811453D
libRbt.so/2013.1/901 2013/11/27
 13 14  0  0  0  0  0  0  0  0999 V2000
  -14.4667   -4.0646  -11.2392 N   0  0  0  0  0  0  0  0  0  0  0  0
  -14.8854   -3.2763  -12.2734 C   0  0  0  0  0  0  0  0  0  0  0  0
  -14.0036   -2.6639  -13.0430 N   0  0  0  0  0  0  0  0  0  0  0  0
  -12.6556   -2.7856  -12.8443 C   0  0  0  0  0  0  0  0  0  0  0  0
  -12.1666   -3.5856  -11.7831 C   0  0  0  0  0  0  0  0  0  0  0  0
  -13.1267   -4.2443  -10.9573 C   0  0  0  0  0  0  0  0  0  0  0  0
  -12.7731   -4.9462  -10.0260 O   0  0  0  0  0  0  0  0  0  0  0  0
  -10.7025   -3.4987  -11.8357 C   0  0  0  0  0  0  0  0  0  0  0  0
   -9.7085   -4.1520  -10.9121 C   0  0  0  0  0  0  0  0  0  0  0  0
   -9.0723   -3.1291  -10.0714 N   0  0  0  0  0  0  0  0  0  0  0  0
  -10.4157   -2.7088  -12.8778 C   0  0  0  0  0  0  0  0  0  0  0  0
  -11.5669   -2.2749  -13.4794 N   0  0  0  0  0  0  0  0  0  0  0  0
  -16.2269   -3.1215  -12.5110 N   0  0  0  0  0  0  0  0  0  0  0  0
  1  6  1  0  0  0  0
  2  1  1  0  0  0  0
  3  4  1  0  0  0  0
  3  2  2  0  0  0  0
  4  5  2  0  0  0  0
  5  8  1  0  0  0  0
  5  6  1  0  0  0  0
  6  7  2  0  0  0  0
  8  9  1  0  0  0  0
  9 10  1  0  0  0  0
 11  8  2  0  0  0  0
 12  4  1  0  0  0  0
 12 11  1  0  0  0  0
 13  2  1  0  0  0  0
M  END
>  <CHROM.1>
-109.43574032,74.26854266,-12.46161429,-3.42217109,-11.79582674,2.95551575
-0.10958122,-0.98348515

>  <Name>
lig.pdb

>  <RI>
1.8118e+07

>  <Rbt.Current_Directory>
/home/itssahil/PROJECTS/Mol_Feturizer/New_Systems/rnas/2miy

>  <Rbt.Executable>
rbdock ($Id: //depot/dev/client3/rdock/2013.1/src/exe/rbdock.cxx#4 $)

>  <Rbt.Library>
libRbt.so (2013.1, Build901 2013/11/27)

>  <Rbt.Parameter_File>
/export/apps/rDock/src/rDock_2013.1_src/data/scripts/dock_solv.prm

>  <Rbt.Receptor>
prm/blind_docking_100.prm

>  <SCORE>
-34.7816

>  <SCORE.INTER>
-37.1481

>  <SCORE.INTER.CONST>
1

>  <SCORE.INTER.POLAR>
-5.72929

>  <SCORE.INTER.ROT>
2

>  <SCORE.INTER.SOLV>
12.5473

>  <SCORE.INTER.VDW>
-14.7836

>  <SCORE.INTER.norm>
-2.85755

>  <SCORE.INTRA>
2.3665

>  <SCORE.INTRA.DIHEDRAL>
1.69343

>  <SCORE.INTRA.DIHEDRAL.0>
1.76676

>  <SCORE.INTRA.POLAR>
0.472211

>  <SCORE.INTRA.POLAR.0>
-0.472211

>  <SCORE.INTRA.REPUL>
0

>  <SCORE.INTRA.REPUL.0>
0

>  <SCORE.INTRA.SOLV>
-0.589781

>  <SCORE.INTRA.SOLV.lig_0>
-22.5855

>  <SCORE.INTRA.VDW>
0.209152

>  <SCORE.INTRA.VDW.0>
-0.733656

>  <SCORE.INTRA.norm>
0.182038

>  <SCORE.RESTR>
0

>  <SCORE.RESTR.CAVITY>
0

>  <SCORE.RESTR.norm>
0

>  <SCORE.SYSTEM>
0

>  <SCORE.SYSTEM.CONST>
0

>  <SCORE.SYSTEM.DIHEDRAL>
0

>  <SCORE.SYSTEM.SOLV>
0

>  <SCORE.SYSTEM.norm>
0

>  <SCORE.heavy>
13

>  <SCORE.norm>
-2.67551

>  <RMSD>
9.601

$$$$
lig.pdb
 OpenBabel11021811453D
libRbt.so/2013.1/901 2013/11/27
 13 14  0  0  0  0  0  0  0  0999 V2000
  -14.4627   -4.0692  -11.2460 N   0  0  0  0  0  0  0  0  0  0  0  0
  -14.8820   -3.2804  -12.2795 C   0  0  0  0  0  0  0  0  0  0  0  0
  -14.0008   -2.6656  -13.0478 N   0  0  0  0  0  0  0  0  0  0  0  0
  -12.6527   -2.7852  -12.8483 C   0  0  0  0  0  0  0  0  0  0  0  0
  -12.1630   -3.5857  -11.7877 C   0  0  0  0  0  0  0  0  0  0  0  0
  -13.1226   -4.2469  -10.9633 C   0  0  0  0  0  0  0  0  0  0  0  0
  -12.7684   -4.9494  -10.0326 O   0  0  0  0  0  0  0  0  0  0  0  0
  -10.6990   -3.4962  -11.8393 C   0  0  0  0  0  0  0  0  0  0  0  0
   -9.7046   -4.1489  -10.9157 C   0  0  0  0  0  0  0  0  0  0  0  0
   -9.0714   -3.1261  -10.0727 N   0  0  0  0  0  0  0  0  0  0  0  0
  -10.4128   -2.7046  -12.8802 C   0  0  0  0  0  0  0  0  0  0  0  0
  -11.5644   -2.2719  -13.4820 N   0  0  0  0  0  0  0  0  0  0  0  0
  -16.2236   -3.1275  -12.5178 N   0  0  0  0  0  0  0  0  0  0  0  0
  1  6  1  0  0  0  0
  2  1  1  0  0  0  0
  3  4  1  0  0  0  0
  3  2  2  0  0  0  0
  4  5  2  0  0  0  0
  5  8  1  0  0  0  0
  5  6  1  0  0  0  0
  6  7  2  0  0  0  0
  8  9  1  0  0  0  0
  9 10  1  0  0  0  0
 11  8  2  0  0  0  0
 12  4  1  0  0  0  0
 12 11  1  0  0  0  0
 13  2  1  0  0  0  0
M  END
>  <CHROM.1>
-109.39824039,73.62520155,-12.45838254,-3.42271291,-11.80042226,2.95581201
-0.11137506,-0.98228254

>  <Name>
lig.pdb

>  <RI>
1.8118e+07

>  <Rbt.Current_Directory>
/home/itssahil/PROJECTS/Mol_Feturizer/New_Systems/rnas/2miy

>  <Rbt.Executable>
rbdock ($Id: //depot/dev/client3/rdock/2013.1/src/exe/rbdock.cxx#4 $)

>  <Rbt.Library>
libRbt.so (2013.1, Build901 2013/11/27)

>  <Rbt.Parameter_File>
/export/apps/rDock/src/rDock_2013.1_src/data/scripts/dock_solv.prm

>  <Rbt.Receptor>
prm/blind_docking_100.prm

>  <SCORE>
-34.7473

>  <SCORE.INTER>
-37.1137

>  <SCORE.INTER.CONST>
1

>  <SCORE.INTER.POLAR>
-5.72879

>  <SCORE.INTER.ROT>
2

>  <SCORE.INTER.SOLV>
12.5377

>  <SCORE.INTER.VDW>
-14.7591

>  <SCORE.INTER.norm>
-2.8549

>  <SCORE.INTRA>
2.36645

>  <SCORE.INTRA.DIHEDRAL>
1.69306

>  <SCORE.INTRA.DIHEDRAL.0>
1.76676

>  <SCORE.INTRA.POLAR>
0.472211

>  <SCORE.INTRA.POLAR.0>
-0.472211

>  <SCORE.INTRA.REPUL>
0

>  <SCORE.INTRA.REPUL.0>
0

>  <SCORE.INTRA.SOLV>
-0.589581

>  <SCORE.INTRA.SOLV.lig_0>
-22.5855

>  <SCORE.INTRA.VDW>
0.209188

>  <SCORE.INTRA.VDW.0>
-0.733656

>  <SCORE.INTRA.norm>
0.182034

>  <SCORE.RESTR>
0

>  <SCORE.RESTR.CAVITY>
0

>  <SCORE.RESTR.norm>
0

>  <SCORE.SYSTEM>
0

>  <SCORE.SYSTEM.CONST>
0

>  <SCORE.SYSTEM.DIHEDRAL>
0

>  <SCORE.SYSTEM.SOLV>
0

>  <SCORE.SYSTEM.norm>
0

>  <SCORE.heavy>
13

>  <SCORE.norm>
-2.67287

>  <RMSD>
9.602

$$$$
lig.pdb
 OpenBabel11021811453D
libRbt.so/2013.1/901 2013/11/27
 13 14  0  0  0  0  0  0  0  0999 V2000
  -14.4562   -4.1102  -11.2770 N   0  0  0  0  0  0  0  0  0  0  0  0
  -14.8716   -3.3112  -12.3043 C   0  0  0  0  0  0  0  0  0  0  0  0
  -13.9877   -2.6781  -13.0545 N   0  0  0  0  0  0  0  0  0  0  0  0
  -12.6408   -2.7882  -12.8419 C   0  0  0  0  0  0  0  0  0  0  0  0
  -12.1554   -3.5986  -11.7870 C   0  0  0  0  0  0  0  0  0  0  0  0
  -13.1177   -4.2797  -10.9822 C   0  0  0  0  0  0  0  0  0  0  0  0
  -12.7672   -4.9916  -10.0573 O   0  0  0  0  0  0  0  0  0  0  0  0
  -10.6918   -3.4953  -11.8213 C   0  0  0  0  0  0  0  0  0  0  0  0
   -9.7015   -4.1515  -10.8959 C   0  0  0  0  0  0  0  0  0  0  0  0
   -9.0626   -3.1304  -10.0551 N   0  0  0  0  0  0  0  0  0  0  0  0
  -10.4016   -2.6870  -12.8482 C   0  0  0  0  0  0  0  0  0  0  0  0
  -11.5505   -2.2565  -13.4567 N   0  0  0  0  0  0  0  0  0  0  0  0
  -16.2118   -3.1672  -12.5552 N   0  0  0  0  0  0  0  0  0  0  0  0
  1  6  1  0  0  0  0
  2  1  1  0  0  0  0
  3  4  1  0  0  0  0
  3  2  2  0  0  0  0
  4  5  2  0  0  0  0
  5  8  1  0  0  0  0
  5  6  1  0  0  0  0
  6  7  2  0  0  0  0
  8  9  1  0  0  0  0
  9 10  1  0  0  0  0
 11  8  2  0  0  0  0
 12  4  1  0  0  0  0
 12 11  1  0  0  0  0
 13  2  1  0  0  0  0
M  END
>  <CHROM.1>
-110.78626035,73.72740057,-12.44980179,-3.43779399,-11.80283661,2.95460519
-0.12470807,-0.96726102

>  <Name>
lig.pdb

>  <RI>
1.17462e+07

>  <Rbt.Current_Directory>
/home/itssahil/PROJECTS/Mol_Feturizer/New_Systems/rnas/2miy

>  <Rbt.Executable>
rbdock ($Id: //depot/dev/client3/rdock/2013.1/src/exe/rbdock.cxx#4 $)

>  <Rbt.Library>
libRbt.so (2013.1, Build901 2013/11/27)

>  <Rbt.Parameter_File>
/export/apps/rDock/src/rDock_2013.1_src/data/scripts/dock_solv.prm

>  <Rbt.Receptor>
prm/blind_docking_40.prm

>  <SCORE>
-34.7734

>  <SCORE.INTER>
-37.1619

>  <SCORE.INTER.CONST>
1

>  <SCORE.INTER.POLAR>
-5.65742

>  <SCORE.INTER.ROT>
2

>  <SCORE.INTER.SOLV>
12.4025

>  <SCORE.INTER.VDW>
-14.9841

>  <SCORE.INTER.norm>
-2.85861

>  <SCORE.INTRA>
2.38858

>  <SCORE.INTRA.DIHEDRAL>
1.73191

>  <SCORE.INTRA.DIHEDRAL.0>
1.76676

>  <SCORE.INTRA.POLAR>
0.472211

>  <SCORE.INTRA.POLAR.0>
-0.472211

>  <SCORE.INTRA.REPUL>
0

>  <SCORE.INTRA.REPUL.0>
0

>  <SCORE.INTRA.SOLV>
-0.595294

>  <SCORE.INTRA.SOLV.lig_0>
-22.5855

>  <SCORE.INTRA.VDW>
0.214758

>  <SCORE.INTRA.VDW.0>
-0.733656

>  <SCORE.INTRA.norm>
0.183737

>  <SCORE.RESTR>
0

>  <SCORE.RESTR.CAVITY>
0

>  <SCORE.RESTR.norm>
0

>  <SCORE.SYSTEM>
0

>  <SCORE.SYSTEM.CONST>
0

>  <SCORE.SYSTEM.DIHEDRAL>
0

>  <SCORE.SYSTEM.SOLV>
0

>  <SCORE.SYSTEM.norm>
0

>  <SCORE.heavy>
13

>  <SCORE.norm>
-2.67487

>  <RMSD>
9.612

$$$$
lig.pdb
 OpenBabel11021811453D
libRbt.so/2013.1/901 2013/11/27
 13 14  0  0  0  0  0  0  0  0999 V2000
  -12.0465   -1.9705  -13.6547 N   0  0  0  0  0  0  0  0  0  0  0  0
  -13.3974   -2.1510  -13.5597 C   0  0  0  0  0  0  0  0  0  0  0  0
  -13.8997   -2.9388  -12.6260 N   0  0  0  0  0  0  0  0  0  0  0  0
  -13.1072   -3.6004  -11.7284 C   0  0  0  0  0  0  0  0  0  0  0  0
  -11.6999   -3.4540  -11.7852 C   0  0  0  0  0  0  0  0  0  0  0  0
  -11.1661   -2.5999  -12.7968 C   0  0  0  0  0  0  0  0  0  0  0  0
   -9.9637   -2.4315  -12.9018 O   0  0  0  0  0  0  0  0  0  0  0  0
  -11.1500   -4.2887  -10.7106 C   0  0  0  0  0  0  0  0  0  0  0  0
   -9.7008   -4.4976  -10.3583 C   0  0  0  0  0  0  0  0  0  0  0  0
   -9.0945   -3.2121   -9.9876 N   0  0  0  0  0  0  0  0  0  0  0  0
  -12.2027   -4.8426  -10.0965 C   0  0  0  0  0  0  0  0  0  0  0  0
  -13.3684   -4.4464  -10.6961 N   0  0  0  0  0  0  0  0  0  0  0  0
  -14.2327   -1.5109  -14.4386 N   0  0  0  0  0  0  0  0  0  0  0  0
  1  6  1  0  0  0  0
  2  1  1  0  0  0  0
  3  4  1  0  0  0  0
  3  2  2  0  0  0  0
  4  5  2  0  0  0  0
  5  8  1  0  0  0  0
  5  6  1  0  0  0  0
  6  7  2  0  0  0  0
  8  9  1  0  0  0  0
  9 10  1  0  0  0  0
 11  8  2  0  0  0  0
 12  4  1  0  0  0  0
 12 11  1  0  0  0  0
 13  2  1  0  0  0  0
M  END
>  <CHROM.1>
60.90314805,-132.91935756,-11.89871747,-3.18046620,-11.97336897,-2.29334004
0.16307523,2.23642919

>  <Name>
lig.pdb

>  <RI>
1.8118e+07

>  <Rbt.Current_Directory>
/home/itssahil/PROJECTS/Mol_Feturizer/New_Systems/rnas/2miy

>  <Rbt.Executable>
rbdock ($Id: //depot/dev/client3/rdock/2013.1/src/exe/rbdock.cxx#4 $)

>  <Rbt.Library>
libRbt.so (2013.1, Build901 2013/11/27)

>  <Rbt.Parameter_File>
/export/apps/rDock/src/rDock_2013.1_src/data/scripts/dock_solv.prm

>  <Rbt.Receptor>
prm/blind_docking_100.prm

>  <SCORE>
-30.8494

>  <SCORE.INTER>
-32.2336

>  <SCORE.INTER.CONST>
1

>  <SCORE.INTER.POLAR>
-4.4322

>  <SCORE.INTER.ROT>
2

>  <SCORE.INTER.SOLV>
11.7593

>  <SCORE.INTER.VDW>
-15.5682

>  <SCORE.INTER.norm>
-2.47951

>  <SCORE.INTRA>
1.38424

>  <SCORE.INTRA.DIHEDRAL>
-0.34434

>  <SCORE.INTRA.DIHEDRAL.0>
1.76676

>  <SCORE.INTRA.POLAR>
0.472211

>  <SCORE.INTRA.POLAR.0>
-0.472211

>  <SCORE.INTRA.REPUL>
0

>  <SCORE.INTRA.REPUL.0>
0

>  <SCORE.INTRA.SOLV>
-0.180069

>  <SCORE.INTRA.SOLV.lig_0>
-22.5855

>  <SCORE.INTRA.VDW>
0.0409295

>  <SCORE.INTRA.VDW.0>
-0.733656

>  <SCORE.INTRA.norm>
0.10648

>  <SCORE.RESTR>
0

>  <SCORE.RESTR.CAVITY>
0

>  <SCORE.RESTR.norm>
0

>  <SCORE.SYSTEM>
0

>  <SCORE.SYSTEM.CONST>
0

>  <SCORE.SYSTEM.DIHEDRAL>
0

>  <SCORE.SYSTEM.SOLV>
0

>  <SCORE.SYSTEM.norm>
0

>  <SCORE.heavy>
13

>  <SCORE.norm>
-2.37303

>  <RMSD>
9.651

$$$$
lig.pdb
 OpenBabel11021811453D
libRbt.so/2013.1/901 2013/11/27
 13 14  0  0  0  0  0  0  0  0999 V2000
  -14.4613   -4.1136  -11.2728 N   0  0  0  0  0  0  0  0  0  0  0  0
  -14.8797   -3.3985  -12.3590 C   0  0  0  0  0  0  0  0  0  0  0  0
  -14.0022   -2.7711  -13.1213 N   0  0  0  0  0  0  0  0  0  0  0  0
  -12.6590   -2.8049  -12.8639 C   0  0  0  0  0  0  0  0  0  0  0  0
  -12.1709   -3.5263  -11.7474 C   0  0  0  0  0  0  0  0  0  0  0  0
  -13.1264   -4.2019  -10.9299 C   0  0  0  0  0  0  0  0  0  0  0  0
  -12.7734   -4.8393   -9.9531 O   0  0  0  0  0  0  0  0  0  0  0  0
  -10.7131   -3.3566  -11.7461 C   0  0  0  0  0  0  0  0  0  0  0  0
   -9.7238   -3.9085  -10.7539 C   0  0  0  0  0  0  0  0  0  0  0  0
  -10.4106   -4.2122   -9.4915 N   0  0  0  0  0  0  0  0  0  0  0  0
  -10.4276   -2.5991  -12.8123 C   0  0  0  0  0  0  0  0  0  0  0  0
  -11.5750   -2.2607  -13.4789 N   0  0  0  0  0  0  0  0  0  0  0  0
  -16.2166   -3.3330  -12.6565 N   0  0  0  0  0  0  0  0  0  0  0  0
  1  6  1  0  0  0  0
  2  1  1  0  0  0  0
  3  4  1  0  0  0  0
  3  2  2  0  0  0  0
  4  5  2  0  0  0  0
  5  8  1  0  0  0  0
  5  6  1  0  0  0  0
  6  7  2  0  0  0  0
  8  9  1  0  0  0  0
  9 10  1  0  0  0  0
 11  8  2  0  0  0  0
 12  4  1  0  0  0  0
 12 11  1  0  0  0  0
 13  2  1  0  0  0  0
M  END
>  <CHROM.1>
-21.93103913,132.64297055,-12.58852341,-3.51164801,-11.73784190,2.82696200
-0.11275053,-1.01484781

>  <Name>
lig.pdb

>  <RI>
1.8118e+07

>  <Rbt.Current_Directory>
/home/itssahil/PROJECTS/Mol_Feturizer/New_Systems/rnas/2miy

>  <Rbt.Executable>
rbdock ($Id: //depot/dev/client3/rdock/2013.1/src/exe/rbdock.cxx#4 $)

>  <Rbt.Library>
libRbt.so (2013.1, Build901 2013/11/27)

>  <Rbt.Parameter_File>
/export/apps/rDock/src/rDock_2013.1_src/data/scripts/dock_solv.prm

>  <Rbt.Receptor>
prm/blind_docking_100.prm

>  <SCORE>
-29.5938

>  <SCORE.INTER>
-32.5969

>  <SCORE.INTER.CONST>
1

>  <SCORE.INTER.POLAR>
-4.53412

>  <SCORE.INTER.ROT>
2

>  <SCORE.INTER.SOLV>
10.5646

>  <SCORE.INTER.VDW>
-15.0724

>  <SCORE.INTER.norm>
-2.50745

>  <SCORE.INTRA>
3.00306

>  <SCORE.INTRA.DIHEDRAL>
1.23398

>  <SCORE.INTRA.DIHEDRAL.0>
1.76676

>  <SCORE.INTRA.POLAR>
0.472211

>  <SCORE.INTRA.POLAR.0>
-0.472211

>  <SCORE.INTRA.REPUL>
0

>  <SCORE.INTRA.REPUL.0>
0

>  <SCORE.INTRA.SOLV>
0.183761

>  <SCORE.INTRA.SOLV.lig_0>
-22.5855

>  <SCORE.INTRA.VDW>
0.688675

>  <SCORE.INTRA.VDW.0>
-0.733656

>  <SCORE.INTRA.norm>
0.231005

>  <SCORE.RESTR>
0

>  <SCORE.RESTR.CAVITY>
0

>  <SCORE.RESTR.norm>
0

>  <SCORE.SYSTEM>
0

>  <SCORE.SYSTEM.CONST>
0

>  <SCORE.SYSTEM.DIHEDRAL>
0

>  <SCORE.SYSTEM.SOLV>
0

>  <SCORE.SYSTEM.norm>
0

>  <SCORE.heavy>
13

>  <SCORE.norm>
-2.27645

>  <RMSD>
9.665

$$$$
lig.pdb
 OpenBabel11021811453D
libRbt.so/2013.1/901 2013/11/27
 13 14  0  0  0  0  0  0  0  0999 V2000
  -14.4638   -4.1161  -11.2664 N   0  0  0  0  0  0  0  0  0  0  0  0
  -14.8920   -3.3562  -12.3179 C   0  0  0  0  0  0  0  0  0  0  0  0
  -14.0200   -2.7109  -13.0716 N   0  0  0  0  0  0  0  0  0  0  0  0
  -12.6731   -2.7698  -12.8391 C   0  0  0  0  0  0  0  0  0  0  0  0
  -12.1749   -3.5379  -11.7588 C   0  0  0  0  0  0  0  0  0  0  0  0
  -13.1245   -4.2326  -10.9504 C   0  0  0  0  0  0  0  0  0  0  0  0
  -12.7627   -4.9100  -10.0042 O   0  0  0  0  0  0  0  0  0  0  0  0
  -10.7154   -3.3853  -11.7767 C   0  0  0  0  0  0  0  0  0  0  0  0
   -9.7161   -3.9851  -10.8230 C   0  0  0  0  0  0  0  0  0  0  0  0
  -10.3425   -4.1721   -9.5076 N   0  0  0  0  0  0  0  0  0  0  0  0
  -10.4388   -2.5918  -12.8189 C   0  0  0  0  0  0  0  0  0  0  0  0
  -11.5932   -2.2155  -13.4523 N   0  0  0  0  0  0  0  0  0  0  0  0
  -16.2328   -3.2643  -12.5894 N   0  0  0  0  0  0  0  0  0  0  0  0
  1  6  1  0  0  0  0
  2  1  1  0  0  0  0
  3  4  1  0  0  0  0
  3  2  2  0  0  0  0
  4  5  2  0  0  0  0
  5  8  1  0  0  0  0
  5  6  1  0  0  0  0
  6  7  2  0  0  0  0
  8  9  1  0  0  0  0
  9 10  1  0  0  0  0
 11  8  2  0  0  0  0
 12  4  1  0  0  0  0
 12 11  1  0  0  0  0
 13  2  1  0  0  0  0
M  END
>  <CHROM.1>
-28.96954504,-37.62876305,-12.58800215,-3.50427595,-11.73638950,2.83753611
-0.10031516,-0.99023007

>  <Name>
lig.pdb

>  <RI>
1.17462e+07

>  <Rbt.Current_Directory>
/home/itssahil/PROJECTS/Mol_Feturizer/New_Systems/rnas/2miy

>  <Rbt.Executable>
rbdock ($Id: //depot/dev/client3/rdock/2013.1/src/exe/rbdock.cxx#4 $)

>  <Rbt.Library>
libRbt.so (2013.1, Build901 2013/11/27)

>  <Rbt.Parameter_File>
/export/apps/rDock/src/rDock_2013.1_src/data/scripts/dock_solv.prm

>  <Rbt.Receptor>
prm/blind_docking_40.prm

>  <SCORE>
-29.6278

>  <SCORE.INTER>
-32.0714

>  <SCORE.INTER.CONST>
1

>  <SCORE.INTER.POLAR>
-4.46108

>  <SCORE.INTER.ROT>
2

>  <SCORE.INTER.SOLV>
10.6462

>  <SCORE.INTER.VDW>
-14.9927

>  <SCORE.INTER.norm>
-2.46703

>  <SCORE.INTRA>
2.44359

>  <SCORE.INTRA.DIHEDRAL>
0.793889

>  <SCORE.INTRA.DIHEDRAL.0>
1.76676

>  <SCORE.INTRA.POLAR>
0.472211

>  <SCORE.INTRA.POLAR.0>
-0.472211

>  <SCORE.INTRA.REPUL>
0

>  <SCORE.INTRA.REPUL.0>
0

>  <SCORE.INTRA.SOLV>
0.134394

>  <SCORE.INTRA.SOLV.lig_0>
-22.5855

>  <SCORE.INTRA.VDW>
0.373926

>  <SCORE.INTRA.VDW.0>
-0.733656

>  <SCORE.INTRA.norm>
0.187968

>  <SCORE.RESTR>
0

>  <SCORE.RESTR.CAVITY>
0

>  <SCORE.RESTR.norm>
0

>  <SCORE.SYSTEM>
0

>  <SCORE.SYSTEM.CONST>
0

>  <SCORE.SYSTEM.DIHEDRAL>
0

>  <SCORE.SYSTEM.SOLV>
0

>  <SCORE.SYSTEM.norm>
0

>  <SCORE.heavy>
13

>  <SCORE.norm>
-2.27907

>  <RMSD>
9.665

$$$$
lig.pdb
 OpenBabel11021811453D
libRbt.so/2013.1/901 2013/11/27
 13 14  0  0  0  0  0  0  0  0999 V2000
  -14.4648   -4.0809  -11.2508 N   0  0  0  0  0  0  0  0  0  0  0  0
  -14.8846   -3.3097  -12.2974 C   0  0  0  0  0  0  0  0  0  0  0  0
  -14.0045   -2.6852  -13.0591 N   0  0  0  0  0  0  0  0  0  0  0  0
  -12.6573   -2.7771  -12.8398 C   0  0  0  0  0  0  0  0  0  0  0  0
  -12.1674   -3.5583  -11.7652 C   0  0  0  0  0  0  0  0  0  0  0  0
  -13.1257   -4.2303  -10.9480 C   0  0  0  0  0  0  0  0  0  0  0  0
  -12.7712   -4.9173  -10.0059 O   0  0  0  0  0  0  0  0  0  0  0  0
  -10.7048   -3.4412  -11.7972 C   0  0  0  0  0  0  0  0  0  0  0  0
   -9.7112   -4.0662  -10.8539 C   0  0  0  0  0  0  0  0  0  0  0  0
  -10.3161   -4.2035   -9.5224 N   0  0  0  0  0  0  0  0  0  0  0  0
  -10.4192   -2.6537  -12.8414 C   0  0  0  0  0  0  0  0  0  0  0  0
  -11.5702   -2.2487  -13.4632 N   0  0  0  0  0  0  0  0  0  0  0  0
  -16.2254   -3.1849  -12.5557 N   0  0  0  0  0  0  0  0  0  0  0  0
  1  6  1  0  0  0  0
  2  1  1  0  0  0  0
  3  4  1  0  0  0  0
  3  2  2  0  0  0  0
  4  5  2  0  0  0  0
  5  8  1  0  0  0  0
  5  6  1  0  0  0  0
  6  7  2  0  0  0  0
  8  9  1  0  0  0  0
  9 10  1  0  0  0  0
 11  8  2  0  0  0  0
 12  4  1  0  0  0  0
 12 11  1  0  0  0  0
 13  2  1  0  0  0  0
M  END
>  <CHROM.1>
-30.60015029,144.60204220,-12.57823594,-3.51129662,-11.73775489,2.83328800
-0.07608396,-0.99256740

>  <Name>
lig.pdb

>  <RI>
1.8118e+07

>  <Rbt.Current_Directory>
/home/itssahil/PROJECTS/Mol_Feturizer/New_Systems/rnas/2miy

>  <Rbt.Executable>
rbdock ($Id: //depot/dev/client3/rdock/2013.1/src/exe/rbdock.cxx#4 $)

>  <Rbt.Library>
libRbt.so (2013.1, Build901 2013/11/27)

>  <Rbt.Parameter_File>
/export/apps/rDock/src/rDock_2013.1_src/data/scripts/dock_solv.prm

>  <Rbt.Receptor>
prm/blind_docking_100.prm

>  <SCORE>
-29.6318

>  <SCORE.INTER>
-31.9975

>  <SCORE.INTER.CONST>
1

>  <SCORE.INTER.POLAR>
-4.4997

>  <SCORE.INTER.ROT>
2

>  <SCORE.INTER.SOLV>
10.7036

>  <SCORE.INTER.VDW>
-14.8339

>  <SCORE.INTER.norm>
-2.46134

>  <SCORE.INTRA>
2.3657

>  <SCORE.INTRA.DIHEDRAL>
0.757604

>  <SCORE.INTRA.DIHEDRAL.0>
1.76676

>  <SCORE.INTRA.POLAR>
0.472211

>  <SCORE.INTRA.POLAR.0>
-0.472211

>  <SCORE.INTRA.REPUL>
0

>  <SCORE.INTRA.REPUL.0>
0

>  <SCORE.INTRA.SOLV>
0.124287

>  <SCORE.INTRA.SOLV.lig_0>
-22.5855

>  <SCORE.INTRA.VDW>
0.319241

>  <SCORE.INTRA.VDW.0>
-0.733656

>  <SCORE.INTRA.norm>
0.181977

>  <SCORE.RESTR>
0

>  <SCORE.RESTR.CAVITY>
0

>  <SCORE.RESTR.norm>
0

>  <SCORE.SYSTEM>
0

>  <SCORE.SYSTEM.CONST>
0

>  <SCORE.SYSTEM.DIHEDRAL>
0

>  <SCORE.SYSTEM.SOLV>
0

>  <SCORE.SYSTEM.norm>
0

>  <SCORE.heavy>
13

>  <SCORE.norm>
-2.27937

>  <RMSD>
9.671

$$$$
lig.pdb
 OpenBabel11021811453D
libRbt.so/2013.1/901 2013/11/27
 13 14  0  0  0  0  0  0  0  0999 V2000
  -14.4870   -4.0273  -11.2172 N   0  0  0  0  0  0  0  0  0  0  0  0
  -14.9187   -3.2517  -12.2557 C   0  0  0  0  0  0  0  0  0  0  0  0
  -14.0471   -2.6850  -13.0706 N   0  0  0  0  0  0  0  0  0  0  0  0
  -12.6970   -2.8426  -12.9158 C   0  0  0  0  0  0  0  0  0  0  0  0
  -12.1945   -3.6313  -11.8524 C   0  0  0  0  0  0  0  0  0  0  0  0
  -13.1437   -4.2406  -10.9775 C   0  0  0  0  0  0  0  0  0  0  0  0
  -12.7781   -4.9303  -10.0417 O   0  0  0  0  0  0  0  0  0  0  0  0
  -10.7312   -3.5901  -11.9579 C   0  0  0  0  0  0  0  0  0  0  0  0
   -9.7248   -4.2507  -11.0532 C   0  0  0  0  0  0  0  0  0  0  0  0
   -9.6149   -3.4901   -9.8014 N   0  0  0  0  0  0  0  0  0  0  0  0
  -10.4584   -2.8345  -13.0288 C   0  0  0  0  0  0  0  0  0  0  0  0
  -11.6169   -2.3805  -13.6008 N   0  0  0  0  0  0  0  0  0  0  0  0
  -16.2626   -3.0621  -12.4504 N   0  0  0  0  0  0  0  0  0  0  0  0
  1  6  1  0  0  0  0
  2  1  1  0  0  0  0
  3  4  1  0  0  0  0
  3  2  2  0  0  0  0
  4  5  2  0  0  0  0
  5  8  1  0  0  0  0
  5  6  1  0  0  0  0
  6  7  2  0  0  0  0
  8  9  1  0  0  0  0
  9 10  1  0  0  0  0
 11  8  2  0  0  0  0
 12  4  1  0  0  0  0
 12 11  1  0  0  0  0
 13  2  1  0  0  0  0
M  END
>  <CHROM.1>
-76.30489549,-150.88144607,-12.53945439,-3.48397210,-11.81601561,2.90433103
-0.05305421,-1.04111203

>  <Name>
lig.pdb

>  <RI>
0

>  <Rbt.Current_Directory>
/home/itssahil/PROJECTS/Mol_Feturizer/New_Systems/rnas/2miy

>  <Rbt.Executable>
rbdock ($Id: //depot/dev/client3/rdock/2013.1/src/exe/rbdock.cxx#4 $)

>  <Rbt.Library>
libRbt.so (2013.1, Build901 2013/11/27)

>  <Rbt.Parameter_File>
/export/apps/rDock/src/rDock_2013.1_src/data/scripts/dock_solv.prm

>  <Rbt.Receptor>
prm/blind_docking_60.prm

>  <SCORE>
-29.2586

>  <SCORE.INTER>
-30.8369

>  <SCORE.INTER.CONST>
1

>  <SCORE.INTER.POLAR>
-4.62244

>  <SCORE.INTER.ROT>
2

>  <SCORE.INTER.SOLV>
11.7055

>  <SCORE.INTER.VDW>
-13.9849

>  <SCORE.INTER.norm>
-2.37207

>  <SCORE.INTRA>
1.55876

>  <SCORE.INTRA.DIHEDRAL>
0.0279097

>  <SCORE.INTRA.DIHEDRAL.0>
1.76676

>  <SCORE.INTRA.POLAR>
0.472211

>  <SCORE.INTRA.POLAR.0>
-0.472211

>  <SCORE.INTRA.REPUL>
0

>  <SCORE.INTRA.REPUL.0>
0

>  <SCORE.INTRA.SOLV>
-0.322392

>  <SCORE.INTRA.SOLV.lig_0>
-22.5855

>  <SCORE.INTRA.VDW>
0.100486

>  <SCORE.INTRA.VDW.0>
-0.733656

>  <SCORE.INTRA.norm>
0.119905

>  <SCORE.RESTR>
0.0194839

>  <SCORE.RESTR.CAVITY>
0.0194839

>  <SCORE.RESTR.norm>
0.00149876

>  <SCORE.SYSTEM>
0

>  <SCORE.SYSTEM.CONST>
0

>  <SCORE.SYSTEM.DIHEDRAL>
0

>  <SCORE.SYSTEM.SOLV>
0

>  <SCORE.SYSTEM.norm>
0

>  <SCORE.heavy>
13

>  <SCORE.norm>
-2.25066

>  <RMSD>
9.685

$$$$
lig.pdb
 OpenBabel11021811453D
libRbt.so/2013.1/901 2013/11/27
 13 14  0  0  0  0  0  0  0  0999 V2000
  -14.4437   -4.2516  -11.3605 N   0  0  0  0  0  0  0  0  0  0  0  0
  -14.8568   -3.6463  -12.5135 C   0  0  0  0  0  0  0  0  0  0  0  0
  -13.9940   -2.9860  -13.2648 N   0  0  0  0  0  0  0  0  0  0  0  0
  -12.6720   -2.8769  -12.9302 C   0  0  0  0  0  0  0  0  0  0  0  0
  -12.1910   -3.4800  -11.7427 C   0  0  0  0  0  0  0  0  0  0  0  0
  -13.1303   -4.1923  -10.9376 C   0  0  0  0  0  0  0  0  0  0  0  0
  -12.7825   -4.7331   -9.9024 O   0  0  0  0  0  0  0  0  0  0  0  0
  -10.7576   -3.1734  -11.6702 C   0  0  0  0  0  0  0  0  0  0  0  0
   -9.7861   -3.5681  -10.5894 C   0  0  0  0  0  0  0  0  0  0  0  0
   -9.3881   -4.9700  -10.7738 N   0  0  0  0  0  0  0  0  0  0  0  0
  -10.4761   -2.4582  -12.7663 C   0  0  0  0  0  0  0  0  0  0  0  0
  -11.6057   -2.2708  -13.5176 N   0  0  0  0  0  0  0  0  0  0  0  0
  -16.1729   -3.7258  -12.8898 N   0  0  0  0  0  0  0  0  0  0  0  0
  1  6  1  0  0  0  0
  2  1  1  0  0  0  0
  3  4  1  0  0  0  0
  3  2  2  0  0  0  0
  4  5  2  0  0  0  0
  5  8  1  0  0  0  0
  5  6  1  0  0  0  0
  6  7  2  0  0  0  0
  8  9  1  0  0  0  0
  9 10  1  0  0  0  0
 11  8  2  0  0  0  0
 12  4  1  0  0  0  0
 12 11  1  0  0  0  0
 13  2  1  0  0  0  0
M  END
>  <CHROM.1>
78.75972121,-82.23801173,-12.50231259,-3.60806927,-11.89039741,2.91422782
-0.12679143,-0.93442491

>  <Name>
lig.pdb

>  <RI>
1.17462e+07

>  <Rbt.Current_Directory>
/home/itssahil/PROJECTS/Mol_Feturizer/New_Systems/rnas/2miy

>  <Rbt.Executable>
rbdock ($Id: //depot/dev/client3/rdock/2013.1/src/exe/rbdock.cxx#4 $)

>  <Rbt.Library>
libRbt.so (2013.1, Build901 2013/11/27)

>  <Rbt.Parameter_File>
/export/apps/rDock/src/rDock_2013.1_src/data/scripts/dock_solv.prm

>  <Rbt.Receptor>
prm/blind_docking_40.prm

>  <SCORE>
-28.3202

>  <SCORE.INTER>
-29.9264

>  <SCORE.INTER.CONST>
1

>  <SCORE.INTER.POLAR>
-3.98496

>  <SCORE.INTER.ROT>
2

>  <SCORE.INTER.SOLV>
10.462

>  <SCORE.INTER.VDW>
-15.0884

>  <SCORE.INTER.norm>
-2.30203

>  <SCORE.INTRA>
1.60619

>  <SCORE.INTRA.DIHEDRAL>
0.18151

>  <SCORE.INTRA.DIHEDRAL.0>
1.76676

>  <SCORE.INTRA.POLAR>
0.472211

>  <SCORE.INTRA.POLAR.0>
-0.472211

>  <SCORE.INTRA.REPUL>
0

>  <SCORE.INTRA.REPUL.0>
0

>  <SCORE.INTRA.SOLV>
-0.331557

>  <SCORE.INTRA.SOLV.lig_0>
-22.5855

>  <SCORE.INTRA.VDW>
0.0756921

>  <SCORE.INTRA.VDW.0>
-0.733656

>  <SCORE.INTRA.norm>
0.123553

>  <SCORE.RESTR>
0

>  <SCORE.RESTR.CAVITY>
0

>  <SCORE.RESTR.norm>
0

>  <SCORE.SYSTEM>
0

>  <SCORE.SYSTEM.CONST>
0

>  <SCORE.SYSTEM.DIHEDRAL>
0

>  <SCORE.SYSTEM.SOLV>
0

>  <SCORE.SYSTEM.norm>
0

>  <SCORE.heavy>
13

>  <SCORE.norm>
-2.17848

>  <RMSD>
9.780

$$$$
lig.pdb
 OpenBabel11021811453D
libRbt.so/2013.1/901 2013/11/27
 13 14  0  0  0  0  0  0  0  0999 V2000
  -11.8941   -2.3094  -13.7565 N   0  0  0  0  0  0  0  0  0  0  0  0
  -13.2311   -2.5886  -13.7869 C   0  0  0  0  0  0  0  0  0  0  0  0
  -13.7964   -3.2476  -12.7914 N   0  0  0  0  0  0  0  0  0  0  0  0
  -13.0840   -3.6754  -11.7046 C   0  0  0  0  0  0  0  0  0  0  0  0
  -11.6939   -3.4182  -11.6244 C   0  0  0  0  0  0  0  0  0  0  0  0
  -11.0918   -2.7047  -12.7042 C   0  0  0  0  0  0  0  0  0  0  0  0
   -9.8997   -2.4520  -12.6986 O   0  0  0  0  0  0  0  0  0  0  0  0
  -11.2329   -4.0073  -10.3616 C   0  0  0  0  0  0  0  0  0  0  0  0
   -9.8306   -4.0259   -9.8132 C   0  0  0  0  0  0  0  0  0  0  0  0
   -9.0951   -5.1632  -10.3818 N   0  0  0  0  0  0  0  0  0  0  0  0
  -12.3170   -4.5390   -9.7836 C   0  0  0  0  0  0  0  0  0  0  0  0
  -13.4195   -4.3537  -10.5746 N   0  0  0  0  0  0  0  0  0  0  0  0
  -13.9868   -2.1824  -14.8564 N   0  0  0  0  0  0  0  0  0  0  0  0
  1  6  1  0  0  0  0
  2  1  1  0  0  0  0
  3  4  1  0  0  0  0
  3  2  2  0  0  0  0
  4  5  2  0  0  0  0
  5  8  1  0  0  0  0
  5  6  1  0  0  0  0
  6  7  2  0  0  0  0
  8  9  1  0  0  0  0
  9 10  1  0  0  0  0
 11  8  2  0  0  0  0
 12  4  1  0  0  0  0
 12 11  1  0  0  0  0
 13  2  1  0  0  0  0
M  END
>  <CHROM.1>
-84.65066869,-76.46084071,-11.85939376,-3.43366904,-11.95196263,-2.19473788
0.06966032,2.10712094

>  <Name>
lig.pdb

>  <RI>
1.8118e+07

>  <Rbt.Current_Directory>
/home/itssahil/PROJECTS/Mol_Feturizer/New_Systems/rnas/2miy

>  <Rbt.Executable>
rbdock ($Id: //depot/dev/client3/rdock/2013.1/src/exe/rbdock.cxx#4 $)

>  <Rbt.Library>
libRbt.so (2013.1, Build901 2013/11/27)

>  <Rbt.Parameter_File>
/export/apps/rDock/src/rDock_2013.1_src/data/scripts/dock_solv.prm

>  <Rbt.Receptor>
prm/blind_docking_100.prm

>  <SCORE>
-25.6181

>  <SCORE.INTER>
-27.3839

>  <SCORE.INTER.CONST>
1

>  <SCORE.INTER.POLAR>
-3.65974

>  <SCORE.INTER.ROT>
2

>  <SCORE.INTER.SOLV>
11.0921

>  <SCORE.INTER.VDW>
-14.6875

>  <SCORE.INTER.norm>
-2.10645

>  <SCORE.INTRA>
1.76483

>  <SCORE.INTRA.DIHEDRAL>
0.501728

>  <SCORE.INTRA.DIHEDRAL.0>
1.76676

>  <SCORE.INTRA.POLAR>
0.472211

>  <SCORE.INTRA.POLAR.0>
-0.472211

>  <SCORE.INTRA.REPUL>
0

>  <SCORE.INTRA.REPUL.0>
0

>  <SCORE.INTRA.SOLV>
-0.405363

>  <SCORE.INTRA.SOLV.lig_0>
-22.5855

>  <SCORE.INTRA.VDW>
0.111134

>  <SCORE.INTRA.VDW.0>
-0.733656

>  <SCORE.INTRA.norm>
0.135756

>  <SCORE.RESTR>
0.000919286

>  <SCORE.RESTR.CAVITY>
0.000919286

>  <SCORE.RESTR.norm>
7.07143e-05

>  <SCORE.SYSTEM>
0

>  <SCORE.SYSTEM.CONST>
0

>  <SCORE.SYSTEM.DIHEDRAL>
0

>  <SCORE.SYSTEM.SOLV>
0

>  <SCORE.SYSTEM.norm>
0

>  <SCORE.heavy>
13

>  <SCORE.norm>
-1.97062

>  <RMSD>
9.818

$$$$
lig.pdb
 OpenBabel11021811453D
libRbt.so/2013.1/901 2013/11/27
 13 14  0  0  0  0  0  0  0  0999 V2000
  -13.4806   -6.0326  -10.7570 N   0  0  0  0  0  0  0  0  0  0  0  0
  -13.8966   -5.1125  -11.6772 C   0  0  0  0  0  0  0  0  0  0  0  0
  -13.1047   -4.1142  -12.0254 N   0  0  0  0  0  0  0  0  0  0  0  0
  -11.8556   -3.9556  -11.4905 C   0  0  0  0  0  0  0  0  0  0  0  0
  -11.3763   -4.8771  -10.5280 C   0  0  0  0  0  0  0  0  0  0  0  0
  -12.2385   -5.9531  -10.1586 C   0  0  0  0  0  0  0  0  0  0  0  0
  -11.8881   -6.7800   -9.3348 O   0  0  0  0  0  0  0  0  0  0  0  0
  -10.0310   -4.4262  -10.1527 C   0  0  0  0  0  0  0  0  0  0  0  0
   -9.0986   -5.0503   -9.1482 C   0  0  0  0  0  0  0  0  0  0  0  0
   -7.9997   -4.1212   -8.8536 N   0  0  0  0  0  0  0  0  0  0  0  0
   -9.7900   -3.3312  -10.8841 C   0  0  0  0  0  0  0  0  0  0  0  0
  -10.8682   -3.0392  -11.6764 N   0  0  0  0  0  0  0  0  0  0  0  0
  -15.1417   -5.2278  -12.2397 N   0  0  0  0  0  0  0  0  0  0  0  0
  1  6  1  0  0  0  0
  2  1  1  0  0  0  0
  3  4  1  0  0  0  0
  3  2  2  0  0  0  0
  4  5  2  0  0  0  0
  5  8  1  0  0  0  0
  5  6  1  0  0  0  0
  6  7  2  0  0  0  0
  8  9  1  0  0  0  0
  9 10  1  0  0  0  0
 11  8  2  0  0  0  0
 12  4  1  0  0  0  0
 12 11  1  0  0  0  0
 13  2  1  0  0  0  0
M  END
>  <CHROM.1>
-166.95604853,22.30226553,-11.60502922,-4.78779996,-10.67005662,3.05093009
-0.42323174,-0.66181454

>  <Name>
lig.pdb

>  <RI>
1.82164e+07

>  <Rbt.Current_Directory>
/home/itssahil/PROJECTS/Mol_Feturizer/New_Systems/rnas/2miy

>  <Rbt.Executable>
rbdock ($Id: //depot/dev/client3/rdock/2013.1/src/exe/rbdock.cxx#4 $)

>  <Rbt.Library>
libRbt.so (2013.1, Build901 2013/11/27)

>  <Rbt.Parameter_File>
/export/apps/rDock/src/rDock_2013.1_src/data/scripts/dock_solv.prm

>  <Rbt.Receptor>
prm/blind_docking_80.prm

>  <SCORE>
-23.6056

>  <SCORE.INTER>
-25.8004

>  <SCORE.INTER.CONST>
1

>  <SCORE.INTER.POLAR>
-3.15705

>  <SCORE.INTER.ROT>
2

>  <SCORE.INTER.SOLV>
11.5656

>  <SCORE.INTER.VDW>
-15.4653

>  <SCORE.INTER.norm>
-1.98464

>  <SCORE.INTRA>
2.19476

>  <SCORE.INTRA.DIHEDRAL>
-0.0583386

>  <SCORE.INTRA.DIHEDRAL.0>
1.76676

>  <SCORE.INTRA.POLAR>
0.472211

>  <SCORE.INTRA.POLAR.0>
-0.472211

>  <SCORE.INTRA.REPUL>
0

>  <SCORE.INTRA.REPUL.0>
0

>  <SCORE.INTRA.SOLV>
-0.571507

>  <SCORE.INTRA.SOLV.lig_0>
-22.5855

>  <SCORE.INTRA.VDW>
0.904166

>  <SCORE.INTRA.VDW.0>
-0.733656

>  <SCORE.INTRA.norm>
0.168828

>  <SCORE.RESTR>
0

>  <SCORE.RESTR.CAVITY>
0

>  <SCORE.RESTR.norm>
0

>  <SCORE.SYSTEM>
0

>  <SCORE.SYSTEM.CONST>
0

>  <SCORE.SYSTEM.DIHEDRAL>
0

>  <SCORE.SYSTEM.SOLV>
0

>  <SCORE.SYSTEM.norm>
0

>  <SCORE.heavy>
13

>  <SCORE.norm>
-1.81581

>  <RMSD>
10.031

$$$$
lig.pdb
 OpenBabel11021811453D
libRbt.so/2013.1/901 2013/11/27
 13 14  0  0  0  0  0  0  0  0999 V2000
  -15.1517   -4.1987  -11.6290 N   0  0  0  0  0  0  0  0  0  0  0  0
  -15.5408   -3.2811  -12.5633 C   0  0  0  0  0  0  0  0  0  0  0  0
  -14.6368   -2.6084  -13.2526 N   0  0  0  0  0  0  0  0  0  0  0  0
  -13.2942   -2.7930  -13.0663 C   0  0  0  0  0  0  0  0  0  0  0  0
  -12.8353   -3.7275  -12.1065 C   0  0  0  0  0  0  0  0  0  0  0  0
  -13.8193   -4.4505  -11.3671 C   0  0  0  0  0  0  0  0  0  0  0  0
  -13.4921   -5.2683  -10.5249 O   0  0  0  0  0  0  0  0  0  0  0  0
  -11.3690   -3.6788  -12.1447 C   0  0  0  0  0  0  0  0  0  0  0  0
  -10.4002   -4.4664  -11.3027 C   0  0  0  0  0  0  0  0  0  0  0  0
   -9.6556   -3.5533  -10.4255 N   0  0  0  0  0  0  0  0  0  0  0  0
  -11.0528   -2.7797  -13.0849 C   0  0  0  0  0  0  0  0  0  0  0  0
  -12.1871   -2.2433  -13.6335 N   0  0  0  0  0  0  0  0  0  0  0  0
  -16.8757   -3.0592  -12.7842 N   0  0  0  0  0  0  0  0  0  0  0  0
  1  6  1  0  0  0  0
  2  1  1  0  0  0  0
  3  4  1  0  0  0  0
  3  2  2  0  0  0  0
  4  5  2  0  0  0  0
  5  8  1  0  0  0  0
  5  6  1  0  0  0  0
  6  7  2  0  0  0  0
  8  9  1  0  0  0  0
  9 10  1  0  0  0  0
 11  8  2  0  0  0  0
 12  4  1  0  0  0  0
 12 11  1  0  0  0  0
 13  2  1  0  0  0  0
M  END
>  <CHROM.1>
-114.29766723,-113.31502253,-13.11744343,-3.55354441,-12.10785171,2.94301873
-0.08717892,-0.85976115

>  <Name>
lig.pdb

>  <RI>
1.17462e+07

>  <Rbt.Current_Directory>
/home/itssahil/PROJECTS/Mol_Feturizer/New_Systems/rnas/2miy

>  <Rbt.Executable>
rbdock ($Id: //depot/dev/client3/rdock/2013.1/src/exe/rbdock.cxx#4 $)

>  <Rbt.Library>
libRbt.so (2013.1, Build901 2013/11/27)

>  <Rbt.Parameter_File>
/export/apps/rDock/src/rDock_2013.1_src/data/scripts/dock_solv.prm

>  <Rbt.Receptor>
prm/blind_docking_40.prm

>  <SCORE>
-29.9135

>  <SCORE.INTER>
-32.3674

>  <SCORE.INTER.CONST>
1

>  <SCORE.INTER.POLAR>
-4.56493

>  <SCORE.INTER.ROT>
2

>  <SCORE.INTER.SOLV>
10.6213

>  <SCORE.INTER.VDW>
-14.8356

>  <SCORE.INTER.norm>
-2.4898

>  <SCORE.INTRA>
2.45396

>  <SCORE.INTRA.DIHEDRAL>
1.83869

>  <SCORE.INTRA.DIHEDRAL.0>
1.76676

>  <SCORE.INTRA.POLAR>
0.472211

>  <SCORE.INTRA.POLAR.0>
-0.472211

>  <SCORE.INTRA.REPUL>
0

>  <SCORE.INTRA.REPUL.0>
0

>  <SCORE.INTRA.SOLV>
-0.609452

>  <SCORE.INTRA.SOLV.lig_0>
-22.5855

>  <SCORE.INTRA.VDW>
0.233821

>  <SCORE.INTRA.VDW.0>
-0.733656

>  <SCORE.INTRA.norm>
0.188766

>  <SCORE.RESTR>
0

>  <SCORE.RESTR.CAVITY>
0

>  <SCORE.RESTR.norm>
0

>  <SCORE.SYSTEM>
0

>  <SCORE.SYSTEM.CONST>
0

>  <SCORE.SYSTEM.DIHEDRAL>
0

>  <SCORE.SYSTEM.SOLV>
0

>  <SCORE.SYSTEM.norm>
0

>  <SCORE.heavy>
13

>  <SCORE.norm>
-2.30104

>  <RMSD>
10.117

$$$$
lig.pdb
 OpenBabel11021811453D
libRbt.so/2013.1/901 2013/11/27
 13 14  0  0  0  0  0  0  0  0999 V2000
  -15.1199   -4.1608  -11.6389 N   0  0  0  0  0  0  0  0  0  0  0  0
  -15.5258   -3.2667  -12.5887 C   0  0  0  0  0  0  0  0  0  0  0  0
  -14.6347   -2.5728  -13.2739 N   0  0  0  0  0  0  0  0  0  0  0  0
  -13.2895   -2.7118  -13.0680 C   0  0  0  0  0  0  0  0  0  0  0  0
  -12.8137   -3.6202  -12.0915 C   0  0  0  0  0  0  0  0  0  0  0  0
  -13.7837   -4.3664  -11.3567 C   0  0  0  0  0  0  0  0  0  0  0  0
  -13.4416   -5.1637  -10.5009 O   0  0  0  0  0  0  0  0  0  0  0  0
  -11.3493   -3.5245  -12.1112 C   0  0  0  0  0  0  0  0  0  0  0  0
  -10.3670   -4.2709  -11.2475 C   0  0  0  0  0  0  0  0  0  0  0  0
  -10.9163   -4.4192   -9.8933 N   0  0  0  0  0  0  0  0  0  0  0  0
  -11.0496   -2.6262  -13.0574 C   0  0  0  0  0  0  0  0  0  0  0  0
  -12.1932   -2.1329  -13.6270 N   0  0  0  0  0  0  0  0  0  0  0  0
  -16.8641   -3.0906  -12.8295 N   0  0  0  0  0  0  0  0  0  0  0  0
  1  6  1  0  0  0  0
  2  1  1  0  0  0  0
  3  4  1  0  0  0  0
  3  2  2  0  0  0  0
  4  5  2  0  0  0  0
  5  8  1  0  0  0  0
  5  6  1  0  0  0  0
  6  7  2  0  0  0  0
  8  9  1  0  0  0  0
  9 10  1  0  0  0  0
 11  8  2  0  0  0  0
 12  4  1  0  0  0  0
 12 11  1  0  0  0  0
 13  2  1  0  0  0  0
M  END
>  <CHROM.1>
-36.90765517,-90.15242350,-13.21799188,-3.55760405,-12.05397941,2.82915639
-0.07052384,-0.88753581

>  <Name>
lig.pdb

>  <RI>
1.8118e+07

>  <Rbt.Current_Directory>
/home/itssahil/PROJECTS/Mol_Feturizer/New_Systems/rnas/2miy

>  <Rbt.Executable>
rbdock ($Id: //depot/dev/client3/rdock/2013.1/src/exe/rbdock.cxx#4 $)

>  <Rbt.Library>
libRbt.so (2013.1, Build901 2013/11/27)

>  <Rbt.Parameter_File>
/export/apps/rDock/src/rDock_2013.1_src/data/scripts/dock_solv.prm

>  <Rbt.Receptor>
prm/blind_docking_100.prm

>  <SCORE>
-27.8317

>  <SCORE.INTER>
-28.9326

>  <SCORE.INTER.CONST>
1

>  <SCORE.INTER.POLAR>
-3.88362

>  <SCORE.INTER.ROT>
2

>  <SCORE.INTER.SOLV>
9.59416

>  <SCORE.INTER.VDW>
-14.4744

>  <SCORE.INTER.norm>
-2.22558

>  <SCORE.INTRA>
1.10092

>  <SCORE.INTRA.DIHEDRAL>
0.40462

>  <SCORE.INTRA.DIHEDRAL.0>
1.76676

>  <SCORE.INTRA.POLAR>
0.223511

>  <SCORE.INTRA.POLAR.0>
-0.472211

>  <SCORE.INTRA.REPUL>
0

>  <SCORE.INTRA.REPUL.0>
0

>  <SCORE.INTRA.SOLV>
0.06576

>  <SCORE.INTRA.SOLV.lig_0>
-22.5855

>  <SCORE.INTRA.VDW>
0.105789

>  <SCORE.INTRA.VDW.0>
-0.733656

>  <SCORE.INTRA.norm>
0.084686

>  <SCORE.RESTR>
0

>  <SCORE.RESTR.CAVITY>
0

>  <SCORE.RESTR.norm>
0

>  <SCORE.SYSTEM>
0

>  <SCORE.SYSTEM.CONST>
0

>  <SCORE.SYSTEM.DIHEDRAL>
0

>  <SCORE.SYSTEM.SOLV>
0

>  <SCORE.SYSTEM.norm>
0

>  <SCORE.heavy>
13

>  <SCORE.norm>
-2.1409

>  <RMSD>
10.118

$$$$
lig.pdb
 OpenBabel11021811453D
libRbt.so/2013.1/901 2013/11/27
 13 14  0  0  0  0  0  0  0  0999 V2000
  -14.1481   -5.1641  -11.1884 N   0  0  0  0  0  0  0  0  0  0  0  0
  -14.6025   -4.6429  -12.3666 C   0  0  0  0  0  0  0  0  0  0  0  0
  -13.8178   -3.8757  -13.1018 N   0  0  0  0  0  0  0  0  0  0  0  0
  -12.5384   -3.5707  -12.7253 C   0  0  0  0  0  0  0  0  0  0  0  0
  -12.0184   -4.0794  -11.5104 C   0  0  0  0  0  0  0  0  0  0  0  0
  -12.8732   -4.9083  -10.7230 C   0  0  0  0  0  0  0  0  0  0  0  0
  -12.4885   -5.3771   -9.6660 O   0  0  0  0  0  0  0  0  0  0  0  0
  -10.6480   -3.5668  -11.3962 C   0  0  0  0  0  0  0  0  0  0  0  0
   -9.6693   -3.7997  -10.2756 C   0  0  0  0  0  0  0  0  0  0  0  0
   -9.0750   -5.1361  -10.4115 N   0  0  0  0  0  0  0  0  0  0  0  0
  -10.4335   -2.8350  -12.4965 C   0  0  0  0  0  0  0  0  0  0  0  0
  -11.5504   -2.8251  -13.2888 N   0  0  0  0  0  0  0  0  0  0  0  0
  -15.8788   -4.9184  -12.7851 N   0  0  0  0  0  0  0  0  0  0  0  0
  1  6  1  0  0  0  0
  2  1  1  0  0  0  0
  3  4  1  0  0  0  0
  3  2  2  0  0  0  0
  4  5  2  0  0  0  0
  5  8  1  0  0  0  0
  5  6  1  0  0  0  0
  6  7  2  0  0  0  0
  8  9  1  0  0  0  0
  9 10  1  0  0  0  0
 11  8  2  0  0  0  0
 12  4  1  0  0  0  0
 12 11  1  0  0  0  0
 13  2  1  0  0  0  0
M  END
>  <CHROM.1>
78.26801305,88.37919373,-12.30328630,-4.25400186,-11.66537607,2.97238110
-0.26502675,-0.94084956

>  <Name>
lig.pdb

>  <RI>
1.8118e+07

>  <Rbt.Current_Directory>
/home/itssahil/PROJECTS/Mol_Feturizer/New_Systems/rnas/2miy

>  <Rbt.Executable>
rbdock ($Id: //depot/dev/client3/rdock/2013.1/src/exe/rbdock.cxx#4 $)

>  <Rbt.Library>
libRbt.so (2013.1, Build901 2013/11/27)

>  <Rbt.Parameter_File>
/export/apps/rDock/src/rDock_2013.1_src/data/scripts/dock_solv.prm

>  <Rbt.Receptor>
prm/blind_docking_100.prm

>  <SCORE>
-25.2888

>  <SCORE.INTER>
-26.8552

>  <SCORE.INTER.CONST>
1

>  <SCORE.INTER.POLAR>
-3.46661

>  <SCORE.INTER.ROT>
2

>  <SCORE.INTER.SOLV>
9.99897

>  <SCORE.INTER.VDW>
-14.6144

>  <SCORE.INTER.norm>
-2.06578

>  <SCORE.INTRA>
1.56636

>  <SCORE.INTRA.DIHEDRAL>
0.100452

>  <SCORE.INTRA.DIHEDRAL.0>
1.76676

>  <SCORE.INTRA.POLAR>
0.472211

>  <SCORE.INTRA.POLAR.0>
-0.472211

>  <SCORE.INTRA.REPUL>
0

>  <SCORE.INTRA.REPUL.0>
0

>  <SCORE.INTRA.SOLV>
-0.329893

>  <SCORE.INTRA.SOLV.lig_0>
-22.5855

>  <SCORE.INTRA.VDW>
0.075562

>  <SCORE.INTRA.VDW.0>
-0.733656

>  <SCORE.INTRA.norm>
0.120489

>  <SCORE.RESTR>
0

>  <SCORE.RESTR.CAVITY>
0

>  <SCORE.RESTR.norm>
0

>  <SCORE.SYSTEM>
0

>  <SCORE.SYSTEM.CONST>
0

>  <SCORE.SYSTEM.DIHEDRAL>
0

>  <SCORE.SYSTEM.SOLV>
0

>  <SCORE.SYSTEM.norm>
0

>  <SCORE.heavy>
13

>  <SCORE.norm>
-1.94529

>  <RMSD>
10.120

$$$$
lig.pdb
 OpenBabel11021811453D
libRbt.so/2013.1/901 2013/11/27
 13 14  0  0  0  0  0  0  0  0999 V2000
  -15.1596   -4.2128  -11.6492 N   0  0  0  0  0  0  0  0  0  0  0  0
  -15.5507   -3.2869  -12.5745 C   0  0  0  0  0  0  0  0  0  0  0  0
  -14.6482   -2.6026  -13.2542 N   0  0  0  0  0  0  0  0  0  0  0  0
  -13.3052   -2.7831  -13.0667 C   0  0  0  0  0  0  0  0  0  0  0  0
  -12.8443   -3.7258  -12.1159 C   0  0  0  0  0  0  0  0  0  0  0  0
  -13.8267   -4.4613  -11.3868 C   0  0  0  0  0  0  0  0  0  0  0  0
  -13.4977   -5.2866  -10.5527 O   0  0  0  0  0  0  0  0  0  0  0  0
  -11.3781   -3.6699  -12.1501 C   0  0  0  0  0  0  0  0  0  0  0  0
  -10.4077   -4.4621  -11.3143 C   0  0  0  0  0  0  0  0  0  0  0  0
   -9.6652   -3.5545  -10.4297 N   0  0  0  0  0  0  0  0  0  0  0  0
  -11.0638   -2.7592  -13.0797 C   0  0  0  0  0  0  0  0  0  0  0  0
  -12.1993   -2.2221  -13.6252 N   0  0  0  0  0  0  0  0  0  0  0  0
  -16.8861   -3.0687  -12.7962 N   0  0  0  0  0  0  0  0  0  0  0  0
  1  6  1  0  0  0  0
  2  1  1  0  0  0  0
  3  4  1  0  0  0  0
  3  2  2  0  0  0  0
  4  5  2  0  0  0  0
  5  8  1  0  0  0  0
  5  6  1  0  0  0  0
  6  7  2  0  0  0  0
  8  9  1  0  0  0  0
  9 10  1  0  0  0  0
 11  8  2  0  0  0  0
 12  4  1  0  0  0  0
 12 11  1  0  0  0  0
 13  2  1  0  0  0  0
M  END
>  <CHROM.1>
-114.54538814,-115.85733102,-13.12682429,-3.55303987,-12.11648775,2.94465262
-0.09214999,-0.84836185

>  <Name>
lig.pdb

>  <RI>
1.8118e+07

>  <Rbt.Current_Directory>
/home/itssahil/PROJECTS/Mol_Feturizer/New_Systems/rnas/2miy

>  <Rbt.Executable>
rbdock ($Id: //depot/dev/client3/rdock/2013.1/src/exe/rbdock.cxx#4 $)

>  <Rbt.Library>
libRbt.so (2013.1, Build901 2013/11/27)

>  <Rbt.Parameter_File>
/export/apps/rDock/src/rDock_2013.1_src/data/scripts/dock_solv.prm

>  <Rbt.Receptor>
prm/blind_docking_100.prm

>  <SCORE>
-29.9589

>  <SCORE.INTER>
-32.415

>  <SCORE.INTER.CONST>
1

>  <SCORE.INTER.POLAR>
-4.53945

>  <SCORE.INTER.ROT>
2

>  <SCORE.INTER.SOLV>
10.5713

>  <SCORE.INTER.VDW>
-14.9356

>  <SCORE.INTER.norm>
-2.49346

>  <SCORE.INTRA>
2.4561

>  <SCORE.INTRA.DIHEDRAL>
1.83882

>  <SCORE.INTRA.DIHEDRAL.0>
1.76676

>  <SCORE.INTRA.POLAR>
0.472211

>  <SCORE.INTRA.POLAR.0>
-0.472211

>  <SCORE.INTRA.REPUL>
0

>  <SCORE.INTRA.REPUL.0>
0

>  <SCORE.INTRA.SOLV>
-0.610217

>  <SCORE.INTRA.SOLV.lig_0>
-22.5855

>  <SCORE.INTRA.VDW>
0.236283

>  <SCORE.INTRA.VDW.0>
-0.733656

>  <SCORE.INTRA.norm>
0.188931

>  <SCORE.RESTR>
0

>  <SCORE.RESTR.CAVITY>
0

>  <SCORE.RESTR.norm>
0

>  <SCORE.SYSTEM>
0

>  <SCORE.SYSTEM.CONST>
0

>  <SCORE.SYSTEM.DIHEDRAL>
0

>  <SCORE.SYSTEM.SOLV>
0

>  <SCORE.SYSTEM.norm>
0

>  <SCORE.heavy>
13

>  <SCORE.norm>
-2.30453

>  <RMSD>
10.125

$$$$
lig.pdb
 OpenBabel11021811453D
libRbt.so/2013.1/901 2013/11/27
 13 14  0  0  0  0  0  0  0  0999 V2000
  -13.5017   -6.0919  -10.7265 N   0  0  0  0  0  0  0  0  0  0  0  0
  -13.8786   -5.1373  -11.6282 C   0  0  0  0  0  0  0  0  0  0  0  0
  -13.0630   -4.1410  -11.9230 N   0  0  0  0  0  0  0  0  0  0  0  0
  -11.8270   -4.0183  -11.3495 C   0  0  0  0  0  0  0  0  0  0  0  0
  -11.3881   -4.9765  -10.4037 C   0  0  0  0  0  0  0  0  0  0  0  0
  -12.2757   -6.0501  -10.0921 C   0  0  0  0  0  0  0  0  0  0  0  0
  -11.9604   -6.9075   -9.2855 O   0  0  0  0  0  0  0  0  0  0  0  0
  -10.0473   -4.5582   -9.9778 C   0  0  0  0  0  0  0  0  0  0  0  0
   -9.1524   -5.2275   -8.9683 C   0  0  0  0  0  0  0  0  0  0  0  0
   -7.7511   -4.8930   -9.2551 N   0  0  0  0  0  0  0  0  0  0  0  0
   -9.7703   -3.4448  -10.6675 C   0  0  0  0  0  0  0  0  0  0  0  0
  -10.8216   -3.1118  -11.4794 N   0  0  0  0  0  0  0  0  0  0  0  0
  -15.1091   -5.2160  -12.2279 N   0  0  0  0  0  0  0  0  0  0  0  0
  1  6  1  0  0  0  0
  2  1  1  0  0  0  0
  3  4  1  0  0  0  0
  3  2  2  0  0  0  0
  4  5  2  0  0  0  0
  5  8  1  0  0  0  0
  5  6  1  0  0  0  0
  6  7  2  0  0  0  0
  8  9  1  0  0  0  0
  9 10  1  0  0  0  0
 11  8  2  0  0  0  0
 12  4  1  0  0  0  0
 12 11  1  0  0  0  0
 13  2  1  0  0  0  0
M  END
>  <CHROM.1>
154.82220633,137.35403203,-11.58375474,-4.93224045,-10.60877847,3.01771119
-0.36974151,-0.62589622

>  <Name>
lig.pdb

>  <RI>
1.8118e+07

>  <Rbt.Current_Directory>
/home/itssahil/PROJECTS/Mol_Feturizer/New_Systems/rnas/2miy

>  <Rbt.Executable>
rbdock ($Id: //depot/dev/client3/rdock/2013.1/src/exe/rbdock.cxx#4 $)

>  <Rbt.Library>
libRbt.so (2013.1, Build901 2013/11/27)

>  <Rbt.Parameter_File>
/export/apps/rDock/src/rDock_2013.1_src/data/scripts/dock_solv.prm

>  <Rbt.Receptor>
prm/blind_docking_100.prm

>  <SCORE>
-26.2093

>  <SCORE.INTER>
-28.343

>  <SCORE.INTER.CONST>
1

>  <SCORE.INTER.POLAR>
-3.99653

>  <SCORE.INTER.ROT>
2

>  <SCORE.INTER.SOLV>
10.8769

>  <SCORE.INTER.VDW>
-14.1325

>  <SCORE.INTER.norm>
-2.18023

>  <SCORE.INTRA>
2.13369

>  <SCORE.INTRA.DIHEDRAL>
0.53296

>  <SCORE.INTRA.DIHEDRAL.0>
1.76676

>  <SCORE.INTRA.POLAR>
0.472211

>  <SCORE.INTRA.POLAR.0>
-0.472211

>  <SCORE.INTRA.REPUL>
0

>  <SCORE.INTRA.REPUL.0>
0

>  <SCORE.INTRA.SOLV>
-0.590448

>  <SCORE.INTRA.SOLV.lig_0>
-22.5855

>  <SCORE.INTRA.VDW>
0.55692

>  <SCORE.INTRA.VDW.0>
-0.733656

>  <SCORE.INTRA.norm>
0.16413

>  <SCORE.RESTR>
0

>  <SCORE.RESTR.CAVITY>
0

>  <SCORE.RESTR.norm>
0

>  <SCORE.SYSTEM>
0

>  <SCORE.SYSTEM.CONST>
0

>  <SCORE.SYSTEM.DIHEDRAL>
0

>  <SCORE.SYSTEM.SOLV>
0

>  <SCORE.SYSTEM.norm>
0

>  <SCORE.heavy>
13

>  <SCORE.norm>
-2.0161

>  <RMSD>
10.140

$$$$
lig.pdb
 OpenBabel11021811453D
libRbt.so/2013.1/901 2013/11/27
 13 14  0  0  0  0  0  0  0  0999 V2000
  -13.7786   -5.7931  -11.2483 N   0  0  0  0  0  0  0  0  0  0  0  0
  -14.1209   -5.1219  -12.3879 C   0  0  0  0  0  0  0  0  0  0  0  0
  -13.2877   -4.2461  -12.9205 N   0  0  0  0  0  0  0  0  0  0  0  0
  -12.0671   -3.9730  -12.3665 C   0  0  0  0  0  0  0  0  0  0  0  0
  -11.6640   -4.6357  -11.1817 C   0  0  0  0  0  0  0  0  0  0  0  0
  -12.5703   -5.5811  -10.6139 C   0  0  0  0  0  0  0  0  0  0  0  0
  -12.2859   -6.1847   -9.5943 O   0  0  0  0  0  0  0  0  0  0  0  0
  -10.3315   -4.1190  -10.8476 C   0  0  0  0  0  0  0  0  0  0  0  0
   -9.4716   -4.4872   -9.6674 C   0  0  0  0  0  0  0  0  0  0  0  0
   -8.5222   -3.4005   -9.3925 N   0  0  0  0  0  0  0  0  0  0  0  0
  -10.0245   -3.2380  -11.8077 C   0  0  0  0  0  0  0  0  0  0  0  0
  -11.0496   -3.1387  -12.7103 N   0  0  0  0  0  0  0  0  0  0  0  0
  -15.3350   -5.3598  -12.9790 N   0  0  0  0  0  0  0  0  0  0  0  0
  1  6  1  0  0  0  0
  2  1  1  0  0  0  0
  3  4  1  0  0  0  0
  3  2  2  0  0  0  0
  4  5  2  0  0  0  0
  5  8  1  0  0  0  0
  5  6  1  0  0  0  0
  6  7  2  0  0  0  0
  8  9  1  0  0  0  0
  9 10  1  0  0  0  0
 11  8  2  0  0  0  0
 12  4  1  0  0  0  0
 12 11  1  0  0  0  0
 13  2  1  0  0  0  0
M  END
>  <CHROM.1>
-156.70745680,-48.65337696,-11.89646942,-4.57022335,-11.34061827,2.98128477
-0.46930664,-0.94554757

>  <Name>
lig.pdb

>  <RI>
0

>  <Rbt.Current_Directory>
/home/itssahil/PROJECTS/Mol_Feturizer/New_Systems/rnas/2miy

>  <Rbt.Executable>
rbdock ($Id: //depot/dev/client3/rdock/2013.1/src/exe/rbdock.cxx#4 $)

>  <Rbt.Library>
libRbt.so (2013.1, Build901 2013/11/27)

>  <Rbt.Parameter_File>
/export/apps/rDock/src/rDock_2013.1_src/data/scripts/dock_solv.prm

>  <Rbt.Receptor>
prm/blind_docking_60.prm

>  <SCORE>
-26.3994

>  <SCORE.INTER>
-28.5301

>  <SCORE.INTER.CONST>
1

>  <SCORE.INTER.POLAR>
-3.69363

>  <SCORE.INTER.ROT>
2

>  <SCORE.INTER.SOLV>
10.3035

>  <SCORE.INTER.VDW>
-15.0758

>  <SCORE.INTER.norm>
-2.19462

>  <SCORE.INTRA>
2.12988

>  <SCORE.INTRA.DIHEDRAL>
0.367423

>  <SCORE.INTRA.DIHEDRAL.0>
1.76676

>  <SCORE.INTRA.POLAR>
0.472211

>  <SCORE.INTRA.POLAR.0>
-0.472211

>  <SCORE.INTRA.REPUL>
0

>  <SCORE.INTRA.REPUL.0>
0

>  <SCORE.INTRA.SOLV>
-0.585515

>  <SCORE.INTRA.SOLV.lig_0>
-22.5855

>  <SCORE.INTRA.VDW>
0.633404

>  <SCORE.INTRA.VDW.0>
-0.733656

>  <SCORE.INTRA.norm>
0.163837

>  <SCORE.RESTR>
0.000783737

>  <SCORE.RESTR.CAVITY>
0.000783737

>  <SCORE.RESTR.norm>
6.02875e-05

>  <SCORE.SYSTEM>
0

>  <SCORE.SYSTEM.CONST>
0

>  <SCORE.SYSTEM.DIHEDRAL>
0

>  <SCORE.SYSTEM.SOLV>
0

>  <SCORE.SYSTEM.norm>
0

>  <SCORE.heavy>
13

>  <SCORE.norm>
-2.03073

>  <RMSD>
10.144

$$$$
lig.pdb
 OpenBabel11021811453D
libRbt.so/2013.1/901 2013/11/27
 13 14  0  0  0  0  0  0  0  0999 V2000
  -14.1052   -5.3855  -11.2559 N   0  0  0  0  0  0  0  0  0  0  0  0
  -14.5559   -4.7657  -12.3869 C   0  0  0  0  0  0  0  0  0  0  0  0
  -13.7403   -4.0135  -13.1038 N   0  0  0  0  0  0  0  0  0  0  0  0
  -12.4318   -3.8212  -12.7542 C   0  0  0  0  0  0  0  0  0  0  0  0
  -11.9137   -4.4352  -11.5881 C   0  0  0  0  0  0  0  0  0  0  0  0
  -12.8020   -5.2470  -10.8202 C   0  0  0  0  0  0  0  0  0  0  0  0
  -12.4205   -5.8026   -9.8048 O   0  0  0  0  0  0  0  0  0  0  0  0
  -10.5073   -4.0271  -11.4916 C   0  0  0  0  0  0  0  0  0  0  0  0
   -9.5149   -4.3930  -10.4197 C   0  0  0  0  0  0  0  0  0  0  0  0
   -8.9399   -3.1703   -9.8436 N   0  0  0  0  0  0  0  0  0  0  0  0
  -10.2737   -3.2490  -12.5556 C   0  0  0  0  0  0  0  0  0  0  0  0
  -11.4101   -3.1147  -13.3079 N   0  0  0  0  0  0  0  0  0  0  0  0
  -15.8605   -4.9264  -12.7768 N   0  0  0  0  0  0  0  0  0  0  0  0
  1  6  1  0  0  0  0
  2  1  1  0  0  0  0
  3  4  1  0  0  0  0
  3  2  2  0  0  0  0
  4  5  2  0  0  0  0
  5  8  1  0  0  0  0
  5  6  1  0  0  0  0
  6  7  2  0  0  0  0
  8  9  1  0  0  0  0
  9 10  1  0  0  0  0
 11  8  2  0  0  0  0
 12  4  1  0  0  0  0
 12 11  1  0  0  0  0
 13  2  1  0  0  0  0
M  END
>  <CHROM.1>
-124.99460964,-108.18417561,-12.20707846,-4.33877573,-11.66753275,3.00950587
-0.35035580,-1.02318036

>  <Name>
lig.pdb

>  <RI>
1.8118e+07

>  <Rbt.Current_Directory>
/home/itssahil/PROJECTS/Mol_Feturizer/New_Systems/rnas/2miy

>  <Rbt.Executable>
rbdock ($Id: //depot/dev/client3/rdock/2013.1/src/exe/rbdock.cxx#4 $)

>  <Rbt.Library>
libRbt.so (2013.1, Build901 2013/11/27)

>  <Rbt.Parameter_File>
/export/apps/rDock/src/rDock_2013.1_src/data/scripts/dock_solv.prm

>  <Rbt.Receptor>
prm/blind_docking_100.prm

>  <SCORE>
-31.0738

>  <SCORE.INTER>
-33.5812

>  <SCORE.INTER.CONST>
1

>  <SCORE.INTER.POLAR>
-5.24077

>  <SCORE.INTER.ROT>
2

>  <SCORE.INTER.SOLV>
11.2116

>  <SCORE.INTER.VDW>
-13.5888

>  <SCORE.INTER.norm>
-2.58317

>  <SCORE.INTRA>
2.50737

>  <SCORE.INTRA.DIHEDRAL>
1.85128

>  <SCORE.INTRA.DIHEDRAL.0>
1.76676

>  <SCORE.INTRA.POLAR>
0.472211

>  <SCORE.INTRA.POLAR.0>
-0.472211

>  <SCORE.INTRA.REPUL>
0

>  <SCORE.INTRA.REPUL.0>
0

>  <SCORE.INTRA.SOLV>
-0.631722

>  <SCORE.INTRA.SOLV.lig_0>
-22.5855

>  <SCORE.INTRA.VDW>
0.292075

>  <SCORE.INTRA.VDW.0>
-0.733656

>  <SCORE.INTRA.norm>
0.192875

>  <SCORE.RESTR>
0

>  <SCORE.RESTR.CAVITY>
0

>  <SCORE.RESTR.norm>
0

>  <SCORE.SYSTEM>
0

>  <SCORE.SYSTEM.CONST>
0

>  <SCORE.SYSTEM.DIHEDRAL>
0

>  <SCORE.SYSTEM.SOLV>
0

>  <SCORE.SYSTEM.norm>
0

>  <SCORE.heavy>
13

>  <SCORE.norm>
-2.39029

>  <RMSD>
10.173

$$$$
lig.pdb
 OpenBabel11021811453D
libRbt.so/2013.1/901 2013/11/27
 13 14  0  0  0  0  0  0  0  0999 V2000
  -13.6736   -5.6676  -11.3407 N   0  0  0  0  0  0  0  0  0  0  0  0
  -14.0963   -5.1955  -12.5510 C   0  0  0  0  0  0  0  0  0  0  0  0
  -13.3575   -4.3312  -13.2234 N   0  0  0  0  0  0  0  0  0  0  0  0
  -12.1585   -3.8747  -12.7487 C   0  0  0  0  0  0  0  0  0  0  0  0
  -11.6753   -4.3266  -11.4967 C   0  0  0  0  0  0  0  0  0  0  0  0
  -12.4798   -5.2612  -10.7777 C   0  0  0  0  0  0  0  0  0  0  0  0
  -12.1231   -5.6887   -9.6937 O   0  0  0  0  0  0  0  0  0  0  0  0
  -10.3914   -3.6506  -11.2764 C   0  0  0  0  0  0  0  0  0  0  0  0
   -9.4810   -3.7716  -10.0830 C   0  0  0  0  0  0  0  0  0  0  0  0
   -9.4832   -5.1593   -9.6013 N   0  0  0  0  0  0  0  0  0  0  0  0
  -10.1842   -2.8881  -12.3571 C   0  0  0  0  0  0  0  0  0  0  0  0
  -11.2293   -3.0084  -13.2340 N   0  0  0  0  0  0  0  0  0  0  0  0
  -15.2928   -5.6219  -13.0674 N   0  0  0  0  0  0  0  0  0  0  0  0
  1  6  1  0  0  0  0
  2  1  1  0  0  0  0
  3  4  1  0  0  0  0
  3  2  2  0  0  0  0
  4  5  2  0  0  0  0
  5  8  1  0  0  0  0
  5  6  1  0  0  0  0
  6  7  2  0  0  0  0
  8  9  1  0  0  0  0
  9 10  1  0  0  0  0
 11  8  2  0  0  0  0
 12  4  1  0  0  0  0
 12 11  1  0  0  0  0
 13  2  1  0  0  0  0
M  END
>  <CHROM.1>
37.51687013,-61.84064004,-11.99496502,-4.54607548,-11.61988022,2.92046476
-0.45181831,-0.95288411

>  <Name>
lig.pdb

>  <RI>
1.8118e+07

>  <Rbt.Current_Directory>
/home/itssahil/PROJECTS/Mol_Feturizer/New_Systems/rnas/2miy

>  <Rbt.Executable>
rbdock ($Id: //depot/dev/client3/rdock/2013.1/src/exe/rbdock.cxx#4 $)

>  <Rbt.Library>
libRbt.so (2013.1, Build901 2013/11/27)

>  <Rbt.Parameter_File>
/export/apps/rDock/src/rDock_2013.1_src/data/scripts/dock_solv.prm

>  <Rbt.Receptor>
prm/blind_docking_100.prm

>  <SCORE>
-25.1909

>  <SCORE.INTER>
-24.4868

>  <SCORE.INTER.CONST>
1

>  <SCORE.INTER.POLAR>
-3.32554

>  <SCORE.INTER.ROT>
2

>  <SCORE.INTER.SOLV>
8.10258

>  <SCORE.INTER.VDW>
-12.8736

>  <SCORE.INTER.norm>
-1.8836

>  <SCORE.INTRA>
-0.704198

>  <SCORE.INTRA.DIHEDRAL>
0.363208

>  <SCORE.INTRA.DIHEDRAL.0>
1.76676

>  <SCORE.INTRA.POLAR>
-0.313015

>  <SCORE.INTRA.POLAR.0>
-0.472211

>  <SCORE.INTRA.REPUL>
0

>  <SCORE.INTRA.REPUL.0>
0

>  <SCORE.INTRA.SOLV>
0.0707129

>  <SCORE.INTRA.SOLV.lig_0>
-22.5855

>  <SCORE.INTRA.VDW>
0.143094

>  <SCORE.INTRA.VDW.0>
-0.733656

>  <SCORE.INTRA.norm>
-0.0541691

>  <SCORE.RESTR>
0

>  <SCORE.RESTR.CAVITY>
0

>  <SCORE.RESTR.norm>
0

>  <SCORE.SYSTEM>
0

>  <SCORE.SYSTEM.CONST>
0

>  <SCORE.SYSTEM.DIHEDRAL>
0

>  <SCORE.SYSTEM.SOLV>
0

>  <SCORE.SYSTEM.norm>
0

>  <SCORE.heavy>
13

>  <SCORE.norm>
-1.93777

>  <RMSD>
10.244

$$$$
lig.pdb
 OpenBabel11021811453D
libRbt.so/2013.1/901 2013/11/27
 13 14  0  0  0  0  0  0  0  0999 V2000
  -14.1309   -5.3209  -11.2736 N   0  0  0  0  0  0  0  0  0  0  0  0
  -14.5401   -4.7988  -12.4678 C   0  0  0  0  0  0  0  0  0  0  0  0
  -13.6825   -4.1615  -13.2446 N   0  0  0  0  0  0  0  0  0  0  0  0
  -12.3700   -3.9952  -12.8966 C   0  0  0  0  0  0  0  0  0  0  0  0
  -11.8936   -4.5113  -11.6670 C   0  0  0  0  0  0  0  0  0  0  0  0
  -12.8271   -5.1992  -10.8346 C   0  0  0  0  0  0  0  0  0  0  0  0
  -12.4828   -5.6661   -9.7629 O   0  0  0  0  0  0  0  0  0  0  0  0
  -10.4704   -4.1608  -11.5910 C   0  0  0  0  0  0  0  0  0  0  0  0
   -9.5075   -4.4616  -10.4729 C   0  0  0  0  0  0  0  0  0  0  0  0
   -8.9860   -3.2041   -9.9212 N   0  0  0  0  0  0  0  0  0  0  0  0
  -10.1893   -3.5060  -12.7243 C   0  0  0  0  0  0  0  0  0  0  0  0
  -11.3103   -3.3964  -13.5033 N   0  0  0  0  0  0  0  0  0  0  0  0
  -15.8468   -4.9378  -12.8591 N   0  0  0  0  0  0  0  0  0  0  0  0
  1  6  1  0  0  0  0
  2  1  1  0  0  0  0
  3  4  1  0  0  0  0
  3  2  2  0  0  0  0
  4  5  2  0  0  0  0
  5  8  1  0  0  0  0
  5  6  1  0  0  0  0
  6  7  2  0  0  0  0
  8  9  1  0  0  0  0
  9 10  1  0  0  0  0
 11  8  2  0  0  0  0
 12  4  1  0  0  0  0
 12 11  1  0  0  0  0
 13  2  1  0  0  0  0
M  END
>  <CHROM.1>
-119.16421731,76.27750164,-12.19103154,-4.40888039,-11.75152449,2.96261558
-0.31877622,-1.14396996

>  <Name>
lig.pdb

>  <RI>
1.8118e+07

>  <Rbt.Current_Directory>
/home/itssahil/PROJECTS/Mol_Feturizer/New_Systems/rnas/2miy

>  <Rbt.Executable>
rbdock ($Id: //depot/dev/client3/rdock/2013.1/src/exe/rbdock.cxx#4 $)

>  <Rbt.Library>
libRbt.so (2013.1, Build901 2013/11/27)

>  <Rbt.Parameter_File>
/export/apps/rDock/src/rDock_2013.1_src/data/scripts/dock_solv.prm

>  <Rbt.Receptor>
prm/blind_docking_100.prm

>  <SCORE>
-30.79

>  <SCORE.INTER>
-33.2673

>  <SCORE.INTER.CONST>
1

>  <SCORE.INTER.POLAR>
-5.35211

>  <SCORE.INTER.ROT>
2

>  <SCORE.INTER.SOLV>
11.2

>  <SCORE.INTER.VDW>
-13.0045

>  <SCORE.INTER.norm>
-2.55903

>  <SCORE.INTRA>
2.47733

>  <SCORE.INTRA.DIHEDRAL>
1.84922

>  <SCORE.INTRA.DIHEDRAL.0>
1.76676

>  <SCORE.INTRA.POLAR>
0.472211

>  <SCORE.INTRA.POLAR.0>
-0.472211

>  <SCORE.INTRA.REPUL>
0

>  <SCORE.INTRA.REPUL.0>
0

>  <SCORE.INTRA.SOLV>
-0.627479

>  <SCORE.INTRA.SOLV.lig_0>
-22.5855

>  <SCORE.INTRA.VDW>
0.260946

>  <SCORE.INTRA.VDW.0>
-0.733656

>  <SCORE.INTRA.norm>
0.190564

>  <SCORE.RESTR>
0

>  <SCORE.RESTR.CAVITY>
0

>  <SCORE.RESTR.norm>
0

>  <SCORE.SYSTEM>
0

>  <SCORE.SYSTEM.CONST>
0

>  <SCORE.SYSTEM.DIHEDRAL>
0

>  <SCORE.SYSTEM.SOLV>
0

>  <SCORE.SYSTEM.norm>
0

>  <SCORE.heavy>
13

>  <SCORE.norm>
-2.36846

>  <RMSD>
10.256

$$$$
lig.pdb
 OpenBabel11021811453D
libRbt.so/2013.1/901 2013/11/27
 13 14  0  0  0  0  0  0  0  0999 V2000
  -14.2240   -5.2936  -11.3137 N   0  0  0  0  0  0  0  0  0  0  0  0
  -14.6561   -4.7203  -12.4760 C   0  0  0  0  0  0  0  0  0  0  0  0
  -13.8332   -3.9845  -13.2015 N   0  0  0  0  0  0  0  0  0  0  0  0
  -12.5351   -3.7639  -12.8304 C   0  0  0  0  0  0  0  0  0  0  0  0
  -12.0365   -4.3294  -11.6317 C   0  0  0  0  0  0  0  0  0  0  0  0
  -12.9325   -5.1238  -10.8547 C   0  0  0  0  0  0  0  0  0  0  0  0
  -12.5677   -5.6380   -9.8118 O   0  0  0  0  0  0  0  0  0  0  0  0
  -10.6373   -3.9012  -11.5191 C   0  0  0  0  0  0  0  0  0  0  0  0
   -9.6651   -4.2164  -10.4130 C   0  0  0  0  0  0  0  0  0  0  0  0
  -10.4041   -4.5200   -9.1804 N   0  0  0  0  0  0  0  0  0  0  0  0
  -10.3886   -3.1589  -12.6051 C   0  0  0  0  0  0  0  0  0  0  0  0
  -11.5093   -3.0654  -13.3866 N   0  0  0  0  0  0  0  0  0  0  0  0
  -15.9498   -4.9106  -12.8885 N   0  0  0  0  0  0  0  0  0  0  0  0
  1  6  1  0  0  0  0
  2  1  1  0  0  0  0
  3  4  1  0  0  0  0
  3  2  2  0  0  0  0
  4  5  2  0  0  0  0
  5  8  1  0  0  0  0
  5  6  1  0  0  0  0
  6  7  2  0  0  0  0
  8  9  1  0  0  0  0
  9 10  1  0  0  0  0
 11  8  2  0  0  0  0
 12  4  1  0  0  0  0
 12 11  1  0  0  0  0
 13  2  1  0  0  0  0
M  END
>  <CHROM.1>
-24.29018001,119.48887466,-12.44921057,-4.38432411,-11.65689515,2.83940615
-0.31450382,-1.07542723

>  <Name>
lig.pdb

>  <RI>
1.82164e+07

>  <Rbt.Current_Directory>
/home/itssahil/PROJECTS/Mol_Feturizer/New_Systems/rnas/2miy

>  <Rbt.Executable>
rbdock ($Id: //depot/dev/client3/rdock/2013.1/src/exe/rbdock.cxx#4 $)

>  <Rbt.Library>
libRbt.so (2013.1, Build901 2013/11/27)

>  <Rbt.Parameter_File>
/export/apps/rDock/src/rDock_2013.1_src/data/scripts/dock_solv.prm

>  <Rbt.Receptor>
prm/blind_docking_80.prm

>  <SCORE>
-25.7417

>  <SCORE.INTER>
-28.5174

>  <SCORE.INTER.CONST>
1

>  <SCORE.INTER.POLAR>
-3.94848

>  <SCORE.INTER.ROT>
2

>  <SCORE.INTER.SOLV>
9.38174

>  <SCORE.INTER.VDW>
-13.9106

>  <SCORE.INTER.norm>
-2.19365

>  <SCORE.INTRA>
2.77573

>  <SCORE.INTRA.DIHEDRAL>
1.08719

>  <SCORE.INTRA.DIHEDRAL.0>
1.76676

>  <SCORE.INTRA.POLAR>
0.472211

>  <SCORE.INTRA.POLAR.0>
-0.472211

>  <SCORE.INTRA.REPUL>
0

>  <SCORE.INTRA.REPUL.0>
0

>  <SCORE.INTRA.SOLV>
0.166574

>  <SCORE.INTRA.SOLV.lig_0>
-22.5855

>  <SCORE.INTRA.VDW>
0.543327

>  <SCORE.INTRA.VDW.0>
-0.733656

>  <SCORE.INTRA.norm>
0.213517

>  <SCORE.RESTR>
0

>  <SCORE.RESTR.CAVITY>
0

>  <SCORE.RESTR.norm>
0

>  <SCORE.SYSTEM>
0

>  <SCORE.SYSTEM.CONST>
0

>  <SCORE.SYSTEM.DIHEDRAL>
0

>  <SCORE.SYSTEM.SOLV>
0

>  <SCORE.SYSTEM.norm>
0

>  <SCORE.heavy>
13

>  <SCORE.norm>
-1.98013

>  <RMSD>
10.263

$$$$
lig.pdb
 OpenBabel11021811453D
libRbt.so/2013.1/901 2013/11/27
 13 14  0  0  0  0  0  0  0  0999 V2000
  -14.1802   -5.3096  -11.3157 N   0  0  0  0  0  0  0  0  0  0  0  0
  -14.5895   -4.7874  -12.5100 C   0  0  0  0  0  0  0  0  0  0  0  0
  -13.7328   -4.1472  -13.2852 N   0  0  0  0  0  0  0  0  0  0  0  0
  -12.4210   -3.9779  -12.9357 C   0  0  0  0  0  0  0  0  0  0  0  0
  -11.9446   -4.4937  -11.7060 C   0  0  0  0  0  0  0  0  0  0  0  0
  -12.8772   -5.1849  -10.8752 C   0  0  0  0  0  0  0  0  0  0  0  0
  -12.5329   -5.6518   -9.8036 O   0  0  0  0  0  0  0  0  0  0  0  0
  -10.5225   -4.1396  -11.6282 C   0  0  0  0  0  0  0  0  0  0  0  0
   -9.5600   -4.4389  -10.5093 C   0  0  0  0  0  0  0  0  0  0  0  0
   -9.0213   -3.1814   -9.9743 N   0  0  0  0  0  0  0  0  0  0  0  0
  -10.2418   -3.4831  -12.7606 C   0  0  0  0  0  0  0  0  0  0  0  0
  -11.3623   -3.3757  -13.5407 N   0  0  0  0  0  0  0  0  0  0  0  0
  -15.8954   -4.9295  -12.9028 N   0  0  0  0  0  0  0  0  0  0  0  0
  1  6  1  0  0  0  0
  2  1  1  0  0  0  0
  3  4  1  0  0  0  0
  3  2  2  0  0  0  0
  4  5  2  0  0  0  0
  5  8  1  0  0  0  0
  5  6  1  0  0  0  0
  6  7  2  0  0  0  0
  8  9  1  0  0  0  0
  9 10  1  0  0  0  0
 11  8  2  0  0  0  0
 12  4  1  0  0  0  0
 12 11  1  0  0  0  0
 13  2  1  0  0  0  0
M  END
>  <CHROM.1>
-120.32279381,-101.45016187,-12.24022413,-4.39220595,-11.79236415,2.96492144
-0.32094740,-1.14164574

>  <Name>
lig.pdb

>  <RI>
1.17462e+07

>  <Rbt.Current_Directory>
/home/itssahil/PROJECTS/Mol_Feturizer/New_Systems/rnas/2miy

>  <Rbt.Executable>
rbdock ($Id: //depot/dev/client3/rdock/2013.1/src/exe/rbdock.cxx#4 $)

>  <Rbt.Library>
libRbt.so (2013.1, Build901 2013/11/27)

>  <Rbt.Parameter_File>
/export/apps/rDock/src/rDock_2013.1_src/data/scripts/dock_solv.prm

>  <Rbt.Receptor>
prm/blind_docking_40.prm

>  <SCORE>
-30.8457

>  <SCORE.INTER>
-33.3514

>  <SCORE.INTER.CONST>
1

>  <SCORE.INTER.POLAR>
-5.32995

>  <SCORE.INTER.ROT>
2

>  <SCORE.INTER.SOLV>
11.1969

>  <SCORE.INTER.VDW>
-13.1334

>  <SCORE.INTER.norm>
-2.56549

>  <SCORE.INTRA>
2.50569

>  <SCORE.INTRA.DIHEDRAL>
1.8983

>  <SCORE.INTRA.DIHEDRAL.0>
1.76676

>  <SCORE.INTRA.POLAR>
0.472211

>  <SCORE.INTRA.POLAR.0>
-0.472211

>  <SCORE.INTRA.REPUL>
0

>  <SCORE.INTRA.REPUL.0>
0

>  <SCORE.INTRA.SOLV>
-0.632463

>  <SCORE.INTRA.SOLV.lig_0>
-22.5855

>  <SCORE.INTRA.VDW>
0.267251

>  <SCORE.INTRA.VDW.0>
-0.733656

>  <SCORE.INTRA.norm>
0.192745

>  <SCORE.RESTR>
0

>  <SCORE.RESTR.CAVITY>
0

>  <SCORE.RESTR.norm>
0

>  <SCORE.SYSTEM>
0

>  <SCORE.SYSTEM.CONST>
0

>  <SCORE.SYSTEM.DIHEDRAL>
0

>  <SCORE.SYSTEM.SOLV>
0

>  <SCORE.SYSTEM.norm>
0

>  <SCORE.heavy>
13

>  <SCORE.norm>
-2.37275

>  <RMSD>
10.276

$$$$
lig.pdb
 OpenBabel11021811453D
libRbt.so/2013.1/901 2013/11/27
 13 14  0  0  0  0  0  0  0  0999 V2000
  -11.0464   -4.2942  -10.1059 N   0  0  0  0  0  0  0  0  0  0  0  0
  -10.0344   -3.5056  -10.5751 C   0  0  0  0  0  0  0  0  0  0  0  0
  -10.1884   -2.8203  -11.6938 N   0  0  0  0  0  0  0  0  0  0  0  0
  -11.3449   -2.8679  -12.4230 C   0  0  0  0  0  0  0  0  0  0  0  0
  -12.4239   -3.6740  -11.9857 C   0  0  0  0  0  0  0  0  0  0  0  0
  -12.2489   -4.4102  -10.7753 C   0  0  0  0  0  0  0  0  0  0  0  0
  -13.1373   -5.1242  -10.3442 O   0  0  0  0  0  0  0  0  0  0  0  0
  -13.4927   -3.5148  -12.9789 C   0  0  0  0  0  0  0  0  0  0  0  0
  -14.8454   -4.1765  -12.9884 C   0  0  0  0  0  0  0  0  0  0  0  0
  -15.3216   -4.3423  -11.6088 N   0  0  0  0  0  0  0  0  0  0  0  0
  -13.0234   -2.6572  -13.8935 C   0  0  0  0  0  0  0  0  0  0  0  0
  -11.7479   -2.2721  -13.5772 N   0  0  0  0  0  0  0  0  0  0  0  0
   -8.8550   -3.4272   -9.8803 N   0  0  0  0  0  0  0  0  0  0  0  0
  1  6  1  0  0  0  0
  2  1  1  0  0  0  0
  3  4  1  0  0  0  0
  3  2  2  0  0  0  0
  4  5  2  0  0  0  0
  5  8  1  0  0  0  0
  5  6  1  0  0  0  0
  6  7  2  0  0  0  0
  8  9  1  0  0  0  0
  9 10  1  0  0  0  0
 11  8  2  0  0  0  0
 12  4  1  0  0  0  0
 12 11  1  0  0  0  0
 13  2  1  0  0  0  0
M  END
>  <CHROM.1>
34.31645689,145.18065998,-12.13465426,-3.64728126,-11.69772715,0.31518741
0.31004410,2.12742821

>  <Name>
lig.pdb

>  <RI>
1.8118e+07

>  <Rbt.Current_Directory>
/home/itssahil/PROJECTS/Mol_Feturizer/New_Systems/rnas/2miy

>  <Rbt.Executable>
rbdock ($Id: //depot/dev/client3/rdock/2013.1/src/exe/rbdock.cxx#4 $)

>  <Rbt.Library>
libRbt.so (2013.1, Build901 2013/11/27)

>  <Rbt.Parameter_File>
/export/apps/rDock/src/rDock_2013.1_src/data/scripts/dock_solv.prm

>  <Rbt.Receptor>
prm/blind_docking_100.prm

>  <SCORE>
-27.7388

>  <SCORE.INTER>
-28.8795

>  <SCORE.INTER.CONST>
1

>  <SCORE.INTER.POLAR>
-3.83809

>  <SCORE.INTER.ROT>
2

>  <SCORE.INTER.SOLV>
12.5179

>  <SCORE.INTER.VDW>
-15.5653

>  <SCORE.INTER.norm>
-2.2215

>  <SCORE.INTRA>
1.1407

>  <SCORE.INTRA.DIHEDRAL>
0.566493

>  <SCORE.INTRA.DIHEDRAL.0>
1.76676

>  <SCORE.INTRA.POLAR>
0.0780746

>  <SCORE.INTRA.POLAR.0>
-0.472211

>  <SCORE.INTRA.REPUL>
0

>  <SCORE.INTRA.REPUL.0>
0

>  <SCORE.INTRA.SOLV>
0.1299

>  <SCORE.INTRA.SOLV.lig_0>
-22.5855

>  <SCORE.INTRA.VDW>
0.527049

>  <SCORE.INTRA.VDW.0>
-0.733656

>  <SCORE.INTRA.norm>
0.0877461

>  <SCORE.RESTR>
0

>  <SCORE.RESTR.CAVITY>
0

>  <SCORE.RESTR.norm>
0

>  <SCORE.SYSTEM>
0

>  <SCORE.SYSTEM.CONST>
0

>  <SCORE.SYSTEM.DIHEDRAL>
0

>  <SCORE.SYSTEM.SOLV>
0

>  <SCORE.SYSTEM.norm>
0

>  <SCORE.heavy>
13

>  <SCORE.norm>
-2.13375

>  <RMSD>
10.359

$$$$
lig.pdb
 OpenBabel11021811453D
libRbt.so/2013.1/901 2013/11/27
 13 14  0  0  0  0  0  0  0  0999 V2000
  -10.2043   -3.5345  -12.0335 N   0  0  0  0  0  0  0  0  0  0  0  0
  -10.4396   -4.3350  -10.9518 C   0  0  0  0  0  0  0  0  0  0  0  0
  -11.6777   -4.6336  -10.6013 N   0  0  0  0  0  0  0  0  0  0  0  0
  -12.7623   -4.1633  -11.2897 C   0  0  0  0  0  0  0  0  0  0  0  0
  -12.5762   -3.3247  -12.4154 C   0  0  0  0  0  0  0  0  0  0  0  0
  -11.2349   -3.0082  -12.7874 C   0  0  0  0  0  0  0  0  0  0  0  0
  -11.0048   -2.2905  -13.7450 O   0  0  0  0  0  0  0  0  0  0  0  0
  -13.9160   -2.9909  -12.9129 C   0  0  0  0  0  0  0  0  0  0  0  0
  -14.2700   -2.1097  -14.0816 C   0  0  0  0  0  0  0  0  0  0  0  0
  -13.3154   -0.9964  -14.1652 N   0  0  0  0  0  0  0  0  0  0  0  0
  -14.7781   -3.6273  -12.1104 C   0  0  0  0  0  0  0  0  0  0  0  0
  -14.1049   -4.3205  -11.1401 N   0  0  0  0  0  0  0  0  0  0  0  0
   -9.3846   -4.8288  -10.2285 N   0  0  0  0  0  0  0  0  0  0  0  0
  1  6  1  0  0  0  0
  2  1  1  0  0  0  0
  3  4  1  0  0  0  0
  3  2  2  0  0  0  0
  4  5  2  0  0  0  0
  5  8  1  0  0  0  0
  5  6  1  0  0  0  0
  6  7  2  0  0  0  0
  8  9  1  0  0  0  0
  9 10  1  0  0  0  0
 11  8  2  0  0  0  0
 12  4  1  0  0  0  0
 12 11  1  0  0  0  0
 13  2  1  0  0  0  0
M  END
>  <CHROM.1>
-35.66862375,84.80479983,-12.22675341,-3.36876397,-12.20217300,-0.78168833
-0.02815742,-0.84973121

>  <Name>
lig.pdb

>  <RI>
1.8118e+07

>  <Rbt.Current_Directory>
/home/itssahil/PROJECTS/Mol_Feturizer/New_Systems/rnas/2miy

>  <Rbt.Executable>
rbdock ($Id: //depot/dev/client3/rdock/2013.1/src/exe/rbdock.cxx#4 $)

>  <Rbt.Library>
libRbt.so (2013.1, Build901 2013/11/27)

>  <Rbt.Parameter_File>
/export/apps/rDock/src/rDock_2013.1_src/data/scripts/dock_solv.prm

>  <Rbt.Receptor>
prm/blind_docking_100.prm

>  <SCORE>
-29.5024

>  <SCORE.INTER>
-30.2712

>  <SCORE.INTER.CONST>
1

>  <SCORE.INTER.POLAR>
-4.40496

>  <SCORE.INTER.ROT>
2

>  <SCORE.INTER.SOLV>
10.0063

>  <SCORE.INTER.VDW>
-13.7664

>  <SCORE.INTER.norm>
-2.32855

>  <SCORE.INTRA>
0.768796

>  <SCORE.INTRA.DIHEDRAL>
0.412139

>  <SCORE.INTRA.DIHEDRAL.0>
1.76676

>  <SCORE.INTRA.POLAR>
0.115859

>  <SCORE.INTRA.POLAR.0>
-0.472211

>  <SCORE.INTRA.REPUL>
0

>  <SCORE.INTRA.REPUL.0>
0

>  <SCORE.INTRA.SOLV>
0.0785751

>  <SCORE.INTRA.SOLV.lig_0>
-22.5855

>  <SCORE.INTRA.VDW>
0.129518

>  <SCORE.INTRA.VDW.0>
-0.733656

>  <SCORE.INTRA.norm>
0.0591382

>  <SCORE.RESTR>
0

>  <SCORE.RESTR.CAVITY>
0

>  <SCORE.RESTR.norm>
0

>  <SCORE.SYSTEM>
0

>  <SCORE.SYSTEM.CONST>
0

>  <SCORE.SYSTEM.DIHEDRAL>
0

>  <SCORE.SYSTEM.SOLV>
0

>  <SCORE.SYSTEM.norm>
0

>  <SCORE.heavy>
13

>  <SCORE.norm>
-2.26942

>  <RMSD>
10.537

$$$$
lig.pdb
 OpenBabel11021811453D
libRbt.so/2013.1/901 2013/11/27
 13 14  0  0  0  0  0  0  0  0999 V2000
   -9.6938   -4.2100  -10.3823 N   0  0  0  0  0  0  0  0  0  0  0  0
  -10.0645   -5.1915   -9.5072 C   0  0  0  0  0  0  0  0  0  0  0  0
  -11.2826   -5.7001   -9.5544 N   0  0  0  0  0  0  0  0  0  0  0  0
  -12.2137   -5.2757  -10.4624 C   0  0  0  0  0  0  0  0  0  0  0  0
  -11.8847   -4.2567  -11.3889 C   0  0  0  0  0  0  0  0  0  0  0  0
  -10.5658   -3.7136  -11.3312 C   0  0  0  0  0  0  0  0  0  0  0  0
  -10.2185   -2.8331  -12.0987 O   0  0  0  0  0  0  0  0  0  0  0  0
  -13.0851   -4.0287  -12.2019 C   0  0  0  0  0  0  0  0  0  0  0  0
  -13.2656   -3.0322  -13.3164 C   0  0  0  0  0  0  0  0  0  0  0  0
  -12.6031   -1.7705  -12.9602 N   0  0  0  0  0  0  0  0  0  0  0  0
  -14.0067   -4.8885  -11.7507 C   0  0  0  0  0  0  0  0  0  0  0  0
  -13.5027   -5.6287  -10.7145 N   0  0  0  0  0  0  0  0  0  0  0  0
   -9.1667   -5.6482   -8.5770 N   0  0  0  0  0  0  0  0  0  0  0  0
  1  6  1  0  0  0  0
  2  1  1  0  0  0  0
  3  4  1  0  0  0  0
  3  2  2  0  0  0  0
  4  5  2  0  0  0  0
  5  8  1  0  0  0  0
  5  6  1  0  0  0  0
  6  7  2  0  0  0  0
  8  9  1  0  0  0  0
  9 10  1  0  0  0  0
 11  8  2  0  0  0  0
 12  4  1  0  0  0  0
 12 11  1  0  0  0  0
 13  2  1  0  0  0  0
M  END
>  <CHROM.1>
-39.65585497,-127.85079599,-11.60799660,-4.28370076,-11.08863875,-0.86507182
-0.33133869,-0.72063725

>  <Name>
lig.pdb

>  <RI>
2.95488e+07

>  <Rbt.Current_Directory>
/home/itssahil/PROJECTS/Mol_Feturizer/New_Systems/rnas/2miy

>  <Rbt.Executable>
rbdock ($Id: //depot/dev/client3/rdock/2013.1/src/exe/rbdock.cxx#4 $)

>  <Rbt.Library>
libRbt.so (2013.1, Build901 2013/11/27)

>  <Rbt.Parameter_File>
/export/apps/rDock/src/rDock_2013.1_src/data/scripts/dock_solv.prm

>  <Rbt.Receptor>
prm/blind_docking_20.prm

>  <SCORE>
-24.9306

>  <SCORE.INTER>
-24.91

>  <SCORE.INTER.CONST>
1

>  <SCORE.INTER.POLAR>
-3.39801

>  <SCORE.INTER.ROT>
2

>  <SCORE.INTER.SOLV>
8.33069

>  <SCORE.INTER.VDW>
-12.9902

>  <SCORE.INTER.norm>
-1.91615

>  <SCORE.INTRA>
-0.0206162

>  <SCORE.INTRA.DIHEDRAL>
0.219985

>  <SCORE.INTRA.DIHEDRAL.0>
1.76676

>  <SCORE.INTRA.POLAR>
-0.0799381

>  <SCORE.INTRA.POLAR.0>
-0.472211

>  <SCORE.INTRA.REPUL>
0

>  <SCORE.INTRA.REPUL.0>
0

>  <SCORE.INTRA.SOLV>
0.0462172

>  <SCORE.INTRA.SOLV.lig_0>
-22.5855

>  <SCORE.INTRA.VDW>
0.118072

>  <SCORE.INTRA.VDW.0>
-0.733656

>  <SCORE.INTRA.norm>
-0.00158586

>  <SCORE.RESTR>
0

>  <SCORE.RESTR.CAVITY>
0

>  <SCORE.RESTR.norm>
0

>  <SCORE.SYSTEM>
0

>  <SCORE.SYSTEM.CONST>
0

>  <SCORE.SYSTEM.DIHEDRAL>
0

>  <SCORE.SYSTEM.SOLV>
0

>  <SCORE.SYSTEM.norm>
0

>  <SCORE.heavy>
13

>  <SCORE.norm>
-1.91774

>  <RMSD>
10.547

$$$$
lig.pdb
 OpenBabel11021811453D
libRbt.so/2013.1/901 2013/11/27
 13 14  0  0  0  0  0  0  0  0999 V2000
   -9.7832   -3.9760  -10.5199 N   0  0  0  0  0  0  0  0  0  0  0  0
  -10.2342   -4.7596   -9.4956 C   0  0  0  0  0  0  0  0  0  0  0  0
  -11.4543   -5.2644   -9.5310 N   0  0  0  0  0  0  0  0  0  0  0  0
  -12.3088   -5.0300  -10.5733 C   0  0  0  0  0  0  0  0  0  0  0  0
  -11.8950   -4.2199  -11.6586 C   0  0  0  0  0  0  0  0  0  0  0  0
  -10.5746   -3.6795  -11.6122 C   0  0  0  0  0  0  0  0  0  0  0  0
  -10.1566   -2.9730  -12.5129 O   0  0  0  0  0  0  0  0  0  0  0  0
  -13.0285   -4.1580  -12.5888 C   0  0  0  0  0  0  0  0  0  0  0  0
  -13.1094   -3.4067  -13.8914 C   0  0  0  0  0  0  0  0  0  0  0  0
  -12.3502   -2.1538  -13.7845 N   0  0  0  0  0  0  0  0  0  0  0  0
  -13.9956   -4.9067  -12.0444 C   0  0  0  0  0  0  0  0  0  0  0  0
  -13.5818   -5.4235  -10.8455 N   0  0  0  0  0  0  0  0  0  0  0  0
   -9.4151   -5.0210   -8.4276 N   0  0  0  0  0  0  0  0  0  0  0  0
  1  6  1  0  0  0  0
  2  1  1  0  0  0  0
  3  4  1  0  0  0  0
  3  2  2  0  0  0  0
  4  5  2  0  0  0  0
  5  8  1  0  0  0  0
  5  6  1  0  0  0  0
  6  7  2  0  0  0  0
  8  9  1  0  0  0  0
  9 10  1  0  0  0  0
 11  8  2  0  0  0  0
 12  4  1  0  0  0  0
 12 11  1  0  0  0  0
 13  2  1  0  0  0  0
M  END
>  <CHROM.1>
-34.63706220,150.09967041,-11.63196781,-4.19132504,-11.34236262,-0.94156335
-0.37424077,-0.95851745

>  <Name>
lig.pdb

>  <RI>
0

>  <Rbt.Current_Directory>
/home/itssahil/PROJECTS/Mol_Feturizer/New_Systems/rnas/2miy

>  <Rbt.Executable>
rbdock ($Id: //depot/dev/client3/rdock/2013.1/src/exe/rbdock.cxx#4 $)

>  <Rbt.Library>
libRbt.so (2013.1, Build901 2013/11/27)

>  <Rbt.Parameter_File>
/export/apps/rDock/src/rDock_2013.1_src/data/scripts/dock_solv.prm

>  <Rbt.Receptor>
prm/blind_docking_60.prm

>  <SCORE>
-25.308

>  <SCORE.INTER>
-27.4368

>  <SCORE.INTER.CONST>
1

>  <SCORE.INTER.POLAR>
-3.78308

>  <SCORE.INTER.ROT>
2

>  <SCORE.INTER.SOLV>
9.79439

>  <SCORE.INTER.VDW>
-13.879

>  <SCORE.INTER.norm>
-2.11052

>  <SCORE.INTRA>
2.12504

>  <SCORE.INTRA.DIHEDRAL>
0.529008

>  <SCORE.INTRA.DIHEDRAL.0>
1.76676

>  <SCORE.INTRA.POLAR>
0.472211

>  <SCORE.INTRA.POLAR.0>
-0.472211

>  <SCORE.INTRA.REPUL>
0

>  <SCORE.INTRA.REPUL.0>
0

>  <SCORE.INTRA.SOLV>
0.0910719

>  <SCORE.INTRA.SOLV.lig_0>
-22.5855

>  <SCORE.INTRA.VDW>
0.209479

>  <SCORE.INTRA.VDW.0>
-0.733656

>  <SCORE.INTRA.norm>
0.163464

>  <SCORE.RESTR>
0.0037282

>  <SCORE.RESTR.CAVITY>
0.0037282

>  <SCORE.RESTR.norm>
0.000286784

>  <SCORE.SYSTEM>
0

>  <SCORE.SYSTEM.CONST>
0

>  <SCORE.SYSTEM.DIHEDRAL>
0

>  <SCORE.SYSTEM.SOLV>
0

>  <SCORE.SYSTEM.norm>
0

>  <SCORE.heavy>
13

>  <SCORE.norm>
-1.94677

>  <RMSD>
10.601

$$$$
lig.pdb
 OpenBabel11021811453D
libRbt.so/2013.1/901 2013/11/27
 13 14  0  0  0  0  0  0  0  0999 V2000
  -10.8140   -4.5158   -9.7879 N   0  0  0  0  0  0  0  0  0  0  0  0
   -9.9158   -3.7011  -10.4170 C   0  0  0  0  0  0  0  0  0  0  0  0
  -10.1035   -3.3505  -11.6767 N   0  0  0  0  0  0  0  0  0  0  0  0
  -11.1837   -3.7795  -12.3982 C   0  0  0  0  0  0  0  0  0  0  0  0
  -12.1428   -4.6305  -11.7972 C   0  0  0  0  0  0  0  0  0  0  0  0
  -11.9323   -5.0032  -10.4354 C   0  0  0  0  0  0  0  0  0  0  0  0
  -12.7186   -5.7344   -9.8590 O   0  0  0  0  0  0  0  0  0  0  0  0
  -13.1527   -4.9118  -12.8243 C   0  0  0  0  0  0  0  0  0  0  0  0
  -14.3742   -5.7835  -12.6987 C   0  0  0  0  0  0  0  0  0  0  0  0
  -15.1241   -5.4086  -11.4926 N   0  0  0  0  0  0  0  0  0  0  0  0
  -12.7694   -4.2369  -13.9150 C   0  0  0  0  0  0  0  0  0  0  0  0
  -11.5992   -3.5669  -13.6756 N   0  0  0  0  0  0  0  0  0  0  0  0
   -8.8157   -3.2472   -9.7360 N   0  0  0  0  0  0  0  0  0  0  0  0
  1  6  1  0  0  0  0
  2  1  1  0  0  0  0
  3  4  1  0  0  0  0
  3  2  2  0  0  0  0
  4  5  2  0  0  0  0
  5  8  1  0  0  0  0
  5  6  1  0  0  0  0
  6  7  2  0  0  0  0
  8  9  1  0  0  0  0
  9 10  1  0  0  0  0
 11  8  2  0  0  0  0
 12  4  1  0  0  0  0
 12 11  1  0  0  0  0
 13  2  1  0  0  0  0
M  END
>  <CHROM.1>
50.27930871,126.51179795,-11.90221627,-4.45720160,-11.53311077,0.30255547
0.46152818,1.87629503

>  <Name>
lig.pdb

>  <RI>
1.82164e+07

>  <Rbt.Current_Directory>
/home/itssahil/PROJECTS/Mol_Feturizer/New_Systems/rnas/2miy

>  <Rbt.Executable>
rbdock ($Id: //depot/dev/client3/rdock/2013.1/src/exe/rbdock.cxx#4 $)

>  <Rbt.Library>
libRbt.so (2013.1, Build901 2013/11/27)

>  <Rbt.Parameter_File>
/export/apps/rDock/src/rDock_2013.1_src/data/scripts/dock_solv.prm

>  <Rbt.Receptor>
prm/blind_docking_80.prm

>  <SCORE>
-25.9944

>  <SCORE.INTER>
-26.6261

>  <SCORE.INTER.CONST>
1

>  <SCORE.INTER.POLAR>
-3.5551

>  <SCORE.INTER.ROT>
2

>  <SCORE.INTER.SOLV>
11.478

>  <SCORE.INTER.VDW>
-14.6597

>  <SCORE.INTER.norm>
-2.04816

>  <SCORE.INTRA>
0.631698

>  <SCORE.INTRA.DIHEDRAL>
-0.17131

>  <SCORE.INTRA.DIHEDRAL.0>
1.76676

>  <SCORE.INTRA.POLAR>
0.221582

>  <SCORE.INTRA.POLAR.0>
-0.472211

>  <SCORE.INTRA.REPUL>
0

>  <SCORE.INTRA.REPUL.0>
0

>  <SCORE.INTRA.SOLV>
-0.0535116

>  <SCORE.INTRA.SOLV.lig_0>
-22.5855

>  <SCORE.INTRA.VDW>
-0.00926911

>  <SCORE.INTRA.VDW.0>
-0.733656

>  <SCORE.INTRA.norm>
0.0485921

>  <SCORE.RESTR>
0

>  <SCORE.RESTR.CAVITY>
0

>  <SCORE.RESTR.norm>
0

>  <SCORE.SYSTEM>
0

>  <SCORE.SYSTEM.CONST>
0

>  <SCORE.SYSTEM.DIHEDRAL>
0

>  <SCORE.SYSTEM.SOLV>
0

>  <SCORE.SYSTEM.norm>
0

>  <SCORE.heavy>
13

>  <SCORE.norm>
-1.99957

>  <RMSD>
10.858

$$$$
lig.pdb
 OpenBabel11021811453D
libRbt.so/2013.1/901 2013/11/27
 13 14  0  0  0  0  0  0  0  0999 V2000
  -10.8755   -3.7507  -10.3219 N   0  0  0  0  0  0  0  0  0  0  0  0
   -9.7868   -4.5735  -10.3869 C   0  0  0  0  0  0  0  0  0  0  0  0
   -9.8109   -5.6504  -11.1514 N   0  0  0  0  0  0  0  0  0  0  0  0
  -10.9060   -5.9881  -11.8985 C   0  0  0  0  0  0  0  0  0  0  0  0
  -12.0640   -5.1738  -11.8640 C   0  0  0  0  0  0  0  0  0  0  0  0
  -12.0285   -4.0116  -11.0359 C   0  0  0  0  0  0  0  0  0  0  0  0
  -12.9918   -3.2691  -10.9596 O   0  0  0  0  0  0  0  0  0  0  0  0
  -13.0459   -5.8072  -12.7521 C   0  0  0  0  0  0  0  0  0  0  0  0
  -14.4486   -5.3471  -13.0493 C   0  0  0  0  0  0  0  0  0  0  0  0
  -15.2450   -5.3680  -11.8152 N   0  0  0  0  0  0  0  0  0  0  0  0
  -12.4459   -6.8947  -13.2517 C   0  0  0  0  0  0  0  0  0  0  0  0
  -11.1785   -7.0153  -12.7471 N   0  0  0  0  0  0  0  0  0  0  0  0
   -8.6661   -4.2781   -9.6542 N   0  0  0  0  0  0  0  0  0  0  0  0
  1  6  1  0  0  0  0
  2  1  1  0  0  0  0
  3  4  1  0  0  0  0
  3  2  2  0  0  0  0
  4  5  2  0  0  0  0
  5  8  1  0  0  0  0
  5  6  1  0  0  0  0
  6  7  2  0  0  0  0
  8  9  1  0  0  0  0
  9 10  1  0  0  0  0
 11  8  2  0  0  0  0
 12  4  1  0  0  0  0
 12 11  1  0  0  0  0
 13  2  1  0  0  0  0
M  END
>  <CHROM.1>
-62.53728200,36.76716968,-11.82001183,-5.12942321,-11.56168508,0.45449809
-0.24695850,0.64703646

>  <Name>
lig.pdb

>  <RI>
1.8118e+07

>  <Rbt.Current_Directory>
/home/itssahil/PROJECTS/Mol_Feturizer/New_Systems/rnas/2miy

>  <Rbt.Executable>
rbdock ($Id: //depot/dev/client3/rdock/2013.1/src/exe/rbdock.cxx#4 $)

>  <Rbt.Library>
libRbt.so (2013.1, Build901 2013/11/27)

>  <Rbt.Parameter_File>
/export/apps/rDock/src/rDock_2013.1_src/data/scripts/dock_solv.prm

>  <Rbt.Receptor>
prm/blind_docking_100.prm

>  <SCORE>
-23.9333

>  <SCORE.INTER>
-25.3322

>  <SCORE.INTER.CONST>
1

>  <SCORE.INTER.POLAR>
-3.93177

>  <SCORE.INTER.ROT>
2

>  <SCORE.INTER.SOLV>
9.95165

>  <SCORE.INTER.VDW>
-12.0328

>  <SCORE.INTER.norm>
-1.94863

>  <SCORE.INTRA>
1.39895

>  <SCORE.INTRA.DIHEDRAL>
-0.287419

>  <SCORE.INTRA.DIHEDRAL.0>
1.76676

>  <SCORE.INTRA.POLAR>
0.472211

>  <SCORE.INTRA.POLAR.0>
-0.472211

>  <SCORE.INTRA.REPUL>
0

>  <SCORE.INTRA.REPUL.0>
0

>  <SCORE.INTRA.SOLV>
-0.178233

>  <SCORE.INTRA.SOLV.lig_0>
-22.5855

>  <SCORE.INTRA.VDW>
0.0262632

>  <SCORE.INTRA.VDW.0>
-0.733656

>  <SCORE.INTRA.norm>
0.107612

>  <SCORE.RESTR>
0

>  <SCORE.RESTR.CAVITY>
0

>  <SCORE.RESTR.norm>
0

>  <SCORE.SYSTEM>
0

>  <SCORE.SYSTEM.CONST>
0

>  <SCORE.SYSTEM.DIHEDRAL>
0

>  <SCORE.SYSTEM.SOLV>
0

>  <SCORE.SYSTEM.norm>
0

>  <SCORE.heavy>
13

>  <SCORE.norm>
-1.84102

>  <RMSD>
11.418

$$$$
lig.pdb
 OpenBabel11021811453D
libRbt.so/2013.1/901 2013/11/27
 13 14  0  0  0  0  0  0  0  0999 V2000
   -7.5482    4.7798  -16.9016 N   0  0  0  0  0  0  0  0  0  0  0  0
   -7.1093    3.8087  -16.0468 C   0  0  0  0  0  0  0  0  0  0  0  0
   -7.3668    2.5371  -16.2953 N   0  0  0  0  0  0  0  0  0  0  0  0
   -8.0729    2.1395  -17.3975 C   0  0  0  0  0  0  0  0  0  0  0  0
   -8.5566    3.1050  -18.3136 C   0  0  0  0  0  0  0  0  0  0  0  0
   -8.2728    4.4764  -18.0375 C   0  0  0  0  0  0  0  0  0  0  0  0
   -8.6613    5.3575  -18.7843 O   0  0  0  0  0  0  0  0  0  0  0  0
   -9.2697    2.3651  -19.3615 C   0  0  0  0  0  0  0  0  0  0  0  0
   -9.9865    2.9288  -20.5599 C   0  0  0  0  0  0  0  0  0  0  0  0
  -11.0231    3.8698  -20.1154 N   0  0  0  0  0  0  0  0  0  0  0  0
   -9.1631    1.0703  -19.0384 C   0  0  0  0  0  0  0  0  0  0  0  0
   -8.4607    0.9254  -17.8717 N   0  0  0  0  0  0  0  0  0  0  0  0
   -6.3994    4.1581  -14.9271 N   0  0  0  0  0  0  0  0  0  0  0  0
  1  6  1  0  0  0  0
  2  1  1  0  0  0  0
  3  4  1  0  0  0  0
  3  2  2  0  0  0  0
  4  5  2  0  0  0  0
  5  8  1  0  0  0  0
  5  6  1  0  0  0  0
  6  7  2  0  0  0  0
  8  9  1  0  0  0  0
  9 10  1  0  0  0  0
 11  8  2  0  0  0  0
 12  4  1  0  0  0  0
 12 11  1  0  0  0  0
 13  2  1  0  0  0  0
M  END
>  <CHROM.1>
-57.51889778,129.34642711,-8.46230035,3.25059012,-17.95792897,0.17372667
-0.92302151,-0.01491910

>  <Name>
lig.pdb

>  <RI>
1.8118e+07

>  <Rbt.Current_Directory>
/home/itssahil/PROJECTS/Mol_Feturizer/New_Systems/rnas/2miy

>  <Rbt.Executable>
rbdock ($Id: //depot/dev/client3/rdock/2013.1/src/exe/rbdock.cxx#4 $)

>  <Rbt.Library>
libRbt.so (2013.1, Build901 2013/11/27)

>  <Rbt.Parameter_File>
/export/apps/rDock/src/rDock_2013.1_src/data/scripts/dock_solv.prm

>  <Rbt.Receptor>
prm/blind_docking_100.prm

>  <SCORE>
-17.9641

>  <SCORE.INTER>
-20.5159

>  <SCORE.INTER.CONST>
1

>  <SCORE.INTER.POLAR>
-3.64454

>  <SCORE.INTER.ROT>
2

>  <SCORE.INTER.SOLV>
15.1929

>  <SCORE.INTER.VDW>
-11.5264

>  <SCORE.INTER.norm>
-1.57814

>  <SCORE.INTRA>
1.40887

>  <SCORE.INTRA.DIHEDRAL>
-0.303825

>  <SCORE.INTRA.DIHEDRAL.0>
1.76676

>  <SCORE.INTRA.POLAR>
0.472211

>  <SCORE.INTRA.POLAR.0>
-0.472211

>  <SCORE.INTRA.REPUL>
0

>  <SCORE.INTRA.REPUL.0>
0

>  <SCORE.INTRA.SOLV>
-0.146903

>  <SCORE.INTRA.SOLV.lig_0>
-22.5855

>  <SCORE.INTRA.VDW>
0.0287199

>  <SCORE.INTRA.VDW.0>
-0.733656

>  <SCORE.INTRA.norm>
0.108375

>  <SCORE.RESTR>
1.14294

>  <SCORE.RESTR.CAVITY>
1.14294

>  <SCORE.RESTR.norm>
0.0879187

>  <SCORE.SYSTEM>
0

>  <SCORE.SYSTEM.CONST>
0

>  <SCORE.SYSTEM.DIHEDRAL>
0

>  <SCORE.SYSTEM.SOLV>
0

>  <SCORE.SYSTEM.norm>
0

>  <SCORE.heavy>
13

>  <SCORE.norm>
-1.38185

>  <RMSD>
11.665

$$$$
lig.pdb
 OpenBabel11021811453D
libRbt.so/2013.1/901 2013/11/27
 13 14  0  0  0  0  0  0  0  0999 V2000
   -7.5696    4.8172  -16.9617 N   0  0  0  0  0  0  0  0  0  0  0  0
   -7.1294    3.8593  -16.0928 C   0  0  0  0  0  0  0  0  0  0  0  0
   -7.3827    2.5837  -16.3241 N   0  0  0  0  0  0  0  0  0  0  0  0
   -8.0855    2.1688  -17.4220 C   0  0  0  0  0  0  0  0  0  0  0  0
   -8.5704    3.1200  -18.3522 C   0  0  0  0  0  0  0  0  0  0  0  0
   -8.2912    4.4960  -18.0946 C   0  0  0  0  0  0  0  0  0  0  0  0
   -8.6809    5.3655  -18.8542 O   0  0  0  0  0  0  0  0  0  0  0  0
   -9.2794    2.3636  -19.3910 C   0  0  0  0  0  0  0  0  0  0  0  0
   -9.9956    2.9085  -20.5984 C   0  0  0  0  0  0  0  0  0  0  0  0
  -11.0490    3.8374  -20.1679 N   0  0  0  0  0  0  0  0  0  0  0  0
   -9.1696    1.0738  -19.0499 C   0  0  0  0  0  0  0  0  0  0  0  0
   -8.4689    0.9470  -17.8801 N   0  0  0  0  0  0  0  0  0  0  0  0
   -6.4226    4.2262  -14.9767 N   0  0  0  0  0  0  0  0  0  0  0  0
  1  6  1  0  0  0  0
  2  1  1  0  0  0  0
  3  4  1  0  0  0  0
  3  2  2  0  0  0  0
  4  5  2  0  0  0  0
  5  8  1  0  0  0  0
  5  6  1  0  0  0  0
  6  7  2  0  0  0  0
  8  9  1  0  0  0  0
  9 10  1  0  0  0  0
 11  8  2  0  0  0  0
 12  4  1  0  0  0  0
 12 11  1  0  0  0  0
 13  2  1  0  0  0  0
M  END
>  <CHROM.1>
-58.35031906,-47.10558816,-8.47852244,3.26936093,-17.99846190,0.17955352
-0.92395785,-0.02480954

>  <Name>
lig.pdb

>  <RI>
0

>  <Rbt.Current_Directory>
/home/itssahil/PROJECTS/Mol_Feturizer/New_Systems/rnas/2miy

>  <Rbt.Executable>
rbdock ($Id: //depot/dev/client3/rdock/2013.1/src/exe/rbdock.cxx#4 $)

>  <Rbt.Library>
libRbt.so (2013.1, Build901 2013/11/27)

>  <Rbt.Parameter_File>
/export/apps/rDock/src/rDock_2013.1_src/data/scripts/dock_solv.prm

>  <Rbt.Receptor>
prm/blind_docking_60.prm

>  <SCORE>
-18.5306

>  <SCORE.INTER>
-20.8566

>  <SCORE.INTER.CONST>
1

>  <SCORE.INTER.POLAR>
-3.63354

>  <SCORE.INTER.ROT>
2

>  <SCORE.INTER.SOLV>
15.0004

>  <SCORE.INTER.VDW>
-11.726

>  <SCORE.INTER.norm>
-1.60435

>  <SCORE.INTRA>
1.37954

>  <SCORE.INTRA.DIHEDRAL>
-0.343043

>  <SCORE.INTRA.DIHEDRAL.0>
1.76676

>  <SCORE.INTRA.POLAR>
0.472211

>  <SCORE.INTRA.POLAR.0>
-0.472211

>  <SCORE.INTRA.REPUL>
0

>  <SCORE.INTRA.REPUL.0>
0

>  <SCORE.INTRA.SOLV>
-0.159124

>  <SCORE.INTRA.SOLV.lig_0>
-22.5855

>  <SCORE.INTRA.VDW>
0.0251071

>  <SCORE.INTRA.VDW.0>
-0.733656

>  <SCORE.INTRA.norm>
0.106119

>  <SCORE.RESTR>
0.946402

>  <SCORE.RESTR.CAVITY>
0.946402

>  <SCORE.RESTR.norm>
0.0728001

>  <SCORE.SYSTEM>
0

>  <SCORE.SYSTEM.CONST>
0

>  <SCORE.SYSTEM.DIHEDRAL>
0

>  <SCORE.SYSTEM.SOLV>
0

>  <SCORE.SYSTEM.norm>
0

>  <SCORE.heavy>
13

>  <SCORE.norm>
-1.42543

>  <RMSD>
11.702

$$$$
lig.pdb
 OpenBabel11021811453D
libRbt.so/2013.1/901 2013/11/27
 13 14  0  0  0  0  0  0  0  0999 V2000
  -12.2334   -4.0927  -11.0420 N   0  0  0  0  0  0  0  0  0  0  0  0
  -10.9513   -3.9051  -11.4749 C   0  0  0  0  0  0  0  0  0  0  0  0
  -10.6260   -4.1700  -12.7274 N   0  0  0  0  0  0  0  0  0  0  0  0
  -11.5387   -4.6376  -13.6329 C   0  0  0  0  0  0  0  0  0  0  0  0
  -12.8805   -4.8557  -13.2363 C   0  0  0  0  0  0  0  0  0  0  0  0
  -13.2230   -4.5658  -11.8812 C   0  0  0  0  0  0  0  0  0  0  0  0
  -14.3595   -4.7329  -11.4745 O   0  0  0  0  0  0  0  0  0  0  0  0
  -13.5882   -5.3604  -14.4188 C   0  0  0  0  0  0  0  0  0  0  0  0
  -15.0349   -5.7654  -14.5217 C   0  0  0  0  0  0  0  0  0  0  0  0
  -15.8569   -4.8664  -13.7007 N   0  0  0  0  0  0  0  0  0  0  0  0
  -12.6829   -5.3974  -15.4043 C   0  0  0  0  0  0  0  0  0  0  0  0
  -11.4622   -4.9769  -14.9477 N   0  0  0  0  0  0  0  0  0  0  0  0
  -10.0001   -3.4403  -10.6035 N   0  0  0  0  0  0  0  0  0  0  0  0
  1  6  1  0  0  0  0
  2  1  1  0  0  0  0
  3  4  1  0  0  0  0
  3  2  2  0  0  0  0
  4  5  2  0  0  0  0
  5  8  1  0  0  0  0
  5  6  1  0  0  0  0
  6  7  2  0  0  0  0
  8  9  1  0  0  0  0
  9 10  1  0  0  0  0
 11  8  2  0  0  0  0
 12  4  1  0  0  0  0
 12 11  1  0  0  0  0
 13  2  1  0  0  0  0
M  END
>  <CHROM.1>
37.04600111,-60.70733349,-12.67339606,-4.65167004,-12.95116785,0.68805970
0.15415554,1.29206368

>  <Name>
lig.pdb

>  <RI>
1.17462e+07

>  <Rbt.Current_Directory>
/home/itssahil/PROJECTS/Mol_Feturizer/New_Systems/rnas/2miy

>  <Rbt.Executable>
rbdock ($Id: //depot/dev/client3/rdock/2013.1/src/exe/rbdock.cxx#4 $)

>  <Rbt.Library>
libRbt.so (2013.1, Build901 2013/11/27)

>  <Rbt.Parameter_File>
/export/apps/rDock/src/rDock_2013.1_src/data/scripts/dock_solv.prm

>  <Rbt.Receptor>
prm/blind_docking_40.prm

>  <SCORE>
-15.8764

>  <SCORE.INTER>
-15.1755

>  <SCORE.INTER.CONST>
1

>  <SCORE.INTER.POLAR>
-1.95166

>  <SCORE.INTER.ROT>
2

>  <SCORE.INTER.SOLV>
9.10268

>  <SCORE.INTER.VDW>
-11.579

>  <SCORE.INTER.norm>
-1.16734

>  <SCORE.INTRA>
-0.70099

>  <SCORE.INTRA.DIHEDRAL>
0.386675

>  <SCORE.INTRA.DIHEDRAL.0>
1.76676

>  <SCORE.INTRA.POLAR>
-0.321781

>  <SCORE.INTRA.POLAR.0>
-0.472211

>  <SCORE.INTRA.REPUL>
0

>  <SCORE.INTRA.REPUL.0>
0

>  <SCORE.INTRA.SOLV>
0.0753243

>  <SCORE.INTRA.SOLV.lig_0>
-22.5855

>  <SCORE.INTRA.VDW>
0.162067

>  <SCORE.INTRA.VDW.0>
-0.733656

>  <SCORE.INTRA.norm>
-0.0539223

>  <SCORE.RESTR>
0

>  <SCORE.RESTR.CAVITY>
0

>  <SCORE.RESTR.norm>
0

>  <SCORE.SYSTEM>
0

>  <SCORE.SYSTEM.CONST>
0

>  <SCORE.SYSTEM.DIHEDRAL>
0

>  <SCORE.SYSTEM.SOLV>
0

>  <SCORE.SYSTEM.norm>
0

>  <SCORE.heavy>
13

>  <SCORE.norm>
-1.22126

>  <RMSD>
11.830

$$$$
lig.pdb
 OpenBabel11021811453D
libRbt.so/2013.1/901 2013/11/27
 13 14  0  0  0  0  0  0  0  0999 V2000
  -10.1787   -4.3684  -12.2878 N   0  0  0  0  0  0  0  0  0  0  0  0
  -10.5966   -3.9400  -11.0597 C   0  0  0  0  0  0  0  0  0  0  0  0
  -11.8724   -4.0180  -10.7261 N   0  0  0  0  0  0  0  0  0  0  0  0
  -12.8180   -4.5195  -11.5780 C   0  0  0  0  0  0  0  0  0  0  0  0
  -12.4408   -4.9723  -12.8656 C   0  0  0  0  0  0  0  0  0  0  0  0
  -11.0601   -4.8852  -13.2171 C   0  0  0  0  0  0  0  0  0  0  0  0
  -10.6689   -5.2559  -14.3100 O   0  0  0  0  0  0  0  0  0  0  0  0
  -13.6701   -5.4317  -13.5228 C   0  0  0  0  0  0  0  0  0  0  0  0
  -13.8162   -5.9883  -14.9144 C   0  0  0  0  0  0  0  0  0  0  0  0
  -12.8747   -5.3116  -15.8162 N   0  0  0  0  0  0  0  0  0  0  0  0
  -14.6546   -5.2525  -12.6335 C   0  0  0  0  0  0  0  0  0  0  0  0
  -14.1615   -4.7059  -11.4787 N   0  0  0  0  0  0  0  0  0  0  0  0
   -9.6862   -3.4271  -10.1720 N   0  0  0  0  0  0  0  0  0  0  0  0
  1  6  1  0  0  0  0
  2  1  1  0  0  0  0
  3  4  1  0  0  0  0
  3  2  2  0  0  0  0
  4  5  2  0  0  0  0
  5  8  1  0  0  0  0
  5  6  1  0  0  0  0
  6  7  2  0  0  0  0
  8  9  1  0  0  0  0
  9 10  1  0  0  0  0
 11  8  2  0  0  0  0
 12  4  1  0  0  0  0
 12 11  1  0  0  0  0
 13  2  1  0  0  0  0
M  END
>  <CHROM.1>
-35.06883978,60.96204800,-12.13579420,-4.76125136,-12.68620613,-0.91200072
-0.16714223,-1.86772613

>  <Name>
lig.pdb

>  <RI>
1.17462e+07

>  <Rbt.Current_Directory>
/home/itssahil/PROJECTS/Mol_Feturizer/New_Systems/rnas/2miy

>  <Rbt.Executable>
rbdock ($Id: //depot/dev/client3/rdock/2013.1/src/exe/rbdock.cxx#4 $)

>  <Rbt.Library>
libRbt.so (2013.1, Build901 2013/11/27)

>  <Rbt.Parameter_File>
/export/apps/rDock/src/rDock_2013.1_src/data/scripts/dock_solv.prm

>  <Rbt.Receptor>
prm/blind_docking_40.prm

>  <SCORE>
-27.5129

>  <SCORE.INTER>
-26.8777

>  <SCORE.INTER.CONST>
1

>  <SCORE.INTER.POLAR>
-4.40718

>  <SCORE.INTER.ROT>
2

>  <SCORE.INTER.SOLV>
9.54135

>  <SCORE.INTER.VDW>
-11.3417

>  <SCORE.INTER.norm>
-2.06752

>  <SCORE.INTRA>
-0.635202

>  <SCORE.INTRA.DIHEDRAL>
0.47237

>  <SCORE.INTRA.DIHEDRAL.0>
1.76676

>  <SCORE.INTRA.POLAR>
-0.324441

>  <SCORE.INTRA.POLAR.0>
-0.472211

>  <SCORE.INTRA.REPUL>
0

>  <SCORE.INTRA.REPUL.0>
0

>  <SCORE.INTRA.SOLV>
0.086906

>  <SCORE.INTRA.SOLV.lig_0>
-22.5855

>  <SCORE.INTRA.VDW>
0.18826

>  <SCORE.INTRA.VDW.0>
-0.733656

>  <SCORE.INTRA.norm>
-0.0488617

>  <SCORE.RESTR>
0

>  <SCORE.RESTR.CAVITY>
0

>  <SCORE.RESTR.norm>
0

>  <SCORE.SYSTEM>
0

>  <SCORE.SYSTEM.CONST>
0

>  <SCORE.SYSTEM.DIHEDRAL>
0

>  <SCORE.SYSTEM.SOLV>
0

>  <SCORE.SYSTEM.norm>
0

>  <SCORE.heavy>
13

>  <SCORE.norm>
-2.11638

>  <RMSD>
11.857

$$$$
lig.pdb
 OpenBabel11021811453D
libRbt.so/2013.1/901 2013/11/27
 13 14  0  0  0  0  0  0  0  0999 V2000
   -8.1200    4.0816  -16.8203 N   0  0  0  0  0  0  0  0  0  0  0  0
   -6.8288    4.4083  -16.5163 C   0  0  0  0  0  0  0  0  0  0  0  0
   -6.2058    5.3578  -17.1911 N   0  0  0  0  0  0  0  0  0  0  0  0
   -6.8109    6.0446  -18.2078 C   0  0  0  0  0  0  0  0  0  0  0  0
   -8.1465    5.7425  -18.5686 C   0  0  0  0  0  0  0  0  0  0  0  0
   -8.8120    4.7158  -17.8333 C   0  0  0  0  0  0  0  0  0  0  0  0
   -9.9613    4.4054  -18.0939 O   0  0  0  0  0  0  0  0  0  0  0  0
   -8.4896    6.6344  -19.6825 C   0  0  0  0  0  0  0  0  0  0  0  0
   -9.7882    6.6997  -20.4421 C   0  0  0  0  0  0  0  0  0  0  0  0
  -10.8228    7.3090  -19.5959 N   0  0  0  0  0  0  0  0  0  0  0  0
   -7.4050    7.3882  -19.9007 C   0  0  0  0  0  0  0  0  0  0  0  0
   -6.4010    7.0424  -19.0360 N   0  0  0  0  0  0  0  0  0  0  0  0
   -6.1791    3.7462  -15.5067 N   0  0  0  0  0  0  0  0  0  0  0  0
  1  6  1  0  0  0  0
  2  1  1  0  0  0  0
  3  4  1  0  0  0  0
  3  2  2  0  0  0  0
  4  5  2  0  0  0  0
  5  8  1  0  0  0  0
  5  6  1  0  0  0  0
  6  7  2  0  0  0  0
  8  9  1  0  0  0  0
  9 10  1  0  0  0  0
 11  8  2  0  0  0  0
 12  4  1  0  0  0  0
 12 11  1  0  0  0  0
 13  2  1  0  0  0  0
M  END
>  <CHROM.1>
72.45007011,-116.84992598,-8.03509520,5.63882052,-18.22613321,0.98791163
0.22704916,2.37291747

>  <Name>
lig.pdb

>  <RI>
1.17462e+07

>  <Rbt.Current_Directory>
/home/itssahil/PROJECTS/Mol_Feturizer/New_Systems/rnas/2miy

>  <Rbt.Executable>
rbdock ($Id: //depot/dev/client3/rdock/2013.1/src/exe/rbdock.cxx#4 $)

>  <Rbt.Library>
libRbt.so (2013.1, Build901 2013/11/27)

>  <Rbt.Parameter_File>
/export/apps/rDock/src/rDock_2013.1_src/data/scripts/dock_solv.prm

>  <Rbt.Receptor>
prm/blind_docking_40.prm

>  <SCORE>
-26.84

>  <SCORE.INTER>
-28.3154

>  <SCORE.INTER.CONST>
1

>  <SCORE.INTER.POLAR>
-3.53386

>  <SCORE.INTER.ROT>
2

>  <SCORE.INTER.SOLV>
12.8327

>  <SCORE.INTER.VDW>
-16.3083

>  <SCORE.INTER.norm>
-2.17811

>  <SCORE.INTRA>
1.47364

>  <SCORE.INTRA.DIHEDRAL>
-0.101724

>  <SCORE.INTRA.DIHEDRAL.0>
1.76676

>  <SCORE.INTRA.POLAR>
0.472211

>  <SCORE.INTRA.POLAR.0>
-0.472211

>  <SCORE.INTRA.REPUL>
0

>  <SCORE.INTRA.REPUL.0>
0

>  <SCORE.INTRA.SOLV>
-0.288985

>  <SCORE.INTRA.SOLV.lig_0>
-22.5855

>  <SCORE.INTRA.VDW>
0.0634749

>  <SCORE.INTRA.VDW.0>
-0.733656

>  <SCORE.INTRA.norm>
0.113357

>  <SCORE.RESTR>
0.00176751

>  <SCORE.RESTR.CAVITY>
0.00176751

>  <SCORE.RESTR.norm>
0.000135962

>  <SCORE.SYSTEM>
0

>  <SCORE.SYSTEM.CONST>
0

>  <SCORE.SYSTEM.DIHEDRAL>
0

>  <SCORE.SYSTEM.SOLV>
0

>  <SCORE.SYSTEM.norm>
0

>  <SCORE.heavy>
13

>  <SCORE.norm>
-2.06461

>  <RMSD>
11.894

$$$$
lig.pdb
 OpenBabel11021811453D
libRbt.so/2013.1/901 2013/11/27
 13 14  0  0  0  0  0  0  0  0999 V2000
  -10.2661   -4.2781  -12.3040 N   0  0  0  0  0  0  0  0  0  0  0  0
  -10.6491   -3.7857  -11.0886 C   0  0  0  0  0  0  0  0  0  0  0  0
  -11.9213   -3.8040  -10.7337 N   0  0  0  0  0  0  0  0  0  0  0  0
  -12.8975   -4.3051  -11.5507 C   0  0  0  0  0  0  0  0  0  0  0  0
  -12.5571   -4.8227  -12.8240 C   0  0  0  0  0  0  0  0  0  0  0  0
  -11.1799   -4.7998  -13.1986 C   0  0  0  0  0  0  0  0  0  0  0  0
  -10.8195   -5.2282  -14.2810 O   0  0  0  0  0  0  0  0  0  0  0  0
  -13.8122   -5.2636  -13.4441 C   0  0  0  0  0  0  0  0  0  0  0  0
  -14.0001   -5.8703  -14.8095 C   0  0  0  0  0  0  0  0  0  0  0  0
  -14.5679   -7.2183  -14.6749 N   0  0  0  0  0  0  0  0  0  0  0  0
  -14.7755   -5.0132  -12.5488 C   0  0  0  0  0  0  0  0  0  0  0  0
  -14.2450   -4.4386  -11.4245 N   0  0  0  0  0  0  0  0  0  0  0  0
   -9.7070   -3.2706  -10.2358 N   0  0  0  0  0  0  0  0  0  0  0  0
  1  6  1  0  0  0  0
  2  1  1  0  0  0  0
  3  4  1  0  0  0  0
  3  2  2  0  0  0  0
  4  5  2  0  0  0  0
  5  8  1  0  0  0  0
  5  6  1  0  0  0  0
  6  7  2  0  0  0  0
  8  9  1  0  0  0  0
  9 10  1  0  0  0  0
 11  8  2  0  0  0  0
 12  4  1  0  0  0  0
 12 11  1  0  0  0  0
 13  2  1  0  0  0  0
M  END
>  <CHROM.1>
119.10955555,-142.32007444,-12.38370431,-4.79806117,-12.55744175,-0.77902845
-0.16548992,-2.07433662

>  <Name>
lig.pdb

>  <RI>
1.8118e+07

>  <Rbt.Current_Directory>
/home/itssahil/PROJECTS/Mol_Feturizer/New_Systems/rnas/2miy

>  <Rbt.Executable>
rbdock ($Id: //depot/dev/client3/rdock/2013.1/src/exe/rbdock.cxx#4 $)

>  <Rbt.Library>
libRbt.so (2013.1, Build901 2013/11/27)

>  <Rbt.Parameter_File>
/export/apps/rDock/src/rDock_2013.1_src/data/scripts/dock_solv.prm

>  <Rbt.Receptor>
prm/blind_docking_100.prm

>  <SCORE>
-29.7864

>  <SCORE.INTER>
-32.3027

>  <SCORE.INTER.CONST>
1

>  <SCORE.INTER.POLAR>
-5.33914

>  <SCORE.INTER.ROT>
2

>  <SCORE.INTER.SOLV>
9.59765

>  <SCORE.INTER.VDW>
-11.8705

>  <SCORE.INTER.norm>
-2.48482

>  <SCORE.INTRA>
2.5163

>  <SCORE.INTRA.DIHEDRAL>
1.84386

>  <SCORE.INTRA.DIHEDRAL.0>
1.76676

>  <SCORE.INTRA.POLAR>
0.472211

>  <SCORE.INTRA.POLAR.0>
-0.472211

>  <SCORE.INTRA.REPUL>
0

>  <SCORE.INTRA.REPUL.0>
0

>  <SCORE.INTRA.SOLV>
-0.627226

>  <SCORE.INTRA.SOLV.lig_0>
-22.5855

>  <SCORE.INTRA.VDW>
0.302471

>  <SCORE.INTRA.VDW.0>
-0.733656

>  <SCORE.INTRA.norm>
0.193562

>  <SCORE.RESTR>
0

>  <SCORE.RESTR.CAVITY>
0

>  <SCORE.RESTR.norm>
0

>  <SCORE.SYSTEM>
0

>  <SCORE.SYSTEM.CONST>
0

>  <SCORE.SYSTEM.DIHEDRAL>
0

>  <SCORE.SYSTEM.SOLV>
0

>  <SCORE.SYSTEM.norm>
0

>  <SCORE.heavy>
13

>  <SCORE.norm>
-2.29126

>  <RMSD>
11.916

$$$$
lig.pdb
 OpenBabel11021811453D
libRbt.so/2013.1/901 2013/11/27
 13 14  0  0  0  0  0  0  0  0999 V2000
   -8.1031    2.3527  -17.3641 N   0  0  0  0  0  0  0  0  0  0  0  0
   -8.1986    1.5499  -18.4654 C   0  0  0  0  0  0  0  0  0  0  0  0
   -8.0799    2.0640  -19.6763 N   0  0  0  0  0  0  0  0  0  0  0  0
   -7.8619    3.3988  -19.8820 C   0  0  0  0  0  0  0  0  0  0  0  0
   -7.7605    4.2774  -18.7761 C   0  0  0  0  0  0  0  0  0  0  0  0
   -7.8890    3.7128  -17.4714 C   0  0  0  0  0  0  0  0  0  0  0  0
   -7.8134    4.4135  -16.4772 O   0  0  0  0  0  0  0  0  0  0  0  0
   -7.5408    5.6193  -19.3284 C   0  0  0  0  0  0  0  0  0  0  0  0
   -7.3866    6.9117  -18.5710 C   0  0  0  0  0  0  0  0  0  0  0  0
   -6.4142    7.7717  -19.2584 N   0  0  0  0  0  0  0  0  0  0  0  0
   -7.5088    5.4716  -20.6585 C   0  0  0  0  0  0  0  0  0  0  0  0
   -7.7047    4.1595  -20.9983 N   0  0  0  0  0  0  0  0  0  0  0  0
   -8.4191    0.2055  -18.3102 N   0  0  0  0  0  0  0  0  0  0  0  0
  1  6  1  0  0  0  0
  2  1  1  0  0  0  0
  3  4  1  0  0  0  0
  3  2  2  0  0  0  0
  4  5  2  0  0  0  0
  5  8  1  0  0  0  0
  5  6  1  0  0  0  0
  6  7  2  0  0  0  0
  8  9  1  0  0  0  0
  9 10  1  0  0  0  0
 11  8  2  0  0  0  0
 12  4  1  0  0  0  0
 12 11  1  0  0  0  0
 13  2  1  0  0  0  0
M  END
>  <CHROM.1>
144.30925800,76.89280000,-7.73288289,3.99086852,-18.83643402,-3.08181293
-1.35410904,-1.70330899

>  <Name>
lig.pdb

>  <RI>
1.8118e+07

>  <Rbt.Current_Directory>
/home/itssahil/PROJECTS/Mol_Feturizer/New_Systems/rnas/2miy

>  <Rbt.Executable>
rbdock ($Id: //depot/dev/client3/rdock/2013.1/src/exe/rbdock.cxx#4 $)

>  <Rbt.Library>
libRbt.so (2013.1, Build901 2013/11/27)

>  <Rbt.Parameter_File>
/export/apps/rDock/src/rDock_2013.1_src/data/scripts/dock_solv.prm

>  <Rbt.Receptor>
prm/blind_docking_100.prm

>  <SCORE>
-21.3069

>  <SCORE.INTER>
-24.066

>  <SCORE.INTER.CONST>
1

>  <SCORE.INTER.POLAR>
-3.55157

>  <SCORE.INTER.ROT>
2

>  <SCORE.INTER.SOLV>
13.0907

>  <SCORE.INTER.VDW>
-13.5023

>  <SCORE.INTER.norm>
-1.85123

>  <SCORE.INTRA>
2.24587

>  <SCORE.INTRA.DIHEDRAL>
1.08216

>  <SCORE.INTRA.DIHEDRAL.0>
1.76676

>  <SCORE.INTRA.POLAR>
0.472211

>  <SCORE.INTRA.POLAR.0>
-0.472211

>  <SCORE.INTRA.REPUL>
0

>  <SCORE.INTRA.REPUL.0>
0

>  <SCORE.INTRA.SOLV>
-0.606561

>  <SCORE.INTRA.SOLV.lig_0>
-22.5855

>  <SCORE.INTRA.VDW>
0.402547

>  <SCORE.INTRA.VDW.0>
-0.733656

>  <SCORE.INTRA.norm>
0.172759

>  <SCORE.RESTR>
0.513186

>  <SCORE.RESTR.CAVITY>
0.513186

>  <SCORE.RESTR.norm>
0.0394758

>  <SCORE.SYSTEM>
0

>  <SCORE.SYSTEM.CONST>
0

>  <SCORE.SYSTEM.DIHEDRAL>
0

>  <SCORE.SYSTEM.SOLV>
0

>  <SCORE.SYSTEM.norm>
0

>  <SCORE.heavy>
13

>  <SCORE.norm>
-1.639

>  <RMSD>
12.040

$$$$
lig.pdb
 OpenBabel11021811453D
libRbt.so/2013.1/901 2013/11/27
 13 14  0  0  0  0  0  0  0  0999 V2000
   -8.1259    4.2249  -16.9709 N   0  0  0  0  0  0  0  0  0  0  0  0
   -6.8277    4.4641  -16.6190 C   0  0  0  0  0  0  0  0  0  0  0  0
   -6.1244    5.3842  -17.2543 N   0  0  0  0  0  0  0  0  0  0  0  0
   -6.6510    6.1257  -18.2762 C   0  0  0  0  0  0  0  0  0  0  0  0
   -7.9900    5.9149  -18.6859 C   0  0  0  0  0  0  0  0  0  0  0  0
   -8.7427    4.9194  -17.9930 C   0  0  0  0  0  0  0  0  0  0  0  0
   -9.8997    4.6869  -18.2967 O   0  0  0  0  0  0  0  0  0  0  0  0
   -8.2392    6.8463  -19.7924 C   0  0  0  0  0  0  0  0  0  0  0  0
   -9.5050    7.0070  -20.5921 C   0  0  0  0  0  0  0  0  0  0  0  0
  -10.0660    8.3448  -20.3616 N   0  0  0  0  0  0  0  0  0  0  0  0
   -7.1029    7.5340  -19.9605 C   0  0  0  0  0  0  0  0  0  0  0  0
   -6.1520    7.1102  -19.0708 N   0  0  0  0  0  0  0  0  0  0  0  0
   -6.2549    3.7444  -15.6022 N   0  0  0  0  0  0  0  0  0  0  0  0
  1  6  1  0  0  0  0
  2  1  1  0  0  0  0
  3  4  1  0  0  0  0
  3  2  2  0  0  0  0
  4  5  2  0  0  0  0
  5  8  1  0  0  0  0
  5  6  1  0  0  0  0
  6  7  2  0  0  0  0
  8  9  1  0  0  0  0
  9 10  1  0  0  0  0
 11  8  2  0  0  0  0
 12  4  1  0  0  0  0
 12 11  1  0  0  0  0
 13  2  1  0  0  0  0
M  END
>  <CHROM.1>
115.40060954,122.14281067,-7.85370243,5.86180392,-18.39745947,1.13154745
0.24218601,2.40003373

>  <Name>
lig.pdb

>  <RI>
1.8118e+07

>  <Rbt.Current_Directory>
/home/itssahil/PROJECTS/Mol_Feturizer/New_Systems/rnas/2miy

>  <Rbt.Executable>
rbdock ($Id: //depot/dev/client3/rdock/2013.1/src/exe/rbdock.cxx#4 $)

>  <Rbt.Library>
libRbt.so (2013.1, Build901 2013/11/27)

>  <Rbt.Parameter_File>
/export/apps/rDock/src/rDock_2013.1_src/data/scripts/dock_solv.prm

>  <Rbt.Receptor>
prm/blind_docking_100.prm

>  <SCORE>
-24.2159

>  <SCORE.INTER>
-26.6796

>  <SCORE.INTER.CONST>
1

>  <SCORE.INTER.POLAR>
-3.23167

>  <SCORE.INTER.ROT>
2

>  <SCORE.INTER.SOLV>
13.2065

>  <SCORE.INTER.VDW>
-16.3497

>  <SCORE.INTER.norm>
-2.05227

>  <SCORE.INTRA>
2.46369

>  <SCORE.INTRA.DIHEDRAL>
1.84309

>  <SCORE.INTRA.DIHEDRAL.0>
1.76676

>  <SCORE.INTRA.POLAR>
0.472211

>  <SCORE.INTRA.POLAR.0>
-0.472211

>  <SCORE.INTRA.REPUL>
0

>  <SCORE.INTRA.REPUL.0>
0

>  <SCORE.INTRA.SOLV>
-0.613413

>  <SCORE.INTRA.SOLV.lig_0>
-22.5855

>  <SCORE.INTRA.VDW>
0.24334

>  <SCORE.INTRA.VDW.0>
-0.733656

>  <SCORE.INTRA.norm>
0.189515

>  <SCORE.RESTR>
0

>  <SCORE.RESTR.CAVITY>
0

>  <SCORE.RESTR.norm>
0

>  <SCORE.SYSTEM>
0

>  <SCORE.SYSTEM.CONST>
0

>  <SCORE.SYSTEM.DIHEDRAL>
0

>  <SCORE.SYSTEM.SOLV>
0

>  <SCORE.SYSTEM.norm>
0

>  <SCORE.heavy>
13

>  <SCORE.norm>
-1.86276

>  <RMSD>
12.072

$$$$
lig.pdb
 OpenBabel11021811453D
libRbt.so/2013.1/901 2013/11/27
 13 14  0  0  0  0  0  0  0  0999 V2000
   -8.2731    2.3204  -17.4713 N   0  0  0  0  0  0  0  0  0  0  0  0
   -8.2586    1.4836  -18.5511 C   0  0  0  0  0  0  0  0  0  0  0  0
   -8.2173    1.9775  -19.7755 N   0  0  0  0  0  0  0  0  0  0  0  0
   -8.1898    3.3238  -20.0166 C   0  0  0  0  0  0  0  0  0  0  0  0
   -8.2091    4.2366  -18.9341 C   0  0  0  0  0  0  0  0  0  0  0  0
   -8.2527    3.6938  -17.6146 C   0  0  0  0  0  0  0  0  0  0  0  0
   -8.2730    4.4238  -16.6390 O   0  0  0  0  0  0  0  0  0  0  0  0
   -8.1821    5.5811  -19.5218 C   0  0  0  0  0  0  0  0  0  0  0  0
   -8.2085    6.9017  -18.7985 C   0  0  0  0  0  0  0  0  0  0  0  0
   -9.6002    7.2891  -18.5325 N   0  0  0  0  0  0  0  0  0  0  0  0
   -8.1340    5.4047  -20.8479 C   0  0  0  0  0  0  0  0  0  0  0  0
   -8.1447    4.0697  -21.1529 N   0  0  0  0  0  0  0  0  0  0  0  0
   -8.2874    0.1261  -18.3603 N   0  0  0  0  0  0  0  0  0  0  0  0
  1  6  1  0  0  0  0
  2  1  1  0  0  0  0
  3  4  1  0  0  0  0
  3  2  2  0  0  0  0
  4  5  2  0  0  0  0
  5  8  1  0  0  0  0
  5  6  1  0  0  0  0
  6  7  2  0  0  0  0
  8  9  1  0  0  0  0
  9 10  1  0  0  0  0
 11  8  2  0  0  0  0
 12  4  1  0  0  0  0
 12 11  1  0  0  0  0
 13  2  1  0  0  0  0
M  END
>  <CHROM.1>
-85.93541414,43.74443428,-8.34996701,3.90097734,-18.89573731,0.85418326,-1.43942651
2.30290050

>  <Name>
lig.pdb

>  <RI>
0

>  <Rbt.Current_Directory>
/home/itssahil/PROJECTS/Mol_Feturizer/New_Systems/rnas/2miy

>  <Rbt.Executable>
rbdock ($Id: //depot/dev/client3/rdock/2013.1/src/exe/rbdock.cxx#4 $)

>  <Rbt.Library>
libRbt.so (2013.1, Build901 2013/11/27)

>  <Rbt.Parameter_File>
/export/apps/rDock/src/rDock_2013.1_src/data/scripts/dock_solv.prm

>  <Rbt.Receptor>
prm/blind_docking_60.prm

>  <SCORE>
-25.6059

>  <SCORE.INTER>
-27.7113

>  <SCORE.INTER.CONST>
1

>  <SCORE.INTER.POLAR>
-4.35225

>  <SCORE.INTER.ROT>
2

>  <SCORE.INTER.SOLV>
12.496

>  <SCORE.INTER.VDW>
-13.0654

>  <SCORE.INTER.norm>
-2.13164

>  <SCORE.INTRA>
1.81602

>  <SCORE.INTRA.DIHEDRAL>
0.57342

>  <SCORE.INTRA.DIHEDRAL.0>
1.76676

>  <SCORE.INTRA.POLAR>
0.472211

>  <SCORE.INTRA.POLAR.0>
-0.472211

>  <SCORE.INTRA.REPUL>
0

>  <SCORE.INTRA.REPUL.0>
0

>  <SCORE.INTRA.SOLV>
-0.411253

>  <SCORE.INTRA.SOLV.lig_0>
-22.5855

>  <SCORE.INTRA.VDW>
0.129422

>  <SCORE.INTRA.VDW.0>
-0.733656

>  <SCORE.INTRA.norm>
0.139694

>  <SCORE.RESTR>
0.289412

>  <SCORE.RESTR.CAVITY>
0.289412

>  <SCORE.RESTR.norm>
0.0222625

>  <SCORE.SYSTEM>
0

>  <SCORE.SYSTEM.CONST>
0

>  <SCORE.SYSTEM.DIHEDRAL>
0

>  <SCORE.SYSTEM.SOLV>
0

>  <SCORE.SYSTEM.norm>
0

>  <SCORE.heavy>
13

>  <SCORE.norm>
-1.96968

>  <RMSD>
12.114

$$$$
lig.pdb
 OpenBabel11021811453D
libRbt.so/2013.1/901 2013/11/27
 13 14  0  0  0  0  0  0  0  0999 V2000
   -5.9390    5.0310  -17.3092 N   0  0  0  0  0  0  0  0  0  0  0  0
   -6.7031    4.2537  -16.4856 C   0  0  0  0  0  0  0  0  0  0  0  0
   -7.9746    4.0340  -16.7683 N   0  0  0  0  0  0  0  0  0  0  0  0
   -8.5761    4.5654  -17.8762 C   0  0  0  0  0  0  0  0  0  0  0  0
   -7.8323    5.3835  -18.7608 C   0  0  0  0  0  0  0  0  0  0  0  0
   -6.4588    5.6145  -18.4479 C   0  0  0  0  0  0  0  0  0  0  0  0
   -5.7627    6.3103  -19.1665 O   0  0  0  0  0  0  0  0  0  0  0  0
   -8.7561    5.7957  -19.8241 C   0  0  0  0  0  0  0  0  0  0  0  0
   -8.4645    6.6891  -21.0008 C   0  0  0  0  0  0  0  0  0  0  0  0
   -7.4942    7.7194  -20.6075 N   0  0  0  0  0  0  0  0  0  0  0  0
   -9.9300    5.2188  -19.5388 C   0  0  0  0  0  0  0  0  0  0  0  0
   -9.8364    4.4920  -18.3819 N   0  0  0  0  0  0  0  0  0  0  0  0
   -6.1456    3.7009  -15.3616 N   0  0  0  0  0  0  0  0  0  0  0  0
  1  6  1  0  0  0  0
  2  1  1  0  0  0  0
  3  4  1  0  0  0  0
  3  2  2  0  0  0  0
  4  5  2  0  0  0  0
  5  8  1  0  0  0  0
  5  6  1  0  0  0  0
  6  7  2  0  0  0  0
  8  9  1  0  0  0  0
  9 10  1  0  0  0  0
 11  8  2  0  0  0  0
 12  4  1  0  0  0  0
 12 11  1  0  0  0  0
 13  2  1  0  0  0  0
M  END
>  <CHROM.1>
-34.16221485,55.97664305,-7.62575926,5.31750401,-18.40986070,-1.20707863
-0.29805821,-0.91354802

>  <Name>
lig.pdb

>  <RI>
0

>  <Rbt.Current_Directory>
/home/itssahil/PROJECTS/Mol_Feturizer/New_Systems/rnas/2miy

>  <Rbt.Executable>
rbdock ($Id: //depot/dev/client3/rdock/2013.1/src/exe/rbdock.cxx#4 $)

>  <Rbt.Library>
libRbt.so (2013.1, Build901 2013/11/27)

>  <Rbt.Parameter_File>
/export/apps/rDock/src/rDock_2013.1_src/data/scripts/dock_solv.prm

>  <Rbt.Receptor>
prm/blind_docking_60.prm

>  <SCORE>
-25.1511

>  <SCORE.INTER>
-25.1817

>  <SCORE.INTER.CONST>
1

>  <SCORE.INTER.POLAR>
-3.48531

>  <SCORE.INTER.ROT>
2

>  <SCORE.INTER.SOLV>
12.2773

>  <SCORE.INTER.VDW>
-14.1959

>  <SCORE.INTER.norm>
-1.93705

>  <SCORE.INTRA>
-0.569878

>  <SCORE.INTRA.DIHEDRAL>
0.530831

>  <SCORE.INTRA.DIHEDRAL.0>
1.76676

>  <SCORE.INTRA.POLAR>
-0.335356

>  <SCORE.INTRA.POLAR.0>
-0.472211

>  <SCORE.INTRA.REPUL>
0

>  <SCORE.INTRA.REPUL.0>
0

>  <SCORE.INTRA.SOLV>
0.0976748

>  <SCORE.INTRA.SOLV.lig_0>
-22.5855

>  <SCORE.INTRA.VDW>
0.256078

>  <SCORE.INTRA.VDW.0>
-0.733656

>  <SCORE.INTRA.norm>
-0.0438368

>  <SCORE.RESTR>
0.600511

>  <SCORE.RESTR.CAVITY>
0.600511

>  <SCORE.RESTR.norm>
0.0461931

>  <SCORE.SYSTEM>
0

>  <SCORE.SYSTEM.CONST>
0

>  <SCORE.SYSTEM.DIHEDRAL>
0

>  <SCORE.SYSTEM.SOLV>
0

>  <SCORE.SYSTEM.norm>
0

>  <SCORE.heavy>
13

>  <SCORE.norm>
-1.9347

>  <RMSD>
12.115

$$$$
lig.pdb
 OpenBabel11021811453D
libRbt.so/2013.1/901 2013/11/27
 13 14  0  0  0  0  0  0  0  0999 V2000
   -5.9384    5.0294  -17.3119 N   0  0  0  0  0  0  0  0  0  0  0  0
   -6.7028    4.2519  -16.4887 C   0  0  0  0  0  0  0  0  0  0  0  0
   -7.9746    4.0337  -16.7711 N   0  0  0  0  0  0  0  0  0  0  0  0
   -8.5761    4.5667  -17.8782 C   0  0  0  0  0  0  0  0  0  0  0  0
   -7.8319    5.3849  -18.7624 C   0  0  0  0  0  0  0  0  0  0  0  0
   -6.4581    5.6145  -18.4498 C   0  0  0  0  0  0  0  0  0  0  0  0
   -5.7618    6.3104  -19.1680 O   0  0  0  0  0  0  0  0  0  0  0  0
   -8.7559    5.7989  -19.8248 C   0  0  0  0  0  0  0  0  0  0  0  0
   -8.4640    6.6933  -21.0007 C   0  0  0  0  0  0  0  0  0  0  0  0
   -7.5024    7.7302  -20.6033 N   0  0  0  0  0  0  0  0  0  0  0  0
   -9.9302    5.2229  -19.5396 C   0  0  0  0  0  0  0  0  0  0  0  0
   -9.8367    4.4948  -18.3834 N   0  0  0  0  0  0  0  0  0  0  0  0
   -6.1452    3.6975  -15.3655 N   0  0  0  0  0  0  0  0  0  0  0  0
  1  6  1  0  0  0  0
  2  1  1  0  0  0  0
  3  4  1  0  0  0  0
  3  2  2  0  0  0  0
  4  5  2  0  0  0  0
  5  8  1  0  0  0  0
  5  6  1  0  0  0  0
  6  7  2  0  0  0  0
  8  9  1  0  0  0  0
  9 10  1  0  0  0  0
 11  8  2  0  0  0  0
 12  4  1  0  0  0  0
 12 11  1  0  0  0  0
 13  2  1  0  0  0  0
M  END
>  <CHROM.1>
-34.70168845,57.70606196,-7.62623338,5.31915257,-18.41118888,-1.20651995
-0.29738188,-0.91164393

>  <Name>
lig.pdb

>  <RI>
0

>  <Rbt.Current_Directory>
/home/itssahil/PROJECTS/Mol_Feturizer/New_Systems/rnas/2miy

>  <Rbt.Executable>
rbdock ($Id: //depot/dev/client3/rdock/2013.1/src/exe/rbdock.cxx#4 $)

>  <Rbt.Library>
libRbt.so (2013.1, Build901 2013/11/27)

>  <Rbt.Parameter_File>
/export/apps/rDock/src/rDock_2013.1_src/data/scripts/dock_solv.prm

>  <Rbt.Receptor>
prm/blind_docking_60.prm

>  <SCORE>
-25.163

>  <SCORE.INTER>
-25.1536

>  <SCORE.INTER.CONST>
1

>  <SCORE.INTER.POLAR>
-3.49117

>  <SCORE.INTER.ROT>
2

>  <SCORE.INTER.SOLV>
12.2886

>  <SCORE.INTER.VDW>
-14.1614

>  <SCORE.INTER.norm>
-1.9349

>  <SCORE.INTRA>
-0.606461

>  <SCORE.INTRA.DIHEDRAL>
0.497943

>  <SCORE.INTRA.DIHEDRAL.0>
1.76676

>  <SCORE.INTRA.POLAR>
-0.330652

>  <SCORE.INTRA.POLAR.0>
-0.472211

>  <SCORE.INTRA.REPUL>
0

>  <SCORE.INTRA.REPUL.0>
0

>  <SCORE.INTRA.SOLV>
0.0909948

>  <SCORE.INTRA.SOLV.lig_0>
-22.5855

>  <SCORE.INTRA.VDW>
0.223285

>  <SCORE.INTRA.VDW.0>
-0.733656

>  <SCORE.INTRA.norm>
-0.0466509

>  <SCORE.RESTR>
0.597068

>  <SCORE.RESTR.CAVITY>
0.597068

>  <SCORE.RESTR.norm>
0.0459283

>  <SCORE.SYSTEM>
0

>  <SCORE.SYSTEM.CONST>
0

>  <SCORE.SYSTEM.DIHEDRAL>
0

>  <SCORE.SYSTEM.SOLV>
0

>  <SCORE.SYSTEM.norm>
0

>  <SCORE.heavy>
13

>  <SCORE.norm>
-1.93562

>  <RMSD>
12.116

$$$$
lig.pdb
 OpenBabel11021811453D
libRbt.so/2013.1/901 2013/11/27
 13 14  0  0  0  0  0  0  0  0999 V2000
   -5.9417    4.9463  -17.3563 N   0  0  0  0  0  0  0  0  0  0  0  0
   -6.7173    4.2227  -16.4954 C   0  0  0  0  0  0  0  0  0  0  0  0
   -7.9983    4.0307  -16.7545 N   0  0  0  0  0  0  0  0  0  0  0  0
   -8.5984    4.5388  -17.8740 C   0  0  0  0  0  0  0  0  0  0  0  0
   -7.8426    5.3015  -18.7971 C   0  0  0  0  0  0  0  0  0  0  0  0
   -6.4590    5.5029  -18.5095 C   0  0  0  0  0  0  0  0  0  0  0  0
   -5.7523    6.1510  -19.2616 O   0  0  0  0  0  0  0  0  0  0  0  0
   -8.7678    5.7017  -19.8638 C   0  0  0  0  0  0  0  0  0  0  0  0
   -8.4656    6.5424  -21.0761 C   0  0  0  0  0  0  0  0  0  0  0  0
   -7.4661    7.5620  -20.7309 N   0  0  0  0  0  0  0  0  0  0  0  0
   -9.9542    5.1708  -19.5433 C   0  0  0  0  0  0  0  0  0  0  0  0
   -9.8668    4.4844  -18.3615 N   0  0  0  0  0  0  0  0  0  0  0  0
   -6.1615    3.6951  -15.3584 N   0  0  0  0  0  0  0  0  0  0  0  0
  1  6  1  0  0  0  0
  2  1  1  0  0  0  0
  3  4  1  0  0  0  0
  3  2  2  0  0  0  0
  4  5  2  0  0  0  0
  5  8  1  0  0  0  0
  5  6  1  0  0  0  0
  6  7  2  0  0  0  0
  8  9  1  0  0  0  0
  9 10  1  0  0  0  0
 11  8  2  0  0  0  0
 12  4  1  0  0  0  0
 12 11  1  0  0  0  0
 13  2  1  0  0  0  0
M  END
>  <CHROM.1>
-34.48014842,-120.98817438,-7.63396732,5.24272041,-18.44642888,-1.21461932
-0.26695427,-0.95207273

>  <Name>
lig.pdb

>  <RI>
1.8118e+07

>  <Rbt.Current_Directory>
/home/itssahil/PROJECTS/Mol_Feturizer/New_Systems/rnas/2miy

>  <Rbt.Executable>
rbdock ($Id: //depot/dev/client3/rdock/2013.1/src/exe/rbdock.cxx#4 $)

>  <Rbt.Library>
libRbt.so (2013.1, Build901 2013/11/27)

>  <Rbt.Parameter_File>
/export/apps/rDock/src/rDock_2013.1_src/data/scripts/dock_solv.prm

>  <Rbt.Receptor>
prm/blind_docking_100.prm

>  <SCORE>
-25.1593

>  <SCORE.INTER>
-25.543

>  <SCORE.INTER.CONST>
1

>  <SCORE.INTER.POLAR>
-3.58054

>  <SCORE.INTER.ROT>
2

>  <SCORE.INTER.SOLV>
12.0002

>  <SCORE.INTER.VDW>
-14.0269

>  <SCORE.INTER.norm>
-1.96485

>  <SCORE.INTRA>
-0.623989

>  <SCORE.INTRA.DIHEDRAL>
0.50663

>  <SCORE.INTRA.DIHEDRAL.0>
1.76676

>  <SCORE.INTRA.POLAR>
-0.334697

>  <SCORE.INTRA.POLAR.0>
-0.472211

>  <SCORE.INTRA.REPUL>
0

>  <SCORE.INTRA.REPUL.0>
0

>  <SCORE.INTRA.SOLV>
0.091706

>  <SCORE.INTRA.SOLV.lig_0>
-22.5855

>  <SCORE.INTRA.VDW>
0.214812

>  <SCORE.INTRA.VDW.0>
-0.733656

>  <SCORE.INTRA.norm>
-0.0479991

>  <SCORE.RESTR>
1.00772

>  <SCORE.RESTR.CAVITY>
1.00772

>  <SCORE.RESTR.norm>
0.0775166

>  <SCORE.SYSTEM>
0

>  <SCORE.SYSTEM.CONST>
0

>  <SCORE.SYSTEM.DIHEDRAL>
0

>  <SCORE.SYSTEM.SOLV>
0

>  <SCORE.SYSTEM.norm>
0

>  <SCORE.heavy>
13

>  <SCORE.norm>
-1.93533

>  <RMSD>
12.147

$$$$
lig.pdb
 OpenBabel11021811453D
libRbt.so/2013.1/901 2013/11/27
 13 14  0  0  0  0  0  0  0  0999 V2000
   -5.9691    4.9525  -17.4020 N   0  0  0  0  0  0  0  0  0  0  0  0
   -6.7497    4.2270  -16.5472 C   0  0  0  0  0  0  0  0  0  0  0  0
   -8.0301    4.0392  -16.8119 N   0  0  0  0  0  0  0  0  0  0  0  0
   -8.6248    4.5536  -17.9314 C   0  0  0  0  0  0  0  0  0  0  0  0
   -7.8637    5.3184  -18.8484 C   0  0  0  0  0  0  0  0  0  0  0  0
   -6.4807    5.5153  -18.5547 C   0  0  0  0  0  0  0  0  0  0  0  0
   -5.7697    6.1649  -19.3014 O   0  0  0  0  0  0  0  0  0  0  0  0
   -8.7840    5.7254  -19.9168 C   0  0  0  0  0  0  0  0  0  0  0  0
   -8.4753    6.5706  -21.1243 C   0  0  0  0  0  0  0  0  0  0  0  0
   -7.5268    7.6295  -20.7541 N   0  0  0  0  0  0  0  0  0  0  0  0
   -9.9729    5.1960  -19.6030 C   0  0  0  0  0  0  0  0  0  0  0  0
   -9.8915    4.5043  -18.4239 N   0  0  0  0  0  0  0  0  0  0  0  0
   -6.1994    3.6931  -15.4105 N   0  0  0  0  0  0  0  0  0  0  0  0
  1  6  1  0  0  0  0
  2  1  1  0  0  0  0
  3  4  1  0  0  0  0
  3  2  2  0  0  0  0
  4  5  2  0  0  0  0
  5  8  1  0  0  0  0
  5  6  1  0  0  0  0
  6  7  2  0  0  0  0
  8  9  1  0  0  0  0
  9 10  1  0  0  0  0
 11  8  2  0  0  0  0
 12  4  1  0  0  0  0
 12 11  1  0  0  0  0
 13  2  1  0  0  0  0
M  END
>  <CHROM.1>
-37.36953820,-117.91369491,-7.66144903,5.26166508,-18.49561380,-1.21532166
-0.26880223,-0.94380152

>  <Name>
lig.pdb

>  <RI>
1.17462e+07

>  <Rbt.Current_Directory>
/home/itssahil/PROJECTS/Mol_Feturizer/New_Systems/rnas/2miy

>  <Rbt.Executable>
rbdock ($Id: //depot/dev/client3/rdock/2013.1/src/exe/rbdock.cxx#4 $)

>  <Rbt.Library>
libRbt.so (2013.1, Build901 2013/11/27)

>  <Rbt.Parameter_File>
/export/apps/rDock/src/rDock_2013.1_src/data/scripts/dock_solv.prm

>  <Rbt.Receptor>
prm/blind_docking_40.prm

>  <SCORE>
-26.4635

>  <SCORE.INTER>
-25.8137

>  <SCORE.INTER.CONST>
1

>  <SCORE.INTER.POLAR>
-3.60268

>  <SCORE.INTER.ROT>
2

>  <SCORE.INTER.SOLV>
11.8736

>  <SCORE.INTER.VDW>
-14.0914

>  <SCORE.INTER.norm>
-1.98567

>  <SCORE.INTRA>
-0.651217

>  <SCORE.INTRA.DIHEDRAL>
0.353675

>  <SCORE.INTRA.DIHEDRAL.0>
1.76676

>  <SCORE.INTRA.POLAR>
-0.287471

>  <SCORE.INTRA.POLAR.0>
-0.472211

>  <SCORE.INTRA.REPUL>
0

>  <SCORE.INTRA.REPUL.0>
0

>  <SCORE.INTRA.SOLV>
0.065095

>  <SCORE.INTRA.SOLV.lig_0>
-22.5855

>  <SCORE.INTRA.VDW>
0.116798

>  <SCORE.INTRA.VDW.0>
-0.733656

>  <SCORE.INTRA.norm>
-0.0500936

>  <SCORE.RESTR>
0.00142545

>  <SCORE.RESTR.CAVITY>
0.00142545

>  <SCORE.RESTR.norm>
0.00010965

>  <SCORE.SYSTEM>
0

>  <SCORE.SYSTEM.CONST>
0

>  <SCORE.SYSTEM.DIHEDRAL>
0

>  <SCORE.SYSTEM.SOLV>
0

>  <SCORE.SYSTEM.norm>
0

>  <SCORE.heavy>
13

>  <SCORE.norm>
-2.03565

>  <RMSD>
12.190

$$$$
lig.pdb
 OpenBabel11021811453D
libRbt.so/2013.1/901 2013/11/27
 13 14  0  0  0  0  0  0  0  0999 V2000
   -5.9602    5.0060  -17.3888 N   0  0  0  0  0  0  0  0  0  0  0  0
   -6.7342    4.2698  -16.5372 C   0  0  0  0  0  0  0  0  0  0  0  0
   -8.0102    4.0621  -16.8085 N   0  0  0  0  0  0  0  0  0  0  0  0
   -8.6066    4.5658  -17.9319 C   0  0  0  0  0  0  0  0  0  0  0  0
   -7.8523    5.3410  -18.8459 C   0  0  0  0  0  0  0  0  0  0  0  0
   -6.4741    5.5594  -18.5450 C   0  0  0  0  0  0  0  0  0  0  0  0
   -5.7691    6.2189  -19.2887 O   0  0  0  0  0  0  0  0  0  0  0  0
   -8.7729    5.7325  -19.9198 C   0  0  0  0  0  0  0  0  0  0  0  0
   -8.4706    6.5808  -21.1268 C   0  0  0  0  0  0  0  0  0  0  0  0
   -7.5194    7.6380  -20.7592 N   0  0  0  0  0  0  0  0  0  0  0  0
   -9.9552    5.1854  -19.6117 C   0  0  0  0  0  0  0  0  0  0  0  0
   -9.8697    4.4965  -18.4312 N   0  0  0  0  0  0  0  0  0  0  0  0
   -6.1820    3.7459  -15.3968 N   0  0  0  0  0  0  0  0  0  0  0  0
  1  6  1  0  0  0  0
  2  1  1  0  0  0  0
  3  4  1  0  0  0  0
  3  2  2  0  0  0  0
  4  5  2  0  0  0  0
  5  8  1  0  0  0  0
  5  6  1  0  0  0  0
  6  7  2  0  0  0  0
  8  9  1  0  0  0  0
  9 10  1  0  0  0  0
 11  8  2  0  0  0  0
 12  4  1  0  0  0  0
 12 11  1  0  0  0  0
 13  2  1  0  0  0  0
M  END
>  <CHROM.1>
-36.23226032,-119.56296406,-7.64915833,5.28630146,-18.49252454,-1.21213334
-0.28379933,-0.94585739

>  <Name>
lig.pdb

>  <RI>
1.17462e+07

>  <Rbt.Current_Directory>
/home/itssahil/PROJECTS/Mol_Feturizer/New_Systems/rnas/2miy

>  <Rbt.Executable>
rbdock ($Id: //depot/dev/client3/rdock/2013.1/src/exe/rbdock.cxx#4 $)

>  <Rbt.Library>
libRbt.so (2013.1, Build901 2013/11/27)

>  <Rbt.Parameter_File>
/export/apps/rDock/src/rDock_2013.1_src/data/scripts/dock_solv.prm

>  <Rbt.Receptor>
prm/blind_docking_40.prm

>  <SCORE>
-26.35

>  <SCORE.INTER>
-25.7022

>  <SCORE.INTER.CONST>
1

>  <SCORE.INTER.POLAR>
-3.53212

>  <SCORE.INTER.ROT>
2

>  <SCORE.INTER.SOLV>
11.8431

>  <SCORE.INTER.VDW>
-14.2421

>  <SCORE.INTER.norm>
-1.97709

>  <SCORE.INTRA>
-0.647854

>  <SCORE.INTRA.DIHEDRAL>
0.412229

>  <SCORE.INTRA.DIHEDRAL.0>
1.76676

>  <SCORE.INTRA.POLAR>
-0.307708

>  <SCORE.INTRA.POLAR.0>
-0.472211

>  <SCORE.INTRA.REPUL>
0

>  <SCORE.INTRA.REPUL.0>
0

>  <SCORE.INTRA.SOLV>
0.0757901

>  <SCORE.INTRA.SOLV.lig_0>
-22.5855

>  <SCORE.INTRA.VDW>
0.154343

>  <SCORE.INTRA.VDW.0>
-0.733656

>  <SCORE.INTRA.norm>
-0.0498349

>  <SCORE.RESTR>
3.30608e-05

>  <SCORE.RESTR.CAVITY>
3.30608e-05

>  <SCORE.RESTR.norm>
2.54314e-06

>  <SCORE.SYSTEM>
0

>  <SCORE.SYSTEM.CONST>
0

>  <SCORE.SYSTEM.DIHEDRAL>
0

>  <SCORE.SYSTEM.SOLV>
0

>  <SCORE.SYSTEM.norm>
0

>  <SCORE.heavy>
13

>  <SCORE.norm>
-2.02692

>  <RMSD>
12.191

$$$$
lig.pdb
 OpenBabel11021811453D
libRbt.so/2013.1/901 2013/11/27
 13 14  0  0  0  0  0  0  0  0999 V2000
   -5.9588    4.9614  -17.3952 N   0  0  0  0  0  0  0  0  0  0  0  0
   -6.7410    4.2301  -16.5468 C   0  0  0  0  0  0  0  0  0  0  0  0
   -8.0187    4.0361  -16.8201 N   0  0  0  0  0  0  0  0  0  0  0  0
   -8.6089    4.5495  -17.9424 C   0  0  0  0  0  0  0  0  0  0  0  0
   -7.8460    5.3201  -18.8530 C   0  0  0  0  0  0  0  0  0  0  0  0
   -6.4660    5.5237  -18.5501 C   0  0  0  0  0  0  0  0  0  0  0  0
   -5.7537    6.1785  -19.2909 O   0  0  0  0  0  0  0  0  0  0  0  0
   -8.7616    5.7244  -19.9265 C   0  0  0  0  0  0  0  0  0  0  0  0
   -8.4496    6.5735  -21.1303 C   0  0  0  0  0  0  0  0  0  0  0  0
   -7.5055    7.6338  -20.7531 N   0  0  0  0  0  0  0  0  0  0  0  0
   -9.9497    5.1881  -19.6214 C   0  0  0  0  0  0  0  0  0  0  0  0
   -9.8722    4.4945  -18.4431 N   0  0  0  0  0  0  0  0  0  0  0  0
   -6.1952    3.6969  -15.4076 N   0  0  0  0  0  0  0  0  0  0  0  0
  1  6  1  0  0  0  0
  2  1  1  0  0  0  0
  3  4  1  0  0  0  0
  3  2  2  0  0  0  0
  4  5  2  0  0  0  0
  5  8  1  0  0  0  0
  5  6  1  0  0  0  0
  6  7  2  0  0  0  0
  8  9  1  0  0  0  0
  9 10  1  0  0  0  0
 11  8  2  0  0  0  0
 12  4  1  0  0  0  0
 12 11  1  0  0  0  0
 13  2  1  0  0  0  0
M  END
>  <CHROM.1>
-37.17135273,62.62868360,-7.64546691,5.26347667,-18.49899012,-1.21756058
-0.27677020,-0.94272948

>  <Name>
lig.pdb

>  <RI>
1.17462e+07

>  <Rbt.Current_Directory>
/home/itssahil/PROJECTS/Mol_Feturizer/New_Systems/rnas/2miy

>  <Rbt.Executable>
rbdock ($Id: //depot/dev/client3/rdock/2013.1/src/exe/rbdock.cxx#4 $)

>  <Rbt.Library>
libRbt.so (2013.1, Build901 2013/11/27)

>  <Rbt.Parameter_File>
/export/apps/rDock/src/rDock_2013.1_src/data/scripts/dock_solv.prm

>  <Rbt.Receptor>
prm/blind_docking_40.prm

>  <SCORE>
-26.4819

>  <SCORE.INTER>
-25.8266

>  <SCORE.INTER.CONST>
1

>  <SCORE.INTER.POLAR>
-3.6097

>  <SCORE.INTER.ROT>
2

>  <SCORE.INTER.SOLV>
11.8596

>  <SCORE.INTER.VDW>
-14.0719

>  <SCORE.INTER.norm>
-1.98666

>  <SCORE.INTRA>
-0.655382

>  <SCORE.INTRA.DIHEDRAL>
0.355237

>  <SCORE.INTRA.DIHEDRAL.0>
1.76676

>  <SCORE.INTRA.POLAR>
-0.290789

>  <SCORE.INTRA.POLAR.0>
-0.472211

>  <SCORE.INTRA.REPUL>
0

>  <SCORE.INTRA.REPUL.0>
0

>  <SCORE.INTRA.SOLV>
0.0676342

>  <SCORE.INTRA.SOLV.lig_0>
-22.5855

>  <SCORE.INTRA.VDW>
0.121865

>  <SCORE.INTRA.VDW.0>
-0.733656

>  <SCORE.INTRA.norm>
-0.050414

>  <SCORE.RESTR>
0

>  <SCORE.RESTR.CAVITY>
0

>  <SCORE.RESTR.norm>
0

>  <SCORE.SYSTEM>
0

>  <SCORE.SYSTEM.CONST>
0

>  <SCORE.SYSTEM.DIHEDRAL>
0

>  <SCORE.SYSTEM.SOLV>
0

>  <SCORE.SYSTEM.norm>
0

>  <SCORE.heavy>
13

>  <SCORE.norm>
-2.03707

>  <RMSD>
12.194

$$$$
lig.pdb
 OpenBabel11021811453D
libRbt.so/2013.1/901 2013/11/27
 13 14  0  0  0  0  0  0  0  0999 V2000
  -16.1727   -4.3943  -13.0553 N   0  0  0  0  0  0  0  0  0  0  0  0
  -16.6718   -4.9557  -14.1964 C   0  0  0  0  0  0  0  0  0  0  0  0
  -15.8657   -5.2527  -15.1998 N   0  0  0  0  0  0  0  0  0  0  0  0
  -14.5194   -5.0154  -15.1466 C   0  0  0  0  0  0  0  0  0  0  0  0
  -13.9499   -4.4297  -13.9900 C   0  0  0  0  0  0  0  0  0  0  0  0
  -14.8284   -4.1130  -12.9103 C   0  0  0  0  0  0  0  0  0  0  0  0
  -14.4033   -3.6058  -11.8871 O   0  0  0  0  0  0  0  0  0  0  0  0
  -12.5117   -4.3009  -14.2528 C   0  0  0  0  0  0  0  0  0  0  0  0
  -11.4595   -3.7188  -13.3462 C   0  0  0  0  0  0  0  0  0  0  0  0
  -11.4221   -2.2595  -13.5096 N   0  0  0  0  0  0  0  0  0  0  0  0
  -12.3125   -4.8043  -15.4772 C   0  0  0  0  0  0  0  0  0  0  0  0
  -13.4977   -5.2251  -16.0192 N   0  0  0  0  0  0  0  0  0  0  0  0
  -18.0152   -5.2103  -14.2981 N   0  0  0  0  0  0  0  0  0  0  0  0
  1  6  1  0  0  0  0
  2  1  1  0  0  0  0
  3  4  1  0  0  0  0
  3  2  2  0  0  0  0
  4  5  2  0  0  0  0
  5  8  1  0  0  0  0
  5  6  1  0  0  0  0
  6  7  2  0  0  0  0
  8  9  1  0  0  0  0
  9 10  1  0  0  0  0
 11  8  2  0  0  0  0
 12  4  1  0  0  0  0
 12 11  1  0  0  0  0
 13  2  1  0  0  0  0
M  END
>  <CHROM.1>
-84.42854557,-43.97545687,-14.30423412,-4.37256726,-14.06933159,2.95924893
-0.23683835,-2.06327808

>  <Name>
lig.pdb

>  <RI>
1.8118e+07

>  <Rbt.Current_Directory>
/home/itssahil/PROJECTS/Mol_Feturizer/New_Systems/rnas/2miy

>  <Rbt.Executable>
rbdock ($Id: //depot/dev/client3/rdock/2013.1/src/exe/rbdock.cxx#4 $)

>  <Rbt.Library>
libRbt.so (2013.1, Build901 2013/11/27)

>  <Rbt.Parameter_File>
/export/apps/rDock/src/rDock_2013.1_src/data/scripts/dock_solv.prm

>  <Rbt.Receptor>
prm/blind_docking_100.prm

>  <SCORE>
-22.4129

>  <SCORE.INTER>
-24.1623

>  <SCORE.INTER.CONST>
1

>  <SCORE.INTER.POLAR>
-3.60248

>  <SCORE.INTER.ROT>
2

>  <SCORE.INTER.SOLV>
11.6089

>  <SCORE.INTER.VDW>
-12.9029

>  <SCORE.INTER.norm>
-1.85864

>  <SCORE.INTRA>
1.74941

>  <SCORE.INTRA.DIHEDRAL>
0.443805

>  <SCORE.INTRA.DIHEDRAL.0>
1.76676

>  <SCORE.INTRA.POLAR>
0.472211

>  <SCORE.INTRA.POLAR.0>
-0.472211

>  <SCORE.INTRA.REPUL>
0

>  <SCORE.INTRA.REPUL.0>
0

>  <SCORE.INTRA.SOLV>
-0.429364

>  <SCORE.INTRA.SOLV.lig_0>
-22.5855

>  <SCORE.INTRA.VDW>
0.13667

>  <SCORE.INTRA.VDW.0>
-0.733656

>  <SCORE.INTRA.norm>
0.13457

>  <SCORE.RESTR>
0

>  <SCORE.RESTR.CAVITY>
0

>  <SCORE.RESTR.norm>
0

>  <SCORE.SYSTEM>
0

>  <SCORE.SYSTEM.CONST>
0

>  <SCORE.SYSTEM.DIHEDRAL>
0

>  <SCORE.SYSTEM.SOLV>
0

>  <SCORE.SYSTEM.norm>
0

>  <SCORE.heavy>
13

>  <SCORE.norm>
-1.72407

>  <RMSD>
12.198

$$$$
lig.pdb
 OpenBabel11021811453D
libRbt.so/2013.1/901 2013/11/27
 13 14  0  0  0  0  0  0  0  0999 V2000
   -5.9571    4.9682  -17.4040 N   0  0  0  0  0  0  0  0  0  0  0  0
   -6.7392    4.2355  -16.5568 C   0  0  0  0  0  0  0  0  0  0  0  0
   -8.0160    4.0388  -16.8321 N   0  0  0  0  0  0  0  0  0  0  0  0
   -8.6055    4.5507  -17.9555 C   0  0  0  0  0  0  0  0  0  0  0  0
   -7.8426    5.3227  -18.8651 C   0  0  0  0  0  0  0  0  0  0  0  0
   -6.4635    5.5292  -18.5599 C   0  0  0  0  0  0  0  0  0  0  0  0
   -5.7513    6.1853  -19.2997 O   0  0  0  0  0  0  0  0  0  0  0  0
   -8.7573    5.7248  -19.9401 C   0  0  0  0  0  0  0  0  0  0  0  0
   -8.4450    6.5744  -21.1437 C   0  0  0  0  0  0  0  0  0  0  0  0
   -7.4861    7.6226  -20.7704 N   0  0  0  0  0  0  0  0  0  0  0  0
   -9.9447    5.1862  -19.6368 C   0  0  0  0  0  0  0  0  0  0  0  0
   -9.8678    4.4930  -18.4582 N   0  0  0  0  0  0  0  0  0  0  0  0
   -6.1941    3.7038  -15.4165 N   0  0  0  0  0  0  0  0  0  0  0  0
  1  6  1  0  0  0  0
  2  1  1  0  0  0  0
  3  4  1  0  0  0  0
  3  2  2  0  0  0  0
  4  5  2  0  0  0  0
  5  8  1  0  0  0  0
  5  6  1  0  0  0  0
  6  7  2  0  0  0  0
  8  9  1  0  0  0  0
  9 10  1  0  0  0  0
 11  8  2  0  0  0  0
 12  4  1  0  0  0  0
 12 11  1  0  0  0  0
 13  2  1  0  0  0  0
M  END
>  <CHROM.1>
-36.21135955,62.12015131,-7.64087660,5.26526494,-18.51117877,-1.21900546
-0.27886676,-0.94470240

>  <Name>
lig.pdb

>  <RI>
1.17462e+07

>  <Rbt.Current_Directory>
/home/itssahil/PROJECTS/Mol_Feturizer/New_Systems/rnas/2miy

>  <Rbt.Executable>
rbdock ($Id: //depot/dev/client3/rdock/2013.1/src/exe/rbdock.cxx#4 $)

>  <Rbt.Library>
libRbt.so (2013.1, Build901 2013/11/27)

>  <Rbt.Parameter_File>
/export/apps/rDock/src/rDock_2013.1_src/data/scripts/dock_solv.prm

>  <Rbt.Receptor>
prm/blind_docking_40.prm

>  <SCORE>
-26.488

>  <SCORE.INTER>
-25.8471

>  <SCORE.INTER.CONST>
1

>  <SCORE.INTER.POLAR>
-3.62301

>  <SCORE.INTER.ROT>
2

>  <SCORE.INTER.SOLV>
11.789

>  <SCORE.INTER.VDW>
-14.0177

>  <SCORE.INTER.norm>
-1.98824

>  <SCORE.INTRA>
-0.649837

>  <SCORE.INTRA.DIHEDRAL>
0.40778

>  <SCORE.INTRA.DIHEDRAL.0>
1.76676

>  <SCORE.INTRA.POLAR>
-0.306189

>  <SCORE.INTRA.POLAR.0>
-0.472211

>  <SCORE.INTRA.REPUL>
0

>  <SCORE.INTRA.REPUL.0>
0

>  <SCORE.INTRA.SOLV>
0.0764888

>  <SCORE.INTRA.SOLV.lig_0>
-22.5855

>  <SCORE.INTRA.VDW>
0.14907

>  <SCORE.INTRA.VDW.0>
-0.733656

>  <SCORE.INTRA.norm>
-0.0499875

>  <SCORE.RESTR>
0.00885617

>  <SCORE.RESTR.CAVITY>
0.00885617

>  <SCORE.RESTR.norm>
0.000681244

>  <SCORE.SYSTEM>
0

>  <SCORE.SYSTEM.CONST>
0

>  <SCORE.SYSTEM.DIHEDRAL>
0

>  <SCORE.SYSTEM.SOLV>
0

>  <SCORE.SYSTEM.norm>
0

>  <SCORE.heavy>
13

>  <SCORE.norm>
-2.03754

>  <RMSD>
12.205

$$$$
lig.pdb
 OpenBabel11021811453D
libRbt.so/2013.1/901 2013/11/27
 13 14  0  0  0  0  0  0  0  0999 V2000
   -8.8988    2.7484  -19.5199 N   0  0  0  0  0  0  0  0  0  0  0  0
   -8.4770    2.2112  -18.3367 C   0  0  0  0  0  0  0  0  0  0  0  0
   -7.7090    2.9133  -17.5231 N   0  0  0  0  0  0  0  0  0  0  0  0
   -7.3054    4.1860  -17.8209 C   0  0  0  0  0  0  0  0  0  0  0  0
   -7.7086    4.7894  -19.0368 C   0  0  0  0  0  0  0  0  0  0  0  0
   -8.5392    4.0237  -19.9094 C   0  0  0  0  0  0  0  0  0  0  0  0
   -8.9202    4.4829  -20.9720 O   0  0  0  0  0  0  0  0  0  0  0  0
   -7.1083    6.1285  -19.0571 C   0  0  0  0  0  0  0  0  0  0  0  0
   -7.2146    7.1678  -20.1417 C   0  0  0  0  0  0  0  0  0  0  0  0
   -6.2219    8.2251  -19.9088 N   0  0  0  0  0  0  0  0  0  0  0  0
   -6.4317    6.2484  -17.9082 C   0  0  0  0  0  0  0  0  0  0  0  0
   -6.5364    5.0996  -17.1701 N   0  0  0  0  0  0  0  0  0  0  0  0
   -8.8534    0.9378  -17.9952 N   0  0  0  0  0  0  0  0  0  0  0  0
  1  6  1  0  0  0  0
  2  1  1  0  0  0  0
  3  4  1  0  0  0  0
  3  2  2  0  0  0  0
  4  5  2  0  0  0  0
  5  8  1  0  0  0  0
  5  6  1  0  0  0  0
  6  7  2  0  0  0  0
  8  9  1  0  0  0  0
  9 10  1  0  0  0  0
 11  8  2  0  0  0  0
 12  4  1  0  0  0  0
 12 11  1  0  0  0  0
 13  2  1  0  0  0  0
M  END
>  <CHROM.1>
-166.83174133,12.98869601,-7.69476383,4.54581929,-18.89209739,2.19872453
0.93819208,2.41916395

>  <Name>
lig.pdb

>  <RI>
1.8118e+07

>  <Rbt.Current_Directory>
/home/itssahil/PROJECTS/Mol_Feturizer/New_Systems/rnas/2miy

>  <Rbt.Executable>
rbdock ($Id: //depot/dev/client3/rdock/2013.1/src/exe/rbdock.cxx#4 $)

>  <Rbt.Library>
libRbt.so (2013.1, Build901 2013/11/27)

>  <Rbt.Parameter_File>
/export/apps/rDock/src/rDock_2013.1_src/data/scripts/dock_solv.prm

>  <Rbt.Receptor>
prm/blind_docking_100.prm

>  <SCORE>
-18.6966

>  <SCORE.INTER>
-21.5951

>  <SCORE.INTER.CONST>
1

>  <SCORE.INTER.POLAR>
-2.95702

>  <SCORE.INTER.ROT>
2

>  <SCORE.INTER.SOLV>
12.8063

>  <SCORE.INTER.VDW>
-13.7421

>  <SCORE.INTER.norm>
-1.66116

>  <SCORE.INTRA>
2.33316

>  <SCORE.INTRA.DIHEDRAL>
-0.0623882

>  <SCORE.INTRA.DIHEDRAL.0>
1.76676

>  <SCORE.INTRA.POLAR>
0.472211

>  <SCORE.INTRA.POLAR.0>
-0.472211

>  <SCORE.INTRA.REPUL>
0

>  <SCORE.INTRA.REPUL.0>
0

>  <SCORE.INTRA.SOLV>
-0.562907

>  <SCORE.INTRA.SOLV.lig_0>
-22.5855

>  <SCORE.INTRA.VDW>
1.04029

>  <SCORE.INTRA.VDW.0>
-0.733656

>  <SCORE.INTRA.norm>
0.179474

>  <SCORE.RESTR>
0.565356

>  <SCORE.RESTR.CAVITY>
0.565356

>  <SCORE.RESTR.norm>
0.0434889

>  <SCORE.SYSTEM>
0

>  <SCORE.SYSTEM.CONST>
0

>  <SCORE.SYSTEM.DIHEDRAL>
0

>  <SCORE.SYSTEM.SOLV>
0

>  <SCORE.SYSTEM.norm>
0

>  <SCORE.heavy>
13

>  <SCORE.norm>
-1.4382

>  <RMSD>
12.211

$$$$
lig.pdb
 OpenBabel11021811453D
libRbt.so/2013.1/901 2013/11/27
 13 14  0  0  0  0  0  0  0  0999 V2000
   -8.1295    2.1756  -17.5788 N   0  0  0  0  0  0  0  0  0  0  0  0
   -8.2086    1.2888  -18.6150 C   0  0  0  0  0  0  0  0  0  0  0  0
   -8.2052    1.7212  -19.8631 N   0  0  0  0  0  0  0  0  0  0  0  0
   -8.1258    3.0515  -20.1721 C   0  0  0  0  0  0  0  0  0  0  0  0
   -8.0477    4.0145  -19.1369 C   0  0  0  0  0  0  0  0  0  0  0  0
   -8.0510    3.5380  -17.7913 C   0  0  0  0  0  0  0  0  0  0  0  0
   -7.9878    4.3137  -16.8536 O   0  0  0  0  0  0  0  0  0  0  0  0
   -7.9862    5.3266  -19.7915 C   0  0  0  0  0  0  0  0  0  0  0  0
   -7.9137    6.6798  -19.1347 C   0  0  0  0  0  0  0  0  0  0  0  0
   -6.8379    6.6840  -18.1345 N   0  0  0  0  0  0  0  0  0  0  0  0
   -8.0129    5.0851  -21.1080 C   0  0  0  0  0  0  0  0  0  0  0  0
   -8.1023    3.7393  -21.3451 N   0  0  0  0  0  0  0  0  0  0  0  0
   -8.2923   -0.0549  -18.3555 N   0  0  0  0  0  0  0  0  0  0  0  0
  1  6  1  0  0  0  0
  2  1  1  0  0  0  0
  3  4  1  0  0  0  0
  3  2  2  0  0  0  0
  4  5  2  0  0  0  0
  5  8  1  0  0  0  0
  5  6  1  0  0  0  0
  6  7  2  0  0  0  0
  8  9  1  0  0  0  0
  9 10  1  0  0  0  0
 11  8  2  0  0  0  0
 12  4  1  0  0  0  0
 12 11  1  0  0  0  0
 13  2  1  0  0  0  0
M  END
>  <CHROM.1>
50.45407130,-104.96511056,-7.97527304,3.64537082,-19.01087714,-2.51490652
-1.41241210,-1.05285223

>  <Name>
lig.pdb

>  <RI>
0

>  <Rbt.Current_Directory>
/home/itssahil/PROJECTS/Mol_Feturizer/New_Systems/rnas/2miy

>  <Rbt.Executable>
rbdock ($Id: //depot/dev/client3/rdock/2013.1/src/exe/rbdock.cxx#4 $)

>  <Rbt.Library>
libRbt.so (2013.1, Build901 2013/11/27)

>  <Rbt.Parameter_File>
/export/apps/rDock/src/rDock_2013.1_src/data/scripts/dock_solv.prm

>  <Rbt.Receptor>
prm/blind_docking_60.prm

>  <SCORE>
-25.8327

>  <SCORE.INTER>
-27.3503

>  <SCORE.INTER.CONST>
1

>  <SCORE.INTER.POLAR>
-4.06017

>  <SCORE.INTER.ROT>
2

>  <SCORE.INTER.SOLV>
12.4629

>  <SCORE.INTER.VDW>
-13.7872

>  <SCORE.INTER.norm>
-2.10387

>  <SCORE.INTRA>
1.49817

>  <SCORE.INTRA.DIHEDRAL>
-0.165092

>  <SCORE.INTRA.DIHEDRAL.0>
1.76676

>  <SCORE.INTRA.POLAR>
0.472211

>  <SCORE.INTRA.POLAR.0>
-0.472211

>  <SCORE.INTRA.REPUL>
0

>  <SCORE.INTRA.REPUL.0>
0

>  <SCORE.INTRA.SOLV>
-0.0612066

>  <SCORE.INTRA.SOLV.lig_0>
-22.5855

>  <SCORE.INTRA.VDW>
0.00580064

>  <SCORE.INTRA.VDW.0>
-0.733656

>  <SCORE.INTRA.norm>
0.115244

>  <SCORE.RESTR>
0.0193423

>  <SCORE.RESTR.CAVITY>
0.0193423

>  <SCORE.RESTR.norm>
0.00148787

>  <SCORE.SYSTEM>
0

>  <SCORE.SYSTEM.CONST>
0

>  <SCORE.SYSTEM.DIHEDRAL>
0

>  <SCORE.SYSTEM.SOLV>
0

>  <SCORE.SYSTEM.norm>
0

>  <SCORE.heavy>
13

>  <SCORE.norm>
-1.98713

>  <RMSD>
12.231

$$$$
lig.pdb
 OpenBabel11021811453D
libRbt.so/2013.1/901 2013/11/27
 13 14  0  0  0  0  0  0  0  0999 V2000
   -7.6798    4.7041  -17.5735 N   0  0  0  0  0  0  0  0  0  0  0  0
   -7.4532    3.9064  -16.4878 C   0  0  0  0  0  0  0  0  0  0  0  0
   -7.6824    2.6073  -16.5567 N   0  0  0  0  0  0  0  0  0  0  0  0
   -8.1502    2.0103  -17.6952 C   0  0  0  0  0  0  0  0  0  0  0  0
   -8.4079    2.7909  -18.8483 C   0  0  0  0  0  0  0  0  0  0  0  0
   -8.1564    4.1935  -18.7649 C   0  0  0  0  0  0  0  0  0  0  0  0
   -8.3586    4.9225  -19.7203 O   0  0  0  0  0  0  0  0  0  0  0  0
   -8.9020    1.8666  -19.8757 C   0  0  0  0  0  0  0  0  0  0  0  0
   -9.3376    2.1984  -21.2785 C   0  0  0  0  0  0  0  0  0  0  0  0
   -8.1793    2.6545  -22.0583 N   0  0  0  0  0  0  0  0  0  0  0  0
   -8.8961    0.6514  -19.3142 C   0  0  0  0  0  0  0  0  0  0  0  0
   -8.4581    0.7258  -18.0188 N   0  0  0  0  0  0  0  0  0  0  0  0
   -6.9864    4.4591  -15.3230 N   0  0  0  0  0  0  0  0  0  0  0  0
  1  6  1  0  0  0  0
  2  1  1  0  0  0  0
  3  4  1  0  0  0  0
  3  2  2  0  0  0  0
  4  5  2  0  0  0  0
  5  8  1  0  0  0  0
  5  6  1  0  0  0  0
  6  7  2  0  0  0  0
  8  9  1  0  0  0  0
  9 10  1  0  0  0  0
 11  8  2  0  0  0  0
 12  4  1  0  0  0  0
 12 11  1  0  0  0  0
 13  2  1  0  0  0  0
M  END
>  <CHROM.1>
66.79943533,26.83661775,-8.17784978,2.94886362,-18.58890249,-0.33491800,-1.28872685
-0.73311584

>  <Name>
lig.pdb

>  <RI>
0

>  <Rbt.Current_Directory>
/home/itssahil/PROJECTS/Mol_Feturizer/New_Systems/rnas/2miy

>  <Rbt.Executable>
rbdock ($Id: //depot/dev/client3/rdock/2013.1/src/exe/rbdock.cxx#4 $)

>  <Rbt.Library>
libRbt.so (2013.1, Build901 2013/11/27)

>  <Rbt.Parameter_File>
/export/apps/rDock/src/rDock_2013.1_src/data/scripts/dock_solv.prm

>  <Rbt.Receptor>
prm/blind_docking_60.prm

>  <SCORE>
-20.7599

>  <SCORE.INTER>
-23.1374

>  <SCORE.INTER.CONST>
1

>  <SCORE.INTER.POLAR>
-3.14783

>  <SCORE.INTER.ROT>
2

>  <SCORE.INTER.SOLV>
13.0295

>  <SCORE.INTER.VDW>
-14.2086

>  <SCORE.INTER.norm>
-1.7798

>  <SCORE.INTRA>
1.44674

>  <SCORE.INTRA.DIHEDRAL>
-0.231293

>  <SCORE.INTRA.DIHEDRAL.0>
1.76676

>  <SCORE.INTRA.POLAR>
0.472211

>  <SCORE.INTRA.POLAR.0>
-0.472211

>  <SCORE.INTRA.REPUL>
0

>  <SCORE.INTRA.REPUL.0>
0

>  <SCORE.INTRA.SOLV>
-0.248555

>  <SCORE.INTRA.SOLV.lig_0>
-22.5855

>  <SCORE.INTRA.VDW>
0.0811487

>  <SCORE.INTRA.VDW.0>
-0.733656

>  <SCORE.INTRA.norm>
0.111288

>  <SCORE.RESTR>
0.930688

>  <SCORE.RESTR.CAVITY>
0.930688

>  <SCORE.RESTR.norm>
0.0715914

>  <SCORE.SYSTEM>
0

>  <SCORE.SYSTEM.CONST>
0

>  <SCORE.SYSTEM.DIHEDRAL>
0

>  <SCORE.SYSTEM.SOLV>
0

>  <SCORE.SYSTEM.norm>
0

>  <SCORE.heavy>
13

>  <SCORE.norm>
-1.59692

>  <RMSD>
12.262

$$$$
lig.pdb
 OpenBabel11021811453D
libRbt.so/2013.1/901 2013/11/27
 13 14  0  0  0  0  0  0  0  0999 V2000
   -7.7327    3.5314  -16.8687 N   0  0  0  0  0  0  0  0  0  0  0  0
   -6.7616    4.2538  -16.2352 C   0  0  0  0  0  0  0  0  0  0  0  0
   -6.0638    5.1574  -16.8998 N   0  0  0  0  0  0  0  0  0  0  0  0
   -6.2744    5.4068  -18.2283 C   0  0  0  0  0  0  0  0  0  0  0  0
   -7.2647    4.6825  -18.9354 C   0  0  0  0  0  0  0  0  0  0  0  0
   -8.0144    3.7089  -18.2090 C   0  0  0  0  0  0  0  0  0  0  0  0
   -8.8801    3.0499  -18.7579 O   0  0  0  0  0  0  0  0  0  0  0  0
   -7.2318    5.1725  -20.3185 C   0  0  0  0  0  0  0  0  0  0  0  0
   -8.0752    4.7117  -21.4778 C   0  0  0  0  0  0  0  0  0  0  0  0
   -7.5419    3.4475  -22.0023 N   0  0  0  0  0  0  0  0  0  0  0  0
   -6.2874    6.1207  -20.3530 C   0  0  0  0  0  0  0  0  0  0  0  0
   -5.7085    6.2634  -19.1201 N   0  0  0  0  0  0  0  0  0  0  0  0
   -6.5119    4.0379  -14.9045 N   0  0  0  0  0  0  0  0  0  0  0  0
  1  6  1  0  0  0  0
  2  1  1  0  0  0  0
  3  4  1  0  0  0  0
  3  2  2  0  0  0  0
  4  5  2  0  0  0  0
  5  8  1  0  0  0  0
  5  6  1  0  0  0  0
  6  7  2  0  0  0  0
  8  9  1  0  0  0  0
  9 10  1  0  0  0  0
 11  8  2  0  0  0  0
 12  4  1  0  0  0  0
 12 11  1  0  0  0  0
 13  2  1  0  0  0  0
M  END
>  <CHROM.1>
-78.61820322,-156.51834867,-7.11754013,4.53006702,-18.62685856,1.37011133
0.84320123,1.78517846

>  <Name>
lig.pdb

>  <RI>
0

>  <Rbt.Current_Directory>
/home/itssahil/PROJECTS/Mol_Feturizer/New_Systems/rnas/2miy

>  <Rbt.Executable>
rbdock ($Id: //depot/dev/client3/rdock/2013.1/src/exe/rbdock.cxx#4 $)

>  <Rbt.Library>
libRbt.so (2013.1, Build901 2013/11/27)

>  <Rbt.Parameter_File>
/export/apps/rDock/src/rDock_2013.1_src/data/scripts/dock_solv.prm

>  <Rbt.Receptor>
prm/blind_docking_60.prm

>  <SCORE>
-18.4435

>  <SCORE.INTER>
-20.2625

>  <SCORE.INTER.CONST>
1

>  <SCORE.INTER.POLAR>
-2.46572

>  <SCORE.INTER.ROT>
2

>  <SCORE.INTER.SOLV>
12.0648

>  <SCORE.INTER.VDW>
-14.2442

>  <SCORE.INTER.norm>
-1.55865

>  <SCORE.INTRA>
1.62333

>  <SCORE.INTRA.DIHEDRAL>
0.135645

>  <SCORE.INTRA.DIHEDRAL.0>
1.76676

>  <SCORE.INTRA.POLAR>
0.472211

>  <SCORE.INTRA.POLAR.0>
-0.472211

>  <SCORE.INTRA.REPUL>
0

>  <SCORE.INTRA.REPUL.0>
0

>  <SCORE.INTRA.SOLV>
-0.349671

>  <SCORE.INTRA.SOLV.lig_0>
-22.5855

>  <SCORE.INTRA.VDW>
0.124825

>  <SCORE.INTRA.VDW.0>
-0.733656

>  <SCORE.INTRA.norm>
0.124872

>  <SCORE.RESTR>
0.195684

>  <SCORE.RESTR.CAVITY>
0.195684

>  <SCORE.RESTR.norm>
0.0150526

>  <SCORE.SYSTEM>
0

>  <SCORE.SYSTEM.CONST>
0

>  <SCORE.SYSTEM.DIHEDRAL>
0

>  <SCORE.SYSTEM.SOLV>
0

>  <SCORE.SYSTEM.norm>
0

>  <SCORE.heavy>
13

>  <SCORE.norm>
-1.41873

>  <RMSD>
12.298

$$$$
lig.pdb
 OpenBabel11021811453D
libRbt.so/2013.1/901 2013/11/27
 13 14  0  0  0  0  0  0  0  0999 V2000
   -8.9384    2.7354  -19.4619 N   0  0  0  0  0  0  0  0  0  0  0  0
   -8.4421    2.2635  -18.2797 C   0  0  0  0  0  0  0  0  0  0  0  0
   -7.6493    3.0194  -17.5415 N   0  0  0  0  0  0  0  0  0  0  0  0
   -7.2924    4.2850  -17.9187 C   0  0  0  0  0  0  0  0  0  0  0  0
   -7.7734    4.8218  -19.1376 C   0  0  0  0  0  0  0  0  0  0  0  0
   -8.6303    3.9983  -19.9282 C   0  0  0  0  0  0  0  0  0  0  0  0
   -9.0776    4.3988  -20.9887 O   0  0  0  0  0  0  0  0  0  0  0  0
   -7.2070    6.1710  -19.2514 C   0  0  0  0  0  0  0  0  0  0  0  0
   -7.3950    7.1556  -20.3752 C   0  0  0  0  0  0  0  0  0  0  0  0
   -6.3564    8.1916  -20.3004 N   0  0  0  0  0  0  0  0  0  0  0  0
   -6.4739    6.3592  -18.1472 C   0  0  0  0  0  0  0  0  0  0  0  0
   -6.5121    5.2444  -17.3527 N   0  0  0  0  0  0  0  0  0  0  0  0
   -8.7696    0.9999  -17.8604 N   0  0  0  0  0  0  0  0  0  0  0  0
  1  6  1  0  0  0  0
  2  1  1  0  0  0  0
  3  4  1  0  0  0  0
  3  2  2  0  0  0  0
  4  5  2  0  0  0  0
  5  8  1  0  0  0  0
  5  6  1  0  0  0  0
  6  7  2  0  0  0  0
  8  9  1  0  0  0  0
  9 10  1  0  0  0  0
 11  8  2  0  0  0  0
 12  4  1  0  0  0  0
 12 11  1  0  0  0  0
 13  2  1  0  0  0  0
M  END
>  <CHROM.1>
-162.80373433,-51.13700646,-7.74046767,4.58080747,-18.98804087,2.12320512
0.91319301,2.42631952

>  <Name>
lig.pdb

>  <RI>
0

>  <Rbt.Current_Directory>
/home/itssahil/PROJECTS/Mol_Feturizer/New_Systems/rnas/2miy

>  <Rbt.Executable>
rbdock ($Id: //depot/dev/client3/rdock/2013.1/src/exe/rbdock.cxx#4 $)

>  <Rbt.Library>
libRbt.so (2013.1, Build901 2013/11/27)

>  <Rbt.Parameter_File>
/export/apps/rDock/src/rDock_2013.1_src/data/scripts/dock_solv.prm

>  <Rbt.Receptor>
prm/blind_docking_60.prm

>  <SCORE>
-19.7073

>  <SCORE.INTER>
-22.1315

>  <SCORE.INTER.CONST>
1

>  <SCORE.INTER.POLAR>
-2.96447

>  <SCORE.INTER.ROT>
2

>  <SCORE.INTER.SOLV>
12.2766

>  <SCORE.INTER.VDW>
-13.8983

>  <SCORE.INTER.norm>
-1.70243

>  <SCORE.INTRA>
2.00152

>  <SCORE.INTRA.DIHEDRAL>
0.0674172

>  <SCORE.INTRA.DIHEDRAL.0>
1.76676

>  <SCORE.INTRA.POLAR>
0.472211

>  <SCORE.INTRA.POLAR.0>
-0.472211

>  <SCORE.INTRA.REPUL>
0

>  <SCORE.INTRA.REPUL.0>
0

>  <SCORE.INTRA.SOLV>
-0.580477

>  <SCORE.INTRA.SOLV.lig_0>
-22.5855

>  <SCORE.INTRA.VDW>
0.652528

>  <SCORE.INTRA.VDW.0>
-0.733656

>  <SCORE.INTRA.norm>
0.153963

>  <SCORE.RESTR>
0.42275

>  <SCORE.RESTR.CAVITY>
0.42275

>  <SCORE.RESTR.norm>
0.0325192

>  <SCORE.SYSTEM>
0

>  <SCORE.SYSTEM.CONST>
0

>  <SCORE.SYSTEM.DIHEDRAL>
0

>  <SCORE.SYSTEM.SOLV>
0

>  <SCORE.SYSTEM.norm>
0

>  <SCORE.heavy>
13

>  <SCORE.norm>
-1.51594

>  <RMSD>
12.313

$$$$
lig.pdb
 OpenBabel11021811453D
libRbt.so/2013.1/901 2013/11/27
 13 14  0  0  0  0  0  0  0  0999 V2000
   -7.8869    4.6999  -17.6340 N   0  0  0  0  0  0  0  0  0  0  0  0
   -7.5335    3.9177  -16.5711 C   0  0  0  0  0  0  0  0  0  0  0  0
   -7.6811    2.6065  -16.6314 N   0  0  0  0  0  0  0  0  0  0  0  0
   -8.1868    1.9812  -17.7381 C   0  0  0  0  0  0  0  0  0  0  0  0
   -8.5747    2.7443  -18.8661 C   0  0  0  0  0  0  0  0  0  0  0  0
   -8.4107    4.1604  -18.7924 C   0  0  0  0  0  0  0  0  0  0  0  0
   -8.7263    4.8755  -19.7273 O   0  0  0  0  0  0  0  0  0  0  0  0
   -9.0773    1.7906  -19.8620 C   0  0  0  0  0  0  0  0  0  0  0  0
   -9.6303    2.0944  -21.2294 C   0  0  0  0  0  0  0  0  0  0  0  0
  -10.3067    0.9043  -21.7620 N   0  0  0  0  0  0  0  0  0  0  0  0
   -8.9525    0.5778  -19.3092 C   0  0  0  0  0  0  0  0  0  0  0  0
   -8.4314    0.6795  -18.0468 N   0  0  0  0  0  0  0  0  0  0  0  0
   -7.0242    4.4987  -15.4385 N   0  0  0  0  0  0  0  0  0  0  0  0
  1  6  1  0  0  0  0
  2  1  1  0  0  0  0
  3  4  1  0  0  0  0
  3  2  2  0  0  0  0
  4  5  2  0  0  0  0
  5  8  1  0  0  0  0
  5  6  1  0  0  0  0
  6  7  2  0  0  0  0
  8  9  1  0  0  0  0
  9 10  1  0  0  0  0
 11  8  2  0  0  0  0
 12  4  1  0  0  0  0
 12 11  1  0  0  0  0
 13  2  1  0  0  0  0
M  END
>  <CHROM.1>
-166.58196218,-52.67831411,-8.50087100,2.75608306,-18.59237626,0.32352589
-1.14628760,-0.22915860

>  <Name>
lig.pdb

>  <RI>
0

>  <Rbt.Current_Directory>
/home/itssahil/PROJECTS/Mol_Feturizer/New_Systems/rnas/2miy

>  <Rbt.Executable>
rbdock ($Id: //depot/dev/client3/rdock/2013.1/src/exe/rbdock.cxx#4 $)

>  <Rbt.Library>
libRbt.so (2013.1, Build901 2013/11/27)

>  <Rbt.Parameter_File>
/export/apps/rDock/src/rDock_2013.1_src/data/scripts/dock_solv.prm

>  <Rbt.Receptor>
prm/blind_docking_60.prm

>  <SCORE>
-18.019

>  <SCORE.INTER>
-21.0757

>  <SCORE.INTER.CONST>
1

>  <SCORE.INTER.POLAR>
-2.54592

>  <SCORE.INTER.ROT>
2

>  <SCORE.INTER.SOLV>
12.6036

>  <SCORE.INTER.VDW>
-14.6986

>  <SCORE.INTER.norm>
-1.62121

>  <SCORE.INTRA>
1.93153

>  <SCORE.INTRA.DIHEDRAL>
-0.0850058

>  <SCORE.INTRA.DIHEDRAL.0>
1.76676

>  <SCORE.INTRA.POLAR>
0.472211

>  <SCORE.INTRA.POLAR.0>
-0.472211

>  <SCORE.INTRA.REPUL>
0

>  <SCORE.INTRA.REPUL.0>
0

>  <SCORE.INTRA.SOLV>
-0.578194

>  <SCORE.INTRA.SOLV.lig_0>
-22.5855

>  <SCORE.INTRA.VDW>
0.657614

>  <SCORE.INTRA.VDW.0>
-0.733656

>  <SCORE.INTRA.norm>
0.148579

>  <SCORE.RESTR>
1.12521

>  <SCORE.RESTR.CAVITY>
1.12521

>  <SCORE.RESTR.norm>
0.0865548

>  <SCORE.SYSTEM>
0

>  <SCORE.SYSTEM.CONST>
0

>  <SCORE.SYSTEM.DIHEDRAL>
0

>  <SCORE.SYSTEM.SOLV>
0

>  <SCORE.SYSTEM.norm>
0

>  <SCORE.heavy>
13

>  <SCORE.norm>
-1.38607

>  <RMSD>
12.324

$$$$
lig.pdb
 OpenBabel11021811453D
libRbt.so/2013.1/901 2013/11/27
 13 14  0  0  0  0  0  0  0  0999 V2000
   -9.5826    3.5414  -18.6998 N   0  0  0  0  0  0  0  0  0  0  0  0
   -8.4083    3.1174  -18.1453 C   0  0  0  0  0  0  0  0  0  0  0  0
   -7.3611    3.9217  -18.1078 N   0  0  0  0  0  0  0  0  0  0  0  0
   -7.4007    5.1919  -18.6141 C   0  0  0  0  0  0  0  0  0  0  0  0
   -8.5909    5.6806  -19.2057 C   0  0  0  0  0  0  0  0  0  0  0  0
   -9.7176    4.8049  -19.2409 C   0  0  0  0  0  0  0  0  0  0  0  0
  -10.7716    5.1624  -19.7372 O   0  0  0  0  0  0  0  0  0  0  0  0
   -8.3034    7.0489  -19.6521 C   0  0  0  0  0  0  0  0  0  0  0  0
   -9.2317    7.9991  -20.3614 C   0  0  0  0  0  0  0  0  0  0  0  0
  -10.5858    7.8697  -19.8069 N   0  0  0  0  0  0  0  0  0  0  0  0
   -7.0332    7.2921  -19.3061 C   0  0  0  0  0  0  0  0  0  0  0  0
   -6.4861    6.1951  -18.6956 N   0  0  0  0  0  0  0  0  0  0  0  0
   -8.3189    1.8513  -17.6267 N   0  0  0  0  0  0  0  0  0  0  0  0
  1  6  1  0  0  0  0
  2  1  1  0  0  0  0
  3  4  1  0  0  0  0
  3  2  2  0  0  0  0
  4  5  2  0  0  0  0
  5  8  1  0  0  0  0
  5  6  1  0  0  0  0
  6  7  2  0  0  0  0
  8  9  1  0  0  0  0
  9 10  1  0  0  0  0
 11  8  2  0  0  0  0
 12  4  1  0  0  0  0
 12 11  1  0  0  0  0
 13  2  1  0  0  0  0
M  END
>  <CHROM.1>
38.73502275,-64.78349880,-8.65550584,5.33188051,-19.00812171,1.39988703,0.23676857
2.81497648

>  <Name>
lig.pdb

>  <RI>
1.8118e+07

>  <Rbt.Current_Directory>
/home/itssahil/PROJECTS/Mol_Feturizer/New_Systems/rnas/2miy

>  <Rbt.Executable>
rbdock ($Id: //depot/dev/client3/rdock/2013.1/src/exe/rbdock.cxx#4 $)

>  <Rbt.Library>
libRbt.so (2013.1, Build901 2013/11/27)

>  <Rbt.Parameter_File>
/export/apps/rDock/src/rDock_2013.1_src/data/scripts/dock_solv.prm

>  <Rbt.Receptor>
prm/blind_docking_100.prm

>  <SCORE>
-25.6236

>  <SCORE.INTER>
-25.2999

>  <SCORE.INTER.CONST>
1

>  <SCORE.INTER.POLAR>
-3.88813

>  <SCORE.INTER.ROT>
2

>  <SCORE.INTER.SOLV>
11.3418

>  <SCORE.INTER.VDW>
-12.6201

>  <SCORE.INTER.norm>
-1.94615

>  <SCORE.INTRA>
-0.69292

>  <SCORE.INTRA.DIHEDRAL>
0.303664

>  <SCORE.INTRA.DIHEDRAL.0>
1.76676

>  <SCORE.INTRA.POLAR>
-0.286598

>  <SCORE.INTRA.POLAR.0>
-0.472211

>  <SCORE.INTRA.REPUL>
0

>  <SCORE.INTRA.REPUL.0>
0

>  <SCORE.INTRA.SOLV>
0.058994

>  <SCORE.INTRA.SOLV.lig_0>
-22.5855

>  <SCORE.INTRA.VDW>
0.100183

>  <SCORE.INTRA.VDW.0>
-0.733656

>  <SCORE.INTRA.norm>
-0.0533016

>  <SCORE.RESTR>
0.369181

>  <SCORE.RESTR.CAVITY>
0.369181

>  <SCORE.RESTR.norm>
0.0283986

>  <SCORE.SYSTEM>
0

>  <SCORE.SYSTEM.CONST>
0

>  <SCORE.SYSTEM.DIHEDRAL>
0

>  <SCORE.SYSTEM.SOLV>
0

>  <SCORE.SYSTEM.norm>
0

>  <SCORE.heavy>
13

>  <SCORE.norm>
-1.97105

>  <RMSD>
12.373

$$$$
lig.pdb
 OpenBabel11021811453D
libRbt.so/2013.1/901 2013/11/27
 13 14  0  0  0  0  0  0  0  0999 V2000
   -7.3997    4.4227  -16.7829 N   0  0  0  0  0  0  0  0  0  0  0  0
   -6.1093    4.6756  -17.1534 C   0  0  0  0  0  0  0  0  0  0  0  0
   -5.7989    4.8185  -18.4294 N   0  0  0  0  0  0  0  0  0  0  0  0
   -6.7355    4.7201  -19.4216 C   0  0  0  0  0  0  0  0  0  0  0  0
   -8.0871    4.4533  -19.0942 C   0  0  0  0  0  0  0  0  0  0  0  0
   -8.4135    4.3014  -17.7129 C   0  0  0  0  0  0  0  0  0  0  0  0
   -9.5574    4.0689  -17.3630 O   0  0  0  0  0  0  0  0  0  0  0  0
   -8.8211    4.3999  -20.3640 C   0  0  0  0  0  0  0  0  0  0  0  0
  -10.2877    4.1255  -20.5678 C   0  0  0  0  0  0  0  0  0  0  0  0
  -11.0560    4.7104  -19.4609 N   0  0  0  0  0  0  0  0  0  0  0  0
   -7.9192    4.6409  -21.3235 C   0  0  0  0  0  0  0  0  0  0  0  0
   -6.6775    4.8259  -20.7762 N   0  0  0  0  0  0  0  0  0  0  0  0
   -5.1344    4.7806  -16.1950 N   0  0  0  0  0  0  0  0  0  0  0  0
  1  6  1  0  0  0  0
  2  1  1  0  0  0  0
  3  4  1  0  0  0  0
  3  2  2  0  0  0  0
  4  5  2  0  0  0  0
  5  8  1  0  0  0  0
  5  6  1  0  0  0  0
  6  7  2  0  0  0  0
  8  9  1  0  0  0  0
  9 10  1  0  0  0  0
 11  8  2  0  0  0  0
 12  4  1  0  0  0  0
 12 11  1  0  0  0  0
 13  2  1  0  0  0  0
M  END
>  <CHROM.1>
35.23317130,-126.53499473,-7.86897625,4.53865772,-18.75973608,0.67034260
0.10714536,1.62720167

>  <Name>
lig.pdb

>  <RI>
0

>  <Rbt.Current_Directory>
/home/itssahil/PROJECTS/Mol_Feturizer/New_Systems/rnas/2miy

>  <Rbt.Executable>
rbdock ($Id: //depot/dev/client3/rdock/2013.1/src/exe/rbdock.cxx#4 $)

>  <Rbt.Library>
libRbt.so (2013.1, Build901 2013/11/27)

>  <Rbt.Parameter_File>
/export/apps/rDock/src/rDock_2013.1_src/data/scripts/dock_solv.prm

>  <Rbt.Receptor>
prm/blind_docking_60.prm

>  <SCORE>
-20.1486

>  <SCORE.INTER>
-22.8639

>  <SCORE.INTER.CONST>
1

>  <SCORE.INTER.POLAR>
-2.95924

>  <SCORE.INTER.ROT>
2

>  <SCORE.INTER.SOLV>
11.7968

>  <SCORE.INTER.VDW>
-14.2441

>  <SCORE.INTER.norm>
-1.75876

>  <SCORE.INTRA>
2.06756

>  <SCORE.INTRA.DIHEDRAL>
0.476193

>  <SCORE.INTRA.DIHEDRAL.0>
1.76676

>  <SCORE.INTRA.POLAR>
0.472211

>  <SCORE.INTRA.POLAR.0>
-0.472211

>  <SCORE.INTRA.REPUL>
0

>  <SCORE.INTRA.REPUL.0>
0

>  <SCORE.INTRA.SOLV>
0.086996

>  <SCORE.INTRA.SOLV.lig_0>
-22.5855

>  <SCORE.INTRA.VDW>
0.18045

>  <SCORE.INTRA.VDW.0>
-0.733656

>  <SCORE.INTRA.norm>
0.159043

>  <SCORE.RESTR>
0.647779

>  <SCORE.RESTR.CAVITY>
0.647779

>  <SCORE.RESTR.norm>
0.0498291

>  <SCORE.SYSTEM>
0

>  <SCORE.SYSTEM.CONST>
0

>  <SCORE.SYSTEM.DIHEDRAL>
0

>  <SCORE.SYSTEM.SOLV>
0

>  <SCORE.SYSTEM.norm>
0

>  <SCORE.heavy>
13

>  <SCORE.norm>
-1.54989

>  <RMSD>
12.385

$$$$
lig.pdb
 OpenBabel11021811453D
libRbt.so/2013.1/901 2013/11/27
 13 14  0  0  0  0  0  0  0  0999 V2000
   -7.4202    4.4172  -16.8036 N   0  0  0  0  0  0  0  0  0  0  0  0
   -6.1317    4.6607  -17.1867 C   0  0  0  0  0  0  0  0  0  0  0  0
   -5.8222    4.7412  -18.4684 N   0  0  0  0  0  0  0  0  0  0  0  0
   -6.7580    4.5857  -19.4541 C   0  0  0  0  0  0  0  0  0  0  0  0
   -8.1076    4.3256  -19.1133 C   0  0  0  0  0  0  0  0  0  0  0  0
   -8.4329    4.2413  -17.7259 C   0  0  0  0  0  0  0  0  0  0  0  0
   -9.5751    4.0182  -17.3644 O   0  0  0  0  0  0  0  0  0  0  0  0
   -8.8410    4.2025  -20.3786 C   0  0  0  0  0  0  0  0  0  0  0  0
  -10.3054    3.9071  -20.5678 C   0  0  0  0  0  0  0  0  0  0  0  0
  -11.0806    4.5621  -19.5059 N   0  0  0  0  0  0  0  0  0  0  0  0
   -7.9408    4.4014  -21.3492 C   0  0  0  0  0  0  0  0  0  0  0  0
   -6.7006    4.6232  -20.8123 N   0  0  0  0  0  0  0  0  0  0  0  0
   -5.1577    4.8214  -16.2352 N   0  0  0  0  0  0  0  0  0  0  0  0
  1  6  1  0  0  0  0
  2  1  1  0  0  0  0
  3  4  1  0  0  0  0
  3  2  2  0  0  0  0
  4  5  2  0  0  0  0
  5  8  1  0  0  0  0
  5  6  1  0  0  0  0
  6  7  2  0  0  0  0
  8  9  1  0  0  0  0
  9 10  1  0  0  0  0
 11  8  2  0  0  0  0
 12  4  1  0  0  0  0
 12 11  1  0  0  0  0
 13  2  1  0  0  0  0
M  END
>  <CHROM.1>
36.27671631,-128.64205654,-7.89031350,4.43129804,-18.78491508,0.67079662
0.11276118,1.57653364

>  <Name>
lig.pdb

>  <RI>
0

>  <Rbt.Current_Directory>
/home/itssahil/PROJECTS/Mol_Feturizer/New_Systems/rnas/2miy

>  <Rbt.Executable>
rbdock ($Id: //depot/dev/client3/rdock/2013.1/src/exe/rbdock.cxx#4 $)

>  <Rbt.Library>
libRbt.so (2013.1, Build901 2013/11/27)

>  <Rbt.Parameter_File>
/export/apps/rDock/src/rDock_2013.1_src/data/scripts/dock_solv.prm

>  <Rbt.Receptor>
prm/blind_docking_60.prm

>  <SCORE>
-19.4468

>  <SCORE.INTER>
-21.9661

>  <SCORE.INTER.CONST>
1

>  <SCORE.INTER.POLAR>
-2.90597

>  <SCORE.INTER.ROT>
2

>  <SCORE.INTER.SOLV>
12.1655

>  <SCORE.INTER.VDW>
-13.946

>  <SCORE.INTER.norm>
-1.6897

>  <SCORE.INTRA>
2.02022

>  <SCORE.INTRA.DIHEDRAL>
0.415521

>  <SCORE.INTRA.DIHEDRAL.0>
1.76676

>  <SCORE.INTRA.POLAR>
0.472211

>  <SCORE.INTRA.POLAR.0>
-0.472211

>  <SCORE.INTRA.REPUL>
0

>  <SCORE.INTRA.REPUL.0>
0

>  <SCORE.INTRA.SOLV>
0.0780281

>  <SCORE.INTRA.SOLV.lig_0>
-22.5855

>  <SCORE.INTRA.VDW>
0.167923

>  <SCORE.INTRA.VDW.0>
-0.733656

>  <SCORE.INTRA.norm>
0.155401

>  <SCORE.RESTR>
0.499083

>  <SCORE.RESTR.CAVITY>
0.499083

>  <SCORE.RESTR.norm>
0.038391

>  <SCORE.SYSTEM>
0

>  <SCORE.SYSTEM.CONST>
0

>  <SCORE.SYSTEM.DIHEDRAL>
0

>  <SCORE.SYSTEM.SOLV>
0

>  <SCORE.SYSTEM.norm>
0

>  <SCORE.heavy>
13

>  <SCORE.norm>
-1.49591

>  <RMSD>
12.405

$$$$
lig.pdb
 OpenBabel11021811453D
libRbt.so/2013.1/901 2013/11/27
 13 14  0  0  0  0  0  0  0  0999 V2000
   -8.5616    2.5883  -19.8534 N   0  0  0  0  0  0  0  0  0  0  0  0
   -8.3816    2.1433  -18.5744 C   0  0  0  0  0  0  0  0  0  0  0  0
   -7.7908    2.9134  -17.6785 N   0  0  0  0  0  0  0  0  0  0  0  0
   -7.3379    4.1679  -17.9827 C   0  0  0  0  0  0  0  0  0  0  0  0
   -7.4932    4.6769  -19.2950 C   0  0  0  0  0  0  0  0  0  0  0  0
   -8.1337    3.8381  -20.2561 C   0  0  0  0  0  0  0  0  0  0  0  0
   -8.2974    4.2145  -21.4035 O   0  0  0  0  0  0  0  0  0  0  0  0
   -6.9026    6.0205  -19.2938 C   0  0  0  0  0  0  0  0  0  0  0  0
   -6.7934    6.9782  -20.4508 C   0  0  0  0  0  0  0  0  0  0  0  0
   -6.0345    8.1657  -20.0365 N   0  0  0  0  0  0  0  0  0  0  0  0
   -6.4669    6.2323  -18.0458 C   0  0  0  0  0  0  0  0  0  0  0  0
   -6.7141    5.1374  -17.2613 N   0  0  0  0  0  0  0  0  0  0  0  0
   -8.8166    0.8916  -18.2220 N   0  0  0  0  0  0  0  0  0  0  0  0
  1  6  1  0  0  0  0
  2  1  1  0  0  0  0
  3  4  1  0  0  0  0
  3  2  2  0  0  0  0
  4  5  2  0  0  0  0
  5  8  1  0  0  0  0
  5  6  1  0  0  0  0
  6  7  2  0  0  0  0
  8  9  1  0  0  0  0
  9 10  1  0  0  0  0
 11  8  2  0  0  0  0
 12  4  1  0  0  0  0
 12 11  1  0  0  0  0
 13  2  1  0  0  0  0
M  END
>  <CHROM.1>
-175.37797011,-147.66378527,-7.52343480,4.45383027,-19.12676156,2.45392517
1.08359666,2.13864417

>  <Name>
lig.pdb

>  <RI>
0

>  <Rbt.Current_Directory>
/home/itssahil/PROJECTS/Mol_Feturizer/New_Systems/rnas/2miy

>  <Rbt.Executable>
rbdock ($Id: //depot/dev/client3/rdock/2013.1/src/exe/rbdock.cxx#4 $)

>  <Rbt.Library>
libRbt.so (2013.1, Build901 2013/11/27)

>  <Rbt.Parameter_File>
/export/apps/rDock/src/rDock_2013.1_src/data/scripts/dock_solv.prm

>  <Rbt.Receptor>
prm/blind_docking_60.prm

>  <SCORE>
-19.2797

>  <SCORE.INTER>
-21.2785

>  <SCORE.INTER.CONST>
1

>  <SCORE.INTER.POLAR>
-2.58005

>  <SCORE.INTER.ROT>
2

>  <SCORE.INTER.SOLV>
12.1298

>  <SCORE.INTER.VDW>
-14.5621

>  <SCORE.INTER.norm>
-1.6368

>  <SCORE.INTRA>
1.99579

>  <SCORE.INTRA.DIHEDRAL>
-0.327147

>  <SCORE.INTRA.DIHEDRAL.0>
1.76676

>  <SCORE.INTRA.POLAR>
0.472211

>  <SCORE.INTRA.POLAR.0>
-0.472211

>  <SCORE.INTRA.REPUL>
0

>  <SCORE.INTRA.REPUL.0>
0

>  <SCORE.INTRA.SOLV>
-0.573815

>  <SCORE.INTRA.SOLV.lig_0>
-22.5855

>  <SCORE.INTRA.VDW>
0.840756

>  <SCORE.INTRA.VDW.0>
-0.733656

>  <SCORE.INTRA.norm>
0.153523

>  <SCORE.RESTR>
0.00299583

>  <SCORE.RESTR.CAVITY>
0.00299583

>  <SCORE.RESTR.norm>
0.000230449

>  <SCORE.SYSTEM>
0

>  <SCORE.SYSTEM.CONST>
0

>  <SCORE.SYSTEM.DIHEDRAL>
0

>  <SCORE.SYSTEM.SOLV>
0

>  <SCORE.SYSTEM.norm>
0

>  <SCORE.heavy>
13

>  <SCORE.norm>
-1.48305

>  <RMSD>
12.464

$$$$
lig.pdb
 OpenBabel11021811453D
libRbt.so/2013.1/901 2013/11/27
 13 14  0  0  0  0  0  0  0  0999 V2000
   -6.0552    6.3074  -18.9750 N   0  0  0  0  0  0  0  0  0  0  0  0
   -6.8309    7.1809  -19.6832 C   0  0  0  0  0  0  0  0  0  0  0  0
   -8.0991    6.9006  -19.9241 N   0  0  0  0  0  0  0  0  0  0  0  0
   -8.6846    5.7443  -19.4863 C   0  0  0  0  0  0  0  0  0  0  0  0
   -7.9251    4.8008  -18.7526 C   0  0  0  0  0  0  0  0  0  0  0  0
   -6.5559    5.1126  -18.4963 C   0  0  0  0  0  0  0  0  0  0  0  0
   -5.8461    4.3433  -17.8722 O   0  0  0  0  0  0  0  0  0  0  0  0
   -8.8286    3.6855  -18.4465 C   0  0  0  0  0  0  0  0  0  0  0  0
   -8.5051    2.4177  -17.7010 C   0  0  0  0  0  0  0  0  0  0  0  0
   -8.0092    1.4059  -18.6433 N   0  0  0  0  0  0  0  0  0  0  0  0
  -10.0151    4.0155  -18.9714 C   0  0  0  0  0  0  0  0  0  0  0  0
   -9.9395    5.2317  -19.5962 N   0  0  0  0  0  0  0  0  0  0  0  0
   -6.2883    8.3523  -20.1451 N   0  0  0  0  0  0  0  0  0  0  0  0
  1  6  1  0  0  0  0
  2  1  1  0  0  0  0
  3  4  1  0  0  0  0
  3  2  2  0  0  0  0
  4  5  2  0  0  0  0
  5  8  1  0  0  0  0
  5  6  1  0  0  0  0
  6  7  2  0  0  0  0
  8  9  1  0  0  0  0
  9 10  1  0  0  0  0
 11  8  2  0  0  0  0
 12  4  1  0  0  0  0
 12 11  1  0  0  0  0
 13  2  1  0  0  0  0
M  END
>  <CHROM.1>
-88.25216518,114.99064540,-7.76481085,5.03031024,-18.98423535,-1.19648828
0.24060347,2.77979139

>  <Name>
lig.pdb

>  <RI>
0

>  <Rbt.Current_Directory>
/home/itssahil/PROJECTS/Mol_Feturizer/New_Systems/rnas/2miy

>  <Rbt.Executable>
rbdock ($Id: //depot/dev/client3/rdock/2013.1/src/exe/rbdock.cxx#4 $)

>  <Rbt.Library>
libRbt.so (2013.1, Build901 2013/11/27)

>  <Rbt.Parameter_File>
/export/apps/rDock/src/rDock_2013.1_src/data/scripts/dock_solv.prm

>  <Rbt.Receptor>
prm/blind_docking_60.prm

>  <SCORE>
-20.6503

>  <SCORE.INTER>
-22.5016

>  <SCORE.INTER.CONST>
1

>  <SCORE.INTER.POLAR>
-2.85243

>  <SCORE.INTER.ROT>
2

>  <SCORE.INTER.SOLV>
10.9569

>  <SCORE.INTER.VDW>
-14.0786

>  <SCORE.INTER.norm>
-1.73089

>  <SCORE.INTRA>
1.85132

>  <SCORE.INTRA.DIHEDRAL>
0.675979

>  <SCORE.INTRA.DIHEDRAL.0>
1.76676

>  <SCORE.INTRA.POLAR>
0.472211

>  <SCORE.INTRA.POLAR.0>
-0.472211

>  <SCORE.INTRA.REPUL>
0

>  <SCORE.INTRA.REPUL.0>
0

>  <SCORE.INTRA.SOLV>
-0.445792

>  <SCORE.INTRA.SOLV.lig_0>
-22.5855

>  <SCORE.INTRA.VDW>
0.130706

>  <SCORE.INTRA.VDW.0>
-0.733656

>  <SCORE.INTRA.norm>
0.142409

>  <SCORE.RESTR>
0

>  <SCORE.RESTR.CAVITY>
0

>  <SCORE.RESTR.norm>
0

>  <SCORE.SYSTEM>
0

>  <SCORE.SYSTEM.CONST>
0

>  <SCORE.SYSTEM.DIHEDRAL>
0

>  <SCORE.SYSTEM.SOLV>
0

>  <SCORE.SYSTEM.norm>
0

>  <SCORE.heavy>
13

>  <SCORE.norm>
-1.58848

>  <RMSD>
12.599

$$$$
lig.pdb
 OpenBabel11021811453D
libRbt.so/2013.1/901 2013/11/27
 13 14  0  0  0  0  0  0  0  0999 V2000
   -6.0548    6.3168  -18.9826 N   0  0  0  0  0  0  0  0  0  0  0  0
   -6.8438    7.1684  -19.7028 C   0  0  0  0  0  0  0  0  0  0  0  0
   -8.1041    6.8596  -19.9501 N   0  0  0  0  0  0  0  0  0  0  0  0
   -8.6682    5.6945  -19.5074 C   0  0  0  0  0  0  0  0  0  0  0  0
   -7.8941    4.7729  -18.7614 C   0  0  0  0  0  0  0  0  0  0  0  0
   -6.5336    5.1154  -18.4981 C   0  0  0  0  0  0  0  0  0  0  0  0
   -5.8122    4.3659  -17.8634 O   0  0  0  0  0  0  0  0  0  0  0  0
   -8.7761    3.6411  -18.4528 C   0  0  0  0  0  0  0  0  0  0  0  0
   -8.4313    2.3861  -17.6954 C   0  0  0  0  0  0  0  0  0  0  0  0
   -7.9507    1.3623  -18.6327 N   0  0  0  0  0  0  0  0  0  0  0  0
   -9.9656    3.9420  -18.9883 C   0  0  0  0  0  0  0  0  0  0  0  0
   -9.9112    5.1548  -19.6219 N   0  0  0  0  0  0  0  0  0  0  0  0
   -6.3227    8.3474  -20.1700 N   0  0  0  0  0  0  0  0  0  0  0  0
  1  6  1  0  0  0  0
  2  1  1  0  0  0  0
  3  4  1  0  0  0  0
  3  2  2  0  0  0  0
  4  5  2  0  0  0  0
  5  8  1  0  0  0  0
  5  6  1  0  0  0  0
  6  7  2  0  0  0  0
  8  9  1  0  0  0  0
  9 10  1  0  0  0  0
 11  8  2  0  0  0  0
 12  4  1  0  0  0  0
 12 11  1  0  0  0  0
 13  2  1  0  0  0  0
M  END
>  <CHROM.1>
-90.16676680,-132.36032099,-7.74110592,5.00237545,-18.99411115,-1.21072319
0.25503147,2.77622211

>  <Name>
lig.pdb

>  <RI>
0

>  <Rbt.Current_Directory>
/home/itssahil/PROJECTS/Mol_Feturizer/New_Systems/rnas/2miy

>  <Rbt.Executable>
rbdock ($Id: //depot/dev/client3/rdock/2013.1/src/exe/rbdock.cxx#4 $)

>  <Rbt.Library>
libRbt.so (2013.1, Build901 2013/11/27)

>  <Rbt.Parameter_File>
/export/apps/rDock/src/rDock_2013.1_src/data/scripts/dock_solv.prm

>  <Rbt.Receptor>
prm/blind_docking_60.prm

>  <SCORE>
-20.8196

>  <SCORE.INTER>
-22.7365

>  <SCORE.INTER.CONST>
1

>  <SCORE.INTER.POLAR>
-2.89038

>  <SCORE.INTER.ROT>
2

>  <SCORE.INTER.SOLV>
11.1207

>  <SCORE.INTER.VDW>
-14.1633

>  <SCORE.INTER.norm>
-1.74896

>  <SCORE.INTRA>
1.90987

>  <SCORE.INTRA.DIHEDRAL>
0.775591

>  <SCORE.INTRA.DIHEDRAL.0>
1.76676

>  <SCORE.INTRA.POLAR>
0.472211

>  <SCORE.INTRA.POLAR.0>
-0.472211

>  <SCORE.INTRA.REPUL>
0

>  <SCORE.INTRA.REPUL.0>
0

>  <SCORE.INTRA.SOLV>
-0.450798

>  <SCORE.INTRA.SOLV.lig_0>
-22.5855

>  <SCORE.INTRA.VDW>
0.14196

>  <SCORE.INTRA.VDW.0>
-0.733656

>  <SCORE.INTRA.norm>
0.146913

>  <SCORE.RESTR>
0.00698309

>  <SCORE.RESTR.CAVITY>
0.00698309

>  <SCORE.RESTR.norm>
0.000537161

>  <SCORE.SYSTEM>
0

>  <SCORE.SYSTEM.CONST>
0

>  <SCORE.SYSTEM.DIHEDRAL>
0

>  <SCORE.SYSTEM.SOLV>
0

>  <SCORE.SYSTEM.norm>
0

>  <SCORE.heavy>
13

>  <SCORE.norm>
-1.60151

>  <RMSD>
12.605

$$$$
lig.pdb
 OpenBabel11021811453D
libRbt.so/2013.1/901 2013/11/27
 13 14  0  0  0  0  0  0  0  0999 V2000
   -7.4202    2.4285  -19.3887 N   0  0  0  0  0  0  0  0  0  0  0  0
   -8.6120    1.7644  -19.3184 C   0  0  0  0  0  0  0  0  0  0  0  0
   -9.7492    2.4365  -19.3122 N   0  0  0  0  0  0  0  0  0  0  0  0
   -9.7874    3.8026  -19.3726 C   0  0  0  0  0  0  0  0  0  0  0  0
   -8.5813    4.5415  -19.4408 C   0  0  0  0  0  0  0  0  0  0  0  0
   -7.3574    3.8068  -19.4481 C   0  0  0  0  0  0  0  0  0  0  0  0
   -6.2841    4.3813  -19.5036 O   0  0  0  0  0  0  0  0  0  0  0  0
   -8.9619    5.9583  -19.4826 C   0  0  0  0  0  0  0  0  0  0  0  0
   -8.0490    7.1546  -19.5388 C   0  0  0  0  0  0  0  0  0  0  0  0
   -7.0547    7.0658  -18.4612 N   0  0  0  0  0  0  0  0  0  0  0  0
  -10.3001    5.9831  -19.4551 C   0  0  0  0  0  0  0  0  0  0  0  0
  -10.8001    4.7102  -19.3833 N   0  0  0  0  0  0  0  0  0  0  0  0
   -8.6250    0.3949  -19.2537 N   0  0  0  0  0  0  0  0  0  0  0  0
  1  6  1  0  0  0  0
  2  1  1  0  0  0  0
  3  4  1  0  0  0  0
  3  2  2  0  0  0  0
  4  5  2  0  0  0  0
  5  8  1  0  0  0  0
  5  6  1  0  0  0  0
  6  7  2  0  0  0  0
  8  9  1  0  0  0  0
  9 10  1  0  0  0  0
 11  8  2  0  0  0  0
 12  4  1  0  0  0  0
 12 11  1  0  0  0  0
 13  2  1  0  0  0  0
M  END
>  <CHROM.1>
-51.99859395,140.64632443,-8.53000385,4.16401256,-19.31749565,-1.65599528
-0.05156889,0.02787414

>  <Name>
lig.pdb

>  <RI>
1.8118e+07

>  <Rbt.Current_Directory>
/home/itssahil/PROJECTS/Mol_Feturizer/New_Systems/rnas/2miy

>  <Rbt.Executable>
rbdock ($Id: //depot/dev/client3/rdock/2013.1/src/exe/rbdock.cxx#4 $)

>  <Rbt.Library>
libRbt.so (2013.1, Build901 2013/11/27)

>  <Rbt.Parameter_File>
/export/apps/rDock/src/rDock_2013.1_src/data/scripts/dock_solv.prm

>  <Rbt.Receptor>
prm/blind_docking_100.prm

>  <SCORE>
-18.7416

>  <SCORE.INTER>
-20.2825

>  <SCORE.INTER.CONST>
1

>  <SCORE.INTER.POLAR>
-3.7179

>  <SCORE.INTER.ROT>
2

>  <SCORE.INTER.SOLV>
13.8812

>  <SCORE.INTER.VDW>
-10.6891

>  <SCORE.INTER.norm>
-1.56019

>  <SCORE.INTRA>
1.48463

>  <SCORE.INTRA.DIHEDRAL>
-0.208665

>  <SCORE.INTRA.DIHEDRAL.0>
1.76676

>  <SCORE.INTRA.POLAR>
0.472211

>  <SCORE.INTRA.POLAR.0>
-0.472211

>  <SCORE.INTRA.REPUL>
0

>  <SCORE.INTRA.REPUL.0>
0

>  <SCORE.INTRA.SOLV>
-0.0848411

>  <SCORE.INTRA.SOLV.lig_0>
-22.5855

>  <SCORE.INTRA.VDW>
0.0258658

>  <SCORE.INTRA.VDW.0>
-0.733656

>  <SCORE.INTRA.norm>
0.114202

>  <SCORE.RESTR>
0.0562151

>  <SCORE.RESTR.CAVITY>
0.0562151

>  <SCORE.RESTR.norm>
0.00432424

>  <SCORE.SYSTEM>
0

>  <SCORE.SYSTEM.CONST>
0

>  <SCORE.SYSTEM.DIHEDRAL>
0

>  <SCORE.SYSTEM.SOLV>
0

>  <SCORE.SYSTEM.norm>
0

>  <SCORE.heavy>
13

>  <SCORE.norm>
-1.44167

>  <RMSD>
12.606

$$$$
lig.pdb
 OpenBabel11021811453D
libRbt.so/2013.1/901 2013/11/27
 13 14  0  0  0  0  0  0  0  0999 V2000
   -9.5284    8.0023  -20.3991 N   0  0  0  0  0  0  0  0  0  0  0  0
  -10.8414    7.6626  -20.5640 C   0  0  0  0  0  0  0  0  0  0  0  0
  -11.2991    6.5206  -20.0831 N   0  0  0  0  0  0  0  0  0  0  0  0
  -10.4960    5.6397  -19.4120 C   0  0  0  0  0  0  0  0  0  0  0  0
   -9.1256    5.9388  -19.2177 C   0  0  0  0  0  0  0  0  0  0  0  0
   -8.6401    7.1754  -19.7399 C   0  0  0  0  0  0  0  0  0  0  0  0
   -7.4709    7.4930  -19.6088 O   0  0  0  0  0  0  0  0  0  0  0  0
   -8.5510    4.8046  -18.4845 C   0  0  0  0  0  0  0  0  0  0  0  0
   -7.1215    4.6207  -18.0482 C   0  0  0  0  0  0  0  0  0  0  0  0
   -7.0600    4.5486  -16.5824 N   0  0  0  0  0  0  0  0  0  0  0  0
   -9.5587    3.9476  -18.2794 C   0  0  0  0  0  0  0  0  0  0  0  0
  -10.7157    4.4298  -18.8311 N   0  0  0  0  0  0  0  0  0  0  0  0
  -11.6851    8.5122  -21.2320 N   0  0  0  0  0  0  0  0  0  0  0  0
  1  6  1  0  0  0  0
  2  1  1  0  0  0  0
  3  4  1  0  0  0  0
  3  2  2  0  0  0  0
  4  5  2  0  0  0  0
  5  8  1  0  0  0  0
  5  6  1  0  0  0  0
  6  7  2  0  0  0  0
  8  9  1  0  0  0  0
  9 10  1  0  0  0  0
 11  8  2  0  0  0  0
 12  4  1  0  0  0  0
 12 11  1  0  0  0  0
 13  2  1  0  0  0  0
M  END
>  <CHROM.1>
117.83250526,-66.31196327,-9.37541430,6.13509711,-19.25957997,-2.20442547
0.30454619,2.60807096

>  <Name>
lig.pdb

>  <RI>
1.8118e+07

>  <Rbt.Current_Directory>
/home/itssahil/PROJECTS/Mol_Feturizer/New_Systems/rnas/2miy

>  <Rbt.Executable>
rbdock ($Id: //depot/dev/client3/rdock/2013.1/src/exe/rbdock.cxx#4 $)

>  <Rbt.Library>
libRbt.so (2013.1, Build901 2013/11/27)

>  <Rbt.Parameter_File>
/export/apps/rDock/src/rDock_2013.1_src/data/scripts/dock_solv.prm

>  <Rbt.Receptor>
prm/blind_docking_100.prm

>  <SCORE>
-23.3741

>  <SCORE.INTER>
-25.9044

>  <SCORE.INTER.CONST>
1

>  <SCORE.INTER.POLAR>
-3.65936

>  <SCORE.INTER.ROT>
2

>  <SCORE.INTER.SOLV>
10.2455

>  <SCORE.INTER.VDW>
-13.4203

>  <SCORE.INTER.norm>
-1.99265

>  <SCORE.INTRA>
2.47952

>  <SCORE.INTRA.DIHEDRAL>
1.87402

>  <SCORE.INTRA.DIHEDRAL.0>
1.76676

>  <SCORE.INTRA.POLAR>
0.472211

>  <SCORE.INTRA.POLAR.0>
-0.472211

>  <SCORE.INTRA.REPUL>
0

>  <SCORE.INTRA.REPUL.0>
0

>  <SCORE.INTRA.SOLV>
-0.623873

>  <SCORE.INTRA.SOLV.lig_0>
-22.5855

>  <SCORE.INTRA.VDW>
0.248931

>  <SCORE.INTRA.VDW.0>
-0.733656

>  <SCORE.INTRA.norm>
0.190732

>  <SCORE.RESTR>
0.0508734

>  <SCORE.RESTR.CAVITY>
0.0508734

>  <SCORE.RESTR.norm>
0.00391334

>  <SCORE.SYSTEM>
0

>  <SCORE.SYSTEM.CONST>
0

>  <SCORE.SYSTEM.DIHEDRAL>
0

>  <SCORE.SYSTEM.SOLV>
0

>  <SCORE.SYSTEM.norm>
0

>  <SCORE.heavy>
13

>  <SCORE.norm>
-1.798

>  <RMSD>
12.607

$$$$
lig.pdb
 OpenBabel11021811453D
libRbt.so/2013.1/901 2013/11/27
 13 14  0  0  0  0  0  0  0  0999 V2000
   -8.9795    2.5493  -19.5188 N   0  0  0  0  0  0  0  0  0  0  0  0
   -8.4340    2.2333  -18.3068 C   0  0  0  0  0  0  0  0  0  0  0  0
   -7.6518    3.0961  -17.6835 N   0  0  0  0  0  0  0  0  0  0  0  0
   -7.3545    4.3224  -18.2120 C   0  0  0  0  0  0  0  0  0  0  0  0
   -7.8882    4.6992  -19.4683 C   0  0  0  0  0  0  0  0  0  0  0  0
   -8.7332    3.7609  -20.1341 C   0  0  0  0  0  0  0  0  0  0  0  0
   -9.2237    4.0217  -21.2187 O   0  0  0  0  0  0  0  0  0  0  0  0
   -7.3779    6.0459  -19.7513 C   0  0  0  0  0  0  0  0  0  0  0  0
   -7.6339    6.8886  -20.9728 C   0  0  0  0  0  0  0  0  0  0  0  0
   -6.7932    8.0922  -20.9250 N   0  0  0  0  0  0  0  0  0  0  0  0
   -6.6235    6.3847  -18.6986 C   0  0  0  0  0  0  0  0  0  0  0  0
   -6.5973    5.3672  -17.7824 N   0  0  0  0  0  0  0  0  0  0  0  0
   -8.7009    1.0148  -17.7375 N   0  0  0  0  0  0  0  0  0  0  0  0
  1  6  1  0  0  0  0
  2  1  1  0  0  0  0
  3  4  1  0  0  0  0
  3  2  2  0  0  0  0
  4  5  2  0  0  0  0
  5  8  1  0  0  0  0
  5  6  1  0  0  0  0
  6  7  2  0  0  0  0
  8  9  1  0  0  0  0
  9 10  1  0  0  0  0
 11  8  2  0  0  0  0
 12  4  1  0  0  0  0
 12 11  1  0  0  0  0
 13  2  1  0  0  0  0
M  END
>  <CHROM.1>
-172.69466649,-139.47392650,-7.85670043,4.49015504,-19.28223883,2.02346665
0.91827273,2.40656163

>  <Name>
lig.pdb

>  <RI>
1.17462e+07

>  <Rbt.Current_Directory>
/home/itssahil/PROJECTS/Mol_Feturizer/New_Systems/rnas/2miy

>  <Rbt.Executable>
rbdock ($Id: //depot/dev/client3/rdock/2013.1/src/exe/rbdock.cxx#4 $)

>  <Rbt.Library>
libRbt.so (2013.1, Build901 2013/11/27)

>  <Rbt.Parameter_File>
/export/apps/rDock/src/rDock_2013.1_src/data/scripts/dock_solv.prm

>  <Rbt.Receptor>
prm/blind_docking_40.prm

>  <SCORE>
-22.5748

>  <SCORE.INTER>
-25.069

>  <SCORE.INTER.CONST>
1

>  <SCORE.INTER.POLAR>
-3.33508

>  <SCORE.INTER.ROT>
2

>  <SCORE.INTER.SOLV>
11.2135

>  <SCORE.INTER.VDW>
-14.2669

>  <SCORE.INTER.norm>
-1.92839

>  <SCORE.INTRA>
1.90329

>  <SCORE.INTRA.DIHEDRAL>
-0.276531

>  <SCORE.INTRA.DIHEDRAL.0>
1.76676

>  <SCORE.INTRA.POLAR>
0.472211

>  <SCORE.INTRA.POLAR.0>
-0.472211

>  <SCORE.INTRA.REPUL>
0

>  <SCORE.INTRA.REPUL.0>
0

>  <SCORE.INTRA.SOLV>
-0.575164

>  <SCORE.INTRA.SOLV.lig_0>
-22.5855

>  <SCORE.INTRA.VDW>
0.723615

>  <SCORE.INTRA.VDW.0>
-0.733656

>  <SCORE.INTRA.norm>
0.146407

>  <SCORE.RESTR>
0.591004

>  <SCORE.RESTR.CAVITY>
0.591004

>  <SCORE.RESTR.norm>
0.0454618

>  <SCORE.SYSTEM>
0

>  <SCORE.SYSTEM.CONST>
0

>  <SCORE.SYSTEM.DIHEDRAL>
0

>  <SCORE.SYSTEM.SOLV>
0

>  <SCORE.SYSTEM.norm>
0

>  <SCORE.heavy>
13

>  <SCORE.norm>
-1.73652

>  <RMSD>
12.610

$$$$
lig.pdb
 OpenBabel11021811453D
libRbt.so/2013.1/901 2013/11/27
 13 14  0  0  0  0  0  0  0  0999 V2000
   -8.3493    0.4613  -18.2846 N   0  0  0  0  0  0  0  0  0  0  0  0
   -8.3403   -0.1415  -19.5105 C   0  0  0  0  0  0  0  0  0  0  0  0
   -8.3847    0.5876  -20.6112 N   0  0  0  0  0  0  0  0  0  0  0  0
   -8.4427    1.9539  -20.5771 C   0  0  0  0  0  0  0  0  0  0  0  0
   -8.4606    2.6301  -19.3330 C   0  0  0  0  0  0  0  0  0  0  0  0
   -8.4113    1.8343  -18.1491 C   0  0  0  0  0  0  0  0  0  0  0  0
   -8.4251    2.3530  -17.0464 O   0  0  0  0  0  0  0  0  0  0  0  0
   -8.5355    4.0637  -19.6386 C   0  0  0  0  0  0  0  0  0  0  0  0
   -8.6000    5.2097  -18.6638 C   0  0  0  0  0  0  0  0  0  0  0  0
   -7.3810    5.2276  -17.8444 N   0  0  0  0  0  0  0  0  0  0  0  0
   -8.5412    4.1578  -20.9740 C   0  0  0  0  0  0  0  0  0  0  0  0
   -8.4930    2.9121  -21.5409 N   0  0  0  0  0  0  0  0  0  0  0  0
   -8.2853   -1.5088  -19.5960 N   0  0  0  0  0  0  0  0  0  0  0  0
  1  6  1  0  0  0  0
  2  1  1  0  0  0  0
  3  4  1  0  0  0  0
  3  2  2  0  0  0  0
  4  5  2  0  0  0  0
  5  8  1  0  0  0  0
  5  6  1  0  0  0  0
  6  7  2  0  0  0  0
  8  9  1  0  0  0  0
  9 10  1  0  0  0  0
 11  8  2  0  0  0  0
 12  4  1  0  0  0  0
 12 11  1  0  0  0  0
 13  2  1  0  0  0  0
M  END
>  <CHROM.1>
61.92356050,11.12870554,-8.33677529,2.26482646,-19.31763696,-1.96221323,-1.47365716
-0.26490324

>  <Name>
lig.pdb

>  <RI>
0

>  <Rbt.Current_Directory>
/home/itssahil/PROJECTS/Mol_Feturizer/New_Systems/rnas/2miy

>  <Rbt.Executable>
rbdock ($Id: //depot/dev/client3/rdock/2013.1/src/exe/rbdock.cxx#4 $)

>  <Rbt.Library>
libRbt.so (2013.1, Build901 2013/11/27)

>  <Rbt.Parameter_File>
/export/apps/rDock/src/rDock_2013.1_src/data/scripts/dock_solv.prm

>  <Rbt.Receptor>
prm/blind_docking_60.prm

>  <SCORE>
-23.6809

>  <SCORE.INTER>
-25.1431

>  <SCORE.INTER.CONST>
1

>  <SCORE.INTER.POLAR>
-3.34802

>  <SCORE.INTER.ROT>
2

>  <SCORE.INTER.SOLV>
11.7046

>  <SCORE.INTER.VDW>
-14.4369

>  <SCORE.INTER.norm>
-1.93408

>  <SCORE.INTRA>
1.43882

>  <SCORE.INTRA.DIHEDRAL>
-0.30482

>  <SCORE.INTRA.DIHEDRAL.0>
1.76676

>  <SCORE.INTRA.POLAR>
0.472211

>  <SCORE.INTRA.POLAR.0>
-0.472211

>  <SCORE.INTRA.REPUL>
0

>  <SCORE.INTRA.REPUL.0>
0

>  <SCORE.INTRA.SOLV>
-0.189827

>  <SCORE.INTRA.SOLV.lig_0>
-22.5855

>  <SCORE.INTRA.VDW>
0.0806304

>  <SCORE.INTRA.VDW.0>
-0.733656

>  <SCORE.INTRA.norm>
0.110679

>  <SCORE.RESTR>
0.0233661

>  <SCORE.RESTR.CAVITY>
0.0233661

>  <SCORE.RESTR.norm>
0.0017974

>  <SCORE.SYSTEM>
0

>  <SCORE.SYSTEM.CONST>
0

>  <SCORE.SYSTEM.DIHEDRAL>
0

>  <SCORE.SYSTEM.SOLV>
0

>  <SCORE.SYSTEM.norm>
0

>  <SCORE.heavy>
13

>  <SCORE.norm>
-1.82161

>  <RMSD>
12.631

$$$$
lig.pdb
 OpenBabel11021811453D
libRbt.so/2013.1/901 2013/11/27
 13 14  0  0  0  0  0  0  0  0999 V2000
   -6.0503    6.3577  -19.0372 N   0  0  0  0  0  0  0  0  0  0  0  0
   -6.8168    7.2431  -19.7407 C   0  0  0  0  0  0  0  0  0  0  0  0
   -8.0936    6.9879  -19.9635 N   0  0  0  0  0  0  0  0  0  0  0  0
   -8.6973    5.8466  -19.5114 C   0  0  0  0  0  0  0  0  0  0  0  0
   -7.9481    4.8917  -18.7818 C   0  0  0  0  0  0  0  0  0  0  0  0
   -6.5695    5.1764  -18.5449 C   0  0  0  0  0  0  0  0  0  0  0  0
   -5.8679    4.3961  -17.9253 O   0  0  0  0  0  0  0  0  0  0  0  0
   -8.8706    3.7973  -18.4574 C   0  0  0  0  0  0  0  0  0  0  0  0
   -8.5639    2.5274  -17.7085 C   0  0  0  0  0  0  0  0  0  0  0  0
   -8.0650    1.5120  -18.6454 N   0  0  0  0  0  0  0  0  0  0  0  0
  -10.0567    4.1489  -18.9690 C   0  0  0  0  0  0  0  0  0  0  0  0
   -9.9638    5.3597  -19.6021 N   0  0  0  0  0  0  0  0  0  0  0  0
   -6.2560    8.4002  -20.2165 N   0  0  0  0  0  0  0  0  0  0  0  0
  1  6  1  0  0  0  0
  2  1  1  0  0  0  0
  3  4  1  0  0  0  0
  3  2  2  0  0  0  0
  4  5  2  0  0  0  0
  5  8  1  0  0  0  0
  5  6  1  0  0  0  0
  6  7  2  0  0  0  0
  8  9  1  0  0  0  0
  9 10  1  0  0  0  0
 11  8  2  0  0  0  0
 12  4  1  0  0  0  0
 12 11  1  0  0  0  0
 13  2  1  0  0  0  0
M  END
>  <CHROM.1>
-86.65250616,-63.76941777,-7.78276202,5.11748978,-19.01617863,-1.18437560
0.21949288,2.77046190

>  <Name>
lig.pdb

>  <RI>
0

>  <Rbt.Current_Directory>
/home/itssahil/PROJECTS/Mol_Feturizer/New_Systems/rnas/2miy

>  <Rbt.Executable>
rbdock ($Id: //depot/dev/client3/rdock/2013.1/src/exe/rbdock.cxx#4 $)

>  <Rbt.Library>
libRbt.so (2013.1, Build901 2013/11/27)

>  <Rbt.Parameter_File>
/export/apps/rDock/src/rDock_2013.1_src/data/scripts/dock_solv.prm

>  <Rbt.Receptor>
prm/blind_docking_60.prm

>  <SCORE>
-20.6024

>  <SCORE.INTER>
-22.4178

>  <SCORE.INTER.CONST>
1

>  <SCORE.INTER.POLAR>
-2.86804

>  <SCORE.INTER.ROT>
2

>  <SCORE.INTER.SOLV>
10.7785

>  <SCORE.INTER.VDW>
-13.9112

>  <SCORE.INTER.norm>
-1.72445

>  <SCORE.INTRA>
1.81538

>  <SCORE.INTRA.DIHEDRAL>
0.596903

>  <SCORE.INTRA.DIHEDRAL.0>
1.76676

>  <SCORE.INTRA.POLAR>
0.472211

>  <SCORE.INTRA.POLAR.0>
-0.472211

>  <SCORE.INTRA.REPUL>
0

>  <SCORE.INTRA.REPUL.0>
0

>  <SCORE.INTRA.SOLV>
-0.432582

>  <SCORE.INTRA.SOLV.lig_0>
-22.5855

>  <SCORE.INTRA.VDW>
0.127704

>  <SCORE.INTRA.VDW.0>
-0.733656

>  <SCORE.INTRA.norm>
0.139645

>  <SCORE.RESTR>
8.0689e-06

>  <SCORE.RESTR.CAVITY>
8.0689e-06

>  <SCORE.RESTR.norm>
6.20685e-07

>  <SCORE.SYSTEM>
0

>  <SCORE.SYSTEM.CONST>
0

>  <SCORE.SYSTEM.DIHEDRAL>
0

>  <SCORE.SYSTEM.SOLV>
0

>  <SCORE.SYSTEM.norm>
0

>  <SCORE.heavy>
13

>  <SCORE.norm>
-1.5848

>  <RMSD>
12.637

$$$$
lig.pdb
 OpenBabel11021811453D
libRbt.so/2013.1/901 2013/11/27
 13 14  0  0  0  0  0  0  0  0999 V2000
   -8.2978    2.4470  -16.9957 N   0  0  0  0  0  0  0  0  0  0  0  0
   -7.8231    3.7234  -17.1044 C   0  0  0  0  0  0  0  0  0  0  0  0
   -7.6412    4.2669  -18.2945 N   0  0  0  0  0  0  0  0  0  0  0  0
   -7.9120    3.5907  -19.4524 C   0  0  0  0  0  0  0  0  0  0  0  0
   -8.4005    2.2627  -19.3981 C   0  0  0  0  0  0  0  0  0  0  0  0
   -8.5950    1.6839  -18.1078 C   0  0  0  0  0  0  0  0  0  0  0  0
   -9.0112    0.5446  -17.9904 O   0  0  0  0  0  0  0  0  0  0  0  0
   -8.5758    1.8256  -20.7881 C   0  0  0  0  0  0  0  0  0  0  0  0
   -9.0538    0.4838  -21.2770 C   0  0  0  0  0  0  0  0  0  0  0  0
   -8.7247   -0.5473  -20.2840 N   0  0  0  0  0  0  0  0  0  0  0  0
   -8.2175    2.8655  -21.5512 C   0  0  0  0  0  0  0  0  0  0  0  0
   -7.8158    3.9157  -20.7695 N   0  0  0  0  0  0  0  0  0  0  0  0
   -7.5348    4.4407  -15.9720 N   0  0  0  0  0  0  0  0  0  0  0  0
  1  6  1  0  0  0  0
  2  1  1  0  0  0  0
  3  4  1  0  0  0  0
  3  2  2  0  0  0  0
  4  5  2  0  0  0  0
  5  8  1  0  0  0  0
  5  6  1  0  0  0  0
  6  7  2  0  0  0  0
  8  9  1  0  0  0  0
  9 10  1  0  0  0  0
 11  8  2  0  0  0  0
 12  4  1  0  0  0  0
 12 11  1  0  0  0  0
 13  2  1  0  0  0  0
M  END
>  <CHROM.1>
-27.38580333,-110.81828609,-8.27748730,2.38831226,-19.02135820,0.83449183
1.28605345,1.61278155

>  <Name>
lig.pdb

>  <RI>
0

>  <Rbt.Current_Directory>
/home/itssahil/PROJECTS/Mol_Feturizer/New_Systems/rnas/2miy

>  <Rbt.Executable>
rbdock ($Id: //depot/dev/client3/rdock/2013.1/src/exe/rbdock.cxx#4 $)

>  <Rbt.Library>
libRbt.so (2013.1, Build901 2013/11/27)

>  <Rbt.Parameter_File>
/export/apps/rDock/src/rDock_2013.1_src/data/scripts/dock_solv.prm

>  <Rbt.Receptor>
prm/blind_docking_60.prm

>  <SCORE>
-21.8961

>  <SCORE.INTER>
-22.7682

>  <SCORE.INTER.CONST>
1

>  <SCORE.INTER.POLAR>
-3.20356

>  <SCORE.INTER.ROT>
2

>  <SCORE.INTER.SOLV>
11.9436

>  <SCORE.INTER.VDW>
-13.4148

>  <SCORE.INTER.norm>
-1.7514

>  <SCORE.INTRA>
0.677907

>  <SCORE.INTRA.DIHEDRAL>
0.927701

>  <SCORE.INTRA.DIHEDRAL.0>
1.76676

>  <SCORE.INTRA.POLAR>
-0.0843974

>  <SCORE.INTRA.POLAR.0>
-0.472211

>  <SCORE.INTRA.REPUL>
0

>  <SCORE.INTRA.REPUL.0>
0

>  <SCORE.INTRA.SOLV>
0.146054

>  <SCORE.INTRA.SOLV.lig_0>
-22.5855

>  <SCORE.INTRA.VDW>
0.427981

>  <SCORE.INTRA.VDW.0>
-0.733656

>  <SCORE.INTRA.norm>
0.0521467

>  <SCORE.RESTR>
0.19419

>  <SCORE.RESTR.CAVITY>
0.19419

>  <SCORE.RESTR.norm>
0.0149377

>  <SCORE.SYSTEM>
0

>  <SCORE.SYSTEM.CONST>
0

>  <SCORE.SYSTEM.DIHEDRAL>
0

>  <SCORE.SYSTEM.SOLV>
0

>  <SCORE.SYSTEM.norm>
0

>  <SCORE.heavy>
13

>  <SCORE.norm>
-1.68432

>  <RMSD>
12.680

$$$$
lig.pdb
 OpenBabel11021811453D
libRbt.so/2013.1/901 2013/11/27
 13 14  0  0  0  0  0  0  0  0999 V2000
   -7.3453    2.8283  -19.4730 N   0  0  0  0  0  0  0  0  0  0  0  0
   -8.5193    2.2702  -19.0526 C   0  0  0  0  0  0  0  0  0  0  0  0
   -9.5873    3.0255  -18.8687 N   0  0  0  0  0  0  0  0  0  0  0  0
   -9.5690    4.3763  -19.0843 C   0  0  0  0  0  0  0  0  0  0  0  0
   -8.3770    5.0077  -19.5150 C   0  0  0  0  0  0  0  0  0  0  0  0
   -7.2282    4.1835  -19.7120 C   0  0  0  0  0  0  0  0  0  0  0  0
   -6.1704    4.6636  -20.0802 O   0  0  0  0  0  0  0  0  0  0  0  0
   -8.6841    6.4373  -19.6406 C   0  0  0  0  0  0  0  0  0  0  0  0
   -7.7505    7.5463  -20.0484 C   0  0  0  0  0  0  0  0  0  0  0  0
   -6.5429    7.5047  -19.2131 N   0  0  0  0  0  0  0  0  0  0  0  0
   -9.9751    6.5690  -19.3118 C   0  0  0  0  0  0  0  0  0  0  0  0
  -10.5083    5.3537  -18.9738 N   0  0  0  0  0  0  0  0  0  0  0  0
   -8.5863    0.9205  -18.8208 N   0  0  0  0  0  0  0  0  0  0  0  0
  1  6  1  0  0  0  0
  2  1  1  0  0  0  0
  3  4  1  0  0  0  0
  3  2  2  0  0  0  0
  4  5  2  0  0  0  0
  5  8  1  0  0  0  0
  5  6  1  0  0  0  0
  6  7  2  0  0  0  0
  8  9  1  0  0  0  0
  9 10  1  0  0  0  0
 11  8  2  0  0  0  0
 12  4  1  0  0  0  0
 12 11  1  0  0  0  0
 13  2  1  0  0  0  0
M  END
>  <CHROM.1>
-52.63806604,56.81722503,-8.31804037,4.64355038,-19.36072794,-1.71188353
0.18268494,-0.08223466

>  <Name>
lig.pdb

>  <RI>
0

>  <Rbt.Current_Directory>
/home/itssahil/PROJECTS/Mol_Feturizer/New_Systems/rnas/2miy

>  <Rbt.Executable>
rbdock ($Id: //depot/dev/client3/rdock/2013.1/src/exe/rbdock.cxx#4 $)

>  <Rbt.Library>
libRbt.so (2013.1, Build901 2013/11/27)

>  <Rbt.Parameter_File>
/export/apps/rDock/src/rDock_2013.1_src/data/scripts/dock_solv.prm

>  <Rbt.Receptor>
prm/blind_docking_60.prm

>  <SCORE>
-15.9896

>  <SCORE.INTER>
-17.2654

>  <SCORE.INTER.CONST>
1

>  <SCORE.INTER.POLAR>
-2.76111

>  <SCORE.INTER.ROT>
2

>  <SCORE.INTER.SOLV>
13.0532

>  <SCORE.INTER.VDW>
-11.5909

>  <SCORE.INTER.norm>
-1.32811

>  <SCORE.INTRA>
0.852101

>  <SCORE.INTRA.DIHEDRAL>
-0.245618

>  <SCORE.INTRA.DIHEDRAL.0>
1.76676

>  <SCORE.INTRA.POLAR>
0.305011

>  <SCORE.INTRA.POLAR.0>
-0.472211

>  <SCORE.INTRA.REPUL>
0

>  <SCORE.INTRA.REPUL.0>
0

>  <SCORE.INTRA.SOLV>
-0.0819593

>  <SCORE.INTRA.SOLV.lig_0>
-22.5855

>  <SCORE.INTRA.VDW>
-0.0211494

>  <SCORE.INTRA.VDW.0>
-0.733656

>  <SCORE.INTRA.norm>
0.0655462

>  <SCORE.RESTR>
0.423624

>  <SCORE.RESTR.CAVITY>
0.423624

>  <SCORE.RESTR.norm>
0.0325864

>  <SCORE.SYSTEM>
0

>  <SCORE.SYSTEM.CONST>
0

>  <SCORE.SYSTEM.DIHEDRAL>
0

>  <SCORE.SYSTEM.SOLV>
0

>  <SCORE.SYSTEM.norm>
0

>  <SCORE.heavy>
13

>  <SCORE.norm>
-1.22997

>  <RMSD>
12.687

$$$$
lig.pdb
 OpenBabel11021811453D
libRbt.so/2013.1/901 2013/11/27
 13 14  0  0  0  0  0  0  0  0999 V2000
   -6.0734    6.1086  -18.9463 N   0  0  0  0  0  0  0  0  0  0  0  0
   -6.7657    7.1220  -19.5465 C   0  0  0  0  0  0  0  0  0  0  0  0
   -8.0204    6.9420  -19.9184 N   0  0  0  0  0  0  0  0  0  0  0  0
   -8.6734    5.7554  -19.7261 C   0  0  0  0  0  0  0  0  0  0  0  0
   -8.0013    4.6696  -19.1140 C   0  0  0  0  0  0  0  0  0  0  0  0
   -6.6461    4.8735  -18.7145 C   0  0  0  0  0  0  0  0  0  0  0  0
   -6.0100    3.9798  -18.1838 O   0  0  0  0  0  0  0  0  0  0  0  0
   -8.9601    3.5594  -19.0659 C   0  0  0  0  0  0  0  0  0  0  0  0
   -8.7337    2.1713  -18.5276 C   0  0  0  0  0  0  0  0  0  0  0  0
   -8.3210    2.2508  -17.1201 N   0  0  0  0  0  0  0  0  0  0  0  0
  -10.0927    4.0246  -19.6070 C   0  0  0  0  0  0  0  0  0  0  0  0
   -9.9319    5.3241  -20.0080 N   0  0  0  0  0  0  0  0  0  0  0  0
   -6.1533    8.3294  -19.7630 N   0  0  0  0  0  0  0  0  0  0  0  0
  1  6  1  0  0  0  0
  2  1  1  0  0  0  0
  3  4  1  0  0  0  0
  3  2  2  0  0  0  0
  4  5  2  0  0  0  0
  5  8  1  0  0  0  0
  5  6  1  0  0  0  0
  6  7  2  0  0  0  0
  8  9  1  0  0  0  0
  9 10  1  0  0  0  0
 11  8  2  0  0  0  0
 12  4  1  0  0  0  0
 12 11  1  0  0  0  0
 13  2  1  0  0  0  0
M  END
>  <CHROM.1>
57.79909612,44.64264104,-7.82816761,5.01509005,-19.06065481,-1.12031434,0.34883040
2.69977801

>  <Name>
lig.pdb

>  <RI>
1.8118e+07

>  <Rbt.Current_Directory>
/home/itssahil/PROJECTS/Mol_Feturizer/New_Systems/rnas/2miy

>  <Rbt.Executable>
rbdock ($Id: //depot/dev/client3/rdock/2013.1/src/exe/rbdock.cxx#4 $)

>  <Rbt.Library>
libRbt.so (2013.1, Build901 2013/11/27)

>  <Rbt.Parameter_File>
/export/apps/rDock/src/rDock_2013.1_src/data/scripts/dock_solv.prm

>  <Rbt.Receptor>
prm/blind_docking_100.prm

>  <SCORE>
-26.9304

>  <SCORE.INTER>
-28.4028

>  <SCORE.INTER.CONST>
1

>  <SCORE.INTER.POLAR>
-4.2576

>  <SCORE.INTER.ROT>
2

>  <SCORE.INTER.SOLV>
10.8604

>  <SCORE.INTER.VDW>
-13.2967

>  <SCORE.INTER.norm>
-2.18483

>  <SCORE.INTRA>
1.41106

>  <SCORE.INTRA.DIHEDRAL>
-0.296868

>  <SCORE.INTRA.DIHEDRAL.0>
1.76676

>  <SCORE.INTRA.POLAR>
0.472211

>  <SCORE.INTRA.POLAR.0>
-0.472211

>  <SCORE.INTRA.REPUL>
0

>  <SCORE.INTRA.REPUL.0>
0

>  <SCORE.INTRA.SOLV>
-0.141757

>  <SCORE.INTRA.SOLV.lig_0>
-22.5855

>  <SCORE.INTRA.VDW>
0.0248557

>  <SCORE.INTRA.VDW.0>
-0.733656

>  <SCORE.INTRA.norm>
0.108543

>  <SCORE.RESTR>
0.0612981

>  <SCORE.RESTR.CAVITY>
0.0612981

>  <SCORE.RESTR.norm>
0.00471523

>  <SCORE.SYSTEM>
0

>  <SCORE.SYSTEM.CONST>
0

>  <SCORE.SYSTEM.DIHEDRAL>
0

>  <SCORE.SYSTEM.SOLV>
0

>  <SCORE.SYSTEM.norm>
0

>  <SCORE.heavy>
13

>  <SCORE.norm>
-2.07157

>  <RMSD>
12.692

$$$$
lig.pdb
 OpenBabel11021811453D
libRbt.so/2013.1/901 2013/11/27
 13 14  0  0  0  0  0  0  0  0999 V2000
   -6.0346    6.1219  -18.9291 N   0  0  0  0  0  0  0  0  0  0  0  0
   -6.7145    7.1474  -19.5226 C   0  0  0  0  0  0  0  0  0  0  0  0
   -7.9701    6.9839  -19.8992 N   0  0  0  0  0  0  0  0  0  0  0  0
   -8.6360    5.8026  -19.7185 C   0  0  0  0  0  0  0  0  0  0  0  0
   -7.9771    4.7048  -19.1137 C   0  0  0  0  0  0  0  0  0  0  0  0
   -6.6209    4.8910  -18.7091 C   0  0  0  0  0  0  0  0  0  0  0  0
   -5.9956    3.9862  -18.1842 O   0  0  0  0  0  0  0  0  0  0  0  0
   -8.9476    3.6044  -19.0774 C   0  0  0  0  0  0  0  0  0  0  0  0
   -8.7374    2.2096  -18.5501 C   0  0  0  0  0  0  0  0  0  0  0  0
   -8.3438    2.2723  -17.1363 N   0  0  0  0  0  0  0  0  0  0  0  0
  -10.0738    4.0861  -19.6176 C   0  0  0  0  0  0  0  0  0  0  0  0
   -9.8983    5.3871  -20.0073 N   0  0  0  0  0  0  0  0  0  0  0  0
   -6.0888    8.3501  -19.7274 N   0  0  0  0  0  0  0  0  0  0  0  0
  1  6  1  0  0  0  0
  2  1  1  0  0  0  0
  3  4  1  0  0  0  0
  3  2  2  0  0  0  0
  4  5  2  0  0  0  0
  5  8  1  0  0  0  0
  5  6  1  0  0  0  0
  6  7  2  0  0  0  0
  8  9  1  0  0  0  0
  9 10  1  0  0  0  0
 11  8  2  0  0  0  0
 12  4  1  0  0  0  0
 12 11  1  0  0  0  0
 13  2  1  0  0  0  0
M  END
>  <CHROM.1>
58.49767473,-135.79797110,-7.80206731,5.04778032,-19.05664259,-1.10777123
0.34646334,2.70336626

>  <Name>
lig.pdb

>  <RI>
1.8118e+07

>  <Rbt.Current_Directory>
/home/itssahil/PROJECTS/Mol_Feturizer/New_Systems/rnas/2miy

>  <Rbt.Executable>
rbdock ($Id: //depot/dev/client3/rdock/2013.1/src/exe/rbdock.cxx#4 $)

>  <Rbt.Library>
libRbt.so (2013.1, Build901 2013/11/27)

>  <Rbt.Parameter_File>
/export/apps/rDock/src/rDock_2013.1_src/data/scripts/dock_solv.prm

>  <Rbt.Receptor>
prm/blind_docking_100.prm

>  <SCORE>
-27.0964

>  <SCORE.INTER>
-28.4816

>  <SCORE.INTER.CONST>
1

>  <SCORE.INTER.POLAR>
-4.25788

>  <SCORE.INTER.ROT>
2

>  <SCORE.INTER.SOLV>
10.9885

>  <SCORE.INTER.VDW>
-13.391

>  <SCORE.INTER.norm>
-2.19089

>  <SCORE.INTRA>
1.3848

>  <SCORE.INTRA.DIHEDRAL>
-0.344272

>  <SCORE.INTRA.DIHEDRAL.0>
1.76676

>  <SCORE.INTRA.POLAR>
0.472211

>  <SCORE.INTRA.POLAR.0>
-0.472211

>  <SCORE.INTRA.REPUL>
0

>  <SCORE.INTRA.REPUL.0>
0

>  <SCORE.INTRA.SOLV>
-0.152345

>  <SCORE.INTRA.SOLV.lig_0>
-22.5855

>  <SCORE.INTRA.VDW>
0.0275919

>  <SCORE.INTRA.VDW.0>
-0.733656

>  <SCORE.INTRA.norm>
0.106523

>  <SCORE.RESTR>
0.000323826

>  <SCORE.RESTR.CAVITY>
0.000323826

>  <SCORE.RESTR.norm>
2.49097e-05

>  <SCORE.SYSTEM>
0

>  <SCORE.SYSTEM.CONST>
0

>  <SCORE.SYSTEM.DIHEDRAL>
0

>  <SCORE.SYSTEM.SOLV>
0

>  <SCORE.SYSTEM.norm>
0

>  <SCORE.heavy>
13

>  <SCORE.norm>
-2.08434

>  <RMSD>
12.697

$$$$
lig.pdb
 OpenBabel11021811453D
libRbt.so/2013.1/901 2013/11/27
 13 14  0  0  0  0  0  0  0  0999 V2000
   -6.0284    6.1177  -18.9300 N   0  0  0  0  0  0  0  0  0  0  0  0
   -6.7100    7.1419  -19.5242 C   0  0  0  0  0  0  0  0  0  0  0  0
   -7.9653    6.9761  -19.9005 N   0  0  0  0  0  0  0  0  0  0  0  0
   -8.6295    5.7940  -19.7189 C   0  0  0  0  0  0  0  0  0  0  0  0
   -7.9689    4.6976  -19.1134 C   0  0  0  0  0  0  0  0  0  0  0  0
   -6.6129    4.8861  -18.7090 C   0  0  0  0  0  0  0  0  0  0  0  0
   -5.9862    3.9827  -18.1836 O   0  0  0  0  0  0  0  0  0  0  0  0
   -8.9377    3.5958  -19.0761 C   0  0  0  0  0  0  0  0  0  0  0  0
   -8.7253    2.2017  -18.5479 C   0  0  0  0  0  0  0  0  0  0  0  0
   -8.3496    2.2651  -17.1293 N   0  0  0  0  0  0  0  0  0  0  0  0
  -10.0647    4.0753  -19.6165 C   0  0  0  0  0  0  0  0  0  0  0  0
   -9.8912    5.3764  -20.0072 N   0  0  0  0  0  0  0  0  0  0  0  0
   -6.0861    8.3453  -19.7299 N   0  0  0  0  0  0  0  0  0  0  0  0
  1  6  1  0  0  0  0
  2  1  1  0  0  0  0
  3  4  1  0  0  0  0
  3  2  2  0  0  0  0
  4  5  2  0  0  0  0
  5  8  1  0  0  0  0
  5  6  1  0  0  0  0
  6  7  2  0  0  0  0
  8  9  1  0  0  0  0
  9 10  1  0  0  0  0
 11  8  2  0  0  0  0
 12  4  1  0  0  0  0
 12 11  1  0  0  0  0
 13  2  1  0  0  0  0
M  END
>  <CHROM.1>
59.26703716,44.46581468,-7.79588606,5.04093521,-19.05613098,-1.10787640,0.34677431
2.70230144

>  <Name>
lig.pdb

>  <RI>
1.8118e+07

>  <Rbt.Current_Directory>
/home/itssahil/PROJECTS/Mol_Feturizer/New_Systems/rnas/2miy

>  <Rbt.Executable>
rbdock ($Id: //depot/dev/client3/rdock/2013.1/src/exe/rbdock.cxx#4 $)

>  <Rbt.Library>
libRbt.so (2013.1, Build901 2013/11/27)

>  <Rbt.Parameter_File>
/export/apps/rDock/src/rDock_2013.1_src/data/scripts/dock_solv.prm

>  <Rbt.Receptor>
prm/blind_docking_100.prm

>  <SCORE>
-26.9756

>  <SCORE.INTER>
-28.3826

>  <SCORE.INTER.CONST>
1

>  <SCORE.INTER.POLAR>
-4.24436

>  <SCORE.INTER.ROT>
2

>  <SCORE.INTER.SOLV>
11.0061

>  <SCORE.INTER.VDW>
-13.3759

>  <SCORE.INTER.norm>
-2.18328

>  <SCORE.INTRA>
1.40264

>  <SCORE.INTRA.DIHEDRAL>
-0.303954

>  <SCORE.INTRA.DIHEDRAL.0>
1.76676

>  <SCORE.INTRA.POLAR>
0.472211

>  <SCORE.INTRA.POLAR.0>
-0.472211

>  <SCORE.INTRA.REPUL>
0

>  <SCORE.INTRA.REPUL.0>
0

>  <SCORE.INTRA.SOLV>
-0.158652

>  <SCORE.INTRA.SOLV.lig_0>
-22.5855

>  <SCORE.INTRA.VDW>
0.0284233

>  <SCORE.INTRA.VDW.0>
-0.733656

>  <SCORE.INTRA.norm>
0.107895

>  <SCORE.RESTR>
0.00437857

>  <SCORE.RESTR.CAVITY>
0.00437857

>  <SCORE.RESTR.norm>
0.000336813

>  <SCORE.SYSTEM>
0

>  <SCORE.SYSTEM.CONST>
0

>  <SCORE.SYSTEM.DIHEDRAL>
0

>  <SCORE.SYSTEM.SOLV>
0

>  <SCORE.SYSTEM.norm>
0

>  <SCORE.heavy>
13

>  <SCORE.norm>
-2.07505

>  <RMSD>
12.697

$$$$
lig.pdb
 OpenBabel11021811453D
libRbt.so/2013.1/901 2013/11/27
 13 14  0  0  0  0  0  0  0  0999 V2000
   -6.0298    6.1162  -18.9386 N   0  0  0  0  0  0  0  0  0  0  0  0
   -6.7132    7.1416  -19.5285 C   0  0  0  0  0  0  0  0  0  0  0  0
   -7.9698    6.9768  -19.9010 N   0  0  0  0  0  0  0  0  0  0  0  0
   -8.6335    5.7944  -19.7195 C   0  0  0  0  0  0  0  0  0  0  0  0
   -7.9711    4.6967  -19.1183 C   0  0  0  0  0  0  0  0  0  0  0  0
   -6.6138    4.8842  -18.7181 C   0  0  0  0  0  0  0  0  0  0  0  0
   -5.9855    3.9796  -18.1965 O   0  0  0  0  0  0  0  0  0  0  0  0
   -8.9400    3.5950  -19.0801 C   0  0  0  0  0  0  0  0  0  0  0  0
   -8.7261    2.1998  -18.5553 C   0  0  0  0  0  0  0  0  0  0  0  0
   -8.3371    2.2608  -17.1401 N   0  0  0  0  0  0  0  0  0  0  0  0
  -10.0687    4.0758  -19.6158 C   0  0  0  0  0  0  0  0  0  0  0  0
   -9.8962    5.3776  -20.0045 N   0  0  0  0  0  0  0  0  0  0  0  0
   -6.0897    8.3453  -19.7339 N   0  0  0  0  0  0  0  0  0  0  0  0
  1  6  1  0  0  0  0
  2  1  1  0  0  0  0
  3  4  1  0  0  0  0
  3  2  2  0  0  0  0
  4  5  2  0  0  0  0
  5  8  1  0  0  0  0
  5  6  1  0  0  0  0
  6  7  2  0  0  0  0
  8  9  1  0  0  0  0
  9 10  1  0  0  0  0
 11  8  2  0  0  0  0
 12  4  1  0  0  0  0
 12 11  1  0  0  0  0
 13  2  1  0  0  0  0
M  END
>  <CHROM.1>
58.89766287,-136.41448044,-7.79718062,5.03982396,-19.06116404,-1.10991427
0.34381417,2.70511596

>  <Name>
lig.pdb

>  <RI>
1.17462e+07

>  <Rbt.Current_Directory>
/home/itssahil/PROJECTS/Mol_Feturizer/New_Systems/rnas/2miy

>  <Rbt.Executable>
rbdock ($Id: //depot/dev/client3/rdock/2013.1/src/exe/rbdock.cxx#4 $)

>  <Rbt.Library>
libRbt.so (2013.1, Build901 2013/11/27)

>  <Rbt.Parameter_File>
/export/apps/rDock/src/rDock_2013.1_src/data/scripts/dock_solv.prm

>  <Rbt.Receptor>
prm/blind_docking_40.prm

>  <SCORE>
-27.0743

>  <SCORE.INTER>
-28.4588

>  <SCORE.INTER.CONST>
1

>  <SCORE.INTER.POLAR>
-4.24283

>  <SCORE.INTER.ROT>
2

>  <SCORE.INTER.SOLV>
10.9913

>  <SCORE.INTER.VDW>
-13.4269

>  <SCORE.INTER.norm>
-2.18914

>  <SCORE.INTRA>
1.38295

>  <SCORE.INTRA.DIHEDRAL>
-0.346729

>  <SCORE.INTRA.DIHEDRAL.0>
1.76676

>  <SCORE.INTRA.POLAR>
0.472211

>  <SCORE.INTRA.POLAR.0>
-0.472211

>  <SCORE.INTRA.REPUL>
0

>  <SCORE.INTRA.REPUL.0>
0

>  <SCORE.INTRA.SOLV>
-0.15697

>  <SCORE.INTRA.SOLV.lig_0>
-22.5855

>  <SCORE.INTRA.VDW>
0.0292772

>  <SCORE.INTRA.VDW.0>
-0.733656

>  <SCORE.INTRA.norm>
0.10638

>  <SCORE.RESTR>
0.00160135

>  <SCORE.RESTR.CAVITY>
0.00160135

>  <SCORE.RESTR.norm>
0.000123181

>  <SCORE.SYSTEM>
0

>  <SCORE.SYSTEM.CONST>
0

>  <SCORE.SYSTEM.DIHEDRAL>
0

>  <SCORE.SYSTEM.SOLV>
0

>  <SCORE.SYSTEM.norm>
0

>  <SCORE.heavy>
13

>  <SCORE.norm>
-2.08264

>  <RMSD>
12.701

$$$$
lig.pdb
 OpenBabel11021811453D
libRbt.so/2013.1/901 2013/11/27
 13 14  0  0  0  0  0  0  0  0999 V2000
   -6.4649    5.6742  -20.5516 N   0  0  0  0  0  0  0  0  0  0  0  0
   -6.4160    6.5986  -19.5469 C   0  0  0  0  0  0  0  0  0  0  0  0
   -6.8401    6.2879  -18.3351 N   0  0  0  0  0  0  0  0  0  0  0  0
   -7.3407    5.0507  -18.0343 C   0  0  0  0  0  0  0  0  0  0  0  0
   -7.4197    4.0564  -19.0394 C   0  0  0  0  0  0  0  0  0  0  0  0
   -6.9582    4.4008  -20.3456 C   0  0  0  0  0  0  0  0  0  0  0  0
   -6.9998    3.5922  -21.2564 O   0  0  0  0  0  0  0  0  0  0  0  0
   -8.0021    2.8678  -18.4053 C   0  0  0  0  0  0  0  0  0  0  0  0
   -8.3145    1.5422  -19.0480 C   0  0  0  0  0  0  0  0  0  0  0  0
   -8.6119    0.5490  -18.0075 N   0  0  0  0  0  0  0  0  0  0  0  0
   -8.2109    3.1963  -17.1244 C   0  0  0  0  0  0  0  0  0  0  0  0
   -7.8282    4.4910  -16.8948 N   0  0  0  0  0  0  0  0  0  0  0  0
   -5.9246    7.8533  -19.8002 N   0  0  0  0  0  0  0  0  0  0  0  0
  1  6  1  0  0  0  0
  2  1  1  0  0  0  0
  3  4  1  0  0  0  0
  3  2  2  0  0  0  0
  4  5  2  0  0  0  0
  5  8  1  0  0  0  0
  5  6  1  0  0  0  0
  6  7  2  0  0  0  0
  8  9  1  0  0  0  0
  9 10  1  0  0  0  0
 11  8  2  0  0  0  0
 12  4  1  0  0  0  0
 12 11  1  0  0  0  0
 13  2  1  0  0  0  0
M  END
>  <CHROM.1>
167.89020930,-28.80441882,-7.32481334,4.31345235,-18.97539507,-0.33694844
-1.18121421,-2.23581362

>  <Name>
lig.pdb

>  <RI>
1.8118e+07

>  <Rbt.Current_Directory>
/home/itssahil/PROJECTS/Mol_Feturizer/New_Systems/rnas/2miy

>  <Rbt.Executable>
rbdock ($Id: //depot/dev/client3/rdock/2013.1/src/exe/rbdock.cxx#4 $)

>  <Rbt.Library>
libRbt.so (2013.1, Build901 2013/11/27)

>  <Rbt.Parameter_File>
/export/apps/rDock/src/rDock_2013.1_src/data/scripts/dock_solv.prm

>  <Rbt.Receptor>
prm/blind_docking_100.prm

>  <SCORE>
-25.9539

>  <SCORE.INTER>
-28.2413

>  <SCORE.INTER.CONST>
1

>  <SCORE.INTER.POLAR>
-4.04086

>  <SCORE.INTER.ROT>
2

>  <SCORE.INTER.SOLV>
13.7985

>  <SCORE.INTER.VDW>
-14.8908

>  <SCORE.INTER.norm>
-2.17241

>  <SCORE.INTRA>
2.06638

>  <SCORE.INTRA.DIHEDRAL>
-0.136937

>  <SCORE.INTRA.DIHEDRAL.0>
1.76676

>  <SCORE.INTRA.POLAR>
0.472211

>  <SCORE.INTRA.POLAR.0>
-0.472211

>  <SCORE.INTRA.REPUL>
0

>  <SCORE.INTRA.REPUL.0>
0

>  <SCORE.INTRA.SOLV>
-0.577765

>  <SCORE.INTRA.SOLV.lig_0>
-22.5855

>  <SCORE.INTRA.VDW>
0.818212

>  <SCORE.INTRA.VDW.0>
-0.733656

>  <SCORE.INTRA.norm>
0.158952

>  <SCORE.RESTR>
0.220993

>  <SCORE.RESTR.CAVITY>
0.220993

>  <SCORE.RESTR.norm>
0.0169994

>  <SCORE.SYSTEM>
0

>  <SCORE.SYSTEM.CONST>
0

>  <SCORE.SYSTEM.DIHEDRAL>
0

>  <SCORE.SYSTEM.SOLV>
0

>  <SCORE.SYSTEM.norm>
0

>  <SCORE.heavy>
13

>  <SCORE.norm>
-1.99646

>  <RMSD>
12.718

$$$$
lig.pdb
 OpenBabel11021811453D
libRbt.so/2013.1/901 2013/11/27
 13 14  0  0  0  0  0  0  0  0999 V2000
   -6.5985    5.7269  -20.6025 N   0  0  0  0  0  0  0  0  0  0  0  0
   -6.4728    6.6366  -19.5911 C   0  0  0  0  0  0  0  0  0  0  0  0
   -6.8191    6.3133  -18.3581 N   0  0  0  0  0  0  0  0  0  0  0  0
   -7.3125    5.0774  -18.0411 C   0  0  0  0  0  0  0  0  0  0  0  0
   -7.4691    4.0980  -19.0518 C   0  0  0  0  0  0  0  0  0  0  0  0
   -7.0914    4.4559  -20.3811 C   0  0  0  0  0  0  0  0  0  0  0  0
   -7.2024    3.6606  -21.2977 O   0  0  0  0  0  0  0  0  0  0  0  0
   -8.0215    2.9067  -18.3962 C   0  0  0  0  0  0  0  0  0  0  0  0
   -8.3906    1.5936  -19.0343 C   0  0  0  0  0  0  0  0  0  0  0  0
   -8.6297    0.5891  -17.9896 N   0  0  0  0  0  0  0  0  0  0  0  0
   -8.1412    3.2194  -17.1001 C   0  0  0  0  0  0  0  0  0  0  0  0
   -7.7296    4.5068  -16.8792 N   0  0  0  0  0  0  0  0  0  0  0  0
   -5.9853    7.8896  -19.8599 N   0  0  0  0  0  0  0  0  0  0  0  0
  1  6  1  0  0  0  0
  2  1  1  0  0  0  0
  3  4  1  0  0  0  0
  3  2  2  0  0  0  0
  4  5  2  0  0  0  0
  5  8  1  0  0  0  0
  5  6  1  0  0  0  0
  6  7  2  0  0  0  0
  8  9  1  0  0  0  0
  9 10  1  0  0  0  0
 11  8  2  0  0  0  0
 12  4  1  0  0  0  0
 12 11  1  0  0  0  0
 13  2  1  0  0  0  0
M  END
>  <CHROM.1>
167.89811923,155.24373920,-7.36743650,4.35326684,-18.99079488,-0.16950657
-1.20860304,-2.06646155

>  <Name>
lig.pdb

>  <RI>
0

>  <Rbt.Current_Directory>
/home/itssahil/PROJECTS/Mol_Feturizer/New_Systems/rnas/2miy

>  <Rbt.Executable>
rbdock ($Id: //depot/dev/client3/rdock/2013.1/src/exe/rbdock.cxx#4 $)

>  <Rbt.Library>
libRbt.so (2013.1, Build901 2013/11/27)

>  <Rbt.Parameter_File>
/export/apps/rDock/src/rDock_2013.1_src/data/scripts/dock_solv.prm

>  <Rbt.Receptor>
prm/blind_docking_60.prm

>  <SCORE>
-26.5504

>  <SCORE.INTER>
-28.7166

>  <SCORE.INTER.CONST>
1

>  <SCORE.INTER.POLAR>
-4.02148

>  <SCORE.INTER.ROT>
2

>  <SCORE.INTER.SOLV>
13.3529

>  <SCORE.INTER.VDW>
-15.1238

>  <SCORE.INTER.norm>
-2.20897

>  <SCORE.INTRA>
2.16621

>  <SCORE.INTRA.DIHEDRAL>
-0.0779832

>  <SCORE.INTRA.DIHEDRAL.0>
1.76676

>  <SCORE.INTRA.POLAR>
0.472211

>  <SCORE.INTRA.POLAR.0>
-0.472211

>  <SCORE.INTRA.REPUL>
0

>  <SCORE.INTRA.REPUL.0>
0

>  <SCORE.INTRA.SOLV>
-0.575757

>  <SCORE.INTRA.SOLV.lig_0>
-22.5855

>  <SCORE.INTRA.VDW>
0.887559

>  <SCORE.INTRA.VDW.0>
-0.733656

>  <SCORE.INTRA.norm>
0.166631

>  <SCORE.RESTR>
0

>  <SCORE.RESTR.CAVITY>
0

>  <SCORE.RESTR.norm>
0

>  <SCORE.SYSTEM>
0

>  <SCORE.SYSTEM.CONST>
0

>  <SCORE.SYSTEM.DIHEDRAL>
0

>  <SCORE.SYSTEM.SOLV>
0

>  <SCORE.SYSTEM.norm>
0

>  <SCORE.heavy>
13

>  <SCORE.norm>
-2.04234

>  <RMSD>
12.721

$$$$
lig.pdb
 OpenBabel11021811453D
libRbt.so/2013.1/901 2013/11/27
 13 14  0  0  0  0  0  0  0  0999 V2000
   -0.1642    8.8461  -10.7177 N   0  0  0  0  0  0  0  0  0  0  0  0
    0.0513    7.4983  -10.7755 C   0  0  0  0  0  0  0  0  0  0  0  0
    0.7387    6.9763  -11.7755 N   0  0  0  0  0  0  0  0  0  0  0  0
    1.2559    7.7446  -12.7823 C   0  0  0  0  0  0  0  0  0  0  0  0
    1.0573    9.1467  -12.7752 C   0  0  0  0  0  0  0  0  0  0  0  0
    0.3142    9.7020  -11.6903 C   0  0  0  0  0  0  0  0  0  0  0  0
    0.1058   10.9009  -11.6246 O   0  0  0  0  0  0  0  0  0  0  0  0
    1.7172    9.6675  -13.9783 C   0  0  0  0  0  0  0  0  0  0  0  0
    1.7807   11.0973  -14.4465 C   0  0  0  0  0  0  0  0  0  0  0  0
    1.6202   11.1445  -15.9059 N   0  0  0  0  0  0  0  0  0  0  0  0
    2.2567    8.6076  -14.5928 C   0  0  0  0  0  0  0  0  0  0  0  0
    1.9837    7.4610  -13.8956 N   0  0  0  0  0  0  0  0  0  0  0  0
   -0.4494    6.6864   -9.7906 N   0  0  0  0  0  0  0  0  0  0  0  0
  1  6  1  0  0  0  0
  2  1  1  0  0  0  0
  3  4  1  0  0  0  0
  3  2  2  0  0  0  0
  4  5  2  0  0  0  0
  5  8  1  0  0  0  0
  5  6  1  0  0  0  0
  6  7  2  0  0  0  0
  8  9  1  0  0  0  0
  9 10  1  0  0  0  0
 11  8  2  0  0  0  0
 12  4  1  0  0  0  0
 12 11  1  0  0  0  0
 13  2  1  0  0  0  0
M  END
>  <CHROM.1>
-140.06881640,35.74592350,0.91867472,8.90095664,-12.66516679,2.28737758,-1.04464277
2.80125081

>  <Name>
lig.pdb

>  <RI>
2.95488e+07

>  <Rbt.Current_Directory>
/home/itssahil/PROJECTS/Mol_Feturizer/New_Systems/rnas/2miy

>  <Rbt.Executable>
rbdock ($Id: //depot/dev/client3/rdock/2013.1/src/exe/rbdock.cxx#4 $)

>  <Rbt.Library>
libRbt.so (2013.1, Build901 2013/11/27)

>  <Rbt.Parameter_File>
/export/apps/rDock/src/rDock_2013.1_src/data/scripts/dock_solv.prm

>  <Rbt.Receptor>
prm/blind_docking_20.prm

>  <SCORE>
-14.412

>  <SCORE.INTER>
-19.8539

>  <SCORE.INTER.CONST>
1

>  <SCORE.INTER.POLAR>
-2.6587

>  <SCORE.INTER.ROT>
2

>  <SCORE.INTER.SOLV>
13.2905

>  <SCORE.INTER.VDW>
-13.7371

>  <SCORE.INTER.norm>
-1.52723

>  <SCORE.INTRA>
2.40438

>  <SCORE.INTRA.DIHEDRAL>
1.33946

>  <SCORE.INTRA.DIHEDRAL.0>
1.76676

>  <SCORE.INTRA.POLAR>
0.472211

>  <SCORE.INTRA.POLAR.0>
-0.472211

>  <SCORE.INTRA.REPUL>
0

>  <SCORE.INTRA.REPUL.0>
0

>  <SCORE.INTRA.SOLV>
-0.60609

>  <SCORE.INTRA.SOLV.lig_0>
-22.5855

>  <SCORE.INTRA.VDW>
0.432174

>  <SCORE.INTRA.VDW.0>
-0.733656

>  <SCORE.INTRA.norm>
0.184952

>  <SCORE.RESTR>
3.03751

>  <SCORE.RESTR.CAVITY>
3.03751

>  <SCORE.RESTR.norm>
0.233655

>  <SCORE.SYSTEM>
0

>  <SCORE.SYSTEM.CONST>
0

>  <SCORE.SYSTEM.DIHEDRAL>
0

>  <SCORE.SYSTEM.SOLV>
0

>  <SCORE.SYSTEM.norm>
0

>  <SCORE.heavy>
13

>  <SCORE.norm>
-1.10862

>  <RMSD>
12.734

$$$$
lig.pdb
 OpenBabel11021811453D
libRbt.so/2013.1/901 2013/11/27
 13 14  0  0  0  0  0  0  0  0999 V2000
   -6.2833    6.1541  -18.4876 N   0  0  0  0  0  0  0  0  0  0  0  0
   -6.5341    5.1191  -17.6320 C   0  0  0  0  0  0  0  0  0  0  0  0
   -7.7355    4.5721  -17.5829 N   0  0  0  0  0  0  0  0  0  0  0  0
   -8.7663    5.0083  -18.3693 C   0  0  0  0  0  0  0  0  0  0  0  0
   -8.5633    6.0820  -19.2700 C   0  0  0  0  0  0  0  0  0  0  0  0
   -7.2617    6.6663  -19.3169 C   0  0  0  0  0  0  0  0  0  0  0  0
   -7.0202    7.5945  -20.0686 O   0  0  0  0  0  0  0  0  0  0  0  0
   -9.8466    6.3083  -19.9452 C   0  0  0  0  0  0  0  0  0  0  0  0
  -10.1688    7.3514  -20.9825 C   0  0  0  0  0  0  0  0  0  0  0  0
  -10.0790    8.6882  -20.3803 N   0  0  0  0  0  0  0  0  0  0  0  0
  -10.6920    5.3966  -19.4489 C   0  0  0  0  0  0  0  0  0  0  0  0
  -10.0635    4.6244  -18.5086 N   0  0  0  0  0  0  0  0  0  0  0  0
   -5.5331    4.6484  -16.8217 N   0  0  0  0  0  0  0  0  0  0  0  0
  1  6  1  0  0  0  0
  2  1  1  0  0  0  0
  3  4  1  0  0  0  0
  3  2  2  0  0  0  0
  4  5  2  0  0  0  0
  5  8  1  0  0  0  0
  5  6  1  0  0  0  0
  6  7  2  0  0  0  0
  8  9  1  0  0  0  0
  9 10  1  0  0  0  0
 11  8  2  0  0  0  0
 12  4  1  0  0  0  0
 12 11  1  0  0  0  0
 13  2  1  0  0  0  0
M  END
>  <CHROM.1>
-65.76584586,-51.78258486,-8.30988395,6.05657569,-18.97753359,-0.73349298
-0.25631236,-0.61370221

>  <Name>
lig.pdb

>  <RI>
1.8118e+07

>  <Rbt.Current_Directory>
/home/itssahil/PROJECTS/Mol_Feturizer/New_Systems/rnas/2miy

>  <Rbt.Executable>
rbdock ($Id: //depot/dev/client3/rdock/2013.1/src/exe/rbdock.cxx#4 $)

>  <Rbt.Library>
libRbt.so (2013.1, Build901 2013/11/27)

>  <Rbt.Parameter_File>
/export/apps/rDock/src/rDock_2013.1_src/data/scripts/dock_solv.prm

>  <Rbt.Receptor>
prm/blind_docking_100.prm

>  <SCORE>
-28.2136

>  <SCORE.INTER>
-29.912

>  <SCORE.INTER.CONST>
1

>  <SCORE.INTER.POLAR>
-4.36731

>  <SCORE.INTER.ROT>
2

>  <SCORE.INTER.SOLV>
12.3172

>  <SCORE.INTER.VDW>
-14.4227

>  <SCORE.INTER.norm>
-2.30092

>  <SCORE.INTRA>
1.39364

>  <SCORE.INTRA.DIHEDRAL>
-0.287187

>  <SCORE.INTRA.DIHEDRAL.0>
1.76676

>  <SCORE.INTRA.POLAR>
0.472211

>  <SCORE.INTRA.POLAR.0>
-0.472211

>  <SCORE.INTRA.REPUL>
0

>  <SCORE.INTRA.REPUL.0>
0

>  <SCORE.INTRA.SOLV>
-0.243452

>  <SCORE.INTRA.SOLV.lig_0>
-22.5855

>  <SCORE.INTRA.VDW>
0.0534373

>  <SCORE.INTRA.VDW.0>
-0.733656

>  <SCORE.INTRA.norm>
0.107203

>  <SCORE.RESTR>
0.304726

>  <SCORE.RESTR.CAVITY>
0.304726

>  <SCORE.RESTR.norm>
0.0234404

>  <SCORE.SYSTEM>
0

>  <SCORE.SYSTEM.CONST>
0

>  <SCORE.SYSTEM.DIHEDRAL>
0

>  <SCORE.SYSTEM.SOLV>
0

>  <SCORE.SYSTEM.norm>
0

>  <SCORE.heavy>
13

>  <SCORE.norm>
-2.17028

>  <RMSD>
12.741

$$$$
lig.pdb
 OpenBabel11021811453D
libRbt.so/2013.1/901 2013/11/27
 13 14  0  0  0  0  0  0  0  0999 V2000
   -6.1582    6.1625  -18.9162 N   0  0  0  0  0  0  0  0  0  0  0  0
   -6.9008    6.9927  -19.7072 C   0  0  0  0  0  0  0  0  0  0  0  0
   -8.1009    6.6236  -20.1177 N   0  0  0  0  0  0  0  0  0  0  0  0
   -8.6462    5.4156  -19.7789 C   0  0  0  0  0  0  0  0  0  0  0  0
   -7.9174    4.5138  -18.9659 C   0  0  0  0  0  0  0  0  0  0  0  0
   -6.6220    4.9215  -18.5263 C   0  0  0  0  0  0  0  0  0  0  0  0
   -5.9417    4.1924  -17.8258 O   0  0  0  0  0  0  0  0  0  0  0  0
   -8.7631    3.3260  -18.7989 C   0  0  0  0  0  0  0  0  0  0  0  0
   -8.4414    2.0677  -18.0368 C   0  0  0  0  0  0  0  0  0  0  0  0
   -7.9122    1.0551  -18.9600 N   0  0  0  0  0  0  0  0  0  0  0  0
   -9.8931    3.5786  -19.4708 C   0  0  0  0  0  0  0  0  0  0  0  0
   -9.8320    4.8127  -20.0614 N   0  0  0  0  0  0  0  0  0  0  0  0
   -6.3959    8.2131  -20.0754 N   0  0  0  0  0  0  0  0  0  0  0  0
  1  6  1  0  0  0  0
  2  1  1  0  0  0  0
  3  4  1  0  0  0  0
  3  2  2  0  0  0  0
  4  5  2  0  0  0  0
  5  8  1  0  0  0  0
  5  6  1  0  0  0  0
  6  7  2  0  0  0  0
  8  9  1  0  0  0  0
  9 10  1  0  0  0  0
 11  8  2  0  0  0  0
 12  4  1  0  0  0  0
 12 11  1  0  0  0  0
 13  2  1  0  0  0  0
M  END
>  <CHROM.1>
-95.71009924,91.34106405,-7.76201558,4.75445250,-19.17443875,-1.21045069
0.39804764,2.80804313

>  <Name>
lig.pdb

>  <RI>
0

>  <Rbt.Current_Directory>
/home/itssahil/PROJECTS/Mol_Feturizer/New_Systems/rnas/2miy

>  <Rbt.Executable>
rbdock ($Id: //depot/dev/client3/rdock/2013.1/src/exe/rbdock.cxx#4 $)

>  <Rbt.Library>
libRbt.so (2013.1, Build901 2013/11/27)

>  <Rbt.Parameter_File>
/export/apps/rDock/src/rDock_2013.1_src/data/scripts/dock_solv.prm

>  <Rbt.Receptor>
prm/blind_docking_60.prm

>  <SCORE>
-22.0754

>  <SCORE.INTER>
-24.2675

>  <SCORE.INTER.CONST>
1

>  <SCORE.INTER.POLAR>
-3.17946

>  <SCORE.INTER.ROT>
2

>  <SCORE.INTER.SOLV>
10.3516

>  <SCORE.INTER.VDW>
-13.964

>  <SCORE.INTER.norm>
-1.86673

>  <SCORE.INTRA>
2.03707

>  <SCORE.INTRA.DIHEDRAL>
1.07697

>  <SCORE.INTRA.DIHEDRAL.0>
1.76676

>  <SCORE.INTRA.POLAR>
0.472211

>  <SCORE.INTRA.POLAR.0>
-0.472211

>  <SCORE.INTRA.REPUL>
0

>  <SCORE.INTRA.REPUL.0>
0

>  <SCORE.INTRA.SOLV>
-0.502708

>  <SCORE.INTRA.SOLV.lig_0>
-22.5855

>  <SCORE.INTRA.VDW>
0.14442

>  <SCORE.INTRA.VDW.0>
-0.733656

>  <SCORE.INTRA.norm>
0.156698

>  <SCORE.RESTR>
0.154963

>  <SCORE.RESTR.CAVITY>
0.154963

>  <SCORE.RESTR.norm>
0.0119203

>  <SCORE.SYSTEM>
0

>  <SCORE.SYSTEM.CONST>
0

>  <SCORE.SYSTEM.DIHEDRAL>
0

>  <SCORE.SYSTEM.SOLV>
0

>  <SCORE.SYSTEM.norm>
0

>  <SCORE.heavy>
13

>  <SCORE.norm>
-1.69811

>  <RMSD>
12.755

$$$$
lig.pdb
 OpenBabel11021811453D
libRbt.so/2013.1/901 2013/11/27
 13 14  0  0  0  0  0  0  0  0999 V2000
   -6.1823    6.1550  -18.9310 N   0  0  0  0  0  0  0  0  0  0  0  0
   -6.9413    6.9499  -19.7425 C   0  0  0  0  0  0  0  0  0  0  0  0
   -8.1226    6.5357  -20.1641 N   0  0  0  0  0  0  0  0  0  0  0  0
   -8.6319    5.3144  -19.8171 C   0  0  0  0  0  0  0  0  0  0  0  0
   -7.8847    4.4477  -18.9829 C   0  0  0  0  0  0  0  0  0  0  0  0
   -6.6098    4.9040  -18.5313 C   0  0  0  0  0  0  0  0  0  0  0  0
   -5.9153    4.2069  -17.8126 O   0  0  0  0  0  0  0  0  0  0  0  0
   -8.6925    3.2344  -18.8119 C   0  0  0  0  0  0  0  0  0  0  0  0
   -8.3396    1.9971  -18.0295 C   0  0  0  0  0  0  0  0  0  0  0  0
   -7.9336    0.9299  -18.9535 N   0  0  0  0  0  0  0  0  0  0  0  0
   -9.8210    3.4406  -19.5020 C   0  0  0  0  0  0  0  0  0  0  0  0
   -9.7930    4.6686  -20.1076 N   0  0  0  0  0  0  0  0  0  0  0  0
   -6.4724    8.1819  -20.1196 N   0  0  0  0  0  0  0  0  0  0  0  0
  1  6  1  0  0  0  0
  2  1  1  0  0  0  0
  3  4  1  0  0  0  0
  3  2  2  0  0  0  0
  4  5  2  0  0  0  0
  5  8  1  0  0  0  0
  5  6  1  0  0  0  0
  6  7  2  0  0  0  0
  8  9  1  0  0  0  0
  9 10  1  0  0  0  0
 11  8  2  0  0  0  0
 12  4  1  0  0  0  0
 12 11  1  0  0  0  0
 13  2  1  0  0  0  0
M  END
>  <CHROM.1>
-103.22596646,-124.51378198,-7.75031221,4.68499438,-19.19429123,-1.22488720
0.43026731,2.80267060

>  <Name>
lig.pdb

>  <RI>
0

>  <Rbt.Current_Directory>
/home/itssahil/PROJECTS/Mol_Feturizer/New_Systems/rnas/2miy

>  <Rbt.Executable>
rbdock ($Id: //depot/dev/client3/rdock/2013.1/src/exe/rbdock.cxx#4 $)

>  <Rbt.Library>
libRbt.so (2013.1, Build901 2013/11/27)

>  <Rbt.Parameter_File>
/export/apps/rDock/src/rDock_2013.1_src/data/scripts/dock_solv.prm

>  <Rbt.Receptor>
prm/blind_docking_60.prm

>  <SCORE>
-21.7151

>  <SCORE.INTER>
-24.0912

>  <SCORE.INTER.CONST>
1

>  <SCORE.INTER.POLAR>
-3.2192

>  <SCORE.INTER.ROT>
2

>  <SCORE.INTER.SOLV>
10.4428

>  <SCORE.INTER.VDW>
-13.7444

>  <SCORE.INTER.norm>
-1.85317

>  <SCORE.INTRA>
2.25952

>  <SCORE.INTRA.DIHEDRAL>
1.47717

>  <SCORE.INTRA.DIHEDRAL.0>
1.76676

>  <SCORE.INTRA.POLAR>
0.472211

>  <SCORE.INTRA.POLAR.0>
-0.472211

>  <SCORE.INTRA.REPUL>
0

>  <SCORE.INTRA.REPUL.0>
0

>  <SCORE.INTRA.SOLV>
-0.562295

>  <SCORE.INTRA.SOLV.lig_0>
-22.5855

>  <SCORE.INTRA.VDW>
0.196558

>  <SCORE.INTRA.VDW.0>
-0.733656

>  <SCORE.INTRA.norm>
0.173809

>  <SCORE.RESTR>
0.116518

>  <SCORE.RESTR.CAVITY>
0.116518

>  <SCORE.RESTR.norm>
0.00896295

>  <SCORE.SYSTEM>
0

>  <SCORE.SYSTEM.CONST>
0

>  <SCORE.SYSTEM.DIHEDRAL>
0

>  <SCORE.SYSTEM.SOLV>
0

>  <SCORE.SYSTEM.norm>
0

>  <SCORE.heavy>
13

>  <SCORE.norm>
-1.67039

>  <RMSD>
12.767

$$$$
lig.pdb
 OpenBabel11021811453D
libRbt.so/2013.1/901 2013/11/27
 13 14  0  0  0  0  0  0  0  0999 V2000
   -6.2985    6.0625  -19.0748 N   0  0  0  0  0  0  0  0  0  0  0  0
   -7.0769    6.9123  -19.8086 C   0  0  0  0  0  0  0  0  0  0  0  0
   -8.2535    6.5155  -20.2593 N   0  0  0  0  0  0  0  0  0  0  0  0
   -8.7387    5.2592  -20.0194 C   0  0  0  0  0  0  0  0  0  0  0  0
   -7.9707    4.3358  -19.2693 C   0  0  0  0  0  0  0  0  0  0  0  0
   -6.7010    4.7735  -18.7855 C   0  0  0  0  0  0  0  0  0  0  0  0
   -5.9894    4.0282  -18.1350 O   0  0  0  0  0  0  0  0  0  0  0  0
   -8.7557    3.0975  -19.2026 C   0  0  0  0  0  0  0  0  0  0  0  0
   -8.3756    1.8024  -18.5348 C   0  0  0  0  0  0  0  0  0  0  0  0
   -8.1834    2.0286  -17.0962 N   0  0  0  0  0  0  0  0  0  0  0  0
   -9.8922    3.3434  -19.8658 C   0  0  0  0  0  0  0  0  0  0  0  0
   -9.8901    4.6205  -20.3602 N   0  0  0  0  0  0  0  0  0  0  0  0
   -6.6325    8.1812  -20.0773 N   0  0  0  0  0  0  0  0  0  0  0  0
  1  6  1  0  0  0  0
  2  1  1  0  0  0  0
  3  4  1  0  0  0  0
  3  2  2  0  0  0  0
  4  5  2  0  0  0  0
  5  8  1  0  0  0  0
  5  6  1  0  0  0  0
  6  7  2  0  0  0  0
  8  9  1  0  0  0  0
  9 10  1  0  0  0  0
 11  8  2  0  0  0  0
 12  4  1  0  0  0  0
 12 11  1  0  0  0  0
 13  2  1  0  0  0  0
M  END
>  <CHROM.1>
61.16166293,-141.56791430,-7.86316711,4.70515929,-19.23040254,-1.22245637
0.48983672,2.66227810

>  <Name>
lig.pdb

>  <RI>
1.17462e+07

>  <Rbt.Current_Directory>
/home/itssahil/PROJECTS/Mol_Feturizer/New_Systems/rnas/2miy

>  <Rbt.Executable>
rbdock ($Id: //depot/dev/client3/rdock/2013.1/src/exe/rbdock.cxx#4 $)

>  <Rbt.Library>
libRbt.so (2013.1, Build901 2013/11/27)

>  <Rbt.Parameter_File>
/export/apps/rDock/src/rDock_2013.1_src/data/scripts/dock_solv.prm

>  <Rbt.Receptor>
prm/blind_docking_40.prm

>  <SCORE>
-28.3388

>  <SCORE.INTER>
-30.1303

>  <SCORE.INTER.CONST>
1

>  <SCORE.INTER.POLAR>
-4.5744

>  <SCORE.INTER.ROT>
2

>  <SCORE.INTER.SOLV>
10.1006

>  <SCORE.INTER.VDW>
-13.1391

>  <SCORE.INTER.norm>
-2.31772

>  <SCORE.INTRA>
1.37996

>  <SCORE.INTRA.DIHEDRAL>
-0.352384

>  <SCORE.INTRA.DIHEDRAL.0>
1.76676

>  <SCORE.INTRA.POLAR>
0.472211

>  <SCORE.INTRA.POLAR.0>
-0.472211

>  <SCORE.INTRA.REPUL>
0

>  <SCORE.INTRA.REPUL.0>
0

>  <SCORE.INTRA.SOLV>
-0.183388

>  <SCORE.INTRA.SOLV.lig_0>
-22.5855

>  <SCORE.INTRA.VDW>
0.0423256

>  <SCORE.INTRA.VDW.0>
-0.733656

>  <SCORE.INTRA.norm>
0.106151

>  <SCORE.RESTR>
0.411603

>  <SCORE.RESTR.CAVITY>
0.411603

>  <SCORE.RESTR.norm>
0.0316617

>  <SCORE.SYSTEM>
0

>  <SCORE.SYSTEM.CONST>
0

>  <SCORE.SYSTEM.DIHEDRAL>
0

>  <SCORE.SYSTEM.SOLV>
0

>  <SCORE.SYSTEM.norm>
0

>  <SCORE.heavy>
13

>  <SCORE.norm>
-2.17991

>  <RMSD>
12.788

$$$$
lig.pdb
 OpenBabel11021811453D
libRbt.so/2013.1/901 2013/11/27
 13 14  0  0  0  0  0  0  0  0999 V2000
   -6.0827    6.3703  -19.0738 N   0  0  0  0  0  0  0  0  0  0  0  0
   -6.8246    7.2595  -19.7985 C   0  0  0  0  0  0  0  0  0  0  0  0
   -8.0796    6.9847  -20.1058 N   0  0  0  0  0  0  0  0  0  0  0  0
   -8.6841    5.8190  -19.7224 C   0  0  0  0  0  0  0  0  0  0  0  0
   -7.9596    4.8593  -18.9746 C   0  0  0  0  0  0  0  0  0  0  0  0
   -6.6044    5.1651  -18.6463 C   0  0  0  0  0  0  0  0  0  0  0  0
   -5.9245    4.3820  -18.0064 O   0  0  0  0  0  0  0  0  0  0  0  0
   -8.8756    3.7375  -18.7369 C   0  0  0  0  0  0  0  0  0  0  0  0
   -8.5868    2.4533  -18.0053 C   0  0  0  0  0  0  0  0  0  0  0  0
   -8.0392    1.4650  -18.9439 N   0  0  0  0  0  0  0  0  0  0  0  0
  -10.0360    4.0792  -19.3103 C   0  0  0  0  0  0  0  0  0  0  0  0
   -9.9319    5.3091  -19.9035 N   0  0  0  0  0  0  0  0  0  0  0  0
   -6.2617    8.4408  -20.2077 N   0  0  0  0  0  0  0  0  0  0  0  0
  1  6  1  0  0  0  0
  2  1  1  0  0  0  0
  3  4  1  0  0  0  0
  3  2  2  0  0  0  0
  4  5  2  0  0  0  0
  5  8  1  0  0  0  0
  5  6  1  0  0  0  0
  6  7  2  0  0  0  0
  8  9  1  0  0  0  0
  9 10  1  0  0  0  0
 11  8  2  0  0  0  0
 12  4  1  0  0  0  0
 12 11  1  0  0  0  0
 13  2  1  0  0  0  0
M  END
>  <CHROM.1>
-87.97077919,-90.95526472,-7.78809617,5.09395899,-19.19284791,-1.17974959
0.28425516,2.79818216

>  <Name>
lig.pdb

>  <RI>
1.8118e+07

>  <Rbt.Current_Directory>
/home/itssahil/PROJECTS/Mol_Feturizer/New_Systems/rnas/2miy

>  <Rbt.Executable>
rbdock ($Id: //depot/dev/client3/rdock/2013.1/src/exe/rbdock.cxx#4 $)

>  <Rbt.Library>
libRbt.so (2013.1, Build901 2013/11/27)

>  <Rbt.Parameter_File>
/export/apps/rDock/src/rDock_2013.1_src/data/scripts/dock_solv.prm

>  <Rbt.Receptor>
prm/blind_docking_100.prm

>  <SCORE>
-21.8547

>  <SCORE.INTER>
-23.7441

>  <SCORE.INTER.CONST>
1

>  <SCORE.INTER.POLAR>
-3.10423

>  <SCORE.INTER.ROT>
2

>  <SCORE.INTER.SOLV>
10.3693

>  <SCORE.INTER.VDW>
-13.8717

>  <SCORE.INTER.norm>
-1.82647

>  <SCORE.INTRA>
1.85643

>  <SCORE.INTRA.DIHEDRAL>
0.697303

>  <SCORE.INTRA.DIHEDRAL.0>
1.76676

>  <SCORE.INTRA.POLAR>
0.472211

>  <SCORE.INTRA.POLAR.0>
-0.472211

>  <SCORE.INTRA.REPUL>
0

>  <SCORE.INTRA.REPUL.0>
0

>  <SCORE.INTRA.SOLV>
-0.430081

>  <SCORE.INTRA.SOLV.lig_0>
-22.5855

>  <SCORE.INTRA.VDW>
0.117297

>  <SCORE.INTRA.VDW.0>
-0.733656

>  <SCORE.INTRA.norm>
0.142802

>  <SCORE.RESTR>
0.033023

>  <SCORE.RESTR.CAVITY>
0.033023

>  <SCORE.RESTR.norm>
0.00254023

>  <SCORE.SYSTEM>
0

>  <SCORE.SYSTEM.CONST>
0

>  <SCORE.SYSTEM.DIHEDRAL>
0

>  <SCORE.SYSTEM.SOLV>
0

>  <SCORE.SYSTEM.norm>
0

>  <SCORE.heavy>
13

>  <SCORE.norm>
-1.68113

>  <RMSD>
12.803

$$$$
lig.pdb
 OpenBabel11021811453D
libRbt.so/2013.1/901 2013/11/27
 13 14  0  0  0  0  0  0  0  0999 V2000
   -6.2670    5.3755  -20.7097 N   0  0  0  0  0  0  0  0  0  0  0  0
   -5.9877    6.2856  -19.7300 C   0  0  0  0  0  0  0  0  0  0  0  0
   -6.3717    6.0633  -18.4858 N   0  0  0  0  0  0  0  0  0  0  0  0
   -7.0556    4.9345  -18.1259 C   0  0  0  0  0  0  0  0  0  0  0  0
   -7.3767    3.9607  -19.1026 C   0  0  0  0  0  0  0  0  0  0  0  0
   -6.9569    4.2089  -20.4442 C   0  0  0  0  0  0  0  0  0  0  0  0
   -7.2024    3.4124  -21.3332 O   0  0  0  0  0  0  0  0  0  0  0  0
   -8.1089    2.8967  -18.4057 C   0  0  0  0  0  0  0  0  0  0  0  0
   -8.6906    1.6403  -18.9981 C   0  0  0  0  0  0  0  0  0  0  0  0
   -8.7500    0.5933  -17.9695 N   0  0  0  0  0  0  0  0  0  0  0  0
   -8.1660    3.2671  -17.1205 C   0  0  0  0  0  0  0  0  0  0  0  0
   -7.5500    4.4774  -16.9443 N   0  0  0  0  0  0  0  0  0  0  0  0
   -5.3063    7.4338  -20.0421 N   0  0  0  0  0  0  0  0  0  0  0  0
  1  6  1  0  0  0  0
  2  1  1  0  0  0  0
  3  4  1  0  0  0  0
  3  2  2  0  0  0  0
  4  5  2  0  0  0  0
  5  8  1  0  0  0  0
  5  6  1  0  0  0  0
  6  7  2  0  0  0  0
  8  9  1  0  0  0  0
  9 10  1  0  0  0  0
 11  8  2  0  0  0  0
 12  4  1  0  0  0  0
 12 11  1  0  0  0  0
 13  2  1  0  0  0  0
M  END
>  <CHROM.1>
153.02431580,171.98867998,-7.20380151,4.18597969,-19.05516028,-0.01866328
-1.08875716,-1.95614148

>  <Name>
lig.pdb

>  <RI>
1.17462e+07

>  <Rbt.Current_Directory>
/home/itssahil/PROJECTS/Mol_Feturizer/New_Systems/rnas/2miy

>  <Rbt.Executable>
rbdock ($Id: //depot/dev/client3/rdock/2013.1/src/exe/rbdock.cxx#4 $)

>  <Rbt.Library>
libRbt.so (2013.1, Build901 2013/11/27)

>  <Rbt.Parameter_File>
/export/apps/rDock/src/rDock_2013.1_src/data/scripts/dock_solv.prm

>  <Rbt.Receptor>
prm/blind_docking_40.prm

>  <SCORE>
-24.1336

>  <SCORE.INTER>
-27.4329

>  <SCORE.INTER.CONST>
1

>  <SCORE.INTER.POLAR>
-3.69035

>  <SCORE.INTER.ROT>
2

>  <SCORE.INTER.SOLV>
13.853

>  <SCORE.INTER.VDW>
-15.5384

>  <SCORE.INTER.norm>
-2.11022

>  <SCORE.INTRA>
2.44728

>  <SCORE.INTRA.DIHEDRAL>
0.621745

>  <SCORE.INTRA.DIHEDRAL.0>
1.76676

>  <SCORE.INTRA.POLAR>
0.472211

>  <SCORE.INTRA.POLAR.0>
-0.472211

>  <SCORE.INTRA.REPUL>
0

>  <SCORE.INTRA.REPUL.0>
0

>  <SCORE.INTRA.SOLV>
-0.583099

>  <SCORE.INTRA.SOLV.lig_0>
-22.5855

>  <SCORE.INTRA.VDW>
0.822443

>  <SCORE.INTRA.VDW.0>
-0.733656

>  <SCORE.INTRA.norm>
0.188253

>  <SCORE.RESTR>
0.851988

>  <SCORE.RESTR.CAVITY>
0.851988

>  <SCORE.RESTR.norm>
0.0655376

>  <SCORE.SYSTEM>
0

>  <SCORE.SYSTEM.CONST>
0

>  <SCORE.SYSTEM.DIHEDRAL>
0

>  <SCORE.SYSTEM.SOLV>
0

>  <SCORE.SYSTEM.norm>
0

>  <SCORE.heavy>
13

>  <SCORE.norm>
-1.85643

>  <RMSD>
12.826

$$$$
lig.pdb
 OpenBabel11021811453D
libRbt.so/2013.1/901 2013/11/27
 13 14  0  0  0  0  0  0  0  0999 V2000
   -6.1845    6.0687  -19.0453 N   0  0  0  0  0  0  0  0  0  0  0  0
   -6.9048    6.9696  -19.7775 C   0  0  0  0  0  0  0  0  0  0  0  0
   -8.0932    6.6428  -20.2525 N   0  0  0  0  0  0  0  0  0  0  0  0
   -8.6481    5.4105  -20.0402 C   0  0  0  0  0  0  0  0  0  0  0  0
   -7.9423    4.4364  -19.2930 C   0  0  0  0  0  0  0  0  0  0  0  0
   -6.6593    4.7987  -18.7827 C   0  0  0  0  0  0  0  0  0  0  0  0
   -5.9989    4.0069  -18.1332 O   0  0  0  0  0  0  0  0  0  0  0  0
   -8.7927    3.2408  -19.2580 C   0  0  0  0  0  0  0  0  0  0  0  0
   -8.4926    1.9174  -18.6051 C   0  0  0  0  0  0  0  0  0  0  0  0
   -8.2668    2.1181  -17.1676 N   0  0  0  0  0  0  0  0  0  0  0  0
   -9.9037    3.5567  -19.9348 C   0  0  0  0  0  0  0  0  0  0  0  0
   -9.8259    4.8392  -20.4087 N   0  0  0  0  0  0  0  0  0  0  0  0
   -6.3895    8.2170  -20.0190 N   0  0  0  0  0  0  0  0  0  0  0  0
  1  6  1  0  0  0  0
  2  1  1  0  0  0  0
  3  4  1  0  0  0  0
  3  2  2  0  0  0  0
  4  5  2  0  0  0  0
  5  8  1  0  0  0  0
  5  6  1  0  0  0  0
  6  7  2  0  0  0  0
  8  9  1  0  0  0  0
  9 10  1  0  0  0  0
 11  8  2  0  0  0  0
 12  4  1  0  0  0  0
 12 11  1  0  0  0  0
 13  2  1  0  0  0  0
M  END
>  <CHROM.1>
59.23616848,-139.63537189,-7.81180152,4.79957276,-19.24723718,-1.16472697
0.47966706,2.65141078

>  <Name>
lig.pdb

>  <RI>
0

>  <Rbt.Current_Directory>
/home/itssahil/PROJECTS/Mol_Feturizer/New_Systems/rnas/2miy

>  <Rbt.Executable>
rbdock ($Id: //depot/dev/client3/rdock/2013.1/src/exe/rbdock.cxx#4 $)

>  <Rbt.Library>
libRbt.so (2013.1, Build901 2013/11/27)

>  <Rbt.Parameter_File>
/export/apps/rDock/src/rDock_2013.1_src/data/scripts/dock_solv.prm

>  <Rbt.Receptor>
prm/blind_docking_60.prm

>  <SCORE>
-28.6874

>  <SCORE.INTER>
-30.4951

>  <SCORE.INTER.CONST>
1

>  <SCORE.INTER.POLAR>
-4.4291

>  <SCORE.INTER.ROT>
2

>  <SCORE.INTER.SOLV>
9.99102

>  <SCORE.INTER.VDW>
-13.8301

>  <SCORE.INTER.norm>
-2.34578

>  <SCORE.INTRA>
1.38381

>  <SCORE.INTRA.DIHEDRAL>
-0.350969

>  <SCORE.INTRA.DIHEDRAL.0>
1.76676

>  <SCORE.INTRA.POLAR>
0.472211

>  <SCORE.INTRA.POLAR.0>
-0.472211

>  <SCORE.INTRA.REPUL>
0

>  <SCORE.INTRA.REPUL.0>
0

>  <SCORE.INTRA.SOLV>
-0.16096

>  <SCORE.INTRA.SOLV.lig_0>
-22.5855

>  <SCORE.INTRA.VDW>
0.0342616

>  <SCORE.INTRA.VDW.0>
-0.733656

>  <SCORE.INTRA.norm>
0.106447

>  <SCORE.RESTR>
0.423937

>  <SCORE.RESTR.CAVITY>
0.423937

>  <SCORE.RESTR.norm>
0.0326106

>  <SCORE.SYSTEM>
0

>  <SCORE.SYSTEM.CONST>
0

>  <SCORE.SYSTEM.DIHEDRAL>
0

>  <SCORE.SYSTEM.SOLV>
0

>  <SCORE.SYSTEM.norm>
0

>  <SCORE.heavy>
13

>  <SCORE.norm>
-2.20672

>  <RMSD>
12.828

$$$$
lig.pdb
 OpenBabel11021811453D
libRbt.so/2013.1/901 2013/11/27
 13 14  0  0  0  0  0  0  0  0999 V2000
   -6.0876    6.3335  -19.0499 N   0  0  0  0  0  0  0  0  0  0  0  0
   -6.7851    7.2523  -19.7818 C   0  0  0  0  0  0  0  0  0  0  0  0
   -8.0384    7.0164  -20.1262 N   0  0  0  0  0  0  0  0  0  0  0  0
   -8.6847    5.8629  -19.7752 C   0  0  0  0  0  0  0  0  0  0  0  0
   -8.0071    4.8738  -19.0217 C   0  0  0  0  0  0  0  0  0  0  0  0
   -6.6535    5.1378  -18.6532 C   0  0  0  0  0  0  0  0  0  0  0  0
   -6.0127    4.3279  -18.0063 O   0  0  0  0  0  0  0  0  0  0  0  0
   -8.9594    3.7748  -18.8240 C   0  0  0  0  0  0  0  0  0  0  0  0
   -8.7256    2.4737  -18.1028 C   0  0  0  0  0  0  0  0  0  0  0  0
   -7.9609    1.5635  -18.9656 N   0  0  0  0  0  0  0  0  0  0  0  0
  -10.0942    4.1559  -19.4234 C   0  0  0  0  0  0  0  0  0  0  0  0
   -9.9405    5.3901  -19.9965 N   0  0  0  0  0  0  0  0  0  0  0  0
   -6.1794    8.4229  -20.1595 N   0  0  0  0  0  0  0  0  0  0  0  0
  1  6  1  0  0  0  0
  2  1  1  0  0  0  0
  3  4  1  0  0  0  0
  3  2  2  0  0  0  0
  4  5  2  0  0  0  0
  5  8  1  0  0  0  0
  5  6  1  0  0  0  0
  6  7  2  0  0  0  0
  8  9  1  0  0  0  0
  9 10  1  0  0  0  0
 11  8  2  0  0  0  0
 12  4  1  0  0  0  0
 12 11  1  0  0  0  0
 13  2  1  0  0  0  0
M  END
>  <CHROM.1>
-77.81284539,-57.44759788,-7.80300863,5.11402943,-19.22509862,-1.16237033
0.29153977,2.79949397

>  <Name>
lig.pdb

>  <RI>
1.8118e+07

>  <Rbt.Current_Directory>
/home/itssahil/PROJECTS/Mol_Feturizer/New_Systems/rnas/2miy

>  <Rbt.Executable>
rbdock ($Id: //depot/dev/client3/rdock/2013.1/src/exe/rbdock.cxx#4 $)

>  <Rbt.Library>
libRbt.so (2013.1, Build901 2013/11/27)

>  <Rbt.Parameter_File>
/export/apps/rDock/src/rDock_2013.1_src/data/scripts/dock_solv.prm

>  <Rbt.Receptor>
prm/blind_docking_100.prm

>  <SCORE>
-20.7817

>  <SCORE.INTER>
-22.3648

>  <SCORE.INTER.CONST>
1

>  <SCORE.INTER.POLAR>
-3.00815

>  <SCORE.INTER.ROT>
2

>  <SCORE.INTER.SOLV>
10.1455

>  <SCORE.INTER.VDW>
-13.1979

>  <SCORE.INTER.norm>
-1.72037

>  <SCORE.INTRA>
1.58311

>  <SCORE.INTRA.DIHEDRAL>
0.121607

>  <SCORE.INTRA.DIHEDRAL.0>
1.76676

>  <SCORE.INTRA.POLAR>
0.472211

>  <SCORE.INTRA.POLAR.0>
-0.472211

>  <SCORE.INTRA.REPUL>
0

>  <SCORE.INTRA.REPUL.0>
0

>  <SCORE.INTRA.SOLV>
-0.352324

>  <SCORE.INTRA.SOLV.lig_0>
-22.5855

>  <SCORE.INTRA.VDW>
0.0929462

>  <SCORE.INTRA.VDW.0>
-0.733656

>  <SCORE.INTRA.norm>
0.121777

>  <SCORE.RESTR>
0

>  <SCORE.RESTR.CAVITY>
0

>  <SCORE.RESTR.norm>
0

>  <SCORE.SYSTEM>
0

>  <SCORE.SYSTEM.CONST>
0

>  <SCORE.SYSTEM.DIHEDRAL>
0

>  <SCORE.SYSTEM.SOLV>
0

>  <SCORE.SYSTEM.norm>
0

>  <SCORE.heavy>
13

>  <SCORE.norm>
-1.59859

>  <RMSD>
12.837

$$$$
lig.pdb
 OpenBabel11021811453D
libRbt.so/2013.1/901 2013/11/27
 13 14  0  0  0  0  0  0  0  0999 V2000
   -6.2130    6.0700  -19.0623 N   0  0  0  0  0  0  0  0  0  0  0  0
   -6.9373    6.9511  -19.8144 C   0  0  0  0  0  0  0  0  0  0  0  0
   -8.1156    6.6016  -20.2983 N   0  0  0  0  0  0  0  0  0  0  0  0
   -8.6559    5.3647  -20.0759 C   0  0  0  0  0  0  0  0  0  0  0  0
   -7.9453    4.4103  -19.3080 C   0  0  0  0  0  0  0  0  0  0  0  0
   -6.6733    4.7971  -18.7883 C   0  0  0  0  0  0  0  0  0  0  0  0
   -6.0094    4.0231  -18.1210 O   0  0  0  0  0  0  0  0  0  0  0  0
   -8.7795    3.2035  -19.2668 C   0  0  0  0  0  0  0  0  0  0  0  0
   -8.4686    1.8931  -18.5931 C   0  0  0  0  0  0  0  0  0  0  0  0
   -8.2521    2.1172  -17.1576 N   0  0  0  0  0  0  0  0  0  0  0  0
   -9.8870    3.4951  -19.9601 C   0  0  0  0  0  0  0  0  0  0  0  0
   -9.8214    4.7722  -20.4500 N   0  0  0  0  0  0  0  0  0  0  0  0
   -6.4365    8.2023  -20.0667 N   0  0  0  0  0  0  0  0  0  0  0  0
  1  6  1  0  0  0  0
  2  1  1  0  0  0  0
  3  4  1  0  0  0  0
  3  2  2  0  0  0  0
  4  5  2  0  0  0  0
  5  8  1  0  0  0  0
  5  6  1  0  0  0  0
  6  7  2  0  0  0  0
  8  9  1  0  0  0  0
  9 10  1  0  0  0  0
 11  8  2  0  0  0  0
 12  4  1  0  0  0  0
 12 11  1  0  0  0  0
 13  2  1  0  0  0  0
M  END
>  <CHROM.1>
58.81860697,-139.12479170,-7.81939420,4.77598254,-19.26581724,-1.17324180
0.49625745,2.64238616

>  <Name>
lig.pdb

>  <RI>
0

>  <Rbt.Current_Directory>
/home/itssahil/PROJECTS/Mol_Feturizer/New_Systems/rnas/2miy

>  <Rbt.Executable>
rbdock ($Id: //depot/dev/client3/rdock/2013.1/src/exe/rbdock.cxx#4 $)

>  <Rbt.Library>
libRbt.so (2013.1, Build901 2013/11/27)

>  <Rbt.Parameter_File>
/export/apps/rDock/src/rDock_2013.1_src/data/scripts/dock_solv.prm

>  <Rbt.Receptor>
prm/blind_docking_60.prm

>  <SCORE>
-28.7197

>  <SCORE.INTER>
-30.5535

>  <SCORE.INTER.CONST>
1

>  <SCORE.INTER.POLAR>
-4.4872

>  <SCORE.INTER.ROT>
2

>  <SCORE.INTER.SOLV>
9.87072

>  <SCORE.INTER.VDW>
-13.6353

>  <SCORE.INTER.norm>
-2.35027

>  <SCORE.INTRA>
1.38548

>  <SCORE.INTRA.DIHEDRAL>
-0.349072

>  <SCORE.INTRA.DIHEDRAL.0>
1.76676

>  <SCORE.INTRA.POLAR>
0.472211

>  <SCORE.INTRA.POLAR.0>
-0.472211

>  <SCORE.INTRA.REPUL>
0

>  <SCORE.INTRA.REPUL.0>
0

>  <SCORE.INTRA.SOLV>
-0.156126

>  <SCORE.INTRA.SOLV.lig_0>
-22.5855

>  <SCORE.INTRA.VDW>
0.032558

>  <SCORE.INTRA.VDW.0>
-0.733656

>  <SCORE.INTRA.norm>
0.106575

>  <SCORE.RESTR>
0.448391

>  <SCORE.RESTR.CAVITY>
0.448391

>  <SCORE.RESTR.norm>
0.0344916

>  <SCORE.SYSTEM>
0

>  <SCORE.SYSTEM.CONST>
0

>  <SCORE.SYSTEM.DIHEDRAL>
0

>  <SCORE.SYSTEM.SOLV>
0

>  <SCORE.SYSTEM.norm>
0

>  <SCORE.heavy>
13

>  <SCORE.norm>
-2.2092

>  <RMSD>
12.838

$$$$
lig.pdb
 OpenBabel11021811453D
libRbt.so/2013.1/901 2013/11/27
 13 14  0  0  0  0  0  0  0  0999 V2000
   -6.2985    6.0564  -19.0975 N   0  0  0  0  0  0  0  0  0  0  0  0
   -7.0952    6.9140  -19.8019 C   0  0  0  0  0  0  0  0  0  0  0  0
   -8.2662    6.5099  -20.2605 N   0  0  0  0  0  0  0  0  0  0  0  0
   -8.7275    5.2380  -20.0579 C   0  0  0  0  0  0  0  0  0  0  0  0
   -7.9398    4.3062  -19.3394 C   0  0  0  0  0  0  0  0  0  0  0  0
   -6.6763    4.7519  -18.8468 C   0  0  0  0  0  0  0  0  0  0  0  0
   -5.9486    4.0000  -18.2221 O   0  0  0  0  0  0  0  0  0  0  0  0
   -8.7018    3.0523  -19.3082 C   0  0  0  0  0  0  0  0  0  0  0  0
   -8.2955    1.7443  -18.6821 C   0  0  0  0  0  0  0  0  0  0  0  0
   -8.3181    1.8713  -17.2189 N   0  0  0  0  0  0  0  0  0  0  0  0
   -9.8454    3.2977  -19.9595 C   0  0  0  0  0  0  0  0  0  0  0  0
   -9.8684    4.5893  -20.4141 N   0  0  0  0  0  0  0  0  0  0  0  0
   -6.6750    8.1986  -20.0327 N   0  0  0  0  0  0  0  0  0  0  0  0
  1  6  1  0  0  0  0
  2  1  1  0  0  0  0
  3  4  1  0  0  0  0
  3  2  2  0  0  0  0
  4  5  2  0  0  0  0
  5  8  1  0  0  0  0
  5  6  1  0  0  0  0
  6  7  2  0  0  0  0
  8  9  1  0  0  0  0
  9 10  1  0  0  0  0
 11  8  2  0  0  0  0
 12  4  1  0  0  0  0
 12 11  1  0  0  0  0
 13  2  1  0  0  0  0
M  END
>  <CHROM.1>
70.48577974,-165.61766338,-7.85903317,4.67068086,-19.28769986,-1.22485618
0.49108043,2.69361498

>  <Name>
lig.pdb

>  <RI>
1.8118e+07

>  <Rbt.Current_Directory>
/home/itssahil/PROJECTS/Mol_Feturizer/New_Systems/rnas/2miy

>  <Rbt.Executable>
rbdock ($Id: //depot/dev/client3/rdock/2013.1/src/exe/rbdock.cxx#4 $)

>  <Rbt.Library>
libRbt.so (2013.1, Build901 2013/11/27)

>  <Rbt.Parameter_File>
/export/apps/rDock/src/rDock_2013.1_src/data/scripts/dock_solv.prm

>  <Rbt.Receptor>
prm/blind_docking_100.prm

>  <SCORE>
-28.6505

>  <SCORE.INTER>
-30.485

>  <SCORE.INTER.CONST>
1

>  <SCORE.INTER.POLAR>
-4.70313

>  <SCORE.INTER.ROT>
2

>  <SCORE.INTER.SOLV>
10.4281

>  <SCORE.INTER.VDW>
-13.0556

>  <SCORE.INTER.norm>
-2.345

>  <SCORE.INTRA>
1.48645

>  <SCORE.INTRA.DIHEDRAL>
-0.191777

>  <SCORE.INTRA.DIHEDRAL.0>
1.76676

>  <SCORE.INTRA.POLAR>
0.472211

>  <SCORE.INTRA.POLAR.0>
-0.472211

>  <SCORE.INTRA.REPUL>
0

>  <SCORE.INTRA.REPUL.0>
0

>  <SCORE.INTRA.SOLV>
-0.294984

>  <SCORE.INTRA.SOLV.lig_0>
-22.5855

>  <SCORE.INTRA.VDW>
0.124317

>  <SCORE.INTRA.VDW.0>
-0.733656

>  <SCORE.INTRA.norm>
0.114343

>  <SCORE.RESTR>
0.348003

>  <SCORE.RESTR.CAVITY>
0.348003

>  <SCORE.RESTR.norm>
0.0267695

>  <SCORE.SYSTEM>
0

>  <SCORE.SYSTEM.CONST>
0

>  <SCORE.SYSTEM.DIHEDRAL>
0

>  <SCORE.SYSTEM.SOLV>
0

>  <SCORE.SYSTEM.norm>
0

>  <SCORE.heavy>
13

>  <SCORE.norm>
-2.20389

>  <RMSD>
12.847

$$$$
lig.pdb
 OpenBabel11021811453D
libRbt.so/2013.1/901 2013/11/27
 13 14  0  0  0  0  0  0  0  0999 V2000
   -6.2963    6.0568  -19.0946 N   0  0  0  0  0  0  0  0  0  0  0  0
   -7.0846    6.9181  -19.8039 C   0  0  0  0  0  0  0  0  0  0  0  0
   -8.2554    6.5201  -20.2683 N   0  0  0  0  0  0  0  0  0  0  0  0
   -8.7248    5.2510  -20.0671 C   0  0  0  0  0  0  0  0  0  0  0  0
   -7.9459    4.3154  -19.3436 C   0  0  0  0  0  0  0  0  0  0  0  0
   -6.6826    4.7546  -18.8448 C   0  0  0  0  0  0  0  0  0  0  0  0
   -5.9624    3.9993  -18.2157 O   0  0  0  0  0  0  0  0  0  0  0  0
   -8.7150    3.0657  -19.3154 C   0  0  0  0  0  0  0  0  0  0  0  0
   -8.3192    1.7561  -18.6861 C   0  0  0  0  0  0  0  0  0  0  0  0
   -8.3154    1.8944  -17.2237 N   0  0  0  0  0  0  0  0  0  0  0  0
   -9.8538    3.3169  -19.9729 C   0  0  0  0  0  0  0  0  0  0  0  0
   -9.8673    4.6082  -20.4287 N   0  0  0  0  0  0  0  0  0  0  0  0
   -6.6561    8.2002  -20.0337 N   0  0  0  0  0  0  0  0  0  0  0  0
  1  6  1  0  0  0  0
  2  1  1  0  0  0  0
  3  4  1  0  0  0  0
  3  2  2  0  0  0  0
  4  5  2  0  0  0  0
  5  8  1  0  0  0  0
  5  6  1  0  0  0  0
  6  7  2  0  0  0  0
  8  9  1  0  0  0  0
  9 10  1  0  0  0  0
 11  8  2  0  0  0  0
 12  4  1  0  0  0  0
 12 11  1  0  0  0  0
 13  2  1  0  0  0  0
M  END
>  <CHROM.1>
69.04287194,14.93701146,-7.86018767,4.68051405,-19.29189711,-1.21959905,0.49434293
2.69009656

>  <Name>
lig.pdb

>  <RI>
1.8118e+07

>  <Rbt.Current_Directory>
/home/itssahil/PROJECTS/Mol_Feturizer/New_Systems/rnas/2miy

>  <Rbt.Executable>
rbdock ($Id: //depot/dev/client3/rdock/2013.1/src/exe/rbdock.cxx#4 $)

>  <Rbt.Library>
libRbt.so (2013.1, Build901 2013/11/27)

>  <Rbt.Parameter_File>
/export/apps/rDock/src/rDock_2013.1_src/data/scripts/dock_solv.prm

>  <Rbt.Receptor>
prm/blind_docking_100.prm

>  <SCORE>
-28.6316

>  <SCORE.INTER>
-30.4804

>  <SCORE.INTER.CONST>
1

>  <SCORE.INTER.POLAR>
-4.66302

>  <SCORE.INTER.ROT>
2

>  <SCORE.INTER.SOLV>
10.3436

>  <SCORE.INTER.VDW>
-13.1581

>  <SCORE.INTER.norm>
-2.34465

>  <SCORE.INTRA>
1.48054

>  <SCORE.INTRA.DIHEDRAL>
-0.188504

>  <SCORE.INTRA.DIHEDRAL.0>
1.76676

>  <SCORE.INTRA.POLAR>
0.472211

>  <SCORE.INTRA.POLAR.0>
-0.472211

>  <SCORE.INTRA.REPUL>
0

>  <SCORE.INTRA.REPUL.0>
0

>  <SCORE.INTRA.SOLV>
-0.275311

>  <SCORE.INTRA.SOLV.lig_0>
-22.5855

>  <SCORE.INTRA.VDW>
0.106925

>  <SCORE.INTRA.VDW.0>
-0.733656

>  <SCORE.INTRA.norm>
0.113887

>  <SCORE.RESTR>
0.368279

>  <SCORE.RESTR.CAVITY>
0.368279

>  <SCORE.RESTR.norm>
0.0283292

>  <SCORE.SYSTEM>
0

>  <SCORE.SYSTEM.CONST>
0

>  <SCORE.SYSTEM.DIHEDRAL>
0

>  <SCORE.SYSTEM.SOLV>
0

>  <SCORE.SYSTEM.norm>
0

>  <SCORE.heavy>
13

>  <SCORE.norm>
-2.20243

>  <RMSD>
12.852

$$$$
lig.pdb
 OpenBabel11021811453D
libRbt.so/2013.1/901 2013/11/27
 13 14  0  0  0  0  0  0  0  0999 V2000
   -6.2978    6.0576  -19.1036 N   0  0  0  0  0  0  0  0  0  0  0  0
   -7.0969    6.9170  -19.8030 C   0  0  0  0  0  0  0  0  0  0  0  0
   -8.2690    6.5137  -20.2597 N   0  0  0  0  0  0  0  0  0  0  0  0
   -8.7290    5.2409  -20.0600 C   0  0  0  0  0  0  0  0  0  0  0  0
   -7.9388    4.3072  -19.3467 C   0  0  0  0  0  0  0  0  0  0  0  0
   -6.6742    4.7520  -18.8561 C   0  0  0  0  0  0  0  0  0  0  0  0
   -5.9444    3.9985  -18.2359 O   0  0  0  0  0  0  0  0  0  0  0  0
   -8.7001    3.0527  -19.3175 C   0  0  0  0  0  0  0  0  0  0  0  0
   -8.2913    1.7430  -18.6968 C   0  0  0  0  0  0  0  0  0  0  0  0
   -8.3168    1.8632  -17.2331 N   0  0  0  0  0  0  0  0  0  0  0  0
   -9.8455    3.2996  -19.9649 C   0  0  0  0  0  0  0  0  0  0  0  0
   -9.8706    4.5927  -20.4152 N   0  0  0  0  0  0  0  0  0  0  0  0
   -6.6781    8.2025  -20.0308 N   0  0  0  0  0  0  0  0  0  0  0  0
  1  6  1  0  0  0  0
  2  1  1  0  0  0  0
  3  4  1  0  0  0  0
  3  2  2  0  0  0  0
  4  5  2  0  0  0  0
  5  8  1  0  0  0  0
  5  6  1  0  0  0  0
  6  7  2  0  0  0  0
  8  9  1  0  0  0  0
  9 10  1  0  0  0  0
 11  8  2  0  0  0  0
 12  4  1  0  0  0  0
 12 11  1  0  0  0  0
 13  2  1  0  0  0  0
M  END
>  <CHROM.1>
70.77759073,-165.18882741,-7.85875665,4.67136057,-19.29403212,-1.22619007
0.48864063,2.69754252

>  <Name>
lig.pdb

>  <RI>
1.8118e+07

>  <Rbt.Current_Directory>
/home/itssahil/PROJECTS/Mol_Feturizer/New_Systems/rnas/2miy

>  <Rbt.Executable>
rbdock ($Id: //depot/dev/client3/rdock/2013.1/src/exe/rbdock.cxx#4 $)

>  <Rbt.Library>
libRbt.so (2013.1, Build901 2013/11/27)

>  <Rbt.Parameter_File>
/export/apps/rDock/src/rDock_2013.1_src/data/scripts/dock_solv.prm

>  <Rbt.Receptor>
prm/blind_docking_100.prm

>  <SCORE>
-28.6609

>  <SCORE.INTER>
-30.5011

>  <SCORE.INTER.CONST>
1

>  <SCORE.INTER.POLAR>
-4.71309

>  <SCORE.INTER.ROT>
2

>  <SCORE.INTER.SOLV>
10.4378

>  <SCORE.INTER.VDW>
-13.0364

>  <SCORE.INTER.norm>
-2.34624

>  <SCORE.INTRA>
1.48969

>  <SCORE.INTRA.DIHEDRAL>
-0.183513

>  <SCORE.INTRA.DIHEDRAL.0>
1.76676

>  <SCORE.INTRA.POLAR>
0.472211

>  <SCORE.INTRA.POLAR.0>
-0.472211

>  <SCORE.INTRA.REPUL>
0

>  <SCORE.INTRA.REPUL.0>
0

>  <SCORE.INTRA.SOLV>
-0.298527

>  <SCORE.INTRA.SOLV.lig_0>
-22.5855

>  <SCORE.INTRA.VDW>
0.12519

>  <SCORE.INTRA.VDW.0>
-0.733656

>  <SCORE.INTRA.norm>
0.114591

>  <SCORE.RESTR>
0.350499

>  <SCORE.RESTR.CAVITY>
0.350499

>  <SCORE.RESTR.norm>
0.0269615

>  <SCORE.SYSTEM>
0

>  <SCORE.SYSTEM.CONST>
0

>  <SCORE.SYSTEM.DIHEDRAL>
0

>  <SCORE.SYSTEM.SOLV>
0

>  <SCORE.SYSTEM.norm>
0

>  <SCORE.heavy>
13

>  <SCORE.norm>
-2.20469

>  <RMSD>
12.854

$$$$
lig.pdb
 OpenBabel11021811453D
libRbt.so/2013.1/901 2013/11/27
 13 14  0  0  0  0  0  0  0  0999 V2000
   -6.1647    5.4852  -20.6944 N   0  0  0  0  0  0  0  0  0  0  0  0
   -5.9610    6.4155  -19.7149 C   0  0  0  0  0  0  0  0  0  0  0  0
   -6.3962    6.1957  -18.4872 N   0  0  0  0  0  0  0  0  0  0  0  0
   -7.0604    5.0498  -18.1448 C   0  0  0  0  0  0  0  0  0  0  0  0
   -7.3039    4.0547  -19.1224 C   0  0  0  0  0  0  0  0  0  0  0  0
   -6.8292    4.3003  -20.4460 C   0  0  0  0  0  0  0  0  0  0  0  0
   -7.0070    3.4858  -21.3348 O   0  0  0  0  0  0  0  0  0  0  0  0
   -8.0343    2.9760  -18.4464 C   0  0  0  0  0  0  0  0  0  0  0  0
   -8.5472    1.6945  -19.0485 C   0  0  0  0  0  0  0  0  0  0  0  0
   -8.3545    0.5922  -18.0970 N   0  0  0  0  0  0  0  0  0  0  0  0
   -8.1638    3.3595  -17.1704 C   0  0  0  0  0  0  0  0  0  0  0  0
   -7.5955    4.5911  -16.9817 N   0  0  0  0  0  0  0  0  0  0  0  0
   -5.3023    7.5812  -20.0101 N   0  0  0  0  0  0  0  0  0  0  0  0
  1  6  1  0  0  0  0
  2  1  1  0  0  0  0
  3  4  1  0  0  0  0
  3  2  2  0  0  0  0
  4  5  2  0  0  0  0
  5  8  1  0  0  0  0
  5  6  1  0  0  0  0
  6  7  2  0  0  0  0
  8  9  1  0  0  0  0
  9 10  1  0  0  0  0
 11  8  2  0  0  0  0
 12  4  1  0  0  0  0
 12 11  1  0  0  0  0
 13  2  1  0  0  0  0
M  END
>  <CHROM.1>
141.03602857,150.58849776,-7.11569107,4.27974863,-19.07796438,-0.17403750
-1.11358475,-2.09997049

>  <Name>
lig.pdb

>  <RI>
1.8118e+07

>  <Rbt.Current_Directory>
/home/itssahil/PROJECTS/Mol_Feturizer/New_Systems/rnas/2miy

>  <Rbt.Executable>
rbdock ($Id: //depot/dev/client3/rdock/2013.1/src/exe/rbdock.cxx#4 $)

>  <Rbt.Library>
libRbt.so (2013.1, Build901 2013/11/27)

>  <Rbt.Parameter_File>
/export/apps/rDock/src/rDock_2013.1_src/data/scripts/dock_solv.prm

>  <Rbt.Receptor>
prm/blind_docking_100.prm

>  <SCORE>
-23.7943

>  <SCORE.INTER>
-26.5708

>  <SCORE.INTER.CONST>
1

>  <SCORE.INTER.POLAR>
-3.31322

>  <SCORE.INTER.ROT>
2

>  <SCORE.INTER.SOLV>
13.5371

>  <SCORE.INTER.VDW>
-16.1155

>  <SCORE.INTER.norm>
-2.04391

>  <SCORE.INTRA>
2.42307

>  <SCORE.INTRA.DIHEDRAL>
1.31034

>  <SCORE.INTRA.DIHEDRAL.0>
1.76676

>  <SCORE.INTRA.POLAR>
0.472211

>  <SCORE.INTRA.POLAR.0>
-0.472211

>  <SCORE.INTRA.REPUL>
0

>  <SCORE.INTRA.REPUL.0>
0

>  <SCORE.INTRA.SOLV>
-0.608603

>  <SCORE.INTRA.SOLV.lig_0>
-22.5855

>  <SCORE.INTRA.VDW>
0.466684

>  <SCORE.INTRA.VDW.0>
-0.733656

>  <SCORE.INTRA.norm>
0.18639

>  <SCORE.RESTR>
0.35343

>  <SCORE.RESTR.CAVITY>
0.35343

>  <SCORE.RESTR.norm>
0.0271869

>  <SCORE.SYSTEM>
0

>  <SCORE.SYSTEM.CONST>
0

>  <SCORE.SYSTEM.DIHEDRAL>
0

>  <SCORE.SYSTEM.SOLV>
0

>  <SCORE.SYSTEM.norm>
0

>  <SCORE.heavy>
13

>  <SCORE.norm>
-1.83033

>  <RMSD>
12.857

$$$$
lig.pdb
 OpenBabel11021811453D
libRbt.so/2013.1/901 2013/11/27
 13 14  0  0  0  0  0  0  0  0999 V2000
   -6.1655    6.0646  -19.0680 N   0  0  0  0  0  0  0  0  0  0  0  0
   -6.9409    6.9319  -19.7842 C   0  0  0  0  0  0  0  0  0  0  0  0
   -8.1094    6.5421  -20.2611 N   0  0  0  0  0  0  0  0  0  0  0  0
   -8.5890    5.2758  -20.0666 C   0  0  0  0  0  0  0  0  0  0  0  0
   -7.8237    4.3342  -19.3365 C   0  0  0  0  0  0  0  0  0  0  0  0
   -6.5628    4.7646  -18.8241 C   0  0  0  0  0  0  0  0  0  0  0  0
   -5.8540    4.0037  -18.1887 O   0  0  0  0  0  0  0  0  0  0  0  0
   -8.6011    3.0895  -19.3179 C   0  0  0  0  0  0  0  0  0  0  0  0
   -8.2202    1.7765  -18.6865 C   0  0  0  0  0  0  0  0  0  0  0  0
   -8.4772    1.8329  -17.2413 N   0  0  0  0  0  0  0  0  0  0  0  0
   -9.7314    3.3489  -19.9868 C   0  0  0  0  0  0  0  0  0  0  0  0
   -9.7319    4.6409  -20.4409 N   0  0  0  0  0  0  0  0  0  0  0  0
   -6.5018    8.2115  -20.0077 N   0  0  0  0  0  0  0  0  0  0  0  0
  1  6  1  0  0  0  0
  2  1  1  0  0  0  0
  3  4  1  0  0  0  0
  3  2  2  0  0  0  0
  4  5  2  0  0  0  0
  5  8  1  0  0  0  0
  5  6  1  0  0  0  0
  6  7  2  0  0  0  0
  8  9  1  0  0  0  0
  9 10  1  0  0  0  0
 11  8  2  0  0  0  0
 12  4  1  0  0  0  0
 12 11  1  0  0  0  0
 13  2  1  0  0  0  0
M  END
>  <CHROM.1>
79.81166182,175.34072326,-7.75929614,4.69117647,-19.28498884,-1.18640808
0.49307824,2.67939121

>  <Name>
lig.pdb

>  <RI>
0

>  <Rbt.Current_Directory>
/home/itssahil/PROJECTS/Mol_Feturizer/New_Systems/rnas/2miy

>  <Rbt.Executable>
rbdock ($Id: //depot/dev/client3/rdock/2013.1/src/exe/rbdock.cxx#4 $)

>  <Rbt.Library>
libRbt.so (2013.1, Build901 2013/11/27)

>  <Rbt.Parameter_File>
/export/apps/rDock/src/rDock_2013.1_src/data/scripts/dock_solv.prm

>  <Rbt.Receptor>
prm/blind_docking_60.prm

>  <SCORE>
-27.7581

>  <SCORE.INTER>
-29.8315

>  <SCORE.INTER.CONST>
1

>  <SCORE.INTER.POLAR>
-4.43643

>  <SCORE.INTER.ROT>
2

>  <SCORE.INTER.SOLV>
10.7885

>  <SCORE.INTER.VDW>
-13.6291

>  <SCORE.INTER.norm>
-2.29473

>  <SCORE.INTRA>
1.6916

>  <SCORE.INTRA.DIHEDRAL>
0.211513

>  <SCORE.INTRA.DIHEDRAL.0>
1.76676

>  <SCORE.INTRA.POLAR>
0.472211

>  <SCORE.INTRA.POLAR.0>
-0.472211

>  <SCORE.INTRA.REPUL>
0

>  <SCORE.INTRA.REPUL.0>
0

>  <SCORE.INTRA.SOLV>
-0.372585

>  <SCORE.INTRA.SOLV.lig_0>
-22.5855

>  <SCORE.INTRA.VDW>
0.166619

>  <SCORE.INTRA.VDW.0>
-0.733656

>  <SCORE.INTRA.norm>
0.130123

>  <SCORE.RESTR>
0.381857

>  <SCORE.RESTR.CAVITY>
0.381857

>  <SCORE.RESTR.norm>
0.0293736

>  <SCORE.SYSTEM>
0

>  <SCORE.SYSTEM.CONST>
0

>  <SCORE.SYSTEM.DIHEDRAL>
0

>  <SCORE.SYSTEM.SOLV>
0

>  <SCORE.SYSTEM.norm>
0

>  <SCORE.heavy>
13

>  <SCORE.norm>
-2.13524

>  <RMSD>
12.864

$$$$
lig.pdb
 OpenBabel11021811453D
libRbt.so/2013.1/901 2013/11/27
 13 14  0  0  0  0  0  0  0  0999 V2000
   -7.0832    6.1417  -18.3777 N   0  0  0  0  0  0  0  0  0  0  0  0
   -6.5879    6.5984  -19.5661 C   0  0  0  0  0  0  0  0  0  0  0  0
   -6.6610    5.8475  -20.6504 N   0  0  0  0  0  0  0  0  0  0  0  0
   -7.2231    4.6004  -20.6354 C   0  0  0  0  0  0  0  0  0  0  0  0
   -7.7467    4.0752  -19.4290 C   0  0  0  0  0  0  0  0  0  0  0  0
   -7.6642    4.8941  -18.2627 C   0  0  0  0  0  0  0  0  0  0  0  0
   -8.0942    4.5017  -17.1921 O   0  0  0  0  0  0  0  0  0  0  0  0
   -8.2585    2.7364  -19.7444 C   0  0  0  0  0  0  0  0  0  0  0  0
   -8.8980    1.7507  -18.8025 C   0  0  0  0  0  0  0  0  0  0  0  0
   -8.3381    1.9232  -17.4555 N   0  0  0  0  0  0  0  0  0  0  0  0
   -8.0386    2.5546  -21.0524 C   0  0  0  0  0  0  0  0  0  0  0  0
   -7.4190    3.6514  -21.5896 N   0  0  0  0  0  0  0  0  0  0  0  0
   -6.0129    7.8414  -19.6308 N   0  0  0  0  0  0  0  0  0  0  0  0
  1  6  1  0  0  0  0
  2  1  1  0  0  0  0
  3  4  1  0  0  0  0
  3  2  2  0  0  0  0
  4  5  2  0  0  0  0
  5  8  1  0  0  0  0
  5  6  1  0  0  0  0
  6  7  2  0  0  0  0
  8  9  1  0  0  0  0
  9 10  1  0  0  0  0
 11  8  2  0  0  0  0
 12  4  1  0  0  0  0
 12 11  1  0  0  0  0
 13  2  1  0  0  0  0
M  END
>  <CHROM.1>
-30.68530687,-98.50631486,-7.52879526,4.42010040,-19.35708094,0.21823954
1.16596840,1.17012704

>  <Name>
lig.pdb

>  <RI>
0

>  <Rbt.Current_Directory>
/home/itssahil/PROJECTS/Mol_Feturizer/New_Systems/rnas/2miy

>  <Rbt.Executable>
rbdock ($Id: //depot/dev/client3/rdock/2013.1/src/exe/rbdock.cxx#4 $)

>  <Rbt.Library>
libRbt.so (2013.1, Build901 2013/11/27)

>  <Rbt.Parameter_File>
/export/apps/rDock/src/rDock_2013.1_src/data/scripts/dock_solv.prm

>  <Rbt.Receptor>
prm/blind_docking_60.prm

>  <SCORE>
-24.6002

>  <SCORE.INTER>
-25.7555

>  <SCORE.INTER.CONST>
1

>  <SCORE.INTER.POLAR>
-3.83656

>  <SCORE.INTER.ROT>
2

>  <SCORE.INTER.SOLV>
10.4936

>  <SCORE.INTER.VDW>
-12.813

>  <SCORE.INTER.norm>
-1.98119

>  <SCORE.INTRA>
1.15524

>  <SCORE.INTRA.DIHEDRAL>
0.751064

>  <SCORE.INTRA.DIHEDRAL.0>
1.76676

>  <SCORE.INTRA.POLAR>
0.130151

>  <SCORE.INTRA.POLAR.0>
-0.472211

>  <SCORE.INTRA.REPUL>
0

>  <SCORE.INTRA.REPUL.0>
0

>  <SCORE.INTRA.SOLV>
0.118617

>  <SCORE.INTRA.SOLV.lig_0>
-22.5855

>  <SCORE.INTRA.VDW>
0.277889

>  <SCORE.INTRA.VDW.0>
-0.733656

>  <SCORE.INTRA.norm>
0.0888649

>  <SCORE.RESTR>
0

>  <SCORE.RESTR.CAVITY>
0

>  <SCORE.RESTR.norm>
0

>  <SCORE.SYSTEM>
0

>  <SCORE.SYSTEM.CONST>
0

>  <SCORE.SYSTEM.DIHEDRAL>
0

>  <SCORE.SYSTEM.SOLV>
0

>  <SCORE.SYSTEM.norm>
0

>  <SCORE.heavy>
13

>  <SCORE.norm>
-1.89232

>  <RMSD>
12.875

$$$$
lig.pdb
 OpenBabel11021811453D
libRbt.so/2013.1/901 2013/11/27
 13 14  0  0  0  0  0  0  0  0999 V2000
   -6.1941    5.3500  -20.7285 N   0  0  0  0  0  0  0  0  0  0  0  0
   -5.9462    6.2644  -19.7442 C   0  0  0  0  0  0  0  0  0  0  0  0
   -6.3858    6.0562  -18.5161 N   0  0  0  0  0  0  0  0  0  0  0  0
   -7.0981    4.9383  -18.1778 C   0  0  0  0  0  0  0  0  0  0  0  0
   -7.3886    3.9608  -19.1603 C   0  0  0  0  0  0  0  0  0  0  0  0
   -6.9087    4.1937  -20.4844 C   0  0  0  0  0  0  0  0  0  0  0  0
   -7.1254    3.3932  -21.3774 O   0  0  0  0  0  0  0  0  0  0  0  0
   -8.1628    2.9108  -18.4879 C   0  0  0  0  0  0  0  0  0  0  0  0
   -8.7335    1.6568  -19.0957 C   0  0  0  0  0  0  0  0  0  0  0  0
   -8.3098    0.4915  -18.3080 N   0  0  0  0  0  0  0  0  0  0  0  0
   -8.2705    3.2917  -17.2090 C   0  0  0  0  0  0  0  0  0  0  0  0
   -7.6481    4.4961  -17.0153 N   0  0  0  0  0  0  0  0  0  0  0  0
   -5.2383    7.4020  -20.0350 N   0  0  0  0  0  0  0  0  0  0  0  0
  1  6  1  0  0  0  0
  2  1  1  0  0  0  0
  3  4  1  0  0  0  0
  3  2  2  0  0  0  0
  4  5  2  0  0  0  0
  5  8  1  0  0  0  0
  5  6  1  0  0  0  0
  6  7  2  0  0  0  0
  8  9  1  0  0  0  0
  9 10  1  0  0  0  0
 11  8  2  0  0  0  0
 12  4  1  0  0  0  0
 12 11  1  0  0  0  0
 13  2  1  0  0  0  0
M  END
>  <CHROM.1>
127.72304606,-40.74275021,-7.16476627,4.17242733,-19.13010196,-0.16821360
-1.09108863,-2.07885922

>  <Name>
lig.pdb

>  <RI>
1.17462e+07

>  <Rbt.Current_Directory>
/home/itssahil/PROJECTS/Mol_Feturizer/New_Systems/rnas/2miy

>  <Rbt.Executable>
rbdock ($Id: //depot/dev/client3/rdock/2013.1/src/exe/rbdock.cxx#4 $)

>  <Rbt.Library>
libRbt.so (2013.1, Build901 2013/11/27)

>  <Rbt.Parameter_File>
/export/apps/rDock/src/rDock_2013.1_src/data/scripts/dock_solv.prm

>  <Rbt.Receptor>
prm/blind_docking_40.prm

>  <SCORE>
-23.7776

>  <SCORE.INTER>
-27.2106

>  <SCORE.INTER.CONST>
1

>  <SCORE.INTER.POLAR>
-3.46004

>  <SCORE.INTER.ROT>
2

>  <SCORE.INTER.SOLV>
13.3105

>  <SCORE.INTER.VDW>
-15.9771

>  <SCORE.INTER.norm>
-2.09312

>  <SCORE.INTRA>
2.51016

>  <SCORE.INTRA.DIHEDRAL>
1.76247

>  <SCORE.INTRA.DIHEDRAL.0>
1.76676

>  <SCORE.INTRA.POLAR>
0.472211

>  <SCORE.INTRA.POLAR.0>
-0.472211

>  <SCORE.INTRA.REPUL>
0

>  <SCORE.INTRA.REPUL.0>
0

>  <SCORE.INTRA.SOLV>
-0.633325

>  <SCORE.INTRA.SOLV.lig_0>
-22.5855

>  <SCORE.INTRA.VDW>
0.34007

>  <SCORE.INTRA.VDW.0>
-0.733656

>  <SCORE.INTRA.norm>
0.193089

>  <SCORE.RESTR>
0.922792

>  <SCORE.RESTR.CAVITY>
0.922792

>  <SCORE.RESTR.norm>
0.070984

>  <SCORE.SYSTEM>
0

>  <SCORE.SYSTEM.CONST>
0

>  <SCORE.SYSTEM.DIHEDRAL>
0

>  <SCORE.SYSTEM.SOLV>
0

>  <SCORE.SYSTEM.norm>
0

>  <SCORE.heavy>
13

>  <SCORE.norm>
-1.82905

>  <RMSD>
12.900

$$$$
lig.pdb
 OpenBabel11021811453D
libRbt.so/2013.1/901 2013/11/27
 13 14  0  0  0  0  0  0  0  0999 V2000
   -8.6050    2.2792  -19.7430 N   0  0  0  0  0  0  0  0  0  0  0  0
   -8.4250    2.1577  -18.3942 C   0  0  0  0  0  0  0  0  0  0  0  0
   -7.8844    3.1451  -17.7031 N   0  0  0  0  0  0  0  0  0  0  0  0
   -7.4848    4.3128  -18.2931 C   0  0  0  0  0  0  0  0  0  0  0  0
   -7.6426    4.4898  -19.6892 C   0  0  0  0  0  0  0  0  0  0  0  0
   -8.2286    3.4180  -20.4278 C   0  0  0  0  0  0  0  0  0  0  0  0
   -8.3913    3.5048  -21.6323 O   0  0  0  0  0  0  0  0  0  0  0  0
   -7.1143    5.8226  -20.0030 C   0  0  0  0  0  0  0  0  0  0  0  0
   -7.0310    6.4846  -21.3530 C   0  0  0  0  0  0  0  0  0  0  0  0
   -6.0025    5.8199  -22.1641 N   0  0  0  0  0  0  0  0  0  0  0  0
   -6.7086    6.3437  -18.8384 C   0  0  0  0  0  0  0  0  0  0  0  0
   -6.9177    5.4541  -17.8185 N   0  0  0  0  0  0  0  0  0  0  0  0
   -8.8075    1.0049  -17.7580 N   0  0  0  0  0  0  0  0  0  0  0  0
  1  6  1  0  0  0  0
  2  1  1  0  0  0  0
  3  4  1  0  0  0  0
  3  2  2  0  0  0  0
  4  5  2  0  0  0  0
  5  8  1  0  0  0  0
  5  6  1  0  0  0  0
  6  7  2  0  0  0  0
  8  9  1  0  0  0  0
  9 10  1  0  0  0  0
 11  8  2  0  0  0  0
 12  4  1  0  0  0  0
 12 11  1  0  0  0  0
 13  2  1  0  0  0  0
M  END
>  <CHROM.1>
-70.80013972,-77.27946939,-7.63429305,4.12950690,-19.56053787,2.52649687
1.12131709,1.65389969

>  <Name>
lig.pdb

>  <RI>
0

>  <Rbt.Current_Directory>
/home/itssahil/PROJECTS/Mol_Feturizer/New_Systems/rnas/2miy

>  <Rbt.Executable>
rbdock ($Id: //depot/dev/client3/rdock/2013.1/src/exe/rbdock.cxx#4 $)

>  <Rbt.Library>
libRbt.so (2013.1, Build901 2013/11/27)

>  <Rbt.Parameter_File>
/export/apps/rDock/src/rDock_2013.1_src/data/scripts/dock_solv.prm

>  <Rbt.Receptor>
prm/blind_docking_60.prm

>  <SCORE>
-18.2207

>  <SCORE.INTER>
-19.7189

>  <SCORE.INTER.CONST>
1

>  <SCORE.INTER.POLAR>
-2.28411

>  <SCORE.INTER.ROT>
2

>  <SCORE.INTER.SOLV>
10.0192

>  <SCORE.INTER.VDW>
-13.8053

>  <SCORE.INTER.norm>
-1.51684

>  <SCORE.INTRA>
1.46586

>  <SCORE.INTRA.DIHEDRAL>
-0.126481

>  <SCORE.INTRA.DIHEDRAL.0>
1.76676

>  <SCORE.INTRA.POLAR>
0.472211

>  <SCORE.INTRA.POLAR.0>
-0.472211

>  <SCORE.INTRA.REPUL>
0

>  <SCORE.INTRA.REPUL.0>
0

>  <SCORE.INTRA.SOLV>
-0.269433

>  <SCORE.INTRA.SOLV.lig_0>
-22.5855

>  <SCORE.INTRA.VDW>
0.0582939

>  <SCORE.INTRA.VDW.0>
-0.733656

>  <SCORE.INTRA.norm>
0.112758

>  <SCORE.RESTR>
0.0323447

>  <SCORE.RESTR.CAVITY>
0.0323447

>  <SCORE.RESTR.norm>
0.00248805

>  <SCORE.SYSTEM>
0

>  <SCORE.SYSTEM.CONST>
0

>  <SCORE.SYSTEM.DIHEDRAL>
0

>  <SCORE.SYSTEM.SOLV>
0

>  <SCORE.SYSTEM.norm>
0

>  <SCORE.heavy>
13

>  <SCORE.norm>
-1.40159

>  <RMSD>
12.908

$$$$
lig.pdb
 OpenBabel11021811453D
libRbt.so/2013.1/901 2013/11/27
 13 14  0  0  0  0  0  0  0  0999 V2000
   -7.1318    5.4500  -18.3181 N   0  0  0  0  0  0  0  0  0  0  0  0
   -6.7096    5.9805  -19.5041 C   0  0  0  0  0  0  0  0  0  0  0  0
   -6.8494    5.2976  -20.6262 N   0  0  0  0  0  0  0  0  0  0  0  0
   -7.4106    4.0503  -20.6538 C   0  0  0  0  0  0  0  0  0  0  0  0
   -7.8600    3.4503  -19.4524 C   0  0  0  0  0  0  0  0  0  0  0  0
   -7.7059    4.1960  -18.2450 C   0  0  0  0  0  0  0  0  0  0  0  0
   -8.0701    3.7372  -17.1764 O   0  0  0  0  0  0  0  0  0  0  0  0
   -8.3913    2.1319  -19.8180 C   0  0  0  0  0  0  0  0  0  0  0  0
   -8.9730    1.0883  -18.9014 C   0  0  0  0  0  0  0  0  0  0  0  0
   -7.9090    0.5241  -18.0604 N   0  0  0  0  0  0  0  0  0  0  0  0
   -8.2518    2.0317  -21.1456 C   0  0  0  0  0  0  0  0  0  0  0  0
   -7.6652    3.1613  -21.6510 N   0  0  0  0  0  0  0  0  0  0  0  0
   -6.1385    7.2268  -19.5270 N   0  0  0  0  0  0  0  0  0  0  0  0
  1  6  1  0  0  0  0
  2  1  1  0  0  0  0
  3  4  1  0  0  0  0
  3  2  2  0  0  0  0
  4  5  2  0  0  0  0
  5  8  1  0  0  0  0
  5  6  1  0  0  0  0
  6  7  2  0  0  0  0
  8  9  1  0  0  0  0
  9 10  1  0  0  0  0
 11  8  2  0  0  0  0
 12  4  1  0  0  0  0
 12 11  1  0  0  0  0
 13  2  1  0  0  0  0
M  END
>  <CHROM.1>
-69.25052853,-1.39038431,-7.59837206,3.72961147,-19.41743068,0.06220113,1.23241101
1.42338665

>  <Name>
lig.pdb

>  <RI>
0

>  <Rbt.Current_Directory>
/home/itssahil/PROJECTS/Mol_Feturizer/New_Systems/rnas/2miy

>  <Rbt.Executable>
rbdock ($Id: //depot/dev/client3/rdock/2013.1/src/exe/rbdock.cxx#4 $)

>  <Rbt.Library>
libRbt.so (2013.1, Build901 2013/11/27)

>  <Rbt.Parameter_File>
/export/apps/rDock/src/rDock_2013.1_src/data/scripts/dock_solv.prm

>  <Rbt.Receptor>
prm/blind_docking_60.prm

>  <SCORE>
-22.3133

>  <SCORE.INTER>
-23.8656

>  <SCORE.INTER.CONST>
1

>  <SCORE.INTER.POLAR>
-3.84195

>  <SCORE.INTER.ROT>
2

>  <SCORE.INTER.SOLV>
11.6373

>  <SCORE.INTER.VDW>
-11.9163

>  <SCORE.INTER.norm>
-1.83581

>  <SCORE.INTRA>
1.4929

>  <SCORE.INTRA.DIHEDRAL>
-0.196747

>  <SCORE.INTRA.DIHEDRAL.0>
1.76676

>  <SCORE.INTRA.POLAR>
0.472211

>  <SCORE.INTRA.POLAR.0>
-0.472211

>  <SCORE.INTRA.REPUL>
0

>  <SCORE.INTRA.REPUL.0>
0

>  <SCORE.INTRA.SOLV>
-0.27626

>  <SCORE.INTRA.SOLV.lig_0>
-22.5855

>  <SCORE.INTRA.VDW>
0.123887

>  <SCORE.INTRA.VDW.0>
-0.733656

>  <SCORE.INTRA.norm>
0.114838

>  <SCORE.RESTR>
0.059429

>  <SCORE.RESTR.CAVITY>
0.059429

>  <SCORE.RESTR.norm>
0.00457146

>  <SCORE.SYSTEM>
0

>  <SCORE.SYSTEM.CONST>
0

>  <SCORE.SYSTEM.DIHEDRAL>
0

>  <SCORE.SYSTEM.SOLV>
0

>  <SCORE.SYSTEM.norm>
0

>  <SCORE.heavy>
13

>  <SCORE.norm>
-1.7164

>  <RMSD>
12.941

$$$$
lig.pdb
 OpenBabel11021811453D
libRbt.so/2013.1/901 2013/11/27
 13 14  0  0  0  0  0  0  0  0999 V2000
  -14.4141   -8.1628  -14.0551 N   0  0  0  0  0  0  0  0  0  0  0  0
  -14.2005   -7.7805  -15.3492 C   0  0  0  0  0  0  0  0  0  0  0  0
  -13.6669   -6.6019  -15.6157 N   0  0  0  0  0  0  0  0  0  0  0  0
  -13.3114   -5.7240  -14.6286 C   0  0  0  0  0  0  0  0  0  0  0  0
  -13.5162   -6.0668  -13.2700 C   0  0  0  0  0  0  0  0  0  0  0  0
  -14.0924   -7.3428  -12.9914 C   0  0  0  0  0  0  0  0  0  0  0  0
  -14.2968   -7.6991  -11.8441 O   0  0  0  0  0  0  0  0  0  0  0  0
  -13.0473   -4.9248  -12.4764 C   0  0  0  0  0  0  0  0  0  0  0  0
  -13.0643   -4.7770  -10.9779 C   0  0  0  0  0  0  0  0  0  0  0  0
  -12.9855   -6.1036  -10.3519 N   0  0  0  0  0  0  0  0  0  0  0  0
  -12.5986   -4.0215  -13.3567 C   0  0  0  0  0  0  0  0  0  0  0  0
  -12.7565   -4.4825  -14.6366 N   0  0  0  0  0  0  0  0  0  0  0  0
  -14.5426   -8.6254  -16.3734 N   0  0  0  0  0  0  0  0  0  0  0  0
  1  6  1  0  0  0  0
  2  1  1  0  0  0  0
  3  4  1  0  0  0  0
  3  2  2  0  0  0  0
  4  5  2  0  0  0  0
  5  8  1  0  0  0  0
  5  6  1  0  0  0  0
  6  7  2  0  0  0  0
  8  9  1  0  0  0  0
  9 10  1  0  0  0  0
 11  8  2  0  0  0  0
 12  4  1  0  0  0  0
 12 11  1  0  0  0  0
 13  2  1  0  0  0  0
M  END
>  <CHROM.1>
27.84261213,110.24377610,-13.59264045,-6.39127448,-13.51362018,2.25094676
-1.16472694,-1.51317681

>  <Name>
lig.pdb

>  <RI>
1.8118e+07

>  <Rbt.Current_Directory>
/home/itssahil/PROJECTS/Mol_Feturizer/New_Systems/rnas/2miy

>  <Rbt.Executable>
rbdock ($Id: //depot/dev/client3/rdock/2013.1/src/exe/rbdock.cxx#4 $)

>  <Rbt.Library>
libRbt.so (2013.1, Build901 2013/11/27)

>  <Rbt.Parameter_File>
/export/apps/rDock/src/rDock_2013.1_src/data/scripts/dock_solv.prm

>  <Rbt.Receptor>
prm/blind_docking_100.prm

>  <SCORE>
-12.4523

>  <SCORE.INTER>
-13.0666

>  <SCORE.INTER.CONST>
1

>  <SCORE.INTER.POLAR>
-1.92318

>  <SCORE.INTER.ROT>
2

>  <SCORE.INTER.SOLV>
8.45188

>  <SCORE.INTER.VDW>
-10.0511

>  <SCORE.INTER.norm>
-1.00512

>  <SCORE.INTRA>
0.614323

>  <SCORE.INTRA.DIHEDRAL>
0.893422

>  <SCORE.INTRA.DIHEDRAL.0>
1.76676

>  <SCORE.INTRA.POLAR>
-0.104218

>  <SCORE.INTRA.POLAR.0>
-0.472211

>  <SCORE.INTRA.REPUL>
0

>  <SCORE.INTRA.REPUL.0>
0

>  <SCORE.INTRA.SOLV>
0.14967

>  <SCORE.INTRA.SOLV.lig_0>
-22.5855

>  <SCORE.INTRA.VDW>
0.44712

>  <SCORE.INTRA.VDW.0>
-0.733656

>  <SCORE.INTRA.norm>
0.0472556

>  <SCORE.RESTR>
0

>  <SCORE.RESTR.CAVITY>
0

>  <SCORE.RESTR.norm>
0

>  <SCORE.SYSTEM>
0

>  <SCORE.SYSTEM.CONST>
0

>  <SCORE.SYSTEM.DIHEDRAL>
0

>  <SCORE.SYSTEM.SOLV>
0

>  <SCORE.SYSTEM.norm>
0

>  <SCORE.heavy>
13

>  <SCORE.norm>
-0.957869

>  <RMSD>
13.233

$$$$
lig.pdb
 OpenBabel11021811453D
libRbt.so/2013.1/901 2013/11/27
 13 14  0  0  0  0  0  0  0  0999 V2000
   -6.2623    7.6048  -19.4308 N   0  0  0  0  0  0  0  0  0  0  0  0
   -5.2034    7.3450  -20.2539 C   0  0  0  0  0  0  0  0  0  0  0  0
   -5.2078    6.2734  -21.0263 N   0  0  0  0  0  0  0  0  0  0  0  0
   -6.2513    5.3888  -21.0375 C   0  0  0  0  0  0  0  0  0  0  0  0
   -7.3719    5.6064  -20.1996 C   0  0  0  0  0  0  0  0  0  0  0  0
   -7.3588    6.7674  -19.3692 C   0  0  0  0  0  0  0  0  0  0  0  0
   -8.2909    7.0127  -18.6235 O   0  0  0  0  0  0  0  0  0  0  0  0
   -8.2940    4.4898  -20.4380 C   0  0  0  0  0  0  0  0  0  0  0  0
   -9.6252    4.2396  -19.7798 C   0  0  0  0  0  0  0  0  0  0  0  0
   -9.5724    4.6814  -18.3799 N   0  0  0  0  0  0  0  0  0  0  0  0
   -7.7114    3.7201  -21.3655 C   0  0  0  0  0  0  0  0  0  0  0  0
   -6.4963    4.2404  -21.7236 N   0  0  0  0  0  0  0  0  0  0  0  0
   -4.1328    8.2013  -20.2761 N   0  0  0  0  0  0  0  0  0  0  0  0
  1  6  1  0  0  0  0
  2  1  1  0  0  0  0
  3  4  1  0  0  0  0
  3  2  2  0  0  0  0
  4  5  2  0  0  0  0
  5  8  1  0  0  0  0
  5  6  1  0  0  0  0
  6  7  2  0  0  0  0
  8  9  1  0  0  0  0
  9 10  1  0  0  0  0
 11  8  2  0  0  0  0
 12  4  1  0  0  0  0
 12 11  1  0  0  0  0
 13  2  1  0  0  0  0
M  END
>  <CHROM.1>
-35.06185901,-121.74534011,-7.05920487,5.85467299,-20.09812775,0.40933277
0.53424478,0.66395197

>  <Name>
lig.pdb

>  <RI>
0

>  <Rbt.Current_Directory>
/home/itssahil/PROJECTS/Mol_Feturizer/New_Systems/rnas/2miy

>  <Rbt.Executable>
rbdock ($Id: //depot/dev/client3/rdock/2013.1/src/exe/rbdock.cxx#4 $)

>  <Rbt.Library>
libRbt.so (2013.1, Build901 2013/11/27)

>  <Rbt.Parameter_File>
/export/apps/rDock/src/rDock_2013.1_src/data/scripts/dock_solv.prm

>  <Rbt.Receptor>
prm/blind_docking_60.prm

>  <SCORE>
-17.8555

>  <SCORE.INTER>
-17.4838

>  <SCORE.INTER.CONST>
1

>  <SCORE.INTER.POLAR>
-2.45226

>  <SCORE.INTER.ROT>
2

>  <SCORE.INTER.SOLV>
11.6757

>  <SCORE.INTER.VDW>
-12.3069

>  <SCORE.INTER.norm>
-1.34491

>  <SCORE.INTRA>
-0.629583

>  <SCORE.INTRA.DIHEDRAL>
0.473047

>  <SCORE.INTRA.DIHEDRAL.0>
1.76676

>  <SCORE.INTRA.POLAR>
-0.32697

>  <SCORE.INTRA.POLAR.0>
-0.472211

>  <SCORE.INTRA.REPUL>
0

>  <SCORE.INTRA.REPUL.0>
0

>  <SCORE.INTRA.SOLV>
0.0868554

>  <SCORE.INTRA.SOLV.lig_0>
-22.5855

>  <SCORE.INTRA.VDW>
0.202164

>  <SCORE.INTRA.VDW.0>
-0.733656

>  <SCORE.INTRA.norm>
-0.0484295

>  <SCORE.RESTR>
0.257906

>  <SCORE.RESTR.CAVITY>
0.257906

>  <SCORE.RESTR.norm>
0.0198389

>  <SCORE.SYSTEM>
0

>  <SCORE.SYSTEM.CONST>
0

>  <SCORE.SYSTEM.DIHEDRAL>
0

>  <SCORE.SYSTEM.SOLV>
0

>  <SCORE.SYSTEM.norm>
0

>  <SCORE.heavy>
13

>  <SCORE.norm>
-1.3735

>  <RMSD>
13.814

$$$$
lig.pdb
 OpenBabel11021811453D
libRbt.so/2013.1/901 2013/11/27
 13 14  0  0  0  0  0  0  0  0999 V2000
   -5.7192    8.1770  -19.6297 N   0  0  0  0  0  0  0  0  0  0  0  0
   -5.0838    8.1935  -20.8390 C   0  0  0  0  0  0  0  0  0  0  0  0
   -5.1511    7.1459  -21.6407 N   0  0  0  0  0  0  0  0  0  0  0  0
   -5.8448    6.0157  -21.3046 C   0  0  0  0  0  0  0  0  0  0  0  0
   -6.5171    5.9424  -20.0605 C   0  0  0  0  0  0  0  0  0  0  0  0
   -6.4397    7.0795  -19.2010 C   0  0  0  0  0  0  0  0  0  0  0  0
   -6.9940    7.0814  -18.1158 O   0  0  0  0  0  0  0  0  0  0  0  0
   -7.1445    4.6168  -20.0029 C   0  0  0  0  0  0  0  0  0  0  0  0
   -7.9606    4.0335  -18.8798 C   0  0  0  0  0  0  0  0  0  0  0  0
   -8.7542    5.0946  -18.2459 N   0  0  0  0  0  0  0  0  0  0  0  0
   -6.8418    4.0134  -21.1590 C   0  0  0  0  0  0  0  0  0  0  0  0
   -6.0658    4.8316  -21.9360 N   0  0  0  0  0  0  0  0  0  0  0  0
   -4.3737    9.3031  -21.2193 N   0  0  0  0  0  0  0  0  0  0  0  0
  1  6  1  0  0  0  0
  2  1  1  0  0  0  0
  3  4  1  0  0  0  0
  3  2  2  0  0  0  0
  4  5  2  0  0  0  0
  5  8  1  0  0  0  0
  5  6  1  0  0  0  0
  6  7  2  0  0  0  0
  8  9  1  0  0  0  0
  9 10  1  0  0  0  0
 11  8  2  0  0  0  0
 12  4  1  0  0  0  0
 12 11  1  0  0  0  0
 13  2  1  0  0  0  0
M  END
>  <CHROM.1>
35.28072814,-68.00592012,-6.38691970,6.32217269,-20.13504689,0.38357191,0.90220568
0.67200565

>  <Name>
lig.pdb

>  <RI>
0

>  <Rbt.Current_Directory>
/home/itssahil/PROJECTS/Mol_Feturizer/New_Systems/rnas/2miy

>  <Rbt.Executable>
rbdock ($Id: //depot/dev/client3/rdock/2013.1/src/exe/rbdock.cxx#4 $)

>  <Rbt.Library>
libRbt.so (2013.1, Build901 2013/11/27)

>  <Rbt.Parameter_File>
/export/apps/rDock/src/rDock_2013.1_src/data/scripts/dock_solv.prm

>  <Rbt.Receptor>
prm/blind_docking_60.prm

>  <SCORE>
-20.8416

>  <SCORE.INTER>
-20.7439

>  <SCORE.INTER.CONST>
1

>  <SCORE.INTER.POLAR>
-2.972

>  <SCORE.INTER.ROT>
2

>  <SCORE.INTER.SOLV>
10.0202

>  <SCORE.INTER.VDW>
-12.196

>  <SCORE.INTER.norm>
-1.59568

>  <SCORE.INTRA>
-0.261673

>  <SCORE.INTRA.DIHEDRAL>
0.494654

>  <SCORE.INTRA.DIHEDRAL.0>
1.76676

>  <SCORE.INTRA.POLAR>
-0.214615

>  <SCORE.INTRA.POLAR.0>
-0.472211

>  <SCORE.INTRA.REPUL>
0

>  <SCORE.INTRA.REPUL.0>
0

>  <SCORE.INTRA.SOLV>
0.0896715

>  <SCORE.INTRA.SOLV.lig_0>
-22.5855

>  <SCORE.INTRA.VDW>
0.175856

>  <SCORE.INTRA.VDW.0>
-0.733656

>  <SCORE.INTRA.norm>
-0.0201287

>  <SCORE.RESTR>
0.163981

>  <SCORE.RESTR.CAVITY>
0.163981

>  <SCORE.RESTR.norm>
0.012614

>  <SCORE.SYSTEM>
0

>  <SCORE.SYSTEM.CONST>
0

>  <SCORE.SYSTEM.DIHEDRAL>
0

>  <SCORE.SYSTEM.SOLV>
0

>  <SCORE.SYSTEM.norm>
0

>  <SCORE.heavy>
13

>  <SCORE.norm>
-1.6032

>  <RMSD>
13.951

$$$$
lig.pdb
 OpenBabel11021811453D
libRbt.so/2013.1/901 2013/11/27
 13 14  0  0  0  0  0  0  0  0999 V2000
  -22.0837  -12.5654  -12.5627 N   0  0  0  0  0  0  0  0  0  0  0  0
  -21.9214  -13.6913  -11.8060 C   0  0  0  0  0  0  0  0  0  0  0  0
  -22.0666  -13.6384  -10.4942 N   0  0  0  0  0  0  0  0  0  0  0  0
  -22.3783  -12.4765   -9.8428 C   0  0  0  0  0  0  0  0  0  0  0  0
  -22.5519  -11.2785  -10.5776 C   0  0  0  0  0  0  0  0  0  0  0  0
  -22.3941  -11.3454  -11.9948 C   0  0  0  0  0  0  0  0  0  0  0  0
  -22.5282  -10.3508  -12.6860 O   0  0  0  0  0  0  0  0  0  0  0  0
  -22.8629  -10.2301   -9.5988 C   0  0  0  0  0  0  0  0  0  0  0  0
  -23.1160   -8.7696   -9.8644 C   0  0  0  0  0  0  0  0  0  0  0  0
  -24.3561   -8.6179  -10.6369 N   0  0  0  0  0  0  0  0  0  0  0  0
  -22.8730  -10.8315   -8.4028 C   0  0  0  0  0  0  0  0  0  0  0  0
  -22.5804  -12.1628   -8.5350 N   0  0  0  0  0  0  0  0  0  0  0  0
  -21.6061  -14.8795  -12.4133 N   0  0  0  0  0  0  0  0  0  0  0  0
  1  6  1  0  0  0  0
  2  1  1  0  0  0  0
  3  4  1  0  0  0  0
  3  2  2  0  0  0  0
  4  5  2  0  0  0  0
  5  8  1  0  0  0  0
  5  6  1  0  0  0  0
  6  7  2  0  0  0  0
  8  9  1  0  0  0  0
  9 10  1  0  0  0  0
 11  8  2  0  0  0  0
 12  4  1  0  0  0  0
 12 11  1  0  0  0  0
 13  2  1  0  0  0  0
M  END
>  <CHROM.1>
66.07113626,60.47810879,-22.57826413,-11.60164396,-10.77926712,0.19372524
1.25212759,-1.36002083

>  <Name>
lig.pdb

>  <RI>
1.17462e+07

>  <Rbt.Current_Directory>
/home/itssahil/PROJECTS/Mol_Feturizer/New_Systems/rnas/2miy

>  <Rbt.Executable>
rbdock ($Id: //depot/dev/client3/rdock/2013.1/src/exe/rbdock.cxx#4 $)

>  <Rbt.Library>
libRbt.so (2013.1, Build901 2013/11/27)

>  <Rbt.Parameter_File>
/export/apps/rDock/src/rDock_2013.1_src/data/scripts/dock_solv.prm

>  <Rbt.Receptor>
prm/blind_docking_40.prm

>  <SCORE>
-26.3996

>  <SCORE.INTER>
-28.3201

>  <SCORE.INTER.CONST>
1

>  <SCORE.INTER.POLAR>
-4.34363

>  <SCORE.INTER.ROT>
2

>  <SCORE.INTER.SOLV>
10.8583

>  <SCORE.INTER.VDW>
-12.954

>  <SCORE.INTER.norm>
-2.17847

>  <SCORE.INTRA>
1.39291

>  <SCORE.INTRA.DIHEDRAL>
-0.276362

>  <SCORE.INTRA.DIHEDRAL.0>
1.76676

>  <SCORE.INTRA.POLAR>
0.472211

>  <SCORE.INTRA.POLAR.0>
-0.472211

>  <SCORE.INTRA.REPUL>
0

>  <SCORE.INTRA.REPUL.0>
0

>  <SCORE.INTRA.SOLV>
-0.229316

>  <SCORE.INTRA.SOLV.lig_0>
-22.5855

>  <SCORE.INTRA.VDW>
0.0402326

>  <SCORE.INTRA.VDW.0>
-0.733656

>  <SCORE.INTRA.norm>
0.107147

>  <SCORE.RESTR>
0.527562

>  <SCORE.RESTR.CAVITY>
0.527562

>  <SCORE.RESTR.norm>
0.0405817

>  <SCORE.SYSTEM>
0

>  <SCORE.SYSTEM.CONST>
0

>  <SCORE.SYSTEM.DIHEDRAL>
0

>  <SCORE.SYSTEM.SOLV>
0

>  <SCORE.SYSTEM.norm>
0

>  <SCORE.heavy>
13

>  <SCORE.norm>
-2.03074

>  <RMSD>
21.302

$$$$
lig.pdb
 OpenBabel11021811453D
libRbt.so/2013.1/901 2013/11/27
 13 14  0  0  0  0  0  0  0  0999 V2000
  -22.1946  -12.6047  -12.5556 N   0  0  0  0  0  0  0  0  0  0  0  0
  -21.9370  -13.7009  -11.7820 C   0  0  0  0  0  0  0  0  0  0  0  0
  -22.0971  -13.6437  -10.4721 N   0  0  0  0  0  0  0  0  0  0  0  0
  -22.5184  -12.5063   -9.8394 C   0  0  0  0  0  0  0  0  0  0  0  0
  -22.7941  -11.3391  -10.5923 C   0  0  0  0  0  0  0  0  0  0  0  0
  -22.6192  -11.4104  -12.0072 C   0  0  0  0  0  0  0  0  0  0  0  0
  -22.8375  -10.4416  -12.7134 O   0  0  0  0  0  0  0  0  0  0  0  0
  -23.2071  -10.3103   -9.6305 C   0  0  0  0  0  0  0  0  0  0  0  0
  -23.5897   -8.8826   -9.9185 C   0  0  0  0  0  0  0  0  0  0  0  0
  -22.3923   -8.1183  -10.2925 N   0  0  0  0  0  0  0  0  0  0  0  0
  -23.1723  -10.8940   -8.4263 C   0  0  0  0  0  0  0  0  0  0  0  0
  -22.7589  -12.1948   -8.5376 N   0  0  0  0  0  0  0  0  0  0  0  0
  -21.5101  -14.8635  -12.3702 N   0  0  0  0  0  0  0  0  0  0  0  0
  1  6  1  0  0  0  0
  2  1  1  0  0  0  0
  3  4  1  0  0  0  0
  3  2  2  0  0  0  0
  4  5  2  0  0  0  0
  5  8  1  0  0  0  0
  5  6  1  0  0  0  0
  6  7  2  0  0  0  0
  8  9  1  0  0  0  0
  9 10  1  0  0  0  0
 11  8  2  0  0  0  0
 12  4  1  0  0  0  0
 12 11  1  0  0  0  0
 13  2  1  0  0  0  0
M  END
>  <CHROM.1>
-71.55956670,171.94677806,-22.56177716,-11.59727536,-10.75137524,-0.24280285
1.34572878,-0.90241806

>  <Name>
lig.pdb

>  <RI>
1.17462e+07

>  <Rbt.Current_Directory>
/home/itssahil/PROJECTS/Mol_Feturizer/New_Systems/rnas/2miy

>  <Rbt.Executable>
rbdock ($Id: //depot/dev/client3/rdock/2013.1/src/exe/rbdock.cxx#4 $)

>  <Rbt.Library>
libRbt.so (2013.1, Build901 2013/11/27)

>  <Rbt.Parameter_File>
/export/apps/rDock/src/rDock_2013.1_src/data/scripts/dock_solv.prm

>  <Rbt.Receptor>
prm/blind_docking_40.prm

>  <SCORE>
-33.3839

>  <SCORE.INTER>
-35.3962

>  <SCORE.INTER.CONST>
1

>  <SCORE.INTER.POLAR>
-5.87814

>  <SCORE.INTER.ROT>
2

>  <SCORE.INTER.SOLV>
12.4306

>  <SCORE.INTER.VDW>
-13.0805

>  <SCORE.INTER.norm>
-2.72278

>  <SCORE.INTRA>
1.53017

>  <SCORE.INTRA.DIHEDRAL>
-0.113635

>  <SCORE.INTRA.DIHEDRAL.0>
1.76676

>  <SCORE.INTRA.POLAR>
0.472211

>  <SCORE.INTRA.POLAR.0>
-0.472211

>  <SCORE.INTRA.REPUL>
0

>  <SCORE.INTRA.REPUL.0>
0

>  <SCORE.INTRA.SOLV>
-0.306289

>  <SCORE.INTRA.SOLV.lig_0>
-22.5855

>  <SCORE.INTRA.VDW>
0.134613

>  <SCORE.INTRA.VDW.0>
-0.733656

>  <SCORE.INTRA.norm>
0.117705

>  <SCORE.RESTR>
0.482137

>  <SCORE.RESTR.CAVITY>
0.482137

>  <SCORE.RESTR.norm>
0.0370875

>  <SCORE.SYSTEM>
0

>  <SCORE.SYSTEM.CONST>
0

>  <SCORE.SYSTEM.DIHEDRAL>
0

>  <SCORE.SYSTEM.SOLV>
0

>  <SCORE.SYSTEM.norm>
0

>  <SCORE.heavy>
13

>  <SCORE.norm>
-2.56799

>  <RMSD>
21.310

$$$$
lig.pdb
 OpenBabel11021811453D
libRbt.so/2013.1/901 2013/11/27
 13 14  0  0  0  0  0  0  0  0999 V2000
  -15.2886  -17.2793  -18.5216 N   0  0  0  0  0  0  0  0  0  0  0  0
  -14.7700  -17.7148  -17.3352 C   0  0  0  0  0  0  0  0  0  0  0  0
  -15.4677  -17.5958  -16.2199 N   0  0  0  0  0  0  0  0  0  0  0  0
  -16.7175  -17.0400  -16.1993 C   0  0  0  0  0  0  0  0  0  0  0  0
  -17.3008  -16.5666  -17.3997 C   0  0  0  0  0  0  0  0  0  0  0  0
  -16.5400  -16.7002  -18.6001 C   0  0  0  0  0  0  0  0  0  0  0  0
  -16.9826  -16.3118  -19.6669 O   0  0  0  0  0  0  0  0  0  0  0  0
  -18.6179  -16.0284  -17.0395 C   0  0  0  0  0  0  0  0  0  0  0  0
  -19.6302  -15.3872  -17.9515 C   0  0  0  0  0  0  0  0  0  0  0  0
  -18.9718  -14.3656  -18.7763 N   0  0  0  0  0  0  0  0  0  0  0  0
  -18.7461  -16.2156  -15.7201 C   0  0  0  0  0  0  0  0  0  0  0  0
  -17.6221  -16.8090  -15.2104 N   0  0  0  0  0  0  0  0  0  0  0  0
  -13.5198  -18.2770  -17.3047 N   0  0  0  0  0  0  0  0  0  0  0  0
  1  6  1  0  0  0  0
  2  1  1  0  0  0  0
  3  4  1  0  0  0  0
  3  2  2  0  0  0  0
  4  5  2  0  0  0  0
  5  8  1  0  0  0  0
  5  6  1  0  0  0  0
  6  7  2  0  0  0  0
  8  9  1  0  0  0  0
  9 10  1  0  0  0  0
 11  8  2  0  0  0  0
 12  4  1  0  0  0  0
 12 11  1  0  0  0  0
 13  2  1  0  0  0  0
M  END
>  <CHROM.1>
-48.98637646,128.00591092,-16.90336630,-16.62439163,-17.43007716,-0.21384803
0.47619483,-1.30140866

>  <Name>
lig.pdb

>  <RI>
1.82164e+07

>  <Rbt.Current_Directory>
/home/itssahil/PROJECTS/Mol_Feturizer/New_Systems/rnas/2miy

>  <Rbt.Executable>
rbdock ($Id: //depot/dev/client3/rdock/2013.1/src/exe/rbdock.cxx#4 $)

>  <Rbt.Library>
libRbt.so (2013.1, Build901 2013/11/27)

>  <Rbt.Parameter_File>
/export/apps/rDock/src/rDock_2013.1_src/data/scripts/dock_solv.prm

>  <Rbt.Receptor>
prm/blind_docking_80.prm

>  <SCORE>
-31.6246

>  <SCORE.INTER>
-33.1551

>  <SCORE.INTER.CONST>
1

>  <SCORE.INTER.POLAR>
-4.57814

>  <SCORE.INTER.ROT>
2

>  <SCORE.INTER.SOLV>
11.449

>  <SCORE.INTER.VDW>
-15.5926

>  <SCORE.INTER.norm>
-2.5504

>  <SCORE.INTRA>
1.5242

>  <SCORE.INTRA.DIHEDRAL>
-0.141442

>  <SCORE.INTRA.DIHEDRAL.0>
1.76676

>  <SCORE.INTRA.POLAR>
0.472211

>  <SCORE.INTRA.POLAR.0>
-0.472211

>  <SCORE.INTRA.REPUL>
0

>  <SCORE.INTRA.REPUL.0>
0

>  <SCORE.INTRA.SOLV>
-0.0520755

>  <SCORE.INTRA.SOLV.lig_0>
-22.5855

>  <SCORE.INTRA.VDW>
0.0154453

>  <SCORE.INTRA.VDW.0>
-0.733656

>  <SCORE.INTRA.norm>
0.117246

>  <SCORE.RESTR>
0.00636171

>  <SCORE.RESTR.CAVITY>
0.00636171

>  <SCORE.RESTR.norm>
0.000489362

>  <SCORE.SYSTEM>
0

>  <SCORE.SYSTEM.CONST>
0

>  <SCORE.SYSTEM.DIHEDRAL>
0

>  <SCORE.SYSTEM.SOLV>
0

>  <SCORE.SYSTEM.norm>
0

>  <SCORE.heavy>
13

>  <SCORE.norm>
-2.43266

>  <RMSD>
24.841

$$$$
