@<TRIPOS>MOLECULE
2miy_rdock.pdb
 1887 2032 0 0 0
SMALL
GASTEIGER

@<TRIPOS>ATOM
      1  O5'       -1.9240  -19.6530  -11.1250 O.3    -1  G-1        -0.3924
      2  C5'       -3.2030  -19.9650  -10.5670 C.3    -1  G-1         0.0730
      3  C4'       -4.2200  -20.3020  -11.6530 C.3    -1  G-1         0.1133
      4  O4'       -5.3120  -21.0370  -11.1270 O.3    -1  G-1        -0.3456
      5  C3'       -4.8310  -19.0340  -12.2630 C.3    -1  G-1         0.1241
      6  O3'       -4.3300  -18.8620  -13.5920 O.3    -1  G-1        -0.3187
      7  C2'       -6.3200  -19.3340  -12.3670 C.3    -1  G-1         0.1292
      8  O2'       -6.8110  -19.1320  -13.6950 O.3    -1  G-1        -0.3846
      9  C1'       -6.4290  -20.7900  -11.9630 C.3    -1  G-1         0.1667
     10   N9       -7.6870  -21.0280  -11.2630 N.ar   -1  G-1        -0.2854
     11   C8       -7.9090  -21.2520   -9.9560 C.ar   -1  G-1         0.1005
     12   N7       -9.1410  -21.3480   -9.5680 N.ar   -1  G-1        -0.2286
     13   C5       -9.8290  -21.1660  -10.7770 C.ar   -1  G-1         0.1721
     14   C6      -11.2250  -21.1550  -11.0500 C.ar   -1  G-1         0.2803
     15   O6      -12.1560  -21.3050  -10.2650 O.2    -1  G-1        -0.2654
     16   N.1     -11.4730  -20.9360  -12.4060 N.ar   -1  G-1        -0.2934
     17   C.2     -10.5120  -20.7580  -13.3660 C.ar   -1  G-1         0.1950
     18   N.2     -10.9620  -20.5760  -14.6040 N.pl3  -1  G-1        -0.3289
     19   N.3      -9.2050  -20.7690  -13.1220 N.ar   -1  G-1        -0.1963
     20   C4       -8.9360  -20.9760  -11.8160 C.ar   -1  G-1         0.1712
     21  H5'       -3.5610  -19.1100   -9.9950 H      -1  G-1         0.0584
     22 H5''       -3.1000  -20.8220   -9.9010 H      -1  G-1         0.0584
     23  H4'       -3.7460  -20.8890  -12.4270 H      -1  G-1         0.0647
     24  H3'       -4.6490  -18.1570  -11.6420 H      -1  G-1         0.0655
     25  H2'       -6.8610  -18.7140  -11.6580 H      -1  G-1         0.0666
     26 HO2'       -6.6710  -19.9490  -14.1790 H      -1  G-1         0.2101
     27  H1'       -6.3810  -21.4170  -12.8450 H      -1  G-1         0.0866
     28   H8       -7.0740  -21.3460   -9.2590 H      -1  G-1         0.1030
     29   H1      -12.4340  -20.9210  -12.7030 H      -1  G-1         0.1716
     30  H21      -11.9580  -20.5710  -14.7860 H      -1  G-1         0.1451
     31  H22      -10.3110  -20.4390  -15.3620 H      -1  G-1         0.1451
     32 HO5'       -1.6260  -18.8360  -10.7170 H      -1  G-1         0.2095
     33    P.3     -4.4850  -17.4410  -14.3450 P.3     1  C.1         0.2131
     34  OP1       -3.6640  -17.4800  -15.5760 O.2     1  C.1        -0.5172
     35  OP2       -4.2670  -16.3680  -13.3500 O.3     1  C.1        -0.4373
     36  O5'       -6.0430  -17.4150  -14.7780 O.3     1  C.1        -0.3248
     37  C5'       -6.4150  -17.5150  -16.1590 C.3     1  C.1         0.0837
     38  C4'       -7.9300  -17.6500  -16.3510 C.3     1  C.1         0.1139
     39  O4'       -8.5170  -18.4920  -15.3710 O.3     1  C.1        -0.3456
     40  C3'       -8.6440  -16.3170  -16.1920 C.3     1  C.1         0.1241
     41  O3'       -8.7620  -15.7280  -17.4930 O.3     1  C.1        -0.3187
     42  C2'      -10.0460  -16.7060  -15.7140 C.3     1  C.1         0.1293
     43  O2'      -11.0020  -16.6360  -16.7760 O.3     1  C.1        -0.3846
     44  C1'       -9.8940  -18.1240  -15.2150 C.3     1  C.1         0.1680
     45   N.1     -10.3180  -18.2110  -13.8170 N.ar    1  C.1        -0.2700
     46   C.2     -11.6720  -18.2730  -13.5860 C.ar    1  C.1         0.3522
     47   O.2     -12.4460  -18.2360  -14.5380 O.2     1  C.1        -0.2444
     48   N.3     -12.1050  -18.3760  -12.3000 N.ar    1  C.1        -0.1783
     49   C4      -11.2270  -18.4170  -11.2850 C.ar    1  C.1         0.1230
     50   N.4     -11.6800  -18.5290  -10.0350 N.pl3   1  C.1        -0.3430
     51   C5       -9.8160  -18.3500  -11.5320 C.ar    1  C.1        -0.0056
     52   C6       -9.4150  -18.2460  -12.8120 C.ar    1  C.1         0.0152
     53  H5'       -5.9250  -18.3850  -16.5950 H       1  C.1         0.0591
     54 H5''       -6.0730  -16.6200  -16.6810 H       1  C.1         0.0591
     55  H4'       -8.1340  -18.0560  -17.3410 H       1  C.1         0.0647
     56  H3'       -8.1350  -15.6600  -15.4860 H       1  C.1         0.0655
     57  H2'      -10.3550  -16.0850  -14.8790 H       1  C.1         0.0666
     58 HO2'      -10.5330  -16.8130  -17.5940 H       1  C.1         0.2101
     59  H1'      -10.5220  -18.7650  -15.8110 H       1  C.1         0.0867
     60  H41      -12.6740  -18.5780   -9.8600 H       1  C.1         0.1437
     61  H42      -11.0280  -18.5630   -9.2630 H       1  C.1         0.1437
     62   H5       -9.0910  -18.3960  -10.7180 H       1  C.1         0.0666
     63   H6       -8.3600  -18.1810  -13.0470 H       1  C.1         0.0812
     64    P.3     -9.4400  -14.2790  -17.6910 P.3     2  U2          0.2131
     65  OP1       -9.1550  -13.8210  -19.0700 O.2     2  U2         -0.5172
     66  OP2       -9.0620  -13.4310  -16.5390 O.3     2  U2         -0.4373
     67  O5'      -11.0150  -14.6020  -17.5840 O.3     2  U2         -0.3248
     68  C5'      -11.7760  -14.9410  -18.7480 C.3     2  U2          0.0837
     69  C4'      -13.2660  -14.7070  -18.5200 C.3     2  U2          0.1139
     70  O4'      -13.7080  -15.4010  -17.3550 O.3     2  U2         -0.3456
     71  C3'      -13.5380  -13.2270  -18.2930 C.3     2  U2          0.1241
     72  O3'      -14.2360  -12.7130  -19.4300 O.3     2  U2         -0.3187
     73  C2'      -14.4840  -13.1560  -17.1010 C.3     2  U2          0.1293
     74  O2'      -15.7780  -12.6930  -17.4930 O.3     2  U2         -0.3846
     75  C1'      -14.5550  -14.5750  -16.5500 C.3     2  U2          0.1680
     76   N.1     -14.1230  -14.5970  -15.1440 N.ar    2  U2         -0.2715
     77   C.2     -15.0810  -14.3880  -14.1700 C.ar    2  U2          0.3314
     78   O.2     -16.2630  -14.1910  -14.4450 O.2     2  U2         -0.2464
     79   N.3     -14.6290  -14.4080  -12.8600 N.ar    2  U2         -0.2749
     80   C4      -13.3210  -14.6170  -12.4510 C.ar    2  U2          0.2539
     81   O4      -13.0250  -14.6200  -11.2590 O.2     2  U2         -0.2677
     82   C5      -12.3960  -14.8250  -13.5400 C.ar    2  U2          0.0192
     83   C6      -12.8160  -14.8100  -14.8240 C.ar    2  U2          0.0171
     84  H5'      -11.6130  -15.9920  -18.9890 H       2  U2          0.0591
     85 H5''      -11.4410  -14.3280  -19.5850 H       2  U2          0.0591
     86  H4'      -13.8300  -15.0540  -19.3860 H       2  U2          0.0647
     87  H3'      -12.6180  -12.6740  -18.1060 H       2  U2          0.0655
     88  H2'      -14.0590  -12.4940  -16.3480 H       2  U2          0.0666
     89 HO2'      -16.3850  -13.4330  -17.4070 H       2  U2          0.2101
     90  H1'      -15.5810  -14.9360  -16.6160 H       2  U2          0.0867
     91   H3      -15.3180  -14.2520  -12.1360 H       2  U2          0.1734
     92   H5      -11.3530  -15.0310  -13.3340 H       2  U2          0.0686
     93   H6      -12.0930  -14.9730  -15.6230 H       2  U2          0.0813
     94    P.3    -14.4710  -11.1250  -19.5890 P.3     3  U3          0.2131
     95  OP1      -14.7770  -10.8420  -21.0090 O.2     3  U3         -0.5172
     96  OP2      -13.3500  -10.4250  -18.9240 O.3     3  U3         -0.4373
     97  O5'      -15.8080  -10.8670  -18.7240 O.3     3  U3         -0.3248
     98  C5'      -17.0590  -11.4210  -19.1410 C.3     3  U3          0.0837
     99  C4'      -18.1790  -11.1230  -18.1430 C.3     3  U3          0.1139
    100  O4'      -18.1930  -12.0540  -17.0540 O.3     3  U3         -0.3456
    101  C3'      -17.9980   -9.7750  -17.4720 C.3     3  U3          0.1241
    102  O3'      -18.5520   -8.7480  -18.3010 O.3     3  U3         -0.3187
    103  C2'      -18.8800   -9.9310  -16.2540 C.3     3  U3          0.1293
    104  O2'      -20.2590   -9.7120  -16.5760 O.3     3  U3         -0.3846
    105  C1'      -18.6260  -11.3780  -15.8540 C.3     3  U3          0.1680
    106   N.1     -17.6070  -11.4640  -14.7820 N.ar    3  U3         -0.2715
    107   C.2     -18.0580  -11.5060  -13.4750 C.ar    3  U3          0.3314
    108   O.2     -19.2540  -11.4480  -13.1940 O.2     3  U3         -0.2464
    109   N.3     -17.0830  -11.6150  -12.4960 N.ar    3  U3         -0.2749
    110   C4      -15.7170  -11.6850  -12.7090 C.ar    3  U3          0.2539
    111   O4      -14.9400  -11.7850  -11.7610 O.2     3  U3         -0.2677
    112   C5      -15.3350  -11.6320  -14.0990 C.ar    3  U3          0.0192
    113   C6      -16.2740  -11.5230  -15.0780 C.ar    3  U3          0.0171
    114  H5'      -16.9530  -12.5010  -19.2410 H       3  U3          0.0591
    115 H5''      -17.3270  -11.0000  -20.1100 H       3  U3          0.0591
    116  H4'      -19.1410  -11.1530  -18.6520 H       3  U3          0.0647
    117  H3'      -16.9580   -9.5840  -17.2040 H       3  U3          0.0655
    118  H2'      -18.5550   -9.2670  -15.4650 H       3  U3          0.0666
    119 HO2'      -20.7670  -10.4030  -16.1440 H       3  U3          0.2101
    120  H1'      -19.5560  -11.8160  -15.5020 H       3  U3          0.0867
    121   H3      -17.3960  -11.6480  -11.5370 H       3  U3          0.1734
    122   H5      -14.2760  -11.6860  -14.3630 H       3  U3          0.0686
    123   H6      -15.9620  -11.4740  -16.1170 H       3  U3          0.0813
    124    P.3    -18.2830   -7.1930  -17.9550 P.3     4  G4          0.2131
    125  OP1      -18.8870   -6.3700  -19.0260 O.2     4  G4         -0.5172
    126  OP2      -16.8490   -7.0360  -17.6250 O.3     4  G4         -0.4373
    127  O5'      -19.1390   -6.9720  -16.6050 O.3     4  G4         -0.3248
    128  C5'      -20.5640   -7.0730  -16.6350 C.3     4  G4          0.0837
    129  C4'      -21.1400   -7.5610  -15.3070 C.3     4  G4          0.1139
    130  O4'      -20.3160   -8.5590  -14.6970 O.3     4  G4         -0.3456
    131  C3'      -21.1930   -6.4670  -14.2610 C.3     4  G4          0.1241
    132  O3'      -22.3540   -5.6590  -14.4810 O.3     4  G4         -0.3187
    133  C2'      -21.3880   -7.2890  -13.0080 C.3     4  G4          0.1292
    134  O2'      -22.7340   -7.7680  -12.8950 O.3     4  G4         -0.3846
    135  C1'      -20.4070   -8.4270  -13.2620 C.3     4  G4          0.1667
    136   N9      -19.0880   -8.1350  -12.6600 N.ar    4  G4         -0.2854
    137   C8      -17.9040   -7.8410  -13.2550 C.ar    4  G4          0.1005
    138   N7      -16.8820   -7.6450  -12.4950 N.ar    4  G4         -0.2286
    139   C5      -17.4330   -7.8240  -11.2260 C.ar    4  G4          0.1721
    140   C6      -16.8150   -7.7400   -9.9530 C.ar    4  G4          0.2803
    141   O6      -15.6430   -7.4850   -9.6940 O.2     4  G4         -0.2654
    142   N.1     -17.7170   -7.9870   -8.9290 N.ar    4  G4         -0.2934
    143   C.2     -19.0570   -8.2790   -9.1040 C.ar    4  G4          0.1950
    144   N.2     -19.7650   -8.4850   -7.9940 N.pl3   4  G4         -0.3289
    145   N.3     -19.6480   -8.3610  -10.3010 N.ar    4  G4         -0.1963
    146   C4      -18.7830   -8.1230  -11.3150 C.ar    4  G4          0.1712
    147  H5'      -20.8530   -7.7680  -17.4230 H       4  G4          0.0591
    148 H5''      -20.9820   -6.0910  -16.8600 H       4  G4          0.0591
    149  H4'      -22.1370   -7.9680  -15.4640 H       4  G4          0.0647
    150  H3'      -20.2730   -5.8890  -14.2260 H       4  G4          0.0655
    151  H2'      -21.0940   -6.7220  -12.1250 H       4  G4          0.0666
    152 HO2'      -22.6860   -8.7070  -12.7020 H       4  G4          0.2101
    153  H1'      -20.7990   -9.3490  -12.8460 H       4  G4          0.0866
    154   H8      -17.8170   -7.7700  -14.3340 H       4  G4          0.1030
    155   H1      -17.3430   -7.9460   -7.9900 H       4  G4          0.1716
    156  H21      -19.3180   -8.4230   -7.0910 H       4  G4          0.1451
    157  H22      -20.7490   -8.7020   -8.0570 H       4  G4          0.1451
    158    P.3    -22.2450   -4.0510  -14.4250 P.3     5  G5          0.2131
    159  OP1      -23.4140   -3.4850  -15.1350 O.2     5  G5         -0.5172
    160  OP2      -20.8760   -3.6640  -14.8280 O.3     5  G5         -0.4373
    161  O5'      -22.4140   -3.7440  -12.8530 O.3     5  G5         -0.3248
    162  C5'      -23.4900   -4.3350  -12.1230 C.3     5  G5          0.0837
    163  C4'      -23.1360   -4.5650  -10.6640 C.3     5  G5          0.1139
    164  O4'      -22.1250   -5.5550  -10.5150 O.3     5  G5         -0.3456
    165  C3'      -22.5320   -3.3450  -10.0080 C.3     5  G5          0.1241
    166  O3'      -23.5690   -2.4320   -9.6390 O.3     5  G5         -0.3187
    167  C2'      -21.9560   -3.9770   -8.7570 C.3     5  G5          0.1292
    168  O2'      -22.9690   -4.2150   -7.7720 O.3     5  G5         -0.3846
    169  C1'      -21.3940   -5.2800   -9.3080 C.3     5  G5          0.1667
    170   N9      -19.9450   -5.1560   -9.5600 N.ar    5  G5         -0.2854
    171   C8      -19.2620   -5.1120  -10.7320 C.ar    5  G5          0.1005
    172   N7      -17.9750   -5.0440  -10.6710 N.ar    5  G5         -0.2286
    173   C5      -17.7560   -5.0360   -9.2890 C.ar    5  G5          0.1721
    174   C6      -16.5390   -4.9750   -8.5590 C.ar    5  G5          0.2803
    175   O6      -15.3910   -4.9190   -8.9950 O.2     5  G5         -0.2654
    176   N.1     -16.7640   -4.9900   -7.1880 N.ar    5  G5         -0.2934
    177   C.2     -18.0070   -5.0570   -6.5890 C.ar    5  G5          0.1950
    178   N.2     -18.0270   -5.0640   -5.2580 N.pl3   5  G5         -0.3289
    179   N.3     -19.1540   -5.1170   -7.2690 N.ar    5  G5         -0.1963
    180   C4      -18.9590   -5.1020   -8.6050 C.ar    5  G5          0.1712
    181  H5'      -23.7300   -5.2970  -12.5680 H       5  G5          0.0591
    182 H5''      -24.3630   -3.6850  -12.1810 H       5  G5          0.0591
    183  H4'      -24.0220   -4.8780  -10.1150 H       5  G5          0.0647
    184  H3'      -21.7610   -2.8840  -10.6280 H       5  G5          0.0655
    185  H2'      -21.1540   -3.3680   -8.3560 H       5  G5          0.0666
    186 HO2'      -22.9080   -5.1390   -7.5190 H       5  G5          0.2101
    187  H1'      -21.5660   -6.0830   -8.6000 H       5  G5          0.0866
    188   H8      -19.7830   -5.1140  -11.6860 H       5  G5          0.1030
    189   H1      -15.9350   -4.9650   -6.6110 H       5  G5          0.1716
    190  H21      -17.1630   -5.0250   -4.7410 H       5  G5          0.1451
    191  H22      -18.9090   -5.1100   -4.7660 H       5  G5          0.1451
    192    P.3    -23.2860   -0.8430   -9.6290 P.3     6  U6          0.2131
    193  OP1      -24.5790   -0.1400   -9.7790 O.3     6  U6         -0.4373
    194  OP2      -22.1800   -0.5650  -10.5730 O.2     6  U6         -0.5172
    195  O5'      -22.7460   -0.5940   -8.1330 O.3     6  U6         -0.3248
    196  C5'      -23.2380   -1.4050   -7.0690 C.3     6  U6          0.0837
    197  C4'      -22.3350   -1.3730   -5.8370 C.3     6  U6          0.1139
    198  O4'      -21.2870   -2.3450   -5.9430 O.3     6  U6         -0.3456
    199  C3'      -21.6410   -0.0260   -5.6750 C.3     6  U6          0.1241
    200  O3'      -22.4050    0.7670   -4.7610 O.3     6  U6         -0.3187
    201  C2'      -20.3340   -0.4080   -5.0020 C.3     6  U6          0.1293
    202  O2'      -20.5010   -0.5730   -3.5880 O.3     6  U6         -0.3846
    203  C1'      -20.0190   -1.7310   -5.6830 C.3     6  U6          0.1680
    204   N.1     -19.2680   -1.5410   -6.9410 N.ar    6  U6         -0.2715
    205   C.2     -17.8930   -1.7120   -6.9040 C.ar    6  U6          0.3314
    206   O.2     -17.2790   -1.8450   -5.8500 O.2     6  U6         -0.2464
    207   N.3     -17.2480   -1.7040   -8.1310 N.ar    6  U6         -0.2749
    208   C4      -17.8460   -1.5350   -9.3600 C.ar    6  U6          0.2539
    209   O4      -17.1740   -1.5660  -10.3890 O.2     6  U6         -0.2677
    210   C5      -19.2790   -1.3490   -9.3020 C.ar    6  U6          0.0192
    211   C6      -19.9300   -1.3520   -8.1180 C.ar    6  U6          0.0171
    212  H5'      -23.3000   -2.4280   -7.4280 H       6  U6          0.0591
    213 H5''      -24.2340   -1.0630   -6.7910 H       6  U6          0.0591
    214  H4'      -22.9280   -1.5840   -4.9490 H       6  U6          0.0647
    215  H3'      -21.4810    0.4740   -6.6300 H       6  U6          0.0655
    216  H2'      -19.5630    0.3260   -5.2220 H       6  U6          0.0666
    217 HO2'      -21.4270   -0.7730   -3.4310 H       6  U6          0.2101
    218  H1'      -19.4460   -2.3700   -5.0130 H       6  U6          0.0867
    219   H3      -16.2450   -1.8330   -8.1290 H       6  U6          0.1734
    220   H5      -19.8320   -1.2870  -10.2340 H       6  U6          0.0686
    221   H6      -21.0050   -1.1980   -8.1010 H       6  U6          0.0813
    222    P.3    -22.3260    2.3750   -4.8100 P.3     7  G7          0.2131
    223  OP1      -23.3450    2.9180   -3.8850 O.3     7  G7         -0.4373
    224  OP2      -22.3160    2.7970   -6.2290 O.2     7  G7         -0.5172
    225  O5'      -20.8720    2.6730   -4.1850 O.3     7  G7         -0.3248
    226  C5'      -20.5680    2.2980   -2.8400 C.3     7  G7          0.0837
    227  C4'      -19.0960    2.5310   -2.5170 C.3     7  G7          0.1139
    228  O4'      -18.2640    1.6150   -3.2290 O.3     7  G7         -0.3456
    229  C3'      -18.6630    3.9200   -2.9560 C.3     7  G7          0.1241
    230  O3'      -18.6980    4.7820   -1.8150 O.3     7  G7         -0.3187
    231  C2'      -17.2110    3.7480   -3.3620 C.3     7  G7          0.1292
    232  O2'      -16.3260    4.0810   -2.2870 O.3     7  G7         -0.3846
    233  C1'      -17.0990    2.2830   -3.7330 C.3     7  G7          0.1667
    234   N9      -16.9670    2.1020   -5.1900 N.ar    7  G7         -0.2854
    235   C8      -17.9150    2.0720   -6.1650 C.ar    7  G7          0.1005
    236   N7      -17.5200    1.7930   -7.3680 N.ar    7  G7         -0.2286
    237   C5      -16.1400    1.6200   -7.1860 C.ar    7  G7          0.1721
    238   C6      -15.1190    1.2940   -8.1270 C.ar    7  G7          0.2803
    239   O6      -15.2280    1.0790   -9.3330 O.2     7  G7         -0.2654
    240   N.1     -13.8700    1.2190   -7.5200 N.ar    7  G7         -0.2934
    241   C.2     -13.6230    1.4300   -6.1810 C.ar    7  G7          0.1950
    242   N.2     -12.3530    1.3120   -5.7910 N.pl3   7  G7         -0.3289
    243   N.3     -14.5720    1.7340   -5.2930 N.ar    7  G7         -0.1963
    244   C4      -15.7990    1.8120   -5.8570 C.ar    7  G7          0.1712
    245  H5'      -20.8000    1.2420   -2.7020 H       7  G7          0.0591
    246 H5''      -21.1790    2.8890   -2.1570 H       7  G7          0.0591
    247  H4'      -18.9300    2.4160   -1.4470 H       7  G7          0.0647
    248  H3'      -19.2750    4.2980   -3.7750 H       7  G7          0.0655
    249  H2'      -16.9960    4.3490   -4.2320 H       7  G7          0.0666
    250 HO2'      -16.1130    5.0140   -2.3700 H       7  G7          0.2101
    251  H1'      -16.2150    1.8790   -3.2580 H       7  G7          0.0866
    252   H8      -18.9710    2.2810   -5.9450 H       7  G7          0.1030
    253   H1      -13.0980    0.9870   -8.1250 H       7  G7          0.1716
    254  H21      -11.6380    1.0790   -6.4640 H       7  G7          0.1451
    255  H22      -12.1080    1.4560   -4.8220 H       7  G7          0.1451
    256    P.3    -18.2460    6.3220   -1.9430 P.3     8  C8          0.2131
    257  OP1      -18.7740    7.0550   -0.7710 O.3     8  C8         -0.4373
    258  OP2      -18.5710    6.7860   -3.3100 O.2     8  C8         -0.5172
    259  O5'      -16.6400    6.2430   -1.8050 O.3     8  C8         -0.3248
    260  C5'      -15.9450    7.1570   -0.9500 C.3     8  C8          0.0836
    261  C4'      -14.4990    7.3870   -1.4070 C.3     8  C8          0.1117
    262  O4'      -14.1270    6.4570   -2.4350 O.3     8  C8         -0.3480
    263  C3'      -14.3020    8.7850   -2.0000 C.3     8  C8          0.1016
    264  O3'      -12.9890    9.2360   -1.6580 O.3     8  C8         -0.3210
    265  C2'      -14.3450    8.5510   -3.4990 C.3     8  C8          0.0431
    266  O2'      -13.5730    9.5280   -4.2030 O.3     8  C8         -0.2528
    267  C1'      -13.7440    7.1560   -3.6260 C.3     8  C8          0.1456
    268   N.1     -14.2490    6.4580   -4.8240 N.ar    8  C8         -0.2722
    269   C.2     -13.3230    6.0060   -5.7510 C.ar    8  C8          0.3521
    270   O.2     -12.1260    6.2250   -5.5830 O.2     8  C8         -0.2444
    271   N.3     -13.7780    5.3170   -6.8400 N.ar    8  C8         -0.1783
    272   C4      -15.0870    5.0860   -7.0070 C.ar    8  C8          0.1230
    273   N.4     -15.5050    4.4100   -8.0760 N.pl3   8  C8         -0.3430
    274   C5      -16.0380    5.5570   -6.0490 C.ar    8  C8         -0.0056
    275   C6      -15.5740    6.2350   -4.9840 C.ar    8  C8          0.0151
    276  H5'      -15.9350    6.7510    0.0620 H       8  C8          0.0591
    277 H5''      -16.4800    8.1040   -0.9410 H       8  C8          0.0591
    278  H4'      -13.8300    7.2610   -0.5560 H       8  C8          0.0646
    279  H3'      -15.0690    9.4870   -1.6790 H       8  C8          0.0631
    280  H2'      -15.3810    8.5460   -3.8470 H       8  C8          0.0376
    281 HO2'      -14.1720    9.9930   -4.7930 H       8  C8          0.2528
    282  H1'      -12.6550    7.2120   -3.6780 H       8  C8          0.0843
    283  H41      -14.8360    4.0750   -8.7550 H       8  C8          0.1437
    284  H42      -16.4900    4.2310   -8.2080 H       8  C8          0.1437
    285   H5      -17.1040    5.3690   -6.1570 H       8  C8          0.0666
    286   H6      -16.2700    6.6110   -4.2390 H       8  C8          0.0812
    287    P.3    -12.7910   10.5700   -0.7760 P.3     9  U9          0.2130
    288  OP1      -11.4320   10.5430   -0.1930 O.2     9  U9         -0.5172
    289  OP2      -13.9700   10.7180    0.1060 O.3     9  U9         -0.4373
    290  O5'      -12.8420   11.7380   -1.8840 O.3     9  U9         -0.3248
    291  C5'      -12.3560   11.5060   -3.2080 C.3     9  U9          0.0837
    292  C4'      -10.9410   10.9310   -3.1900 C.3     9  U9          0.1139
    293  O4'      -10.9370    9.5280   -3.4830 O.3     9  U9         -0.3456
    294  C3'      -10.0700   11.5860   -4.2530 C.3     9  U9          0.1241
    295  O3'       -9.3360   12.6440   -3.6290 O.3     9  U9         -0.3187
    296  C2'       -9.0940   10.4850   -4.6260 C.3     9  U9          0.1293
    297  O2'       -7.9770   10.4630   -3.7290 O.3     9  U9         -0.3846
    298  C1'       -9.9400    9.2270   -4.4740 C.3     9  U9          0.1680
    299   N.1     -10.5850    8.7970   -5.7440 N.ar    9  U9         -0.2715
    300   C.2      -9.7720    8.3270   -6.7640 C.ar    9  U9          0.3314
    301   O.2      -8.5470    8.3130   -6.6730 O.2     9  U9         -0.2464
    302   N.3     -10.4300    7.8680   -7.9020 N.ar    9  U9         -0.2749
    303   C4      -11.7970    7.8420   -8.1000 C.ar    9  U9          0.2539
    304   O4      -12.2690    7.4080   -9.1480 O.2     9  U9         -0.2677
    305   C5      -12.5620    8.3540   -6.9910 C.ar    9  U9          0.0192
    306   C6      -11.9510    8.8050   -5.8720 C.ar    9  U9          0.0171
    307  H5'      -12.3510   12.4480   -3.7560 H       9  U9          0.0591
    308 H5''      -13.0210   10.8050   -3.7100 H       9  U9          0.0591
    309  H4'      -10.4990   11.0940   -2.2090 H       9  U9          0.0647
    310  H3'      -10.6500   11.9310   -5.1090 H       9  U9          0.0655
    311  H2'       -8.7570   10.5990   -5.6530 H       9  U9          0.0666
    312 HO2'       -8.2850   10.7930   -2.8820 H       9  U9          0.2101
    313  H1'       -9.3020    8.4300   -4.1100 H       9  U9          0.0867
    314   H3       -9.8600    7.5130   -8.6560 H       9  U9          0.1734
    315   H5      -13.6500    8.3720   -7.0520 H       9  U9          0.0686
    316   H6      -12.5640    9.1740   -5.0540 H       9  U9          0.0813
    317    P.3     -9.2150   14.0870   -4.3310 P.3    10  U10         0.2131
    318  OP1       -9.5910   15.1180   -3.3380 O.3    10  U10        -0.4373
    319  OP2       -9.9120   14.0290   -5.6350 O.2    10  U10        -0.5172
    320  O5'       -7.6340   14.2040   -4.6060 O.3    10  U10        -0.3248
    321  C5'       -6.7950   13.0510   -4.4970 C.3    10  U10         0.0837
    322  C4'       -6.1750   12.6840   -5.8410 C.3    10  U10         0.1139
    323  O4'       -6.7780   11.5250   -6.4040 O.3    10  U10        -0.3456
    324  C3'       -6.4160   13.7710   -6.8660 C.3    10  U10         0.1241
    325  O3'       -5.3350   14.7050   -6.8090 O.3    10  U10        -0.3187
    326  C2'       -6.3350   13.0310   -8.1970 C.3    10  U10         0.1293
    327  O2'       -5.0360   13.1580   -8.7850 O.3    10  U10        -0.3846
    328  C1'       -6.6380   11.5800   -7.8310 C.3    10  U10         0.1680
    329   N.1      -7.8600   11.1080   -8.5180 N.ar   10  U10        -0.2715
    330   C.2      -7.6900   10.4110   -9.7010 C.ar   10  U10         0.3314
    331   O.2      -6.5790   10.1980  -10.1790 O.2    10  U10        -0.2464
    332   N.3      -8.8470    9.9690  -10.3170 N.ar   10  U10        -0.2749
    333   C4      -10.1400   10.1600   -9.8620 C.ar   10  U10         0.2539
    334   O4      -11.0970    9.7220  -10.4960 O.2    10  U10        -0.2677
    335   C5      -10.2250   10.8980   -8.6230 C.ar   10  U10         0.0192
    336   C6       -9.1080   11.3440   -8.0000 C.ar   10  U10         0.0171
    337  H5'       -7.3880   12.2120   -4.1380 H      10  U10         0.0591
    338 H5''       -5.9990   13.2580   -3.7810 H      10  U10         0.0591
    339  H4'       -5.1050   12.5160   -5.7220 H      10  U10         0.0647
    340  H3'       -7.3830   14.2540   -6.7260 H      10  U10         0.0655
    341  H2'       -7.1000   13.3970   -8.8730 H      10  U10         0.0666
    342 HO2'       -4.4380   12.6000   -8.2830 H      10  U10         0.2101
    343  H1'       -5.7990   10.9630   -8.1320 H      10  U10         0.0867
    344   H3       -8.7430    9.4710  -11.1890 H      10  U10         0.1734
    345   H5      -11.2020   11.1010   -8.1860 H      10  U10         0.0686
    346   H6       -9.2070   11.9100   -7.0770 H      10  U10         0.0813
    347    P.3     -5.4440   16.1090   -7.5850 P.3    11  A11         0.2131
    348  OP1       -4.8440   15.9460   -8.9280 O.2    11  A11        -0.5172
    349  OP2       -4.9570   17.1770   -6.6840 O.3    11  A11        -0.4373
    350  O5'       -7.0350   16.2840   -7.7610 O.3    11  A11        -0.3248
    351  C5'       -7.7970   16.9940   -6.7830 C.3    11  A11         0.0837
    352  C4'       -9.0520   17.6190   -7.3990 C.3    11  A11         0.1139
    353  O4'       -9.3390   17.0160   -8.6580 O.3    11  A11        -0.3456
    354  C3'      -10.2830   17.4330   -6.5080 C.3    11  A11         0.1241
    355  O3'      -10.8890   18.7130   -6.3270 O.3    11  A11        -0.3187
    356  C2'      -11.2490   16.5620   -7.3070 C.3    11  A11         0.1292
    357  O2'      -12.5780   17.0960   -7.2660 O.3    11  A11        -0.3846
    358  C1'      -10.6940   16.5740   -8.7270 C.3    11  A11         0.1667
    359   N9      -10.7610   15.2290   -9.3250 N.ar   11  A11        -0.2855
    360   C8       -9.8930   14.1900   -9.2300 C.ar   11  A11         0.1004
    361   N7      -10.1840   13.1140   -9.8790 N.ar   11  A11        -0.2306
    362   C5      -11.3940   13.4640  -10.4850 C.ar   11  A11         0.1473
    363   C6      -12.2660   12.7700  -11.3320 C.ar   11  A11         0.1472
    364   N6      -12.0480   11.5180  -11.7360 N.pl3  11  A11        -0.3413
    365   N.1     -13.3710   13.4150  -11.7450 N.ar   11  A11        -0.2188
    366   C.2     -13.6080   14.6690  -11.3520 C.ar   11  A11         0.1205
    367   N.3     -12.8520   15.4170  -10.5540 N.ar   11  A11        -0.2159
    368   C4      -11.7520   14.7480  -10.1530 C.ar   11  A11         0.1674
    369  H5'       -7.1820   17.7830   -6.3670 H      11  A11         0.0591
    370 H5''       -8.0790   16.3090   -5.9850 H      11  A11         0.0591
    371  H4'       -8.8800   18.6830   -7.5490 H      11  A11         0.0647
    372  H3'      -10.0320   16.9750   -5.5510 H      11  A11         0.0655
    373  H2'      -11.2360   15.5420   -6.9150 H      11  A11         0.0666
    374 HO2'      -12.9100   17.1060   -8.1670 H      11  A11         0.2101
    375  H1'      -11.2690   17.2600   -9.3520 H      11  A11         0.0866
    376   H8       -8.9860   14.2590   -8.6270 H      11  A11         0.1030
    377  H61      -12.7100   11.0630  -12.3480 H      11  A11         0.1438
    378  H62      -11.2220   11.0240  -11.4290 H      11  A11         0.1438
    379   H2      -14.5220   15.1310  -11.7270 H      11  A11         0.1048
    380    P.3    -11.2130   19.2600   -4.8480 P.3    12  G12         0.2131
    381  OP1      -10.9510   20.7170   -4.8250 O.2    12  G12        -0.5172
    382  OP2      -10.5420   18.3740   -3.8690 O.3    12  G12        -0.4373
    383  O5'      -12.8000   19.0290   -4.7340 O.3    12  G12        -0.3248
    384  C5'      -13.6600   19.4130   -5.8070 C.3    12  G12         0.0837
    385  C4'      -15.1140   19.5300   -5.3490 C.3    12  G12         0.1139
    386  O4'      -15.6670   20.7890   -5.7340 O.3    12  G12        -0.3456
    387  C3'      -15.9910   18.4590   -5.9870 C.3    12  G12         0.1241
    388  O3'      -17.0370   18.1140   -5.0680 O.3    12  G12        -0.3187
    389  C2'      -16.6210   19.1450   -7.1740 C.3    12  G12         0.1292
    390  O2'      -17.9470   18.6580   -7.4050 O.3    12  G12        -0.3846
    391  C1'      -16.6240   20.6270   -6.7910 C.3    12  G12         0.1667
    392   N9      -16.2730   21.4780   -7.9440 N.ar   12  G12        -0.2854
    393   C8      -15.0540   21.9140   -8.3260 C.ar   12  G12         0.1005
    394   N7      -14.9750   22.6280   -9.3980 N.ar   12  G12        -0.2286
    395   C5      -16.3130   22.6890   -9.7970 C.ar   12  G12         0.1721
    396   C6      -16.8970   23.3350  -10.9200 C.ar   12  G12         0.2803
    397   O6      -16.3390   23.9910  -11.7970 O.2    12  G12        -0.2654
    398   N.1     -18.2730   23.1510  -10.9550 N.ar   12  G12        -0.2934
    399   C.2     -19.0050   22.4360  -10.0290 C.ar   12  G12         0.1950
    400   N.2     -20.3200   22.3730  -10.2390 N.pl3  12  G12        -0.3289
    401   N.3     -18.4610   21.8240   -8.9670 N.ar   12  G12        -0.1963
    402   C4      -17.1200   21.9880   -8.9110 C.ar   12  G12         0.1712
    403  H5'      -13.5890   18.6720   -6.6030 H      12  G12         0.0591
    404 H5''      -13.3330   20.3760   -6.1920 H      12  G12         0.0591
    405  H4'      -15.1590   19.4370   -4.2650 H      12  G12         0.0647
    406  H3'      -15.4190   17.5900   -6.3020 H      12  G12         0.0655
    407  H2'      -16.0160   18.9880   -8.0600 H      12  G12         0.0666
    408 HO2'      -18.5170   19.0730   -6.7540 H      12  G12         0.2101
    409  H1'      -17.6050   20.8840   -6.4160 H      12  G12         0.0866
    410   H8      -14.1690   21.6660   -7.7470 H      12  G12         0.1030
    411   H1      -18.7580   23.5850  -11.7300 H      12  G12         0.1716
    412  H21      -20.7270   22.8320  -11.0450 H      12  G12         0.1451
    413  H22      -20.9110   21.8650   -9.5960 H      12  G12         0.1451
    414    P.3    -18.0660   19.2290   -4.5110 P.3    13  C13         0.2131
    415  OP1      -17.2770   20.3250   -3.9060 O.2    13  C13        -0.5172
    416  OP2      -19.1010   18.5390   -3.7080 O.3    13  C13        -0.4373
    417  O5'      -18.7630   19.7920   -5.8530 O.3    13  C13        -0.3248
    418  C5'      -20.1810   19.9490   -5.9420 C.3    13  C13         0.0837
    419  C4'      -20.7230   19.5620   -7.3250 C.3    13  C13         0.1139
    420  O4'      -20.0540   20.2220   -8.3920 O.3    13  C13        -0.3456
    421  C3'      -20.5040   18.0970   -7.6340 C.3    13  C13         0.1241
    422  O3'      -21.5690   17.3430   -7.0450 O.3    13  C13        -0.3187
    423  C2'      -20.6590   18.0490   -9.1530 C.3    13  C13         0.1293
    424  O2'      -21.9910   17.7060   -9.5330 O.3    13  C13        -0.3846
    425  C1'      -20.3270   19.4830   -9.5940 C.3    13  C13         0.1680
    426   N.1     -19.1890   19.4960  -10.5260 N.ar   13  C13        -0.2700
    427   C.2     -19.4510   19.4080  -11.8820 C.ar   13  C13         0.3522
    428   O.2     -20.6110   19.3770  -12.2860 O.2    13  C13        -0.2444
    429   N.3     -18.3900   19.3570  -12.7370 N.ar   13  C13        -0.1783
    430   C4      -17.1300   19.3930  -12.2730 C.ar   13  C13         0.1230
    431   N.4     -16.1120   19.3290  -13.1320 N.pl3  13  C13        -0.3430
    432   C5      -16.8720   19.4910  -10.8690 C.ar   13  C13        -0.0056
    433   C6      -17.9340   19.5410  -10.0500 C.ar   13  C13         0.0152
    434  H5'      -20.4330   20.9910   -5.7440 H      13  C13         0.0591
    435 H5''      -20.6540   19.3210   -5.1880 H      13  C13         0.0591
    436  H4'      -21.7870   19.7900   -7.3760 H      13  C13         0.0647
    437  H3'      -19.5140   17.7530   -7.3150 H      13  C13         0.0655
    438  H2'      -19.9400   17.3380   -9.5750 H      13  C13         0.0666
    439 HO2'      -21.9560   16.8440   -9.9530 H      13  C13         0.2101
    440  H1'      -21.1870   19.9150  -10.0820 H      13  C13         0.0867
    441  H41      -16.2920   19.2560  -14.1220 H      13  C13         0.1437
    442  H42      -15.1610   19.3530  -12.7910 H      13  C13         0.1437
    443   H5      -15.8520   19.5020  -10.4760 H      13  C13         0.0666
    444   H6      -17.7960   19.6300   -8.9960 H      13  C13         0.0812
    445    P.3    -21.6890   15.7550   -7.2900 P.3    14  U14         0.2131
    446  OP1      -22.7040   15.2190   -6.3560 O.3    14  U14        -0.4373
    447  OP2      -20.3230   15.1840   -7.3010 O.2    14  U14        -0.5172
    448  O5'      -22.2850   15.6650   -8.7850 O.3    14  U14        -0.3248
    449  C5'      -23.6430   16.0360   -9.0580 C.3    14  U14         0.0837
    450  C4'      -23.9330   16.0260  -10.5580 C.3    14  U14         0.1139
    451  O4'      -22.9360   16.7430  -11.2910 O.3    14  U14        -0.3456
    452  C3'      -23.9030   14.5970  -11.0980 C.3    14  U14         0.1241
    453  O3'      -25.2250   14.2150  -11.4930 O.3    14  U14        -0.3187
    454  C2'      -23.0500   14.6700  -12.3590 C.3    14  U14         0.1293
    455  O2'      -23.7170   14.0810  -13.4720 O.3    14  U14        -0.3846
    456  C1'      -22.8330   16.1510  -12.5820 C.3    14  U14         0.1680
    457   N.1     -21.5150   16.3510  -13.2070 N.ar   14  U14        -0.2715
    458   C.2     -21.3680   15.9000  -14.5040 C.ar   14  U14         0.3314
    459   O.2     -22.3150   15.4630  -15.1550 O.2    14  U14        -0.2464
    460   N.3     -20.0950   15.9690  -15.0310 N.ar   14  U14        -0.2749
    461   C4      -18.9730   16.4450  -14.3850 C.ar   14  U14         0.2539
    462   O4      -17.8860   16.4550  -14.9500 O.2    14  U14        -0.2677
    463   C5      -19.2170   16.9030  -13.0410 C.ar   14  U14         0.0192
    464   C6      -20.4580   16.8480  -12.5020 C.ar   14  U14         0.0171
    465  H5'      -23.8250   17.0370   -8.6670 H      14  U14         0.0591
    466 H5''      -24.3110   15.3320   -8.5610 H      14  U14         0.0591
    467  H4'      -24.9110   16.4680  -10.7450 H      14  U14         0.0647
    468  H3'      -23.4840   13.9010  -10.3720 H      14  U14         0.0655
    469  H2'      -22.0900   14.1880  -12.1800 H      14  U14         0.0666
    470 HO2'      -24.6290   13.9280  -13.2120 H      14  U14         0.2101
    471  H1'      -23.6110   16.5430  -13.2340 H      14  U14         0.0867
    472   H3      -19.9720   15.6340  -15.9720 H      14  U14         0.1734
    473   H5      -18.3900   17.2840  -12.4470 H      14  U14         0.0686
    474   H6      -20.6190   17.2190  -11.4970 H      14  U14         0.0813
    475    P.3    -25.5640   12.6670  -11.8030 P.3    15  U15         0.2131
    476  OP1      -27.0240   12.4770  -11.6570 O.2    15  U15        -0.5172
    477  OP2      -24.6320   11.8230  -11.0230 O.3    15  U15        -0.4373
    478  O5'      -25.1920   12.5120  -13.3670 O.3    15  U15        -0.3248
    479  C5'      -24.0950   11.6830  -13.7800 C.3    15  U15         0.0837
    480  C4'      -23.5700   12.0810  -15.1640 C.3    15  U15         0.1139
    481  O4'      -22.6290   13.1560  -15.0810 O.3    15  U15        -0.3456
    482  C3'      -22.8100   10.9400  -15.8140 C.3    15  U15         0.1241
    483  O3'      -23.7240   10.1640  -16.5890 O.3    15  U15        -0.3187
    484  C2'      -21.8630   11.6570  -16.7610 C.3    15  U15         0.1293
    485  O2'      -22.4920   11.9430  -18.0160 O.3    15  U15        -0.3846
    486  C1'      -21.5390   12.9390  -15.9940 C.3    15  U15         0.1680
    487   N.1     -20.2600   12.8290  -15.2630 N.ar   15  U15        -0.2715
    488   C.2     -19.0850   12.8600  -15.9940 C.ar   15  U15         0.3314
    489   O.2     -19.0780   12.9330  -17.2200 O.2    15  U15        -0.2464
    490   N.3     -17.9110   12.8060  -15.2540 N.ar   15  U15        -0.2749
    491   C4      -17.8180   12.7210  -13.8780 C.ar   15  U15         0.2539
    492   O4      -16.7200   12.6830  -13.3250 O.2    15  U15        -0.2677
    493   C5      -19.0950   12.6890  -13.2040 C.ar   15  U15         0.0192
    494   C6      -20.2520   12.7420  -13.9050 C.ar   15  U15         0.0171
    495  H5'      -24.4270   10.6450  -13.8130 H      15  U15         0.0591
    496 H5''      -23.2870   11.7750  -13.0550 H      15  U15         0.0591
    497  H4'      -24.4030   12.3790  -15.7980 H      15  U15         0.0647
    498  H3'      -22.2740   10.3380  -15.0810 H      15  U15         0.0655
    499  H2'      -20.9590   11.0640  -16.9060 H      15  U15         0.0666
    500 HO2'      -21.7950   12.1450  -18.6440 H      15  U15         0.2101
    501  H1'      -21.4860   13.7750  -16.6860 H      15  U15         0.0867
    502   H3      -17.0390   12.8330  -15.7670 H      15  U15         0.1734
    503   H5      -19.1280   12.6250  -12.1170 H      15  U15         0.0686
    504   H6      -21.1980   12.7120  -13.3770 H      15  U15         0.0813
    505    P.3    -23.4620    8.5920  -16.8050 P.3    16  C16         0.2131
    506  OP1      -22.8350    8.4040  -18.1330 O.2    16  C16        -0.5172
    507  OP2      -24.7040    7.8630  -16.4640 O.3    16  C16        -0.4373
    508  O5'      -22.3600    8.2690  -15.6740 O.3    16  C16        -0.3248
    509  C5'      -21.1770    7.5310  -15.9930 C.3    16  C16         0.0837
    510  C4'      -20.4880    8.0760  -17.2410 C.3    16  C16         0.1139
    511  O4'      -19.9390    9.3780  -17.0070 O.3    16  C16        -0.3456
    512  C3'      -19.3180    7.1960  -17.6470 C.3    16  C16         0.1241
    513  O3'      -19.7790    6.2690  -18.6330 O.3    16  C16        -0.3187
    514  C2'      -18.3630    8.1710  -18.3150 C.3    16  C16         0.1293
    515  O2'      -18.6680    8.3330  -19.7050 O.3    16  C16        -0.3846
    516  C1'      -18.6060    9.4600  -17.5390 C.3    16  C16         0.1680
    517   N.1     -17.6190    9.6380  -16.4560 N.ar   16  C16        -0.2700
    518   C.2     -16.2760    9.6300  -16.8000 C.ar   16  C16         0.3522
    519   O.2     -15.9420    9.4570  -17.9700 O.2    16  C16        -0.2444
    520   N.3     -15.3560    9.8180  -15.8130 N.ar   16  C16        -0.1783
    521   C4      -15.7350   10.0060  -14.5390 C.ar   16  C16         0.1230
    522   N.4     -14.8030   10.1860  -13.6010 N.pl3  16  C16        -0.3430
    523   C5      -17.1230   10.0130  -14.1830 C.ar   16  C16        -0.0056
    524   C6      -18.0220    9.8260  -15.1690 C.ar   16  C16         0.0152
    525  H5'      -21.4460    6.4870  -16.1640 H      16  C16         0.0591
    526 H5''      -20.4850    7.5870  -15.1530 H      16  C16         0.0591
    527  H4'      -21.2060    8.1300  -18.0590 H      16  C16         0.0647
    528  H3'      -18.8630    6.6970  -16.7910 H      16  C16         0.0655
    529  H2'      -17.3310    7.8440  -18.1790 H      16  C16         0.0666
    530 HO2'      -19.6200    8.2640  -19.7990 H      16  C16         0.2101
    531  H1'      -18.5430   10.3020  -18.2220 H      16  C16         0.0867
    532  H41      -13.8270   10.1810  -13.8550 H      16  C16         0.1437
    533  H42      -15.0720   10.3250  -12.6390 H      16  C16         0.1437
    534   H5      -17.4530   10.1780  -13.1570 H      16  C16         0.0666
    535   H6      -19.0870    9.8270  -14.9330 H      16  C16         0.0812
    536    P.3    -19.6960    4.6840  -18.3670 P.3    17  U17         0.2131
    537  OP1      -20.9950    4.0800  -18.7420 O.2    17  U17        -0.5172
    538  OP2      -19.1460    4.4700  -17.0100 O.3    17  U17        -0.4373
    539  O5'      -18.5950    4.2150  -19.4400 O.3    17  U17        -0.3248
    540  C5'      -17.8560    5.1890  -20.1820 C.3    17  U17         0.0837
    541  C4'      -16.3580    5.0720  -19.9220 C.3    17  U17         0.1139
    542  O4'      -15.8960    6.1040  -19.0640 O.3    17  U17        -0.3456
    543  C3'      -16.0240    3.7730  -19.1980 C.3    17  U17         0.1241
    544  O3'      -15.5290    2.8390  -20.1600 O.3    17  U17        -0.3187
    545  C2'      -14.8730    4.1380  -18.2530 C.3    17  U17         0.1293
    546  O2'      -13.6730    3.4420  -18.6090 O.3    17  U17        -0.3846
    547  C1'      -14.7070    5.6480  -18.4310 C.3    17  U17         0.1680
    548   N.1     -14.4930    6.3150  -17.1310 N.ar   17  U17        -0.2715
    549   C.2     -13.1860    6.5350  -16.7450 C.ar   17  U17         0.3314
    550   O.2     -12.2340    6.2000  -17.4460 O.2    17  U17        -0.2464
    551   N.3     -13.0070    7.1530  -15.5220 N.ar   17  U17        -0.2749
    552   C4      -14.0080    7.5660  -14.6600 C.ar   17  U17         0.2539
    553   O4      -13.7320    8.1050  -13.5920 O.2    17  U17        -0.2677
    554   C5      -15.3450    7.2970  -15.1440 C.ar   17  U17         0.0192
    555   C6      -15.5460    6.6930  -16.3410 C.ar   17  U17         0.0171
    556  H5'      -18.1900    6.1840  -19.8910 H      17  U17         0.0591
    557 H5''      -18.0460    5.0450  -21.2460 H      17  U17         0.0591
    558  H4'      -15.8170    5.1160  -20.8660 H      17  U17         0.0647
    559  H3'      -16.8830    3.3820  -18.6550 H      17  U17         0.0655
    560  H2'      -15.1560    3.9140  -17.2210 H      17  U17         0.0666
    561 HO2'      -13.3900    2.9490  -17.8370 H      17  U17         0.2101
    562  H1'      -13.8550    5.8420  -19.0810 H      17  U17         0.0867
    563   H3      -12.0520    7.3110  -15.2330 H      17  U17         0.1734
    564   H5      -16.2030    7.5810  -14.5360 H      17  U17         0.0686
    565   H6      -16.5650    6.5070  -16.6790 H      17  U17         0.0813
    566    P.3    -15.7200    1.2560  -19.9330 P.3    18  U18         0.2131
    567  OP1      -15.8190    0.6050  -21.2590 O.2    18  U18        -0.5172
    568  OP2      -16.7900    1.0580  -18.9310 O.3    18  U18        -0.4373
    569  O5'      -14.3190    0.8230  -19.2630 O.3    18  U18        -0.3248
    570  C5'      -13.0790    1.2050  -19.8630 C.3    18  U18         0.0836
    571  C4'      -11.9270    1.1370  -18.8640 C.3    18  U18         0.1117
    572  O4'      -11.9130    2.2700  -18.0030 O.3    18  U18        -0.3480
    573  C3'      -12.0570   -0.0860  -17.9540 C.3    18  U18         0.1016
    574  O3'      -10.9810   -0.9790  -18.2740 O.3    18  U18        -0.3210
    575  C2'      -11.8490    0.4530  -16.5360 C.3    18  U18         0.0431
    576  O2'      -10.8800   -0.3220  -15.8270 O.3    18  U18        -0.2528
    577  C1'      -11.3520    1.8790  -16.7540 C.3    18  U18         0.1455
    578   N.1     -11.8030    2.7600  -15.6570 N.ar   18  U18        -0.2737
    579   C.2     -10.8490    3.3120  -14.8200 C.ar   18  U18         0.3313
    580   O.2      -9.6450    3.1520  -15.0030 O.2    18  U18        -0.2464
    581   N.3     -11.3370    4.0630  -13.7590 N.ar   18  U18        -0.2749
    582   C4      -12.6710    4.3050  -13.4730 C.ar   18  U18         0.2539
    583   O4      -12.9900    4.9830  -12.4980 O.2    18  U18        -0.2677
    584   C5      -13.5910    3.6940  -14.4030 C.ar   18  U18         0.0192
    585   C6      -13.1390    2.9580  -15.4450 C.ar   18  U18         0.0170
    586  H5'      -13.1630    2.2260  -20.2360 H      18  U18         0.0591
    587 H5''      -12.8660    0.5380  -20.6970 H      18  U18         0.0591
    588  H4'      -10.9830    1.0850  -19.4050 H      18  U18         0.0646
    589  H3'      -13.0280   -0.5680  -18.0630 H      18  U18         0.0631
    590  H2'      -12.8010    0.4670  -16.0000 H      18  U18         0.0376
    591 HO2'      -10.1410   -0.4710  -16.4230 H      18  U18         0.2528
    592  H1'      -10.2650    1.8500  -16.8190 H      18  U18         0.0843
    593   H3      -10.6560    4.4730  -13.1340 H      18  U18         0.1734
    594   H5      -14.6660    3.8020  -14.2560 H      18  U18         0.0686
    595   H6      -13.8560    2.5100  -16.1300 H      18  U18         0.0813
    596    P.3    -10.6590   -2.2830  -17.3760 P.3    19  U19         0.2130
    597  OP1      -10.5840   -3.4530  -18.2800 O.2    19  U19        -0.5172
    598  OP2      -11.5850   -2.3090  -16.2210 O.3    19  U19        -0.4373
    599  O5'       -9.1680   -1.9700  -16.8430 O.3    19  U19        -0.3248
    600  C5'       -8.8100   -2.1310  -15.4640 C.3    19  U19         0.0837
    601  C4'       -7.6040   -1.2590  -15.1040 C.3    19  U19         0.1139
    602  O4'       -7.8730    0.1300  -15.3560 O.3    19  U19        -0.3456
    603  C3'       -7.2600   -1.3420  -13.6180 C.3    19  U19         0.1241
    604  O3'       -6.2470   -2.3320  -13.4260 O.3    19  U19        -0.3187
    605  C2'       -6.6540    0.0230  -13.3540 C.3    19  U19         0.1293
    606  O2'       -5.2990    0.1010  -13.8100 O.3    19  U19        -0.3846
    607  C1'       -7.5770    0.8960  -14.1790 C.3    19  U19         0.1680
    608   N.1      -8.7990    1.1990  -13.4210 N.ar   19  U19        -0.2715
    609   C.2      -8.6460    1.8730  -12.2310 C.ar   19  U19         0.3314
    610   O.2      -7.5450    2.2130  -11.8040 O.2    19  U19        -0.2464
    611   N.3      -9.8060    2.1440  -11.5400 N.ar   19  U19        -0.2749
    612   C4      -11.0910    1.8080  -11.9280 C.ar   19  U19         0.2539
    613   O4      -12.0570    2.1040  -11.2270 O.2    19  U19        -0.2677
    614   C5      -11.1550    1.1030  -13.1860 C.ar   19  U19         0.0192
    615   C6      -10.0260    0.8260  -13.8810 C.ar   19  U19         0.0171
    616  H5'       -8.5610   -3.1760  -15.2800 H      19  U19         0.0591
    617 H5''       -9.6560   -1.8510  -14.8370 H      19  U19         0.0591
    618  H4'       -6.7440   -1.5690  -15.6940 H      19  U19         0.0647
    619  H3'       -8.1420   -1.5230  -13.0030 H      19  U19         0.0655
    620  H2'       -6.7350    0.2790  -12.2940 H      19  U19         0.0666
    621 HO2'       -4.7360    0.1060  -13.0330 H      19  U19         0.2101
    622  H1'       -7.0860    1.8300  -14.4510 H      19  U19         0.0867
    623   H3       -9.7030    2.6300  -10.6720 H      19  U19         0.1734
    624   H5      -12.1220    0.7910  -13.5820 H      19  U19         0.0686
    625   H6      -10.0950    0.2860  -14.8220 H      19  U19         0.0813
    626    P.3     -6.1220   -3.1050  -12.0150 P.3    20  C20         0.2131
    627  OP1       -4.7430   -3.6320  -11.8980 O.2    20  C20        -0.5172
    628  OP2       -7.2750   -4.0240  -11.8880 O.3    20  C20        -0.4373
    629  O5'       -6.3010   -1.9190  -10.9360 O.3    20  C20        -0.3248
    630  C5'       -5.1620   -1.1830  -10.4760 C.3    20  C20         0.0837
    631  C4'       -5.4250   -0.4870   -9.1400 C.3    20  C20         0.1139
    632  O4'       -6.3570    0.5900   -9.2830 O.3    20  C20        -0.3456
    633  C3'       -6.0400   -1.4400   -8.1260 C.3    20  C20         0.1241
    634  O3'       -4.9840   -1.9830   -7.3260 O.3    20  C20        -0.3187
    635  C2'       -6.8720   -0.5210   -7.2480 C.3    20  C20         0.1293
    636  O2'       -6.0850    0.0460   -6.1940 O.3    20  C20        -0.3846
    637  C1'       -7.3310    0.5500   -8.2300 C.3    20  C20         0.1680
    638   N.1      -8.6740    0.2720   -8.7780 N.ar   20  C20        -0.2700
    639   C.2      -9.7640    0.6080   -7.9900 C.ar   20  C20         0.3522
    640   O.2      -9.5910    1.0290   -6.8480 O.2    20  C20        -0.2444
    641   N.3     -11.0120    0.4580   -8.5130 N.ar   20  C20        -0.1783
    642   C4      -11.1860   -0.0040   -9.7580 C.ar   20  C20         0.1230
    643   N.4     -12.4240   -0.1250  -10.2450 N.pl3  20  C20        -0.3430
    644   C5      -10.0610   -0.3590  -10.5740 C.ar   20  C20        -0.0056
    645   C6       -8.8310   -0.2070  -10.0460 C.ar   20  C20         0.0152
    646  H5'       -4.9060   -0.4290  -11.2230 H      20  C20         0.0591
    647 H5''       -4.3220   -1.8700  -10.3590 H      20  C20         0.0591
    648  H4'       -4.4900   -0.0990   -8.7440 H      20  C20         0.0647
    649  H3'       -6.6430   -2.2150   -8.6000 H      20  C20         0.0655
    650  H2'       -7.7280   -1.0550   -6.8440 H      20  C20         0.0666
    651 HO2'       -5.8390    0.9330   -6.4660 H      20  C20         0.2101
    652  H1'       -7.3590    1.5140   -7.7280 H      20  C20         0.0867
    653  H41      -13.2220    0.1320   -9.6760 H      20  C20         0.1437
    654  H42      -12.5650   -0.4740  -11.1830 H      20  C20         0.1437
    655   H5      -10.1960   -0.7410  -11.5860 H      20  C20         0.0666
    656   H6       -7.9510   -0.4720  -10.6330 H      20  C20         0.0812
    657    P.3     -5.2730   -3.1800   -6.2910 P.3    21  A21         0.2131
    658  OP1       -4.2110   -3.1710   -5.2610 O.3    21  A21        -0.4373
    659  OP2       -5.5360   -4.4100   -7.0720 O.2    21  A21        -0.5172
    660  O5'       -6.6500   -2.7180   -5.5990 O.3    21  A21        -0.3248
    661  C5'       -6.6470   -1.7900   -4.5110 C.3    21  A21         0.0837
    662  C4'       -8.0470   -1.6100   -3.9350 C.3    21  A21         0.1139
    663  O4'       -8.9220   -1.0240   -4.8860 O.3    21  A21        -0.3456
    664  C3'       -8.6590   -2.9580   -3.5790 C.3    21  A21         0.1241
    665  O3'       -8.5600   -3.1250   -2.1640 O.3    21  A21        -0.3187
    666  C2'      -10.1420   -2.8310   -3.9400 C.3    21  A21         0.1292
    667  O2'      -10.9640   -2.8450   -2.7690 O.3    21  A21        -0.3846
    668  C1'      -10.2510   -1.5000   -4.6730 C.3    21  A21         0.1667
    669   N9      -10.9600   -1.6720   -5.9500 N.ar   21  A21        -0.2855
    670   C8      -10.4830   -1.9750   -7.1840 C.ar   21  A21         0.1004
    671   N7      -11.3330   -2.0440   -8.1510 N.ar   21  A21        -0.2306
    672   C5      -12.5280   -1.7540   -7.4890 C.ar   21  A21         0.1473
    673   C6      -13.8460   -1.6580   -7.9280 C.ar   21  A21         0.1472
    674   N6      -14.2040   -1.8500   -9.2000 N.pl3  21  A21        -0.3413
    675   N.1     -14.7860   -1.3540   -7.0090 N.ar   21  A21        -0.2188
    676   C.2     -14.4430   -1.1570   -5.7320 C.ar   21  A21         0.1205
    677   N.3     -13.2250   -1.2240   -5.2130 N.ar   21  A21        -0.2159
    678   C4      -12.3080   -1.5280   -6.1520 C.ar   21  A21         0.1674
    679  H5'       -6.2790   -0.8260   -4.8640 H      21  A21         0.0591
    680 H5''       -5.9830   -2.1580   -3.7300 H      21  A21         0.0591
    681  H4'       -8.0020   -0.9810   -3.0470 H      21  A21         0.0647
    682  H3'       -8.1800   -3.7740   -4.1180 H      21  A21         0.0655
    683  H2'      -10.4300   -3.6350   -4.6180 H      21  A21         0.0666
    684 HO2'      -11.6650   -2.2030   -2.9050 H      21  A21         0.2101
    685  H1'      -10.8010   -0.7940   -4.0520 H      21  A21         0.0866
    686   H8       -9.4250   -2.1620   -7.3540 H      21  A21         0.1030
    687  H61      -15.1720   -1.7670   -9.4740 H      21  A21         0.1438
    688  H62      -13.5040   -2.0770   -9.8900 H      21  A21         0.1438
    689   H2      -15.2490   -0.9080   -5.0390 H      21  A21         0.1048
    690    P.3     -8.3940   -4.5920   -1.5240 P.3    22  C22         0.2131
    691  OP1       -7.5900   -4.4700   -0.2880 O.3    22  C22        -0.4373
    692  OP2       -7.9690   -5.5220   -2.5950 O.2    22  C22        -0.5172
    693  O5'       -9.9040   -4.9570   -1.1080 O.3    22  C22        -0.3248
    694  C5'      -10.6220   -4.1180   -0.2000 C.3    22  C22         0.0837
    695  C4'      -12.1250   -4.3750   -0.2610 C.3    22  C22         0.1139
    696  O4'      -12.7340   -3.6870   -1.3580 O.3    22  C22        -0.3456
    697  C3'      -12.4210   -5.8420   -0.5110 C.3    22  C22         0.1241
    698  O3'      -12.4990   -6.5320    0.7390 O.3    22  C22        -0.3187
    699  C2'      -13.8110   -5.7970   -1.1030 C.3    22  C22         0.1293
    700  O2'      -14.8130   -5.7760   -0.0800 O.3    22  C22        -0.3846
    701  C1'      -13.7990   -4.4920   -1.8950 C.3    22  C22         0.1680
    702   N.1     -13.6120   -4.7760   -3.3260 N.ar   22  C22        -0.2700
    703   C.2     -14.7550   -4.8720   -4.0970 C.ar   22  C22         0.3522
    704   O.2     -15.8560   -4.6950   -3.5840 O.2    22  C22        -0.2444
    705   N.3     -14.6220   -5.1660   -5.4170 N.ar   22  C22        -0.1783
    706   C4      -13.4140   -5.3580   -5.9570 C.ar   22  C22         0.1230
    707   N.4     -13.3200   -5.6470   -7.2530 N.pl3  22  C22        -0.3430
    708   C5      -12.2270   -5.2580   -5.1630 C.ar   22  C22        -0.0056
    709   C6      -12.3730   -4.9660   -3.8550 C.ar   22  C22         0.0152
    710  H5'      -10.4290   -3.0760   -0.4510 H      22  C22         0.0591
    711 H5''      -10.2700   -4.3100    0.8140 H      22  C22         0.0591
    712  H4'      -12.5910   -4.0580    0.6690 H      22  C22         0.0647
    713  H3'      -11.7010   -6.2960   -1.1920 H      22  C22         0.0655
    714  H2'      -13.9600   -6.6430   -1.7750 H      22  C22         0.0666
    715 HO2'      -14.7710   -4.9160    0.3450 H      22  C22         0.2101
    716  H1'      -14.7560   -3.9940   -1.7510 H      22  C22         0.0867
    717  H41      -14.1530   -5.7320   -7.8130 H      22  C22         0.1437
    718  H42      -12.4200   -5.7830   -7.6720 H      22  C22         0.1437
    719   H5      -11.2400   -5.4150   -5.6000 H      22  C22         0.0666
    720   H6      -11.4950   -4.8870   -3.2150 H      22  C22         0.0812
    721    P.3    -12.8420   -8.1070    0.7670 P.3    23  C23         0.2131
    722  OP1      -13.3180   -8.4540    2.1250 O.3    23  C23        -0.4373
    723  OP2      -11.6960   -8.8380    0.1800 O.2    23  C23        -0.5172
    724  O5'      -14.0900   -8.2230   -0.2500 O.3    23  C23        -0.3248
    725  C5'      -15.4320   -8.1340    0.2390 C.3    23  C23         0.0837
    726  C4'      -16.4680   -8.2590   -0.8800 C.3    23  C23         0.1139
    727  O4'      -16.0690   -7.5720   -2.0570 O.3    23  C23        -0.3456
    728  C3'      -16.6410   -9.7000   -1.3240 C.3    23  C23         0.1241
    729  O3'      -17.6850  -10.2900   -0.5430 O.3    23  C23        -0.3187
    730  C2'      -17.1350   -9.5810   -2.7660 C.3    23  C23         0.1293
    731  O2'      -18.5500   -9.7960   -2.8480 O.3    23  C23        -0.3846
    732  C1'      -16.7680   -8.1460   -3.1680 C.3    23  C23         0.1680
    733   N.1     -15.9380   -8.1380   -4.3860 N.ar   23  C23        -0.2700
    734   C.2     -16.6000   -8.1250   -5.6030 C.ar   23  C23         0.3522
    735   O.2     -17.8290   -8.1360   -5.6360 O.2    23  C23        -0.2444
    736   N.3     -15.8570   -8.1040   -6.7410 N.ar   23  C23        -0.1783
    737   C4      -14.5190   -8.0950   -6.6880 C.ar   23  C23         0.1230
    738   N.4     -13.8210   -8.0720   -7.8210 N.pl3  23  C23        -0.3430
    739   C5      -13.8320   -8.1090   -5.4330 C.ar   23  C23        -0.0056
    740   C6      -14.5770   -8.1310   -4.3130 C.ar   23  C23         0.0152
    741  H5'      -15.5640   -7.1750    0.7380 H      23  C23         0.0591
    742 H5''      -15.5960   -8.9330    0.9620 H      23  C23         0.0591
    743  H4'      -17.4230   -7.8640   -0.5380 H      23  C23         0.0647
    744  H3'      -15.7100  -10.2630   -1.2570 H      23  C23         0.0655
    745  H2'      -16.6010  -10.2920   -3.4010 H      23  C23         0.0666
    746 HO2'      -18.7270  -10.2080   -3.6970 H      23  C23         0.2101
    747  H1'      -17.6800   -7.5760   -3.3530 H      23  C23         0.0867
    748  H41      -14.2980   -8.0680   -8.7080 H      23  C23         0.1437
    749  H42      -12.8140   -8.0620   -7.7910 H      23  C23         0.1437
    750   H5      -12.7430   -8.1020   -5.3860 H      23  C23         0.0666
    751   H6      -14.0880   -8.1460   -3.3400 H      23  C23         0.0812
    752    P.3    -18.0690  -11.8420   -0.7340 P.3    24  A24         0.2131
    753  OP1      -18.8410  -12.2760    0.4520 O.3    24  A24        -0.4373
    754  OP2      -16.8470  -12.5770   -1.1280 O.2    24  A24        -0.5172
    755  O5'      -19.0660  -11.8060   -1.9980 O.3    24  A24        -0.3248
    756  C5'      -20.3890  -11.2760   -1.8650 C.3    24  A24         0.0837
    757  C4'      -21.1750  -11.3870   -3.1680 C.3    24  A24         0.1139
    758  O4'      -20.5920  -10.5890   -4.1990 O.3    24  A24        -0.3456
    759  C3'      -21.1620  -12.8110   -3.6970 C.3    24  A24         0.1241
    760  O3'      -22.3220  -13.4840   -3.2000 O.3    24  A24        -0.3187
    761  C2'      -21.3200  -12.6280   -5.1950 C.3    24  A24         0.1292
    762  O2'      -22.7000  -12.5790   -5.5750 O.3    24  A24        -0.3846
    763  C1'      -20.6250  -11.2930   -5.4520 C.3    24  A24         0.1667
    764   N9      -19.2620  -11.4950   -5.9760 N.ar   24  A24        -0.2855
    765   C8      -18.1000  -11.7040   -5.3100 C.ar   24  A24         0.1004
    766   N7      -17.0250  -11.8320   -6.0130 N.ar   24  A24        -0.2306
    767   C5      -17.5200  -11.6940   -7.3140 C.ar   24  A24         0.1473
    768   C6      -16.9060  -11.7240   -8.5700 C.ar   24  A24         0.1472
    769   N6      -15.5970  -11.9110   -8.7370 N.pl3  24  A24        -0.3413
    770   N.1     -17.6920  -11.5520   -9.6480 N.ar   24  A24        -0.2188
    771   C.2     -19.0050  -11.3610   -9.5030 C.ar   24  A24         0.1205
    772   N.3     -19.6890  -11.3150   -8.3640 N.ar   24  A24        -0.2159
    773   C4      -18.8810  -11.4890   -7.2990 C.ar   24  A24         0.1674
    774  H5'      -20.3220  -10.2270   -1.5770 H      24  A24         0.0591
    775 H5''      -20.9140  -11.8270   -1.0860 H      24  A24         0.0591
    776  H4'      -22.2030  -11.0670   -3.0030 H      24  A24         0.0647
    777  H3'      -20.2390  -13.3340   -3.4430 H      24  A24         0.0655
    778  H2'      -20.7990  -13.4280   -5.7270 H      24  A24         0.0666
    779 HO2'      -22.9530  -11.6540   -5.6140 H      24  A24         0.2101
    780  H1'      -21.2040  -10.7190   -6.1740 H      24  A24         0.0866
    781   H8      -18.0740  -11.7620   -4.2220 H      24  A24         0.1030
    782  H61      -15.2040  -11.9240   -9.6670 H      24  A24         0.1438
    783  H62      -14.9990  -12.0390   -7.9340 H      24  A24         0.1438
    784   H2      -19.5790  -11.2330  -10.4210 H      24  A24         0.1048
    785    P.3    -22.3680  -15.0920   -3.1310 P.3    25  A25         0.2131
    786  OP1      -23.6700  -15.4940   -2.5540 O.2    25  A25        -0.5172
    787  OP2      -21.1090  -15.5660   -2.5120 O.3    25  A25        -0.4373
    788  O5'      -22.3550  -15.5100   -4.6850 O.3    25  A25        -0.3248
    789  C5'      -23.4160  -15.1050   -5.5540 C.3    25  A25         0.0837
    790  C4'      -22.9770  -15.1100   -7.0140 C.3    25  A25         0.1139
    791  O4'      -21.7420  -14.4280   -7.1870 O.3    25  A25        -0.3456
    792  C3'      -22.7140  -16.5280   -7.5070 C.3    25  A25         0.1241
    793  O3'      -23.8640  -16.9760   -8.2360 O.3    25  A25        -0.3187
    794  C2'      -21.5620  -16.3800   -8.5010 C.3    25  A25         0.1292
    795  O2'      -21.9840  -16.6700   -9.8340 O.3    25  A25        -0.3846
    796  C1'      -21.1390  -14.9210   -8.3750 C.3    25  A25         0.1667
    797   N9      -19.6730  -14.8050   -8.3530 N.ar   25  A25        -0.2855
    798   C8      -18.7990  -14.7290   -7.3180 C.ar   25  A25         0.1004
    799   N7      -17.5410  -14.6610   -7.6100 N.ar   25  A25        -0.2306
    800   C5      -17.5760  -14.6960   -9.0070 C.ar   25  A25         0.1473
    801   C6      -16.5760  -14.6590   -9.9840 C.ar   25  A25         0.1472
    802   N6      -15.2800  -14.5780   -9.6950 N.pl3  25  A25        -0.3413
    803   N.1     -16.9660  -14.7100  -11.2710 N.ar   25  A25        -0.2188
    804   C.2     -18.2640  -14.7940  -11.5780 C.ar   25  A25         0.1205
    805   N.3     -19.2830  -14.8340  -10.7360 N.ar   25  A25        -0.2159
    806   C4      -18.8670  -14.7820   -9.4590 C.ar   25  A25         0.1674
    807  H5'      -23.7340  -14.0980   -5.2810 H      25  A25         0.0591
    808 H5''      -24.2560  -15.7890   -5.4320 H      25  A25         0.0591
    809  H4'      -23.7400  -14.6390   -7.6320 H      25  A25         0.0647
    810  H3'      -22.4610  -17.2030   -6.6900 H      25  A25         0.0655
    811  H2'      -20.7380  -17.0290   -8.2060 H      25  A25         0.0666
    812 HO2'      -22.4300  -15.8900  -10.1690 H      25  A25         0.2101
    813  H1'      -21.5210  -14.3710   -9.2350 H      25  A25         0.0866
    814   H8      -19.1290  -14.7260   -6.2790 H      25  A25         0.1030
    815  H61      -14.5990  -14.5550  -10.4390 H      25  A25         0.1438
    816  H62      -14.9770  -14.5400   -8.7320 H      25  A25         0.1438
    817   H2      -18.5150  -14.8350  -12.6330 H      25  A25         0.1048
    818    P.3    -23.9890  -18.5130   -8.7160 P.3    26  G26         0.2131
    819  OP1      -25.3610  -18.7250   -9.2300 O.2    26  G26        -0.5172
    820  OP2      -23.4650  -19.3780   -7.6350 O.3    26  G26        -0.4373
    821  O5'      -22.9680  -18.5930   -9.9620 O.3    26  G26        -0.3248
    822  C5'      -23.3790  -18.1870  -11.2720 C.3    26  G26         0.0837
    823  C4'      -22.1980  -18.1140  -12.2410 C.3    26  G26         0.1139
    824  O4'      -21.0540  -17.5330  -11.6210 O.3    26  G26        -0.3456
    825  C3'      -21.7630  -19.5040  -12.6800 C.3    26  G26         0.1241
    826  O3'      -22.3360  -19.7760  -13.9680 O.3    26  G26        -0.3187
    827  C2'      -20.2530  -19.3930  -12.8610 C.3    26  G26         0.1292
    828  O2'      -19.9130  -19.3850  -14.2450 O.3    26  G26        -0.3846
    829  C1'      -19.8670  -18.0800  -12.2010 C.3    26  G26         0.1667
    830   N9      -18.8240  -18.2980  -11.1850 N.ar   26  G26        -0.2854
    831   C8      -18.9310  -18.5500   -9.8600 C.ar   26  G26         0.1005
    832   N7      -17.8360  -18.7130   -9.1920 N.ar   26  G26        -0.2286
    833   C5      -16.8690  -18.5500  -10.1920 C.ar   26  G26         0.1721
    834   C6      -15.4480  -18.6100  -10.1150 C.ar   26  G26         0.2803
    835   O6      -14.7430  -18.8200   -9.1300 O.2    26  G26        -0.2654
    836   N.1     -14.8650  -18.3890  -11.3580 N.ar   26  G26        -0.2934
    837   C.2     -15.5570  -18.1420  -12.5250 C.ar   26  G26         0.1950
    838   N.2     -14.8250  -17.9520  -13.6100 N.pl3  26  G26        -0.3289
    839   N.3     -16.8830  -18.0850  -12.6030 N.ar   26  G26        -0.1963
    840   C4      -17.4730  -18.2960  -11.4110 C.ar   26  G26         0.1712
    841  H5'      -23.8490  -17.2060  -11.2090 H      26  G26         0.0591
    842 H5''      -24.1070  -18.9040  -11.6540 H      26  G26         0.0591
    843  H4'      -22.4760  -17.5240  -13.1130 H      26  G26         0.0647
    844  H3'      -22.0310  -20.2650  -11.9460 H      26  G26         0.0655
    845  H2'      -19.7550  -20.2180  -12.3490 H      26  G26         0.0666
    846 HO2'      -20.7060  -19.6150  -14.7350 H      26  G26         0.2101
    847  H1'      -19.4780  -17.4000  -12.9620 H      26  G26         0.0866
    848   H8      -19.9050  -18.6130   -9.3770 H      26  G26         0.1030
    849   H1      -13.8520  -18.4200  -11.3890 H      26  G26         0.1716
    850  H21      -13.8240  -17.9910  -13.5450 H      26  G26         0.1451
    851  H22      -15.2700  -17.7700  -14.4980 H      26  G26         0.1451
    852    P.3    -22.4650  -21.2930  -14.5150 P.3    27  C27         0.2131
    853  OP1      -23.7760  -21.4250  -15.1900 O.2    27  C27        -0.5172
    854  OP2      -22.1110  -22.2110  -13.4110 O.3    27  C27        -0.4373
    855  O5'      -21.3070  -21.3880  -15.6400 O.3    27  C27        -0.3248
    856  C5'      -19.9440  -21.6060  -15.2580 C.3    27  C27         0.0837
    857  C4'      -18.9630  -20.8310  -16.1550 C.3    27  C27         0.1139
    858  O4'      -18.1850  -19.8770  -15.4090 O.3    27  C27        -0.3456
    859  C3'      -17.9530  -21.7620  -16.8180 C.3    27  C27         0.1241
    860  O3'      -18.4380  -22.0610  -18.1330 O.3    27  C27        -0.3187
    861  C2'      -16.7070  -20.8970  -16.9300 C.3    27  C27         0.1293
    862  O2'      -16.7450  -20.0780  -18.1050 O.3    27  C27        -0.3846
    863  C1'      -16.7840  -20.0590  -15.6680 C.3    27  C27         0.1680
    864   N.1     -16.1370  -20.7150  -14.5170 N.ar   27  C27        -0.2700
    865   C.2     -14.7510  -20.7200  -14.4440 C.ar   27  C27         0.3522
    866   O.2     -14.0750  -20.2530  -15.3610 O.2    27  C27        -0.2444
    867   N.3     -14.1730  -21.2540  -13.3310 N.ar   27  C27        -0.1783
    868   C4      -14.9250  -21.7610  -12.3420 C.ar   27  C27         0.1230
    869   N.4     -14.3330  -22.2690  -11.2640 N.pl3  27  C27        -0.3430
    870   C5      -16.3500  -21.7550  -12.4310 C.ar   27  C27        -0.0056
    871   C6      -16.8980  -21.2300  -13.5230 C.ar   27  C27         0.0152
    872  H5'      -19.7180  -22.6710  -15.3070 H      27  C27         0.0591
    873 H5''      -19.8320  -21.2830  -14.2400 H      27  C27         0.0591
    874  H4'      -19.5240  -20.3060  -16.9260 H      27  C27         0.0647
    875  H3'      -17.7710  -22.6610  -16.2290 H      27  C27         0.0655
    876  H2'      -15.8100  -21.5160  -16.9160 H      27  C27         0.0666
    877 HO2'      -15.8570  -19.7420  -18.2490 H      27  C27         0.2101
    878  H1'      -16.3130  -19.0970  -15.8410 H      27  C27         0.0867
    879  H41      -13.3270  -22.2740  -11.1970 H      27  C27         0.1437
    880  H42      -14.8910  -22.6490  -10.5160 H      27  C27         0.1437
    881   H5      -16.9810  -22.1730  -11.6510 H      27  C27         0.0666
    882   H6      -17.9680  -21.2130  -13.6140 H      27  C27         0.0812
    883    P.3    -17.4360  -22.2240  -19.3820 P.3    28  A28         0.2131
    884  OP1      -17.3630  -20.9260  -20.0890 O.3    28  A28        -0.4373
    885  OP2      -17.8210  -23.4450  -20.1250 O.2    28  A28        -0.5172
    886  O5'      -16.0180  -22.4940  -18.6740 O.3    28  A28        -0.3248
    887  C5'      -15.2510  -23.6480  -19.0020 C.3    28  A28         0.0837
    888  C4'      -13.7550  -23.3460  -18.9800 C.3    28  A28         0.1139
    889  O4'      -13.4270  -22.3650  -17.9750 O.3    28  A28        -0.3456
    890  C3'      -12.9460  -24.5880  -18.6170 C.3    28  A28         0.1241
    891  O3'      -12.5320  -25.2210  -19.8290 O.3    28  A28        -0.3187
    892  C2'      -11.7350  -23.9770  -17.9310 C.3    28  A28         0.1292
    893  O2'      -10.8400  -23.3930  -18.8880 O.3    28  A28        -0.3846
    894  C1'      -12.4260  -22.9090  -17.1040 C.3    28  A28         0.1667
    895   N9      -13.0520  -23.4390  -15.8720 N.ar   28  A28        -0.2855
    896   C8      -14.3670  -23.6070  -15.5910 C.ar   28  A28         0.1004
    897   N7      -14.6870  -23.9340  -14.3850 N.ar   28  A28        -0.2306
    898   C5      -13.4360  -24.0020  -13.7710 C.ar   28  A28         0.1473
    899   C6      -13.0390  -24.3090  -12.4640 C.ar   28  A28         0.1472
    900   N6      -13.9000  -24.6140  -11.4930 N.pl3  28  A28        -0.3413
    901   N.1     -11.7210  -24.2880  -12.1970 N.ar   28  A28        -0.2188
    902   C.2     -10.8460  -23.9870  -13.1550 C.ar   28  A28         0.1205
    903   N.3     -11.1110  -23.6780  -14.4230 N.ar   28  A28        -0.2159
    904   C4      -12.4340  -23.7050  -14.6680 C.ar   28  A28         0.1674
    905  H5'      -15.5280  -23.9870  -20.0010 H      28  A28         0.0591
    906 H5''      -15.4720  -24.4380  -18.2860 H      28  A28         0.0591
    907  H4'      -13.4430  -22.9790  -19.9550 H      28  A28         0.0647
    908  H3'      -13.5000  -25.2560  -17.9600 H      28  A28         0.0655
    909  H2'      -11.2080  -24.7070  -17.2970 H      28  A28         0.0666
    910 HO2'       -9.9920  -23.8330  -18.7910 H      28  A28         0.2101
    911  H1'      -11.7170  -22.1330  -16.8440 H      28  A28         0.0866
    912   H8      -15.1270  -23.4630  -16.3540 H      28  A28         0.1030
    913  H61      -13.5610  -24.8290  -10.5660 H      28  A28         0.1438
    914  H62      -14.8920  -24.6300  -11.6830 H      28  A28         0.1438
    915   H2       -9.7940  -24.0300  -12.8850 H      28  A28         0.1048
    916    P.3    -12.7100  -26.8110  -20.0200 P.3    29  U29         0.2131
    917  OP1      -13.1950  -27.0650  -21.3950 O.2    29  U29        -0.5172
    918  OP2      -13.4590  -27.3400  -18.8580 O.3    29  U29        -0.4373
    919  O5'      -11.1930  -27.3150  -19.9160 O.3    29  U29        -0.3248
    920  C5'      -10.1540  -26.3450  -19.8190 C.3    29  U29         0.0837
    921  C4'       -9.1390  -26.7020  -18.7510 C.3    29  U29         0.1139
    922  O4'       -9.4890  -26.1250  -17.4850 O.3    29  U29        -0.3456
    923  C3'       -9.0900  -28.2080  -18.5510 C.3    29  U29         0.1241
    924  O3'       -7.7360  -28.6090  -18.3230 O.3    29  U29        -0.3187
    925  C2'       -9.8620  -28.4400  -17.2780 C.3    29  U29         0.1293
    926  O2'       -9.3740  -29.5790  -16.5630 O.3    29  U29        -0.3846
    927  C1'       -9.6480  -27.1550  -16.5030 C.3    29  U29         0.1680
    928   N.1     -10.8200  -26.9240  -15.6590 N.ar   29  U29        -0.2715
    929   C.2     -10.6610  -26.9860  -14.2890 C.ar   29  U29         0.3314
    930   O.2      -9.5610  -27.1400  -13.7640 O.2    29  U29        -0.2464
    931   N.3     -11.8190  -26.8660  -13.5420 N.ar   29  U29        -0.2749
    932   C4      -13.0990  -26.6920  -14.0450 C.ar   29  U29         0.2539
    933   O4      -14.0610  -26.5980  -13.2870 O.2    29  U29        -0.2677
    934   C5      -13.1620  -26.6310  -15.4890 C.ar   29  U29         0.0192
    935   C6      -12.0370  -26.7470  -16.2350 C.ar   29  U29         0.0171
    936  H5'      -10.5970  -25.3900  -19.5690 H      29  U29         0.0591
    937 H5''       -9.6480  -26.2660  -20.7830 H      29  U29         0.0591
    938  H4'       -8.1660  -26.3400  -19.0590 H      29  U29         0.0647
    939  H3'       -9.5480  -28.7310  -19.3810 H      29  U29         0.0655
    940  H2'      -10.9220  -28.5510  -17.5150 H      29  U29         0.0666
    941 HO2'      -10.1060  -30.1940  -16.4730 H      29  U29         0.2101
    942  H1'       -8.7530  -27.2250  -15.8890 H      29  U29         0.0867
    943   H3      -11.7240  -26.9130  -12.5380 H      29  U29         0.1734
    944   H5      -14.1240  -26.4930  -15.9820 H      29  U29         0.0686
    945   H6      -12.0960  -26.6990  -17.3260 H      29  U29         0.0813
    946    P.3     -6.6940  -28.7550  -19.5400 P.3    30  A30         0.2131
    947  OP1       -7.2380  -28.0180  -20.7020 O.2    30  A30        -0.5172
    948  OP2       -6.3350  -30.1840  -19.6750 O.3    30  A30        -0.4373
    949  O5'       -5.4070  -27.9620  -18.9830 O.3    30  A30        -0.3248
    950  C5'       -4.3460  -27.5820  -19.8620 C.3    30  A30         0.0837
    951  C4'       -4.7340  -26.3680  -20.7070 C.3    30  A30         0.1139
    952  O4'       -6.1160  -26.0580  -20.5060 O.3    30  A30        -0.3456
    953  C3'       -3.9340  -25.1140  -20.3250 C.3    30  A30         0.1241
    954  O3'       -3.1020  -24.7650  -21.4370 O.3    30  A30        -0.3187
    955  C2'       -4.9740  -24.0140  -20.1890 C.3    30  A30         0.1292
    956  O2'       -5.0460  -23.2230  -21.3790 O.3    30  A30        -0.3846
    957  C1'       -6.2720  -24.7510  -19.9560 C.3    30  A30         0.1667
    958   N9       -6.6210  -24.7800  -18.5270 N.ar   30  A30        -0.2855
    959   C8       -6.3780  -25.7150  -17.5900 C.ar   30  A30         0.1004
    960   N7       -6.7710  -25.4760  -16.3850 N.ar   30  A30        -0.2306
    961   C5       -7.3560  -24.2190  -16.5350 C.ar   30  A30         0.1473
    962   C6       -7.9860  -23.3540  -15.6400 C.ar   30  A30         0.1472
    963   N6       -8.1350  -23.6280  -14.3480 N.pl3  30  A30        -0.3413
    964   N.1      -8.4480  -22.1930  -16.1290 N.ar   30  A30        -0.2188
    965   C.2      -8.2980  -21.9030  -17.4230 C.ar   30  A30         0.1205
    966   N.3      -7.7200  -22.6450  -18.3510 N.ar   30  A30        -0.2159
    967   C4       -7.2670  -23.7950  -17.8380 C.ar   30  A30         0.1674
    968  H5'       -4.1210  -28.4160  -20.5260 H      30  A30         0.0591
    969 H5''       -3.4590  -27.3510  -19.2730 H      30  A30         0.0591
    970  H4'       -4.5700  -26.5940  -21.7600 H      30  A30         0.0647
    971  H3'       -3.3600  -25.2420  -19.4120 H      30  A30         0.0655
    972  H2'       -4.7470  -23.3910  -19.3230 H      30  A30         0.0666
    973 HO2'       -4.8710  -23.8070  -22.1210 H      30  A30         0.2101
    974  H1'       -7.0510  -24.2320  -20.4880 H      30  A30         0.0866
    975   H8       -5.9000  -26.6380  -17.8500 H      30  A30         0.1030
    976  H61       -8.5960  -22.9640  -13.7410 H      30  A30         0.1438
    977  H62       -7.7910  -24.5000  -13.9730 H      30  A30         0.1438
    978   H2       -8.7010  -20.9620  -17.7570 H      30  A30         0.1048
    979    P.3     -2.3400  -23.3420  -21.4930 P.3    31  U31         0.2131
    980  OP1       -2.7320  -22.6600  -22.7480 O.2    31  U31        -0.5172
    981  OP2       -0.9090  -23.5750  -21.2010 O.3    31  U31        -0.4373
    982  O5'       -2.9790  -22.5290  -20.2570 O.3    31  U31        -0.3248
    983  C5'       -3.7950  -21.3720  -20.4840 C.3    31  U31         0.0837
    984  C4'       -4.1340  -20.6600  -19.1790 C.3    31  U31         0.1139
    985  O4'       -4.8730  -21.5160  -18.2780 O.3    31  U31        -0.3456
    986  C3'       -2.8540  -20.2840  -18.4340 C.3    31  U31         0.1241
    987  O3'       -3.0880  -19.0690  -17.7140 O.3    31  U31        -0.3187
    988  C2'       -2.7340  -21.4130  -17.4360 C.3    31  U31         0.1293
    989  O2'       -1.8840  -21.0780  -16.3330 O.3    31  U31        -0.3846
    990  C1'       -4.1800  -21.5410  -17.0290 C.3    31  U31         0.1680
    991   N.1      -4.4360  -22.7690  -16.2410 N.ar   31  U31        -0.2715
    992   C.2      -5.0740  -22.6130  -15.0240 C.ar   31  U31         0.3314
    993   O.2      -5.4400  -21.5140  -14.6140 O.2    31  U31        -0.2464
    994   N.3      -5.2770  -23.7680  -14.2900 N.ar   31  U31        -0.2749
    995   C4       -4.9040  -25.0470  -14.6620 C.ar   31  U31         0.2539
    996   O4       -5.1350  -26.0070  -13.9300 O.2    31  U31        -0.2677
    997   C5       -4.2460  -25.1150  -15.9470 C.ar   31  U31         0.0192
    998   C6       -4.0360  -23.9970  -16.6820 C.ar   31  U31         0.0171
    999  H5'       -4.7190  -21.6760  -20.9740 H      31  U31         0.0591
   1000 H5''       -3.2590  -20.6820  -21.1360 H      31  U31         0.0591
   1001  H4'       -4.7160  -19.7620  -19.3890 H      31  U31         0.0647
   1002  H3'       -1.9900  -20.2210  -19.0960 H      31  U31         0.0655
   1003  H2'       -2.4070  -22.3240  -17.9440 H      31  U31         0.0666
   1004 HO2'       -1.3490  -21.8520  -16.1390 H      31  U31         0.2101
   1005  H1'       -4.4640  -20.6710  -16.4480 H      31  U31         0.0867
   1006   H3       -5.7420  -23.6690  -13.3980 H      31  U31         0.1734
   1007   H5       -3.9170  -26.0790  -16.3330 H      31  U31         0.0686
   1008   H6       -3.5390  -24.0800  -17.6390 H      31  U31         0.0813
   1009    P.3     -2.6290  -17.6490  -18.3190 P.3    32  U32         0.2131
   1010  OP1       -2.7250  -17.7210  -19.7950 O.2    32  U32        -0.5172
   1011  OP2       -1.3500  -17.2660  -17.6800 O.3    32  U32        -0.4373
   1012  O5'       -3.7770  -16.6510  -17.7880 O.3    32  U32        -0.3248
   1013  C5'       -3.4350  -15.3910  -17.2030 C.3    32  U32         0.0837
   1014  C4'       -2.8360  -14.4390  -18.2320 C.3    32  U32         0.1139
   1015  O4'       -3.8510  -13.9230  -19.0940 O.3    32  U32        -0.3456
   1016  C3'       -2.1790  -13.2380  -17.5480 C.3    32  U32         0.1241
   1017  O3'       -0.8290  -13.1410  -18.0100 O.3    32  U32        -0.3187
   1018  C2'       -2.9400  -12.0170  -18.0550 C.3    32  U32         0.1293
   1019  O2'       -2.0460  -10.9410  -18.3680 O.3    32  U32        -0.3846
   1020  C1'       -3.6430  -12.5290  -19.3020 C.3    32  U32         0.1680
   1021   N.1      -4.9240  -11.8290  -19.5080 N.ar   32  U32        -0.2715
   1022   C.2      -5.0910  -11.1390  -20.6940 C.ar   32  U32         0.3314
   1023   O.2      -4.2170  -11.1010  -21.5560 O.2    32  U32        -0.2464
   1024   N.3      -6.3030  -10.4910  -20.8530 N.ar   32  U32        -0.2749
   1025   C4       -7.3450  -10.4750  -19.9410 C.ar   32  U32         0.2539
   1026   O4       -8.3830   -9.8620  -20.1860 O.2    32  U32        -0.2677
   1027   C5       -7.0820  -11.2220  -18.7330 C.ar   32  U32         0.0192
   1028   C6       -5.9020  -11.8650  -18.5560 C.ar   32  U32         0.0171
   1029  H5'       -2.7100  -15.5520  -16.4040 H      32  U32         0.0591
   1030 H5''       -4.3320  -14.9390  -16.7810 H      32  U32         0.0591
   1031  H4'       -2.0930  -14.9690  -18.8280 H      32  U32         0.0647
   1032  H3'       -2.2280  -13.3180  -16.4620 H      32  U32         0.0655
   1033  H2'       -3.6790  -11.7020  -17.3130 H      32  U32         0.0666
   1034 HO2'       -2.4350  -10.1360  -18.0220 H      32  U32         0.2101
   1035  H1'       -3.0040  -12.3800  -20.1700 H      32  U32         0.0867
   1036   H3       -6.4390   -9.9820  -21.7130 H      32  U32         0.1734
   1037   H5       -7.8430  -11.2700  -17.9530 H      32  U32         0.0686
   1038   H6       -5.7300  -12.4230  -17.6370 H      32  U32         0.0813
   1039    P.3      0.3180  -12.5480  -17.0470 P.3    33  A33         0.2131
   1040  OP1        1.6210  -12.6960  -17.7320 O.2    33  A33        -0.5172
   1041  OP2        0.1260  -13.1200  -15.6950 O.3    33  A33        -0.4373
   1042  O5'       -0.0460  -10.9810  -16.9880 O.3    33  A33        -0.3248
   1043  C5'       -0.8820  -10.4680  -15.9470 C.3    33  A33         0.0837
   1044  C4'       -1.5010   -9.1280  -16.3330 C.3    33  A33         0.1139
   1045  O4'       -2.7650   -9.3780  -16.9540 O.3    33  A33        -0.3456
   1046  C3'       -1.8040   -8.2890  -15.1170 C.3    33  A33         0.1241
   1047  O3'       -0.7710   -7.3150  -14.9720 O.3    33  A33        -0.3187
   1048  C2'       -3.0030   -7.5050  -15.5640 C.3    33  A33         0.1292
   1049  O2'       -2.6530   -6.2150  -16.0570 O.3    33  A33        -0.3846
   1050  C1'       -3.6200   -8.2970  -16.6550 C.3    33  A33         0.1667
   1051   N9       -4.9550   -8.6570  -16.2140 N.ar   33  A33        -0.2855
   1052   C8       -5.4400   -9.7530  -15.6050 C.ar   33  A33         0.1004
   1053   N7       -6.7100   -9.7660  -15.3380 N.ar   33  A33        -0.2306
   1054   C5       -7.0990   -8.5100  -15.8320 C.ar   33  A33         0.1473
   1055   C6       -8.3180   -7.8240  -15.8870 C.ar   33  A33         0.1472
   1056   N6       -9.4650   -8.3270  -15.4260 N.pl3  33  A33        -0.3413
   1057   N.1      -8.3030   -6.5890  -16.4410 N.ar   33  A33        -0.2188
   1058   C.2      -7.1560   -6.0790  -16.9080 C.ar   33  A33         0.1205
   1059   N.3      -5.9810   -6.6450  -16.9090 N.ar   33  A33        -0.2159
   1060   C4       -6.0230   -7.8550  -16.3580 C.ar   33  A33         0.1674
   1061  H5'       -0.2880  -10.3390  -15.0440 H      33  A33         0.0591
   1062 H5''       -1.6790  -11.1850  -15.7480 H      33  A33         0.0591
   1063  H4'       -0.8750   -8.5390  -17.0020 H      33  A33         0.0647
   1064  H3'       -2.0060   -8.8580  -14.2060 H      33  A33         0.0655
   1065  H2'       -3.7010   -7.4510  -14.7540 H      33  A33         0.0666
   1066 HO2'       -1.7010   -6.1260  -15.9720 H      33  A33         0.2101
   1067  H1'       -3.7060   -7.6670  -17.5390 H      33  A33         0.0866
   1068   H8       -4.7840  -10.5630  -15.3160 H      33  A33         0.1030
   1069  H61      -10.3160   -7.7880  -15.4950 H      33  A33         0.1438
   1070  H62       -9.4800   -9.2460  -15.0090 H      33  A33         0.1438
   1071   H2       -7.1750   -5.0720  -17.3000 H      33  A33         0.1048
   1072    P.3      0.6740   -7.7400  -14.4050 P.3    34  C34         0.2131
   1073  OP1        1.6840   -7.4480  -15.4470 O.2    34  C34        -0.5172
   1074  OP2        0.5680   -9.1050  -13.8420 O.3    34  C34        -0.4373
   1075  O5'        0.8930   -6.7090  -13.1890 O.3    34  C34        -0.3248
   1076  C5'       -0.1990   -5.9370  -12.6780 C.3    34  C34         0.0837
   1077  C4'       -0.8530   -5.0960  -13.7780 C.3    34  C34         0.1139
   1078  O4'       -2.1150   -5.6500  -14.1580 O.3    34  C34        -0.3456
   1079  C3'       -1.1300   -3.6570  -13.3130 C.3    34  C34         0.1241
   1080  O3'       -0.3750   -2.7730  -14.1460 O.3    34  C34        -0.3187
   1081  C2'       -2.6140   -3.4140  -13.5940 C.3    34  C34         0.1293
   1082  O2'       -2.8210   -2.1690  -14.2690 O.3    34  C34        -0.3846
   1083  C1'       -3.0150   -4.5910  -14.4630 C.3    34  C34         0.1680
   1084   N.1      -4.4200   -4.9920  -14.2250 N.ar   34  C34        -0.2700
   1085   C.2      -5.4110   -4.3450  -14.9440 C.ar   34  C34         0.3522
   1086   O.2      -5.1270   -3.3950  -15.6690 O.2    34  C34        -0.2444
   1087   N.3      -6.6950   -4.7790  -14.8020 N.ar   34  C34        -0.1783
   1088   C4       -6.9890   -5.8100  -13.9980 C.ar   34  C34         0.1230
   1089   N.4      -8.2540   -6.2120  -13.8780 N.pl3  34  C34        -0.3430
   1090   C5       -5.9600   -6.4790  -13.2660 C.ar   34  C34        -0.0056
   1091   C6       -4.7150   -6.0390  -13.4070 C.ar   34  C34         0.0152
   1092  H5'        0.1750   -5.2830  -11.8920 H      34  C34         0.0591
   1093 H5''       -0.9440   -6.6110  -12.2560 H      34  C34         0.0591
   1094  H4'       -0.1990   -5.0740  -14.6480 H      34  C34         0.0647
   1095  H3'       -0.8980   -3.5120  -12.2600 H      34  C34         0.0655
   1096  H2'       -3.1770   -3.4440  -12.6610 H      34  C34         0.0666
   1097 HO2'       -2.6750   -1.4690  -13.6290 H      34  C34         0.2101
   1098  H1'       -2.8940   -4.3470  -15.5370 H      34  C34         0.0867
   1099  H41       -8.9850   -5.7360  -14.3860 H      34  C34         0.1437
   1100  H42       -8.4800   -6.9940  -13.2810 H      34  C34         0.1437
   1101   H5       -6.1660   -7.3450  -12.6420 H      34  C34         0.0666
   1102   H6       -3.9230   -6.5710  -12.9090 H      34  C34         0.0812
   1103    P.3     -0.5160   -2.8350  -15.7490 P.3    35  A35         0.2131
   1104  OP1       -1.1080   -4.1420  -16.1120 O.3    35  A35        -0.4373
   1105  OP2        0.7730   -2.4180  -16.3450 O.2    35  A35        -0.5172
   1106  O5'       -1.6050   -1.6890  -16.0500 O.3    35  A35        -0.3248
   1107  C5'       -2.5280   -1.8390  -17.1290 C.3    35  A35         0.0837
   1108  C4'       -3.6960   -0.8650  -17.0170 C.3    35  A35         0.1139
   1109  O4'       -3.8020   -0.3140  -15.6960 O.3    35  A35        -0.3456
   1110  C3'       -3.5030    0.3160  -17.9560 C.3    35  A35         0.1241
   1111  O3'       -4.2390    0.0500  -19.1520 O.3    35  A35        -0.3187
   1112  C2'       -4.1770    1.4610  -17.2230 C.3    35  A35         0.1292
   1113  O2'       -5.5760    1.5140  -17.5230 O.3    35  A35        -0.3846
   1114  C1'       -3.9410    1.1130  -15.7650 C.3    35  A35         0.1667
   1115   N9       -2.7520    1.7970  -15.2200 N.ar   35  A35        -0.2855
   1116   C8       -1.4410    1.4640  -15.3070 C.ar   35  A35         0.1004
   1117   N7       -0.5880    2.2360  -14.7170 N.ar   35  A35        -0.2306
   1118   C5       -1.4270    3.2070  -14.1620 C.ar   35  A35         0.1473
   1119   C6       -1.1720    4.3410  -13.3910 C.ar   35  A35         0.1472
   1120   N6        0.0570    4.6950  -13.0330 N.pl3  35  A35        -0.3413
   1121   N.1      -2.2240    5.0860  -13.0070 N.ar   35  A35        -0.2188
   1122   C.2      -3.4610    4.7320  -13.3620 C.ar   35  A35         0.1205
   1123   N.3      -3.8180    3.6760  -14.0920 N.ar   35  A35        -0.2159
   1124   C4       -2.7440    2.9500  -14.4620 C.ar   35  A35         0.1674
   1125  H5'       -2.9150   -2.8570  -17.1280 H      35  A35         0.0591
   1126 H5''       -2.0050   -1.6610  -18.0690 H      35  A35         0.0591
   1127  H4'       -4.6230   -1.3790  -17.2680 H      35  A35         0.0647
   1128  H3'       -2.4510    0.5120  -18.1530 H      35  A35         0.0655
   1129  H2'       -3.6980    2.4080  -17.4580 H      35  A35         0.0666
   1130 HO2'       -5.8110    2.4390  -17.6260 H      35  A35         0.2101
   1131  H1'       -4.8110    1.4360  -15.2200 H      35  A35         0.0866
   1132   H8       -1.1220    0.5730  -15.8460 H      35  A35         0.1030
   1133  H61        0.2190    5.5080  -12.4600 H      35  A35         0.1438
   1134  H62        0.8360    4.1380  -13.3280 H      35  A35         0.1438
   1135   H2       -4.2690    5.3660  -12.9940 H      35  A35         0.1048
   1136    P.3     -4.2760    1.1120  -20.3630 P.3    36  C36         0.2131
   1137  OP1       -5.6890    1.3110  -20.7550 O.3    36  C36        -0.4373
   1138  OP2       -3.2840    0.6900  -21.3770 O.2    36  C36        -0.5172
   1139  O5'       -3.7480    2.4730  -19.6820 O.3    36  C36        -0.3248
   1140  C5'       -3.6080    3.6550  -20.4760 C.3    36  C36         0.0837
   1141  C4'       -3.1880    4.8660  -19.6420 C.3    36  C36         0.1139
   1142  O4'       -3.0640    4.5400  -18.2500 O.3    36  C36        -0.3456
   1143  C3'       -1.8170    5.3760  -20.0600 C.3    36  C36         0.1241
   1144  O3'       -1.9790    6.3810  -21.0620 O.3    36  C36        -0.3187
   1145  C2'       -1.3190    6.0350  -18.7930 C.3    36  C36         0.1293
   1146  O2'       -1.8760    7.3440  -18.6250 O.3    36  C36        -0.3846
   1147  C1'       -1.8290    5.0730  -17.7340 C.3    36  C36         0.1680
   1148   N.1      -0.8580    3.9920  -17.4740 N.ar   36  C36        -0.2700
   1149   C.2       0.2310    4.2880  -16.6700 C.ar   36  C36         0.3522
   1150   O.2       0.3650    5.4180  -16.2070 O.2    36  C36        -0.2444
   1151   N.3       1.1310    3.3000  -16.4130 N.ar   36  C36        -0.1783
   1152   C4        0.9700    2.0730  -16.9280 C.ar   36  C36         0.1230
   1153   N.4       1.8690    1.1250  -16.6600 N.pl3  36  C36        -0.3430
   1154   C5       -0.1520    1.7660  -17.7590 C.ar   36  C36        -0.0056
   1155   C6       -1.0380    2.7500  -18.0040 C.ar   36  C36         0.0152
   1156  H5'       -4.5620    3.8710  -20.9560 H      36  C36         0.0591
   1157 H5''       -2.8590    3.4760  -21.2470 H      36  C36         0.0591
   1158  H4'       -3.9240    5.6610  -19.7600 H      36  C36         0.0647
   1159  H3'       -1.1610    4.5670  -20.3850 H      36  C36         0.0655
   1160  H2'       -0.2320    6.0690  -18.7850 H      36  C36         0.0666
   1161 HO2'       -1.7450    7.5940  -17.7060 H      36  C36         0.2101
   1162  H1'       -2.0150    5.6180  -16.8140 H      36  C36         0.0867
   1163  H41        2.6640    1.3340  -16.0730 H      36  C36         0.1437
   1164  H42        1.7540    0.1980  -17.0440 H      36  C36         0.1437
   1165   H5       -0.2840    0.7690  -18.1800 H      36  C36         0.0666
   1166   H6       -1.9120    2.5500  -18.6220 H      36  C36         0.0812
   1167    P.3     -0.7090    6.8740  -21.9210 P.3    37  G37         0.2131
   1168  OP1       -1.0930    8.1020  -22.6530 O.3    37  G37        -0.4373
   1169  OP2       -0.1700    5.7110  -22.6600 O.2    37  G37        -0.5172
   1170  O5'        0.3480    7.2790  -20.7770 O.3    37  G37        -0.3248
   1171  C5'        0.3140    8.5850  -20.2000 C.3    37  G37         0.0837
   1172  C4'        1.2500    8.7060  -18.9990 C.3    37  G37         0.1139
   1173  O4'        1.1060    7.6230  -18.0900 O.3    37  G37        -0.3456
   1174  C3'        2.7020    8.6230  -19.4080 C.3    37  G37         0.1241
   1175  O3'        3.1430    9.9080  -19.8570 O.3    37  G37        -0.3187
   1176  C2'        3.3890    8.3080  -18.0970 C.3    37  G37         0.1292
   1177  O2'        3.7380    9.5040  -17.3940 O.3    37  G37        -0.3846
   1178  C1'        2.3300    7.5070  -17.3430 C.3    37  G37         0.1667
   1179   N9        2.7520    6.1020  -17.1870 N.ar   37  G37        -0.2854
   1180   C8        2.5670    5.0410  -18.0100 C.ar   37  G37         0.1005
   1181   N7        3.0770    3.9100  -17.6520 N.ar   37  G37        -0.2286
   1182   C5        3.6810    4.2420  -16.4350 C.ar   37  G37         0.1721
   1183   C6        4.4160    3.4290  -15.5310 C.ar   37  G37         0.2803
   1184   O6        4.6850    2.2330  -15.6270 O.2    37  G37        -0.2654
   1185   N.1       4.8490    4.1560  -14.4280 N.ar   37  G37        -0.2934
   1186   C.2       4.6080    5.4980  -14.2160 C.ar   37  G37         0.1950
   1187   N.2       5.1070    6.0180  -13.0950 N.pl3  37  G37        -0.3289
   1188   N.3       3.9160    6.2690  -15.0610 N.ar   37  G37        -0.1963
   1189   C4        3.4850    5.5830  -16.1440 C.ar   37  G37         0.1712
   1190  H5'       -0.7050    8.8020  -19.8780 H      37  G37         0.0591
   1191 H5''        0.6090    9.3130  -20.9540 H      37  G37         0.0591
   1192  H4'        1.0640    9.6420  -18.4770 H      37  G37         0.0647
   1193  H3'        2.8710    7.8430  -20.1390 H      37  G37         0.0655
   1194  H2'        4.2700    7.6870  -18.2730 H      37  G37         0.0666
   1195 HO2'        2.9270    9.9990  -17.2560 H      37  G37         0.2101
   1196  H1'        2.1920    7.9490  -16.3710 H      37  G37         0.0866
   1197   H8        2.0080    5.1350  -18.9370 H      37  G37         0.1030
   1198   H1        5.3810    3.6430  -13.7400 H      37  G37         0.1716
   1199  H21        5.6290    5.4340  -12.4570 H      37  G37         0.1451
   1200  H22        4.9630    6.9950  -12.8830 H      37  G37         0.1451
   1201    P.3      4.6700   10.1260  -20.3210 P.3    38  C38         0.2131
   1202  OP1        4.7740   11.4540  -20.9640 O.3    38  C38        -0.4373
   1203  OP2        5.1070    8.9170  -21.0520 O.2    38  C38        -0.5172
   1204  O5'        5.4630   10.1790  -18.9190 O.3    38  C38        -0.3248
   1205  C5'        5.4250   11.3580  -18.1090 C.3    38  C38         0.0837
   1206  C4'        5.9680   11.0970  -16.7050 C.3    38  C38         0.1139
   1207  O4'        5.5520    9.8240  -16.2120 O.3    38  C38        -0.3456
   1208  C3'        7.4840   11.0490  -16.7000 C.3    38  C38         0.1241
   1209  O3'        7.9760   12.3670  -16.4540 O.3    38  C38        -0.3187
   1210  C2'        7.7910   10.1840  -15.4880 C.3    38  C38         0.1293
   1211  O2'        7.8370   10.9630  -14.2870 O.3    38  C38        -0.3846
   1212  C1'        6.6190    9.2050  -15.4750 C.3    38  C38         0.1680
   1213   N.1       6.9910    7.9130  -16.0800 N.ar   38  C38        -0.2700
   1214   C.2       7.5700    6.9640  -15.2550 C.ar   38  C38         0.3522
   1215   O.2       7.8240    7.2370  -14.0830 O.2    38  C38        -0.2444
   1216   N.3       7.8490    5.7390  -15.7770 N.ar   38  C38        -0.1783
   1217   C4        7.5720    5.4580  -17.0580 C.ar   38  C38         0.1230
   1218   N.4       7.8470    4.2440  -17.5340 N.pl3  38  C38        -0.3430
   1219   C5        6.9800    6.4390  -17.9150 C.ar   38  C38        -0.0056
   1220   C6        6.7100    7.6480  -17.3870 C.ar   38  C38         0.0152
   1221  H5'        4.3930   11.7040  -18.0330 H      38  C38         0.0591
   1222 H5''        6.0260   12.1330  -18.5840 H      38  C38         0.0591
   1223  H4'        5.6220   11.8770  -16.0280 H      38  C38         0.0647
   1224  H3'        7.8810   10.6210  -17.6190 H      38  C38         0.0655
   1225  H2'        8.7280    9.6450  -15.6390 H      38  C38         0.0666
   1226 HO2'        7.1290   11.6090  -14.3410 H      38  C38         0.2101
   1227  H1'        6.2850    9.0350  -14.4510 H      38  C38         0.0867
   1228  H41        8.2630    3.5470  -16.9320 H      38  C38         0.1437
   1229  H42        7.6400    4.0210  -18.4970 H      38  C38         0.1437
   1230   H5        6.7480    6.2140  -18.9550 H      38  C38         0.0666
   1231   H6        6.2720    8.4250  -18.0110 H      38  C38         0.0812
   1232    P.3      9.2930   12.8970  -17.2140 P.3    39  G39         0.2131
   1233  OP1        9.4440   14.3410  -16.9260 O.3    39  G39        -0.4373
   1234  OP2        9.2430   12.4230  -18.6150 O.2    39  G39        -0.5172
   1235  O5'       10.4720   12.1060  -16.4560 O.3    39  G39        -0.3248
   1236  C5'       10.5830   12.1700  -15.0330 C.3    39  G39         0.0837
   1237  C4'       11.2460   10.9190  -14.4630 C.3    39  G39         0.1139
   1238  O4'       10.5460    9.7380  -14.8280 O.3    39  G39        -0.3456
   1239  C3'       12.6480   10.7290  -15.0280 C.3    39  G39         0.1241
   1240  O3'       13.5890   11.2540  -14.0860 O.3    39  G39        -0.3187
   1241  C2'       12.8320    9.2090  -15.0840 C.3    39  G39         0.1292
   1242  O2'       13.8320    8.7740  -14.1560 O.3    39  G39        -0.3846
   1243  C1'       11.4560    8.6490  -14.7170 C.3    39  G39         0.1667
   1244   N9       11.0890    7.5270  -15.6040 N.ar   39  G39        -0.2854
   1245   C8       10.2930    7.5040  -16.7040 C.ar   39  G39         0.1005
   1246   N7       10.1420    6.3720  -17.3080 N.ar   39  G39        -0.2286
   1247   C5       10.9290    5.5220  -16.5270 C.ar   39  G39         0.1721
   1248   C6       11.1820    4.1300  -16.6680 C.ar   39  G39         0.2803
   1249   O6       10.7530    3.3610  -17.5250 O.2    39  G39        -0.2654
   1250   N.1      12.0270    3.6620  -15.6700 N.ar   39  G39        -0.2934
   1251   C.2      12.5670    4.4310  -14.6600 C.ar   39  G39         0.1950
   1252   N.2      13.3580    3.7970  -13.7940 N.pl3  39  G39        -0.3289
   1253   N.3      12.3350    5.7410  -14.5200 N.ar   39  G39        -0.1963
   1254   C4       11.5120    6.2210  -15.4810 C.ar   39  G39         0.1712
   1255  H5'        9.5860   12.2710  -14.6030 H      39  G39         0.0591
   1256 H5''       11.1780   13.0430  -14.7620 H      39  G39         0.0591
   1257  H4'       11.2920   10.9900  -13.3770 H      39  G39         0.0647
   1258  H3'       12.7540   11.1860  -16.0110 H      39  G39         0.0655
   1259  H2'       13.0950    8.9050  -16.1010 H      39  G39         0.0666
   1260 HO2'       13.3820    8.2930  -13.4560 H      39  G39         0.2101
   1261  H1'       11.4750    8.3020  -13.6840 H      39  G39         0.0866
   1262   H8        9.8110    8.4050  -17.0810 H      39  G39         0.1030
   1263   H1       12.2500    2.6770  -15.7060 H      39  G39         0.1716
   1264  H21       13.5310    2.8070  -13.9010 H      39  G39         0.1451
   1265  H22       13.7820    4.3040  -13.0320 H      39  G39         0.1451
   1266    P.3     15.1570   11.3260  -14.4530 P.3    40  G40         0.2131
   1267  OP1       15.7470   12.4770  -13.7350 O.3    40  G40        -0.4373
   1268  OP2       15.2940   11.2230  -15.9230 O.2    40  G40        -0.5172
   1269  O5'       15.7370    9.9740  -13.7970 O.3    40  G40        -0.3248
   1270  C5'       16.1670    9.9560  -12.4320 C.3    40  G40         0.0837
   1271  C4'       16.3980    8.5320  -11.9340 C.3    40  G40         0.1139
   1272  O4'       15.3870    7.6450  -12.4230 O.3    40  G40        -0.3456
   1273  C3'       17.7200    7.9790  -12.4440 C.3    40  G40         0.1241
   1274  O3'       18.7160    8.1940  -11.4380 O.3    40  G40        -0.3187
   1275  C2'       17.4620    6.4850  -12.5430 C.3    40  G40         0.1292
   1276  O2'       17.7520    5.8220  -11.3060 O.3    40  G40        -0.3846
   1277  C1'       15.9750    6.4160  -12.8750 C.3    40  G40         0.1667
   1278   N9       15.7650    6.2320  -14.3210 N.ar   40  G40        -0.2854
   1279   C8       15.2910    7.1040  -15.2440 C.ar   40  G40         0.1005
   1280   N7       15.1620    6.6810  -16.4560 N.ar   40  G40        -0.2286
   1281   C5       15.6070    5.3600  -16.3450 C.ar   40  G40         0.1721
   1282   C6       15.7130    4.3490  -17.3350 C.ar   40  G40         0.2803
   1283   O6       15.4290    4.4210  -18.5290 O.2    40  G40        -0.2654
   1284   N.1      16.2070    3.1640  -16.8030 N.ar   40  G40        -0.2934
   1285   C.2      16.5570    2.9700  -15.4820 C.ar   40  G40         0.1950
   1286   N.2      17.0130    1.7580  -15.1640 N.pl3  40  G40        -0.3289
   1287   N.3      16.4590    3.9160  -14.5440 N.ar   40  G40        -0.1963
   1288   C4       15.9800    5.0790  -15.0390 C.ar   40  G40         0.1712
   1289  H5'       15.4040   10.4290  -11.8130 H      40  G40         0.0591
   1290 H5''       17.0960   10.5190  -12.3430 H      40  G40         0.0591
   1291  H4'       16.3920    8.5200  -10.8460 H      40  G40         0.0647
   1292  H3'       18.0030    8.4100  -13.4040 H      40  G40         0.0655
   1293  H2'       18.0480    6.0570  -13.3600 H      40  G40         0.0666
   1294 HO2'       17.0080    5.9760  -10.7190 H      40  G40         0.2101
   1295  H1'       15.5220    5.5810  -12.3390 H      40  G40         0.0866
   1296   H8       15.0320    8.1250  -14.9710 H      40  G40         0.1030
   1297   H1       16.3100    2.3960  -17.4490 H      40  G40         0.1716
   1298  H21       17.0860    1.0430  -15.8730 H      40  G40         0.1451
   1299  H22       17.2870    1.5570  -14.2120 H      40  G40         0.1451
   1300    P.3     19.9900    9.1380  -11.7260 P.3    41  A41         0.2131
   1301  OP1       20.8210    9.1790  -10.5010 O.3    41  A41        -0.4373
   1302  OP2       19.5060   10.3980  -12.3320 O.2    41  A41        -0.5172
   1303  O5'       20.7960    8.3150  -12.8530 O.3    41  A41        -0.3248
   1304  C5'       22.1210    7.8360  -12.5970 C.3    41  A41         0.0837
   1305  C4'       22.4730    6.6600  -13.5040 C.3    41  A41         0.1139
   1306  O4'       22.8370    5.5070  -12.7380 O.3    41  A41        -0.3456
   1307  C3'       21.2730    6.2750  -14.3620 C.3    41  A41         0.1241
   1308  O3'       21.5650    6.5790  -15.7360 O.3    41  A41        -0.3187
   1309  C2'       21.1630    4.7630  -14.2430 C.3    41  A41         0.1292
   1310  O2'       21.7700    4.1290  -15.3670 O.3    41  A41        -0.3846
   1311  C1'       21.9210    4.4340  -12.9650 C.3    41  A41         0.1667
   1312   N9       21.0060    4.2730  -11.8200 N.ar   41  A41        -0.2855
   1313   C8       20.1260    5.1520  -11.2800 C.ar   41  A41         0.1004
   1314   N7       19.4580    4.7660  -10.2450 N.ar   41  A41        -0.2306
   1315   C5       19.9440    3.4670  -10.0630 C.ar   41  A41         0.1473
   1316   C6       19.6570    2.4680   -9.1260 C.ar   41  A41         0.1472
   1317   N6       18.7680    2.6220   -8.1440 N.pl3  41  A41        -0.3413
   1318   N.1      20.3210    1.3040   -9.2390 N.ar   41  A41        -0.2188
   1319   C.2      21.2140    1.1270  -10.2140 C.ar   41  A41         0.1205
   1320   N.3      21.5620    2.0030  -11.1510 N.ar   41  A41        -0.2159
   1321   C4       20.8850    3.1610  -11.0190 C.ar   41  A41         0.1674
   1322  H5'       22.1890    7.5170  -11.5570 H      41  A41         0.0591
   1323 H5''       22.8320    8.6440  -12.7700 H      41  A41         0.0591
   1324  H4'       23.3050    6.9390  -14.1490 H      41  A41         0.0647
   1325  H3'       20.3690    6.7660  -14.0280 H      41  A41         0.0655
   1326  H2'       20.1160    4.4670  -14.1480 H      41  A41         0.0666
   1327 HO2'       21.1500    4.1870  -16.0970 H      41  A41         0.2101
   1328  H1'       22.4790    3.5050  -13.1130 H      41  A41         0.0866
   1329   H8       19.9890    6.1460  -11.7040 H      41  A41         0.1030
   1330  H61       18.5990    1.8680   -7.4950 H      41  A41         0.1438
   1331  H62       18.2640    3.4920   -8.0510 H      41  A41         0.1438
   1332   H2       21.7140    0.1600  -10.2440 H      41  A41         0.1048
   1333    P.3     22.2560    7.9680  -16.1870 P.3    42  U42         0.2131
   1334  OP1       22.8240    8.6320  -14.9920 O.3    42  U42        -0.4373
   1335  OP2       21.3040    8.6980  -17.0520 O.2    42  U42        -0.5172
   1336  O5'       23.4780    7.4510  -17.1080 O.3    42  U42        -0.3248
   1337  C5'       23.2650    7.1110  -18.4840 C.3    42  U42         0.0837
   1338  C4'       23.1460    5.5970  -18.6880 C.3    42  U42         0.1139
   1339  O4'       24.4340    4.9450  -18.6020 O.3    42  U42        -0.3456
   1340  C3'       22.2810    4.9700  -17.6220 C.3    42  U42         0.1241
   1341  O3'       20.9820    4.7790  -18.1810 O.3    42  U42        -0.3187
   1342  C2'       22.9250    3.6060  -17.4380 C.3    42  U42         0.1293
   1343  O2'       22.4940    2.7080  -18.4630 O.3    42  U42        -0.3846
   1344  C1'       24.3890    3.8950  -17.6190 C.3    42  U42         0.1680
   1345   N.1      25.0840    4.2920  -16.3630 N.ar   42  U42        -0.2715
   1346   C.2      26.4670    4.2180  -16.3850 C.ar   42  U42         0.3314
   1347   O.2      27.0830    3.8640  -17.3870 O.2    42  U42        -0.2464
   1348   N.3      27.1190    4.5630  -15.2160 N.ar   42  U42        -0.2749
   1349   C4       26.5230    4.9710  -14.0380 C.ar   42  U42         0.2539
   1350   O4       27.2060    5.2540  -13.0550 O.2    42  U42        -0.2677
   1351   C5       25.0810    5.0240  -14.0970 C.ar   42  U42         0.0192
   1352   C6       24.4120    4.6910  -15.2300 C.ar   42  U42         0.0171
   1353  H5'       24.1030    7.4830  -19.0750 H      42  U42         0.0591
   1354 H5''       22.3480    7.5870  -18.8290 H      42  U42         0.0591
   1355  H4'       22.6870    5.3880  -19.6540 H      42  U42         0.0647
   1356  H3'       22.2540    5.5560  -16.7140 H      42  U42         0.0655
   1357  H2'       22.7310    3.2030  -16.4460 H      42  U42         0.0666
   1358 HO2'       23.1800    2.6940  -19.1340 H      42  U42         0.2101
   1359  H1'       24.8560    2.9840  -18.0110 H      42  U42         0.0867
   1360   H3       28.1280    4.5110  -15.2230 H      42  U42         0.1734
   1361   H5       24.5230    5.3320  -13.2140 H      42  U42         0.0686
   1362   H6       23.3280    4.7490  -15.2330 H      42  U42         0.0813
   1363    P.3     19.9820    6.0240  -18.3980 P.3    43  A43         0.2131
   1364  OP1       20.7750    7.1890  -18.8480 O.2    43  A43        -0.5172
   1365  OP2       19.1170    6.1380  -17.2040 O.3    43  A43        -0.4373
   1366  O5'       19.0770    5.5290  -19.6340 O.3    43  A43        -0.3248
   1367  C5'       19.6620    5.3220  -20.9220 C.3    43  A43         0.0837
   1368  C4'       19.9870    3.8500  -21.1610 C.3    43  A43         0.1139
   1369  O4'       20.8770    3.3580  -20.1580 O.3    43  A43        -0.3456
   1370  C3'       18.7190    3.0080  -21.1070 C.3    43  A43         0.1241
   1371  O3'       18.4830    2.4900  -22.4190 O.3    43  A43        -0.3187
   1372  C2'       19.0310    1.8340  -20.1850 C.3    43  A43         0.1292
   1373  O2'       19.1290    0.6060  -20.9070 O.3    43  A43        -0.3846
   1374  C1'       20.3560    2.1900  -19.5170 C.3    43  A43         0.1667
   1375   N9       20.1560    2.4290  -18.0750 N.ar   43  A43        -0.2855
   1376   C8       19.2330    3.1880  -17.4570 C.ar   43  A43         0.1004
   1377   N7       19.2270    3.1980  -16.1650 N.ar   43  A43        -0.2306
   1378   C5       20.2900    2.3380  -15.8810 C.ar   43  A43         0.1473
   1379   C6       20.8650    1.8960  -14.6850 C.ar   43  A43         0.1472
   1380   N6       20.4180    2.2590  -13.4840 N.pl3  43  A43        -0.3413
   1381   N.1      21.9180    1.0630  -14.7770 N.ar   43  A43        -0.2188
   1382   C.2      22.3760    0.6880  -15.9730 C.ar   43  A43         0.1205
   1383   N.3      21.9050    1.0390  -17.1560 N.ar   43  A43        -0.2159
   1384   C4       20.8570    1.8700  -17.0400 C.ar   43  A43         0.1674
   1385  H5'       20.5800    5.9060  -20.9950 H      43  A43         0.0591
   1386 H5''       18.9630    5.6600  -21.6870 H      43  A43         0.0591
   1387  H4'       20.4520    3.7380  -22.1400 H      43  A43         0.0647
   1388  H3'       17.8690    3.5850  -20.7470 H      43  A43         0.0655
   1389  H2'       18.2530    1.7570  -19.4300 H      43  A43         0.0666
   1390 HO2'       19.9330    0.1680  -20.6160 H      43  A43         0.2101
   1391  H1'       21.0580    1.3640  -19.6470 H      43  A43         0.0866
   1392   H8       18.5610    3.8020  -18.0320 H      43  A43         0.1030
   1393  H61       20.8650    1.9040  -12.6510 H      43  A43         0.1438
   1394  H62       19.6310    2.8880  -13.4070 H      43  A43         0.1438
   1395   H2       23.2520    0.0510  -15.9830 H      43  A43         0.1048
   1396    P.3     17.0030    2.5050  -23.0520 P.3    44  A44         0.2131
   1397  OP1       17.0220    3.3690  -24.2530 O.2    44  A44        -0.5172
   1398  OP2       16.0360    2.7750  -21.9650 O.3    44  A44        -0.4373
   1399  O5'       16.8110    0.9810  -23.5320 O.3    44  A44        -0.3248
   1400  C5'       17.4100    0.5250  -24.7480 C.3    44  A44         0.0837
   1401  C4'       17.9010   -0.9140  -24.6250 C.3    44  A44         0.1139
   1402  O4'       19.3290   -0.9690  -24.5820 O.3    44  A44        -0.3456
   1403  C3'       17.4170   -1.5450  -23.3290 C.3    44  A44         0.1241
   1404  O3'       17.3320   -2.9590  -23.5200 O.3    44  A44        -0.3187
   1405  C2'       18.5450   -1.2610  -22.3520 C.3    44  A44         0.1292
   1406  O2'       18.6410   -2.2840  -21.3540 O.3    44  A44        -0.3846
   1407  C1'       19.7810   -1.2380  -23.2460 C.3    44  A44         0.1667
   1408   N9       20.7420   -0.2080  -22.8020 N.ar   44  A44        -0.2855
   1409   C8       20.5930    1.1380  -22.7080 C.ar   44  A44         0.1004
   1410   N7       21.6110    1.8260  -22.3110 N.ar   44  A44        -0.2306
   1411   C5       22.5650    0.8240  -22.1100 C.ar   44  A44         0.1473
   1412   C6       23.8970    0.8560  -21.6820 C.ar   44  A44         0.1472
   1413   N6       24.5340    1.9830  -21.3650 N.pl3  44  A44        -0.3413
   1414   N.1      24.5470   -0.3160  -21.5960 N.ar   44  A44        -0.2188
   1415   C.2      23.9280   -1.4550  -21.9110 C.ar   44  A44         0.1205
   1416   N.3      22.6750   -1.6010  -22.3270 N.ar   44  A44        -0.2159
   1417   C4       22.0440   -0.4150  -22.4060 C.ar   44  A44         0.1674
   1418  H5'       18.2540    1.1690  -24.9920 H      44  A44         0.0591
   1419 H5''       16.6740    0.5840  -25.5510 H      44  A44         0.0591
   1420  H4'       17.5420   -1.4960  -25.4740 H      44  A44         0.0647
   1421  H3'       16.4720   -1.1170  -22.9960 H      44  A44         0.0655
   1422  H2'       18.4000   -0.2800  -21.8890 H      44  A44         0.0666
   1423 HO2'       18.4870   -1.8680  -20.5030 H      44  A44         0.2101
   1424  H1'       20.2630   -2.2160  -23.2170 H      44  A44         0.0866
   1425   H8       19.6430    1.6190  -22.9420 H      44  A44         0.1030
   1426  H61       25.4970    1.9500  -21.0630 H      44  A44         0.1438
   1427  H62       24.0540    2.8700  -21.4260 H      44  A44         0.1438
   1428   H2       24.5150   -2.3650  -21.8160 H      44  A44         0.1048
   1429    P.3     16.0060   -3.7630  -23.0860 P.3    45  C45         0.2131
   1430  OP1       16.0430   -5.1000  -23.7200 O.2    45  C45        -0.5172
   1431  OP2       14.8390   -2.8790  -23.2980 O.3    45  C45        -0.4373
   1432  O5'       16.2140   -3.9510  -21.5020 O.3    45  C45        -0.3248
   1433  C5'       16.9790   -5.0480  -20.9980 C.3    45  C45         0.0837
   1434  C4'       17.4920   -4.7750  -19.5880 C.3    45  C45         0.1139
   1435  O4'       18.2540   -3.5630  -19.5330 O.3    45  C45        -0.3456
   1436  C3'       16.3420   -4.5740  -18.6180 C.3    45  C45         0.1241
   1437  O3'       16.0140   -5.8340  -18.0270 O.3    45  C45        -0.3187
   1438  C2'       16.9550   -3.6890  -17.5510 C.3    45  C45         0.1293
   1439  O2'       17.6780   -4.4550  -16.5820 O.3    45  C45        -0.3846
   1440  C1'       17.8850   -2.8030  -18.3690 C.3    45  C45         0.1680
   1441   N.1      17.2050   -1.5510  -18.7400 N.ar   45  C45        -0.2700
   1442   C.2      17.2320   -0.5200  -17.8160 C.ar   45  C45         0.3522
   1443   O.2      17.8210   -0.6660  -16.7480 O.2    45  C45        -0.2444
   1444   N.3      16.5940    0.6390  -18.1270 N.ar   45  C45        -0.1783
   1445   C4       15.9570    0.7800  -19.2940 C.ar   45  C45         0.1230
   1446   N.4      15.3390    1.9270  -19.5670 N.pl3  45  C45        -0.3430
   1447   C5       15.9270   -0.2800  -20.2510 C.ar   45  C45        -0.0056
   1448   C6       16.5620   -1.4250  -19.9370 C.ar   45  C45         0.0152
   1449  H5'       17.8280   -5.2230  -21.6590 H      45  C45         0.0591
   1450 H5''       16.3530   -5.9400  -20.9810 H      45  C45         0.0591
   1451  H4'       18.1120   -5.6070  -19.2550 H      45  C45         0.0647
   1452  H3'       15.4820   -4.1040  -19.0950 H      45  C45         0.0655
   1453  H2'       16.1810   -3.0820  -17.0750 H      45  C45         0.0666
   1454 HO2'       17.9310   -5.2790  -17.0010 H      45  C45         0.2101
   1455  H1'       18.7770   -2.5740  -17.7850 H      45  C45         0.0867
   1456  H41       15.3530    2.6800  -18.8960 H      45  C45         0.1437
   1457  H42       14.8560    2.0440  -20.4460 H      45  C45         0.1437
   1458   H5       15.3980   -0.1610  -21.1930 H      45  C45         0.0666
   1459   H6       16.5620   -2.2550  -20.6430 H      45  C45         0.0812
   1460    P.3     14.6500   -6.0030  -17.1910 P.3    46  C46         0.2131
   1461  OP1       14.7290   -7.2680  -16.4260 O.3    46  C46        -0.4373
   1462  OP2       13.5130   -5.7640  -18.1070 O.2    46  C46        -0.5172
   1463  O5'       14.7240   -4.7750  -16.1510 O.3    46  C46        -0.3248
   1464  C5'       15.6510   -4.8020  -15.0630 C.3    46  C46         0.0837
   1465  C4'       15.6250   -3.5010  -14.2660 C.3    46  C46         0.1139
   1466  O4'       15.6260   -2.3530  -15.1190 O.3    46  C46        -0.3456
   1467  C3'       14.3530   -3.3910  -13.4500 C.3    46  C46         0.1241
   1468  O3'       14.5990   -3.9650  -12.1640 O.3    46  C46        -0.3187
   1469  C2'       14.1830   -1.8910  -13.2810 C.3    46  C46         0.1293
   1470  O2'       14.8780   -1.4190  -12.1210 O.3    46  C46        -0.3846
   1471  C1'       14.7900   -1.3260  -14.5570 C.3    46  C46         0.1680
   1472   N.1      13.7490   -0.9050  -15.5140 N.ar   46  C46        -0.2700
   1473   C.2      13.2540    0.3830  -15.3790 C.ar   46  C46         0.3522
   1474   O.2      13.6620    1.1070  -14.4740 O.2    46  C46        -0.2444
   1475   N.3      12.3170    0.8120  -16.2680 N.ar   46  C46        -0.1783
   1476   C4       11.8850    0.0110  -17.2490 C.ar   46  C46         0.1230
   1477   N.4      10.9690    0.4660  -18.1040 N.pl3  46  C46        -0.3430
   1478   C5       12.3910   -1.3190  -17.3920 C.ar   46  C46        -0.0056
   1479   C6       13.3170   -1.7360  -16.5080 C.ar   46  C46         0.0152
   1480  H5'       16.6560   -4.9610  -15.4520 H      46  C46         0.0591
   1481 H5''       15.3930   -5.6290  -14.3990 H      46  C46         0.0591
   1482  H4'       16.4890   -3.4590  -13.6040 H      46  C46         0.0647
   1483  H3'       13.5010   -3.8480  -13.9540 H      46  C46         0.0655
   1484  H2'       13.1300   -1.6330  -13.2280 H      46  C46         0.0666
   1485 HO2'       15.7000   -1.9130  -12.0600 H      46  C46         0.2101
   1486  H1'       15.3920   -0.4620  -14.3000 H      46  C46         0.0867
   1487  H41       10.6090    1.4050  -18.0080 H      46  C46         0.1437
   1488  H42       10.6350   -0.1300  -18.8480 H      46  C46         0.1437
   1489   H5       12.0390   -1.9720  -18.1910 H      46  C46         0.0666
   1490   H6       13.7300   -2.7400  -16.5900 H      46  C46         0.0812
   1491    P.3     13.3930   -4.5890  -11.3030 P.3    47  G47         0.2131
   1492  OP1       13.9670   -5.5230  -10.3080 O.3    47  G47        -0.4373
   1493  OP2       12.3480   -5.0590  -12.2390 O.2    47  G47        -0.5172
   1494  O5'       12.8260   -3.3030  -10.5170 O.3    47  G47        -0.3248
   1495  C5'       13.7160   -2.2800  -10.0580 C.3    47  G47         0.0837
   1496  C4'       12.9550   -1.0220   -9.6580 C.3    47  G47         0.1139
   1497  O4'       12.9600   -0.0440  -10.7000 O.3    47  G47        -0.3456
   1498  C3'       11.4950   -1.3310   -9.4290 C.3    47  G47         0.1241
   1499  O3'       11.3070   -1.7160   -8.0680 O.3    47  G47        -0.3187
   1500  C2'       10.8330    0.0140   -9.6380 C.3    47  G47         0.1292
   1501  O2'       10.7850    0.7730   -8.4260 O.3    47  G47        -0.3846
   1502  C1'       11.7190    0.6840  -10.6770 C.3    47  G47         0.1667
   1503   N9       11.0590    0.6760  -11.9910 N.ar   47  G47        -0.2854
   1504   C8       10.8650   -0.3460  -12.8480 C.ar   47  G47         0.1005
   1505   N7       10.2500   -0.0930  -13.9540 N.ar   47  G47        -0.2286
   1506   C5        9.9910    1.2760  -13.8270 C.ar   47  G47         0.1721
   1507   C6        9.3330    2.1670  -14.7170 C.ar   47  G47         0.2803
   1508   O6        8.8400    1.9210  -15.8150 O.2    47  G47        -0.2654
   1509   N.1       9.2890    3.4580  -14.2030 N.ar   47  G47        -0.2934
   1510   C.2       9.8090    3.8490  -12.9870 C.ar   47  G47         0.1950
   1511   N.2       9.6660    5.1350  -12.6710 N.pl3  47  G47        -0.3289
   1512   N.3      10.4290    3.0170  -12.1450 N.ar   47  G47        -0.1963
   1513   C4       10.4850    1.7530  -12.6250 C.ar   47  G47         0.1712
   1514  H5'       14.4160   -2.0340  -10.8500 H      47  G47         0.0591
   1515 H5''       14.2690   -2.6510   -9.1950 H      47  G47         0.0591
   1516  H4'       13.3910   -0.5970   -8.7560 H      47  G47         0.0647
   1517  H3'       11.1220   -2.0810  -10.1260 H      47  G47         0.0655
   1518  H2'        9.8420   -0.1290  -10.0470 H      47  G47         0.0666
   1519 HO2'       11.6450    0.6940   -8.0060 H      47  G47         0.2101
   1520  H1'       11.9020    1.7070  -10.3830 H      47  G47         0.0866
   1521   H8       11.1960   -1.3470  -12.5960 H      47  G47         0.1030
   1522   H1        8.8350    4.1490  -14.7800 H      47  G47         0.1716
   1523  H21        9.1990    5.7630  -13.3090 H      47  G47         0.1451
   1524  H22       10.0250    5.4830  -11.7920 H      47  G47         0.1451
   1525    P.3      9.8310   -2.0660   -7.5300 P.3    48  C48         0.2131
   1526  OP1        9.9200   -2.3370   -6.0780 O.3    48  C48        -0.4373
   1527  OP2        9.2360   -3.0760   -8.4350 O.2    48  C48        -0.5172
   1528  O5'        9.0430   -0.6780   -7.7380 O.3    48  C48        -0.3248
   1529  C5'        9.0910    0.3340   -6.7310 C.3    48  C48         0.0837
   1530  C4'        8.4340    1.6360   -7.1920 C.3    48  C48         0.1139
   1531  O4'        8.8050    1.9900   -8.5250 O.3    48  C48        -0.3456
   1532  C3'        6.9280    1.5080   -7.2450 C.3    48  C48         0.1241
   1533  O3'        6.4050    1.7680   -5.9390 O.3    48  C48        -0.3187
   1534  C2'        6.5450    2.6570   -8.1580 C.3    48  C48         0.1293
   1535  O2'        6.4320    3.8870   -7.4340 O.3    48  C48        -0.3846
   1536  C1'        7.7100    2.6920   -9.1490 C.3    48  C48         0.1680
   1537   N.1       7.3250    2.0590  -10.4190 N.ar   48  C48        -0.2700
   1538   C.2       6.8100    2.8770  -11.4100 C.ar   48  C48         0.3522
   1539   O.2       6.6910    4.0840  -11.2110 O.2    48  C48        -0.2444
   1540   N.3       6.4470    2.3090  -12.5920 N.ar   48  C48        -0.1783
   1541   C4        6.5850    0.9910  -12.7880 C.ar   48  C48         0.1230
   1542   N.4       6.2210    0.4620  -13.9560 N.pl3  48  C48        -0.3430
   1543   C5        7.1170    0.1480  -11.7620 C.ar   48  C48        -0.0056
   1544   C6        7.4690    0.7190  -10.6040 C.ar   48  C48         0.0152
   1545  H5'       10.1320    0.5340   -6.4780 H      48  C48         0.0591
   1546 H5''        8.5740   -0.0260   -5.8420 H      48  C48         0.0591
   1547  H4'        8.7110    2.4430   -6.5170 H      48  C48         0.0647
   1548  H3'        6.6110    0.5420   -7.6440 H      48  C48         0.0655
   1549  H2'        5.6160    2.4240   -8.6810 H      48  C48         0.0666
   1550 HO2'        6.5520    4.6020   -8.0630 H      48  C48         0.2101
   1551  H1'        7.9970    3.7240   -9.3370 H      48  C48         0.0867
   1552  H41        5.8450    1.0550  -14.6830 H      48  C48         0.1437
   1553  H42        6.3200   -0.5310  -14.1150 H      48  C48         0.1437
   1554   H5        7.2330   -0.9210  -11.9110 H      48  C48         0.0666
   1555   H6        7.8680    0.1040   -9.8040 H      48  C48         0.0812
   1556    P.3      5.6440    0.6130   -5.1150 P.3    49  C49         0.2131
   1557  OP1        5.1800    1.1890   -3.8340 O.3    49  C49        -0.4373
   1558  OP2        6.4980   -0.5960   -5.1160 O.2    49  C49        -0.5172
   1559  O5'        4.3550    0.3210   -6.0330 O.3    49  C49        -0.3248
   1560  C5'        3.2320    1.2050   -6.0090 C.3    49  C49         0.0837
   1561  C4'        3.6120    2.6100   -6.4670 C.3    49  C49         0.1139
   1562  O4'        4.0060    2.6010   -7.8370 O.3    49  C49        -0.3456
   1563  C3'        2.4140    3.5520   -6.3610 C.3    49  C49         0.1241
   1564  O3'        2.7020    4.5440   -5.3730 O.3    49  C49        -0.3187
   1565  C2'        2.3220    4.2600   -7.7140 C.3    49  C49         0.1293
   1566  O2'        2.3280    5.6830   -7.5530 O.3    49  C49        -0.3846
   1567  C1'        3.5540    3.7890   -8.4790 C.3    49  C49         0.1680
   1568   N.1       3.2120    3.5290   -9.8900 N.ar   49  C49        -0.2700
   1569   C.2       2.5350    4.5320  -10.5710 C.ar   49  C49         0.3522
   1570   O.2       2.2930    5.5990  -10.0110 O.2    49  C49        -0.2444
   1571   N.3       2.1550    4.2990  -11.8560 N.ar   49  C49        -0.1783
   1572   C4        2.4320    3.1250  -12.4490 C.ar   49  C49         0.1230
   1573   N.4       2.0430    2.9010  -13.7100 N.pl3  49  C49        -0.3430
   1574   C5        3.1310    2.0940  -11.7550 C.ar   49  C49        -0.0056
   1575   C6        3.5050    2.3320  -10.4830 C.ar   49  C49         0.0152
   1576  H5'        2.8420    1.2550   -4.9920 H      49  C49         0.0591
   1577 H5''        2.4580    0.8130   -6.6670 H      49  C49         0.0591
   1578  H4'        4.4300    2.9870   -5.8550 H      49  C49         0.0647
   1579  H3'        1.4990    3.0090   -6.1280 H      49  C49         0.0655
   1580  H2'        1.4190    3.9400   -8.2380 H      49  C49         0.0666
   1581 HO2'        2.8630    5.8790   -6.7810 H      49  C49         0.2101
   1582  H1'        4.3310    4.5520   -8.4280 H      49  C49         0.0867
   1583  H41        1.5330    3.6070  -14.2220 H      49  C49         0.1437
   1584  H42        2.2530    2.0170  -14.1500 H      49  C49         0.1437
   1585   H5        3.3280    1.1480  -12.2610 H      49  C49         0.0666
   1586   H6        4.0460    1.5690   -9.9240 H      49  C49         0.0812
   1587    P.3      1.5210    5.1470   -4.4550 P.3    50  A50         0.2131
   1588  OP1        1.8120    6.5770   -4.2050 O.2    50  A50        -0.5172
   1589  OP2        1.3090    4.2280   -3.3130 O.3    50  A50        -0.4373
   1590  O5'        0.2290    5.0570   -5.4180 O.3    50  A50        -0.3248
   1591  C5'       -0.0820    6.1260   -6.3190 C.3    50  A50         0.0837
   1592  C4'       -1.5890    6.2920   -6.5200 C.3    50  A50         0.1139
   1593  O4'       -2.0070    5.6950   -7.7530 O.3    50  A50        -0.3456
   1594  C3'       -2.3770    5.6180   -5.4050 C.3    50  A50         0.1241
   1595  O3'       -3.5390    6.4040   -5.1200 O.3    50  A50        -0.3187
   1596  C2'       -2.8200    4.3070   -6.0150 C.3    50  A50         0.1292
   1597  O2'       -4.0810    3.8750   -5.4940 O.3    50  A50        -0.3846
   1598  C1'       -2.8890    4.5970   -7.5090 C.3    50  A50         0.1667
   1599   N9       -2.4740    3.4100   -8.2680 N.ar   50  A50        -0.2855
   1600   C8       -1.3830    2.6420   -8.1030 C.ar   50  A50         0.1004
   1601   N7       -1.2420    1.6190   -8.8780 N.ar   50  A50        -0.2306
   1602   C5       -2.3890    1.7100   -9.6680 C.ar   50  A50         0.1473
   1603   C6       -2.8840    0.9270  -10.7170 C.ar   50  A50         0.1472
   1604   N6       -2.2580   -0.1570  -11.1770 N.pl3  50  A50        -0.3413
   1605   N.1      -4.0460    1.3040  -11.2740 N.ar   50  A50        -0.2188
   1606   C.2      -4.6890    2.3850  -10.8290 C.ar   50  A50         0.1205
   1607   N.3      -4.3120    3.1970   -9.8490 N.ar   50  A50        -0.2159
   1608   C4       -3.1470    2.8010   -9.3050 C.ar   50  A50         0.1674
   1609  H5'        0.3840    5.9230   -7.2840 H      50  A50         0.0591
   1610 H5''        0.3250    7.0540   -5.9200 H      50  A50         0.0591
   1611  H4'       -1.8360    7.3420   -6.5360 H      50  A50         0.0647
   1612  H3'       -1.7640    5.4620   -4.5170 H      50  A50         0.0655
   1613  H2'       -2.0610    3.5650   -5.8360 H      50  A50         0.0666
   1614 HO2'       -3.9730    3.7520   -4.5490 H      50  A50         0.2101
   1615  H1'       -3.8990    4.8710   -7.7970 H      50  A50         0.0866
   1616   H8       -0.6470    2.8810   -7.3460 H      50  A50         0.1030
   1617  H61       -2.6590   -0.6860  -11.9380 H      50  A50         0.1438
   1618  H62       -1.3830   -0.4480  -10.7650 H      50  A50         0.1438
   1619   H2       -5.6260    2.6250  -11.3280 H      50  A50         0.1048
   1620    P.3     -3.4020    7.9630   -4.7360 P.3    51  A51         0.2131
   1621  OP1       -2.0710    8.1770   -4.1250 O.2    51  A51        -0.5172
   1622  OP2       -4.6250    8.3730   -4.0120 O.3    51  A51        -0.4373
   1623  O5'       -3.4130    8.6610   -6.1850 O.3    51  A51        -0.3248
   1624  C5'       -4.4120    8.2880   -7.1360 C.3    51  A51         0.0837
   1625  C4'       -3.8060    7.7630   -8.4390 C.3    51  A51         0.1139
   1626  O4'       -4.1950    6.3980   -8.6680 O.3    51  A51        -0.3456
   1627  C3'       -4.3000    8.5400   -9.6560 C.3    51  A51         0.1241
   1628  O3'       -3.3250    9.5280   -9.9980 O.3    51  A51        -0.3187
   1629  C2'       -4.2890    7.4710  -10.7370 C.3    51  A51         0.1292
   1630  O2'       -2.9680    7.2500  -11.2450 O.3    51  A51        -0.3846
   1631  C1'       -4.7930    6.2800   -9.9640 C.3    51  A51         0.1667
   1632   N9       -6.2620    6.3030   -9.8820 N.ar   51  A51        -0.2855
   1633   C8       -7.0660    6.8730   -8.9530 C.ar   51  A51         0.1004
   1634   N7       -8.3360    6.7860   -9.1290 N.ar   51  A51        -0.2306
   1635   C5       -8.4090    6.0690  -10.3240 C.ar   51  A51         0.1473
   1636   C6       -9.4860    5.6240  -11.0920 C.ar   51  A51         0.1472
   1637   N6      -10.7570    5.8520  -10.7530 N.pl3  51  A51        -0.3413
   1638   N.1      -9.2040    4.9440  -12.2180 N.ar   51  A51        -0.2188
   1639   C.2      -7.9350    4.7140  -12.5670 C.ar   51  A51         0.1205
   1640   N.3      -6.8400    5.0890  -11.9120 N.ar   51  A51        -0.2159
   1641   C4       -7.1500    5.7690  -10.7900 C.ar   51  A51         0.1674
   1642  H5'       -5.0340    9.1500   -7.3500 H      51  A51         0.0591
   1643 H5''       -5.0300    7.5070   -6.6950 H      51  A51         0.0591
   1644  H4'       -2.7220    7.8230   -8.3940 H      51  A51         0.0647
   1645  H3'       -5.2940    8.9680   -9.4950 H      51  A51         0.0655
   1646  H2'       -4.9830    7.7100  -11.5390 H      51  A51         0.0666
   1647 HO2'       -2.9080    6.3250  -11.4910 H      51  A51         0.2101
   1648  H1'       -4.4640    5.3670  -10.4470 H      51  A51         0.0866
   1649   H8       -6.6540    7.3840   -8.0880 H      51  A51         0.1030
   1650  H61      -11.5060    5.5130  -11.3330 H      51  A51         0.1438
   1651  H62      -10.9660    6.3640   -9.9150 H      51  A51         0.1438
   1652   H2       -7.7800    4.1560  -13.4900 H      51  A51         0.1048
   1653    P.3     -3.4580   10.3620  -11.3690 P.3    52  A52         0.2131
   1654  OP1       -2.2420   11.1920  -11.5260 O.2    52  A52        -0.5172
   1655  OP2       -4.7930   10.9990  -11.3960 O.3    52  A52        -0.4373
   1656  O5'       -3.4290    9.2080  -12.4950 O.3    52  A52        -0.3248
   1657  C5'       -2.5870    9.3400  -13.6440 C.3    52  A52         0.0837
   1658  C4'       -3.1010    8.5210  -14.8260 C.3    52  A52         0.1139
   1659  O4'       -4.0180    7.5030  -14.4050 O.3    52  A52        -0.3456
   1660  C3'       -3.8750    9.3940  -15.8020 C.3    52  A52         0.1241
   1661  O3'       -2.9770    9.8420  -16.8200 O.3    52  A52        -0.3187
   1662  C2'       -4.8580    8.4200  -16.4230 C.3    52  A52         0.1292
   1663  O2'       -4.2650    7.6950  -17.5060 O.3    52  A52        -0.3846
   1664  C1'       -5.1800    7.5040  -15.2520 C.3    52  A52         0.1667
   1665   N9       -6.3670    7.9710  -14.5130 N.ar   52  A52        -0.2855
   1666   C8       -6.4400    8.7080  -13.3810 C.ar   52  A52         0.1004
   1667   N7       -7.6140    8.9450  -12.8970 N.ar   52  A52        -0.2306
   1668   C5       -8.4330    8.2900  -13.8190 C.ar   52  A52         0.1473
   1669   C6       -9.8200    8.1380  -13.9120 C.ar   52  A52         0.1472
   1670   N6      -10.6700    8.6550  -13.0240 N.pl3  52  A52        -0.3413
   1671   N.1     -10.2970    7.4310  -14.9510 N.ar   52  A52        -0.2188
   1672   C.2      -9.4640    6.9020  -15.8490 C.ar   52  A52         0.1205
   1673   N.3      -8.1370    6.9830  -15.8590 N.ar   52  A52        -0.2159
   1674   C4       -7.6830    7.6970  -14.8080 C.ar   52  A52         0.1674
   1675  H5'       -1.5820    9.0010  -13.3890 H      52  A52         0.0591
   1676 H5''       -2.5440   10.3900  -13.9340 H      52  A52         0.0591
   1677  H4'       -2.2610    8.0560  -15.3410 H      52  A52         0.0647
   1678  H3'       -4.3800   10.2190  -15.3000 H      52  A52         0.0655
   1679  H2'       -5.7570    8.9450  -16.7490 H      52  A52         0.0666
   1680 HO2'       -3.8140    6.9350  -17.1280 H      52  A52         0.2101
   1681  H1'       -5.3610    6.4970  -15.6220 H      52  A52         0.0866
   1682   H8       -5.5430    9.0900  -12.8990 H      52  A52         0.1030
   1683  H61      -11.6640    8.5150  -13.1350 H      52  A52         0.1438
   1684  H62      -10.3180    9.1850  -12.2390 H      52  A52         0.1438
   1685   H2       -9.9230    6.3410  -16.6650 H      52  A52         0.1048
   1686    P.3     -3.2270   11.2490  -17.5590 P.3    53  G53         0.2131
   1687  OP1       -3.5950   10.9740  -18.9650 O.2    53  G53        -0.5172
   1688  OP2       -2.0860   12.1420  -17.2550 O.3    53  G53        -0.4373
   1689  O5'       -4.5270   11.8150  -16.7970 O.3    53  G53        -0.3248
   1690  C5'       -5.5350   12.5330  -17.5120 C.3    53  G53         0.0837
   1691  C4'       -6.1340   11.6920  -18.6340 C.3    53  G53         0.1139
   1692  O4'       -6.5100   10.3900  -18.1640 O.3    53  G53        -0.3456
   1693  C3'       -7.4040   12.3390  -19.1750 C.3    53  G53         0.1241
   1694  O3'       -7.0870   12.9800  -20.4130 O.3    53  G53        -0.3187
   1695  C2'       -8.3140   11.1600  -19.4670 C.3    53  G53         0.1292
   1696  O2'       -8.0970   10.6410  -20.7840 O.3    53  G53        -0.3846
   1697  C1'       -7.9030   10.1610  -18.4010 C.3    53  G53         0.1667
   1698   N9       -8.6860   10.3320  -17.1600 N.ar   53  G53        -0.2854
   1699   C8       -8.2550   10.5540  -15.8920 C.ar   53  G53         0.1005
   1700   N7       -9.1460   10.6410  -14.9630 N.ar   53  G53        -0.2286
   1701   C5      -10.3290   10.4560  -15.6840 C.ar   53  G53         0.1721
   1702   C6      -11.6760   10.4420  -15.2300 C.ar   53  G53         0.2803
   1703   O6      -12.0950   10.5910  -14.0860 O.2    53  G53        -0.2654
   1704   N.1     -12.5640   10.2270  -16.2770 N.ar   53  G53        -0.2934
   1705   C.2     -12.2070   10.0460  -17.5980 C.ar   53  G53         0.1950
   1706   N.2     -13.2080    9.8520  -18.4560 N.pl3  53  G53        -0.3289
   1707   N.3     -10.9410   10.0570  -18.0340 N.ar   53  G53        -0.1963
   1708   C4      -10.0570   10.2670  -17.0310 C.ar   53  G53         0.1712
   1709  H5'       -5.0950   13.4340  -17.9390 H      53  G53         0.0591
   1710 H5''       -6.3280   12.8180  -16.8200 H      53  G53         0.0591
   1711  H4'       -5.4070   11.5880  -19.4390 H      53  G53         0.0647
   1712  H3'       -7.8470   13.0290  -18.4560 H      53  G53         0.0655
   1713  H2'       -9.3560   11.4450  -19.3280 H      53  G53         0.0666
   1714 HO2'       -7.2990   11.0520  -21.1250 H      53  G53         0.2101
   1715  H1'       -8.0510    9.1550  -18.7820 H      53  G53         0.0866
   1716   H8       -7.1930   10.6480  -15.6670 H      53  G53         0.1030
   1717   H1      -13.5460   10.2050  -16.0300 H      53  G53         0.1716
   1718  H21      -14.1630    9.8440  -18.1250 H      53  G53         0.1451
   1719  H22      -13.0130    9.7130  -19.4380 H      53  G53         0.1451
   1720    P.3     -7.0990   14.5860  -20.5260 P.3    54  G54         0.2131
   1721  OP1       -5.8660   15.0120  -21.2270 O.2    54  G54        -0.5172
   1722  OP2       -7.4200   15.1430  -19.1930 O.3    54  G54        -0.4373
   1723  O5'       -8.3520   14.8560  -21.5000 O.3    54  G54        -0.3248
   1724  C5'       -9.6890   14.6780  -21.0270 C.3    54  G54         0.0837
   1725  C4'      -10.4630   13.6870  -21.8930 C.3    54  G54         0.1139
   1726  O4'      -10.6680   12.4450  -21.2030 O.3    54  G54        -0.3456
   1727  C3'      -11.8540   14.2170  -22.2420 C.3    54  G54         0.1241
   1728  O3'      -11.8160   14.7220  -23.5810 O.3    54  G54        -0.3187
   1729  C2'      -12.7170   12.9700  -22.2290 C.3    54  G54         0.1292
   1730  O2'      -12.6680   12.2870  -23.4880 O.3    54  G54        -0.3846
   1731  C1'      -12.0680   12.1540  -21.1290 C.3    54  G54         0.1667
   1732   N9      -12.6080   12.4990  -19.8010 N.ar   54  G54        -0.2854
   1733   C8      -11.9510   12.7620  -18.6440 C.ar   54  G54         0.1005
   1734   N7      -12.6600   13.0080  -17.5950 N.ar   54  G54        -0.2286
   1735   C5      -13.9590   12.8970  -18.1000 C.ar   54  G54         0.1721
   1736   C6      -15.2040   13.0550  -17.4410 C.ar   54  G54         0.2803
   1737   O6      -15.4090   13.3270  -16.2620 O.2    54  G54        -0.2654
   1738   N.1     -16.2700   12.8610  -18.3120 N.ar   54  G54        -0.2934
   1739   C.2     -16.1570   12.5530  -19.6500 C.ar   54  G54         0.1950
   1740   N.2     -17.3010   12.4040  -20.3160 N.pl3  54  G54        -0.3289
   1741   N.3     -14.9880   12.4020  -20.2800 N.ar   54  G54        -0.1963
   1742   C4      -13.9350   12.5870  -19.4510 C.ar   54  G54         0.1712
   1743  H5'      -10.2000   15.6410  -21.0390 H      54  G54         0.0591
   1744 H5''       -9.6580   14.3060  -20.0030 H      54  G54         0.0591
   1745  H4'       -9.9070   13.4980  -22.8100 H      54  G54         0.0647
   1746  H3'      -12.2030   14.9630  -21.5270 H      54  G54         0.0655
   1747  H2'      -13.7440   13.2150  -21.9590 H      54  G54         0.0666
   1748 HO2'      -12.8290   11.3570  -23.3150 H      54  G54         0.2101
   1749  H1'      -12.2370   11.1010  -21.3200 H      54  G54         0.0866
   1750   H8      -10.8620   12.7480  -18.6000 H      54  G54         0.1030
   1751   H1      -17.1930   12.9580  -17.9150 H      54  G54         0.1716
   1752  H21      -18.1820   12.5210  -19.8380 H      54  G54         0.1451
   1753  H22      -17.2860   12.1760  -21.3000 H      54  G54         0.1451
   1754    P.3    -12.4060   16.1800  -23.9220 P.3    55  A55         0.2131
   1755  OP1      -12.2920   16.3940  -25.3830 O.2    55  A55        -0.5172
   1756  OP2      -11.8060   17.1560  -22.9850 O.3    55  A55        -0.4373
   1757  O5'      -13.9660   16.0220  -23.5560 O.3    55  A55        -0.3248
   1758  C5'      -14.9760   16.4070  -24.4930 C.3    55  A55         0.0837
   1759  C4'      -16.2860   15.6660  -24.2390 C.3    55  A55         0.1139
   1760  O4'      -16.0990   14.5950  -23.3110 O.3    55  A55        -0.3456
   1761  C3'      -17.3260   16.5860  -23.6160 C.3    55  A55         0.1241
   1762  O3'      -18.1610   17.0860  -24.6620 O.3    55  A55        -0.3187
   1763  C2'      -18.1500   15.6530  -22.7450 C.3    55  A55         0.1292
   1764  O2'      -19.2010   15.0280  -23.4920 O.3    55  A55        -0.3846
   1765  C1'      -17.1080   14.6310  -22.2910 C.3    55  A55         0.1667
   1766   N9      -16.5220   15.0010  -20.9880 N.ar   55  A55        -0.2855
   1767   C8      -15.2240   15.2240  -20.6550 C.ar   55  A55         0.1004
   1768   N7      -14.9700   15.5380  -19.4310 N.ar   55  A55        -0.2306
   1769   C5      -16.2480   15.5250  -18.8650 C.ar   55  A55         0.1473
   1770   C6      -16.7080   15.7740  -17.5710 C.ar   55  A55         0.1472
   1771   N6      -15.8940   16.1020  -16.5650 N.pl3  55  A55        -0.3413
   1772   N.1     -18.0340   15.6740  -17.3530 N.ar   55  A55        -0.2188
   1773   C.2     -18.8610   15.3480  -18.3530 C.ar   55  A55         0.1205
   1774   N.3     -18.5290   15.0920  -19.6150 N.ar   55  A55        -0.2159
   1775   C4      -17.1980   15.1990  -19.8050 C.ar   55  A55         0.1674
   1776  H5'      -14.6300   16.1810  -25.5020 H      55  A55         0.0591
   1777 H5''      -15.1500   17.4790  -24.4090 H      55  A55         0.0591
   1778  H4'      -16.6670   15.2670  -25.1770 H      55  A55         0.0647
   1779  H3'      -16.8660   17.3860  -23.0370 H      55  A55         0.0655
   1780  H2'      -18.5530   16.2000  -21.8820 H      55  A55         0.0666
   1781 HO2'      -19.8650   14.7350  -22.8630 H      55  A55         0.2101
   1782  H1'      -17.5630   13.6450  -22.2090 H      55  A55         0.0866
   1783   H8      -14.4260   15.1340  -21.3910 H      55  A55         0.1030
   1784  H61      -16.2710   16.2750  -15.6460 H      55  A55         0.1438
   1785  H62      -14.9010   16.1780  -16.7250 H      55  A55         0.1438
   1786   H2      -19.9260   15.2970  -18.1100 H      55  A55         0.1048
   1787    P.3    -18.4480   18.6640  -24.7920 P.3    56  G56         0.2131
   1788  OP1      -18.7770   18.9620  -26.2030 O.2    56  G56        -0.5172
   1789  OP2      -17.3490   19.3940  -24.1210 O.3    56  G56        -0.4373
   1790  O5'      -19.7830   18.8430  -23.9140 O.3    56  G56        -0.3248
   1791  C5'      -20.7690   17.8080  -23.8890 C.3    56  G56         0.0837
   1792  C4'      -21.2450   17.5150  -22.4710 C.3    56  G56         0.1139
   1793  O4'      -20.1580   17.2490  -21.5960 O.3    56  G56        -0.3456
   1794  C3'      -21.9550   18.7210  -21.8730 C.3    56  G56         0.1241
   1795  O3'      -23.3630   18.4830  -21.9410 O.3    56  G56        -0.3187
   1796  C2'      -21.5380   18.7340  -20.3980 C.3    56  G56         0.1292
   1797  O2'      -22.6680   18.5810  -19.5330 O.3    56  G56        -0.3846
   1798  C1'      -20.5730   17.5580  -20.2670 C.3    56  G56         0.1667
   1799   N9      -19.4160   17.9120  -19.4190 N.ar   56  G56        -0.2854
   1800   C8      -18.1090   18.0510  -19.7520 C.ar   56  G56         0.1005
   1801   N7      -17.2810   18.3580  -18.8110 N.ar   56  G56        -0.2286
   1802   C5      -18.1260   18.4410  -17.7020 C.ar   56  G56         0.1721
   1803   C6      -17.8230   18.7470  -16.3490 C.ar   56  G56         0.2803
   1804   O6      -16.7300   19.0100  -15.8510 O.2    56  G56        -0.2654
   1805   N.1     -18.9610   18.7250  -15.5540 N.ar   56  G56        -0.2934
   1806   C.2     -20.2360   18.4430  -16.0000 C.ar   56  G56         0.1950
   1807   N.2     -21.2010   18.4710  -15.0830 N.pl3  56  G56        -0.3289
   1808   N.3     -20.5310   18.1530  -17.2730 N.ar   56  G56        -0.1963
   1809   C4      -19.4370   18.1700  -18.0660 C.ar   56  G56         0.1712
   1810  H5'      -20.3430   16.9010  -24.3170 H      56  G56         0.0591
   1811 H5''      -21.6220   18.1190  -24.4930 H      56  G56         0.0591
   1812  H4'      -21.9190   16.6600  -22.4810 H      56  G56         0.0647
   1813  H3'      -21.6770   19.6450  -22.3790 H      56  G56         0.0655
   1814  H2'      -21.0050   19.6590  -20.1770 H      56  G56         0.0666
   1815 HO2'      -22.5090   17.8050  -18.9910 H      56  G56         0.2101
   1816  H1'      -21.0870   16.6930  -19.8420 H      56  G56         0.0866
   1817   H8      -17.7700   17.9090  -20.7760 H      56  G56         0.1030
   1818   H1      -18.8260   18.9320  -14.5750 H      56  G56         0.1716
   1819  H21      -20.9770   18.6900  -14.1230 H      56  G56         0.1451
   1820  H22      -22.1560   18.2750  -15.3470 H      56  G56         0.1451
   1821    P.3    -24.3980   19.7140  -21.9940 P.3    57  A57         0.2131
   1822  OP1      -25.4170   19.4200  -23.0260 O.2    57  A57        -0.5172
   1823  OP2      -23.6220   20.9730  -22.0620 O.3    57  A57        -0.4373
   1824  O5'      -25.1020   19.6340  -20.5520 O.3    57  A57        -0.3248
   1825  C5'      -25.1400   18.3960  -19.8400 C.3    57  A57         0.0837
   1826  C4'      -25.2230   18.6140  -18.3350 C.3    57  A57         0.1139
   1827  O4'      -23.9410   18.6040  -17.7240 O.3    57  A57        -0.3456
   1828  C3'      -25.7820   19.9850  -17.9980 C.3    57  A57         0.1241
   1829  O3'      -27.2000   19.9090  -17.8460 O.3    57  A57        -0.3187
   1830  C2'      -25.1970   20.2830  -16.6420 C.3    57  A57         0.1292
   1831  O2'      -26.1650   20.1000  -15.6100 O.3    57  A57        -0.3846
   1832  C1'      -24.0430   19.3180  -16.4900 C.3    57  A57         0.1667
   1833   N9      -22.8430   20.0960  -16.2000 N.ar   57  A57        -0.2855
   1834   C8      -21.8490   20.4220  -17.0200 C.ar   57  A57         0.1004
   1835   N7      -20.8920   21.1560  -16.5510 N.ar   57  A57        -0.2306
   1836   C5      -21.3190   21.3470  -15.2300 C.ar   57  A57         0.1473
   1837   C6      -20.7770   22.0440  -14.1390 C.ar   57  A57         0.1472
   1838   N6      -19.6250   22.7100  -14.2020 N.pl3  57  A57        -0.3413
   1839   N.1     -21.4710   22.0240  -12.9820 N.ar   57  A57        -0.2188
   1840   C.2     -22.6270   21.3570  -12.9050 C.ar   57  A57         0.1205
   1841   N.3     -23.2210   20.6670  -13.8720 N.ar   57  A57        -0.2159
   1842   C4      -22.5110   20.7030  -15.0130 C.ar   57  A57         0.1674
   1843  H5'      -24.2390   17.8260  -20.0680 H      57  A57         0.0591
   1844 H5''      -26.0110   17.8260  -20.1640 H      57  A57         0.0591
   1845  H4'      -25.8380   17.8450  -17.8820 H      57  A57         0.0647
   1846  H3'      -25.4900   20.7380  -18.7160 H      57  A57         0.0655
   1847  H2'      -24.8060   21.3010  -16.6440 H      57  A57         0.0666
   1848 HO2'      -26.8130   19.4700  -15.9350 H      57  A57         0.2101
   1849  H1'      -24.2350   18.6250  -15.6760 H      57  A57         0.0866
   1850   H8      -21.8770   20.0970  -18.0480 H      57  A57         0.1030
   1851  H61      -19.2770   23.1950  -13.3870 H      57  A57         0.1438
   1852  H62      -19.0980   22.7280  -15.0640 H      57  A57         0.1438
   1853   H2      -23.1700   21.4100  -11.9620 H      57  A57         0.1048
   1854    P.3    -28.0140   21.1300  -17.1640 P.3    58  A58         0.2131
   1855  OP1      -28.6990   20.6130  -15.9590 O.3    58  A58        -0.4373
   1856  OP2      -28.7980   21.8070  -18.2210 O.2    58  A58        -0.5172
   1857  O5'      -26.8460   22.1430  -16.6820 O.3    58  A58        -0.3248
   1858  C5'      -26.4230   23.2230  -17.5230 C.3    58  A58         0.0836
   1859  C4'      -25.8390   24.3970  -16.7220 C.3    58  A58         0.1133
   1860  O4'      -26.4610   24.5200  -15.4420 O.3    58  A58        -0.3456
   1861  C3'      -24.3430   24.2340  -16.4710 C.3    58  A58         0.1135
   1862  O3'      -23.6620   25.4890  -16.5830 O.3    58  A58        -0.3864
   1863  C2'      -24.2570   23.6890  -15.0490 C.3    58  A58         0.1285
   1864  O2'      -23.1340   24.2440  -14.3560 O.3    58  A58        -0.3847
   1865  C1'      -25.5680   24.1190  -14.3970 C.3    58  A58         0.1667
   1866   N9      -26.1570   23.0170  -13.6220 N.ar   58  A58        -0.2855
   1867   C8      -26.6040   21.8150  -14.0460 C.ar   58  A58         0.1004
   1868   N7      -27.1030   21.0160  -13.1630 N.ar   58  A58        -0.2306
   1869   C5      -26.9770   21.7740  -11.9960 C.ar   58  A58         0.1473
   1870   C6      -27.3180   21.5230  -10.6620 C.ar   58  A58         0.1472
   1871   N6      -27.8820   20.3850  -10.2560 N.pl3  58  A58        -0.3413
   1872   N.1     -27.0550   22.4890   -9.7630 N.ar   58  A58        -0.2188
   1873   C.2     -26.4910   23.6360  -10.1490 C.ar   58  A58         0.1205
   1874   N.3     -26.1280   23.9780  -11.3840 N.ar   58  A58        -0.2159
   1875   C4      -26.4010   22.9950  -12.2650 C.ar   58  A58         0.1674
   1876  H5'      -27.2830   23.5810  -18.0900 H      58  A58         0.0591
   1877 H5''      -25.6720   22.8580  -18.2200 H      58  A58         0.0591
   1878  H4'      -26.0040   25.3180  -17.2810 H      58  A58         0.0647
   1879  H3'      -23.9200   23.5080  -17.1690 H      58  A58         0.0647
   1880 HO3'      -23.6050   25.6980  -17.5190 H      58  A58         0.2100
   1881  H2'      -24.1890   22.6000  -15.0700 H      58  A58         0.0665
   1882 HO2'      -23.3160   25.1770  -14.2210 H      58  A58         0.2101
   1883  H1'      -25.3790   24.9600  -13.7330 H      58  A58         0.0866
   1884   H8      -26.5390   21.5280  -15.1030 H      58  A58         0.1030
   1885  H61      -28.1080   20.2540   -9.2810 H      58  A58         0.1438
   1886  H62      -28.0820   19.6550  -10.9250 H      58  A58         0.1438
   1887   H2      -26.3080   24.3720   -9.3680 H      58  A58         0.1048
@<TRIPOS>BOND
     1  1788  1787    2
     2  1419  1400    1
     3  1776  1758    1
     4  1420  1401    1
     5  1755  1754    2
     6  1778  1759    1
     7  1418  1400    1
     8  1787  1762    1
     9  1787  1789    1
    10  1787  1790    1
    11  1400  1401    1
    12  1400  1399    1
    13  1762  1761    1
    14  1401  1402    1
    15  1401  1403    1
    16  1402  1407    1
    17  1811  1791    1
    18  1758  1777    1
    19  1758  1759    1
    20  1758  1757    1
    21  1810  1791    1
    22  1397  1396    2
    23  1759  1761    1
    24  1759  1760    1
    25  1754  1728    1
    26  1754  1757    1
    27  1754  1756    1
    28  1790  1791    1
    29  1791  1792    1
    30  1430  1429    2
    31  1761  1779    1
    32  1761  1763    1
    33  1728  1727    1
    34  1399  1396    1
    35  1404  1403    1
    36  1404  1429    1
    37  1764  1781    1
    38  1764  1763    1
    39  1730  1748    1
    40  1730  1729    1
    41  1403  1421    1
    42  1403  1405    1
    43  1760  1765    1
    44  1431  1429    1
    45  1407  1424    1
    46  1407  1408    1
    47  1407  1405    1
    48  1429  1432    1
    49  1396  1371    1
    50  1396  1398    1
    51  1822  1821    2
    52  1425  1409    1
    53  1745  1725    1
    54  1408  1409   ar
    55  1408  1417   ar
    56   980   979    2
    57  1763  1765    1
    58  1763  1780    1
    59  1409  1410   ar
    60  1169  1167    2
    61  1168  1167    1
    62  1812  1792    1
    63  1792  1794    1
    64  1792  1793    1
    65  1371  1370    1
    66  1417  1416   ar
    67  1417  1411   ar
    68  1813  1794    1
    69  1405  1422    1
    70  1405  1406    1
    71  1416  1415   ar
    72  1410  1411   ar
    73  1765  1782    1
    74  1765  1766    1
    75  1727  1729    1
    76  1727  1725    1
    77  1727  1746    1
    78  1729  1747    1
    79  1729  1731    1
    80  1387  1368    1
    81   973   956    1
    82  1411  1412   ar
    83  1823  1821    1
    84  1821  1795    1
    85  1821  1824    1
    86  1795  1794    1
    87  1167  1144    1
    88  1167  1170    1
    89  1415  1428    1
    90  1415  1414   ar
    91  1725  1726    1
    92  1725  1724    1
    93  1794  1796    1
    94   970   951    1
    95  1036  1024    1
    96  1386  1367    1
    97  1412  1414   ar
    98  1412  1413    1
    99  1449  1433    1
   100  1793  1798    1
   101  1023  1022    2
   102  1432  1433    1
   103  1723  1724    1
   104  1723  1720    1
   105   979   954    1
   106   979   981    1
   107   979   982    1
   108   954   953    1
   109  1427  1413    1
   110   917   916    2
   111  1783  1767    1
   112   956   955    1
   113  1138  1136    2
   114  1413  1426    1
   115  1406  1423    1
   116  1749  1731    1
   117  1753  1740    1
   118   567   566    2
   119  1157  1140    1
   120   557   540    1
   121  1721  1720    2
   122  1726  1731    1
   123  1458  1447    1
   124  1368  1370    1
   125  1368  1367    1
   126  1368  1369    1
   127  1000   983    1
   128  1731  1732    1
   129  1714  1696    1
   130  1370  1388    1
   131  1370  1372    1
   132  1144  1143    1
   133  1203  1201    2
   134  1743  1724    1
   135  1724  1744    1
   136    95    94    2
   137  1433  1450    1
   138  1433  1434    1
   139  1385  1367    1
   140  1766  1767   ar
   141  1766  1775   ar
   142   999   983    1
   143  1202  1201    1
   144  1156  1140    1
   145  1191  1171    1
   146  1367  1366    1
   147  1373  1390    1
   148  1373  1372    1
   149   558   541    1
   150  1024  1022   ar
   151  1024  1025   ar
   152  1696  1695    1
   153   937   920    1
   154  1170  1171    1
   155  1817  1800    1
   156  1137  1136    1
   157   951   952    1
   158   951   953    1
   159   951   950    1
   160   947   946    2
   161   587   570    1
   162  1022  1021   ar
   163  1767  1768   ar
   164  1459  1448    1
   165  1824  1825    1
   166  1720  1694    1
   167  1720  1722    1
   168   968   950    1
   169   952   957    1
   170   974   957    1
   171   983   982    1
   172   983   984    1
   173  1140  1139    1
   174  1140  1141    1
   175  1457  1446    1
   176  1694  1693    1
   177  1796  1798    1
   178  1796  1814    1
   179  1796  1797    1
   180  1159  1143    1
   181  1136  1139    1
   182  1136  1111    1
   183   953   955    1
   184   953   971    1
   185  1201  1175    1
   186  1201  1204    1
   187  1740  1752    1
   188  1740  1739    1
   189  1741  1739   ar
   190  1741  1742   ar
   191  1798  1816    1
   192  1798  1799    1
   193  1447  1448   ar
   194  1447  1445   ar
   195   586   570    1
   196  1171  1190    1
   197  1171  1172    1
   198   955   957    1
   199   955   972    1
   200  1026  1025    2
   201  1372  1374    1
   202  1372  1389    1
   203   540   541    1
   204   540   556    1
   205   540   539    1
   206  1035  1020    1
   207  1844  1825    1
   208   544   566    1
   209   544   543    1
   210  1369  1374    1
   211  1193  1174    1
   212   885   883    2
   213   115    98    1
   214   884   883    1
   215  1843  1825    1
   216  1143  1141    1
   217  1143  1145    1
   218   916   919    1
   219   916   891    1
   220   916   918    1
   221   905   887    1
   222   957   958    1
   223   907   888    1
   224  1025  1027   ar
   225  1448  1441   ar
   226   566   569    1
   227   566   568    1
   228   541   543    1
   229   541   542    1
   230   919   920    1
   231   570   569    1
   232   570   571    1
   233   950   969    1
   234   950   949    1
   235  1175  1174    1
   236  1825  1826    1
   237   891   890    1
   238   920   936    1
   239   920   921    1
   240  1775  1774   ar
   241  1775  1769   ar
   242  1732  1742   ar
   243  1732  1733   ar
   244   530   515    1
   245  1010  1009    2
   246  1158  1141    1
   247  1800  1799   ar
   248  1800  1801   ar
   249   515   514    1
   250   948   946    1
   251  1355  1338    1
   252  1739  1738   ar
   253  1391  1374    1
   254  1141  1142    1
   255  1366  1363    1
   256  1774  1773   ar
   257    94    72    1
   258    94    96    1
   259    94    97    1
   260  1434  1435    1
   261  1434  1451    1
   262  1434  1436    1
   263    85    68    1
   264  1446  1445    1
   265  1446  1456    1
   266   946   949    1
   267   946   924    1
   268  1435  1440    1
   269  1797  1815    1
   270  1374  1375    1
   271  1021  1020    1
   272  1021  1028   ar
   273  1695  1713    1
   274  1695  1693    1
   275  1695  1697    1
   276  1742  1735   ar
   277   539   536    1
   278  1711  1691    1
   279  1719  1706    1
   280  1768  1769   ar
   281    72    71    1
   282  1799  1809   ar
   283  1174  1172    1
   284  1174  1176    1
   285   588   571    1
   286  1001   984    1
   287    86    69    1
   288   883   886    1
   289   883   860    1
   290   939   923    1
   291  1020  1015    1
   292  1020  1018    1
   293  1445  1444   ar
   294   114    98    1
   295   543   559    1
   296   543   545    1
   297   984   986    1
   298   984   985    1
   299  1693  1691    1
   300  1693  1712    1
   301  1111  1110    1
   302    98    97    1
   303    98    99    1
   304  1358  1343    1
   305  1002   986    1
   306  1452  1436    1
   307  1015  1014    1
   308   562   547    1
   309  1353  1337    1
   310    65    64    2
   311   542   547    1
   312   938   921    1
   313   125   124    2
   314   887   888    1
   315   887   886    1
   316   887   906    1
   317  1172  1192    1
   318  1172  1173    1
   319    84    68    1
   320   888   890    1
   321   888   889    1
   322  1687  1686    2
   323  1230  1219    1
   324  1197  1180    1
   325  1204  1205    1
   326   893   910    1
   327   893   892    1
   328  1769  1770   ar
   329   571   572    1
   330   571   573    1
   331  1488  1477    1
   332  1364  1363    2
   333  1354  1337    1
   334  1031  1014    1
   335  1801  1802   ar
   336  1145  1160    1
   337  1145  1146    1
   338  1145  1147    1
   339  1715  1697    1
   340   921   923    1
   341   921   922    1
   342    68    69    1
   343    68    67    1
   344   537   536    2
   345  1441  1440    1
   346  1441  1442   ar
   347  1027  1028   ar
   348  1027  1037    1
   349  1846  1828    1
   350  1338  1339    1
   351  1338  1337    1
   352  1338  1340    1
   353   116    99    1
   354   500   485    1
   355  1733  1750    1
   356  1733  1734   ar
   357  1691  1692    1
   358  1691  1690    1
   359   513   536    1
   360   513   512    1
   361  1146  1161    1
   362  1166  1155    1
   363  1436  1437    1
   364  1436  1438    1
   365   890   908    1
   366   890   892    1
   367  1234  1232    2
   368   546   545    1
   369   546   561    1
   370  1339  1344    1
   371  1222  1205    1
   372  1028  1038    1
   373   923   924    1
   374   923   925    1
   375  1283  1282    2
   376   958   967   ar
   377   958   959   ar
   378    69    71    1
   379    69    70    1
   380  1229  1218    1
   381  1337  1336    1
   382  1343  1342    1
   383  1706  1718    1
   384  1706  1705    1
   385   986   987    1
   386   986   988    1
   387   547   545    1
   388   547   548    1
   389  1697  1692    1
   390  1697  1698    1
   391  1363  1341    1
   392  1363  1365    1
   393  1440  1455    1
   394  1440  1438    1
   395  1019  1018    1
   396  1019  1034    1
   397   536   538    1
   398  1773  1786    1
   399  1773  1772   ar
   400   966   967   ar
   401   966   965   ar
   402  1826  1828    1
   403  1826  1845    1
   404  1826  1827    1
   405  1009  1012    1
   406  1009   987    1
   407  1009  1011    1
   408   514   529    1
   409   514   512    1
   410   514   516    1
   411  1738  1751    1
   412  1738  1736   ar
   413   102   124    1
   414   102   101    1
   415    71    87    1
   416    71    73    1
   417   597   596    2
   418   985   990    1
   419   574   573    1
   420   574   596    1
   421  1194  1176    1
   422   545   560    1
   423  1142  1147    1
   424   877   862    1
   425  1014  1016    1
   426  1014  1013    1
   427   531   516    1
   428  1856  1854    2
   429  1877  1858    1
   430  1489  1478    1
   431  1341  1340    1
   432  1165  1154    1
   433  1128  1110    1
   434    99   101    1
   435    99   100    1
   436   506   505    2
   437   860   859    1
   438  1444  1442   ar
   439  1205  1221    1
   440  1205  1206    1
   441  1462  1460    2
   442   862   861    1
   443  1477  1487    1
   444  1477  1476    1
   445  1735  1734   ar
   446  1735  1736   ar
   447  1176  1177    1
   448  1176  1178    1
   449  1876  1858    1
   450  1173  1178    1
   451  1375  1376   ar
   452  1375  1384   ar
   453  1126  1107    1
   454  1809  1802   ar
   455  1809  1808   ar
   456   589   573    1
   457   527   510    1
   458  1018  1016    1
   459  1018  1033    1
   460  1850  1834    1
   461  1707  1705   ar
   462  1707  1708   ar
   463  1392  1376    1
   464  1437  1460    1
   465   485   484    1
   466  1231  1220    1
   467  1359  1344    1
   468  1180  1181   ar
   469  1180  1179   ar
   470  1017  1016    1
   471  1017  1039    1
   472  1155  1154   ar
   473  1155  1148   ar
   474   572   577    1
   475  1828  1829    1
   476  1828  1830    1
   477   889   894    1
   478   519   518    2
   479  1110  1112    1
   480  1110  1108    1
   481   124   126    1
   482   124   127    1
   483   573   575    1
   484  1003   988    1
   485  1709  1690    1
   486   892   909    1
   487   892   894    1
   488  1219  1220   ar
   489  1219  1217   ar
   490   975   959    1
   491  1829  1854    1
   492   967   961   ar
   493  1442  1443    2
   494  1012  1013    1
   495  1154  1152   ar
   496   978   965    1
   497  1147  1148    1
   498  1147  1162    1
   499  1040  1039    2
   500  1827  1832    1
   501  1802  1803   ar
   502    64    67    1
   503    64    41    1
   504    64    66    1
   505  1181  1182   ar
   506   512   510    1
   507   512   528    1
   508  1008   998    1
   509  1130  1113    1
   510  1340  1342    1
   511  1340  1356    1
   512  1344  1342    1
   513  1344  1345    1
   514  1224  1208    1
   515  1705  1704   ar
   516    58    43    1
   517   959   960   ar
   518  1770  1772   ar
   519  1770  1771    1
   520  1686  1688    1
   521  1686  1661    1
   522  1686  1689    1
   523  1438  1453    1
   524  1438  1439    1
   525  1016  1032    1
   526   516   511    1
   527   516   517    1
   528  1067  1050    1
   529  1218  1217    1
   530  1218  1228    1
   531  1249  1248    2
   532  1113  1112    1
   533  1858  1859    1
   534  1858  1857    1
   535  1880  1862    1
   536   940   925    1
   537  1690  1710    1
   538  1690  1689    1
   539  1663  1680    1
   540  1663  1662    1
   541    41    40    1
   542    74    89    1
   543    74    73    1
   544   922   927    1
   545  1148  1149   ar
   546   101   117    1
   547   101   103    1
   548  1129  1112    1
   549  1376  1377   ar
   550  1297  1284    1
   551   550   549    2
   552  1736  1737    2
   553  1342  1357    1
   554   988   990    1
   555   988   989    1
   556   965   964   ar
   557   147   128    1
   558  1177  1195    1
   559  1478  1476   ar
   560  1478  1479   ar
   561  1347  1346    2
   562  1220  1213   ar
   563   596   599    1
   564   596   598    1
   565    70    75    1
   566  1178  1179    1
   567  1178  1196    1
   568    55    38    1
   569  1282  1284   ar
   570  1282  1281   ar
   571   945   935    1
   572  1246  1245   ar
   573  1246  1247   ar
   574  1071  1058    1
   575  1878  1859    1
   576   925   926    1
   577   925   927    1
   578  1808  1806   ar
   579  1127  1108    1
   580  1476  1475   ar
   581   510   511    1
   582   510   509    1
   583  1112  1114    1
   584   489   488    2
   585  1232  1233    1
   586  1232  1235    1
   587  1232  1209    1
   588  1013  1030    1
   589  1013  1029    1
   590  1460  1461    1
   591  1460  1463    1
   592  1179  1189   ar
   593  1879  1861    1
   594  1854  1857    1
   595  1854  1855    1
   596  1698  1708   ar
   597  1698  1699   ar
   598  1383  1384   ar
   599  1383  1382   ar
   600   548   549   ar
   601   548   555   ar
   602  1107  1125    1
   603  1107  1108    1
   604  1107  1106    1
   605  1336  1333    1
   606   894   911    1
   607   894   895    1
   608    73    75    1
   609    73    88    1
   610  1262  1245    1
   611  1217  1216   ar
   612   100   105    1
   613  1335  1333    2
   614  1039  1042    1
   615  1039  1041    1
   616  1164  1153    1
   617  1384  1378   ar
   618  1708  1701   ar
   619   990  1005    1
   620   990   991    1
   621  1834  1835   ar
   622  1834  1833   ar
   623  1108  1109    1
   624  1063  1044    1
   625  1454  1439    1
   626  1042  1043    1
   627  1045  1050    1
   628  1045  1044    1
   629   861   876    1
   630   861   859    1
   631   861   863    1
   632  1152  1153    1
   633  1152  1151   ar
   634   874   857    1
   635  1059  1058   ar
   636  1059  1060   ar
   637  1058  1057   ar
   638   499   484    1
   639   148   128    1
   640   599   600    1
   641  1661  1660    1
   642   592   577    1
   643   859   875    1
   644   859   857    1
   645   505   483    1
   646   505   507    1
   647   505   508    1
   648  1284  1285   ar
   649   518   517   ar
   650   518   520   ar
   651    43    42    1
   652   484   486    1
   653   484   482    1
   654   577   575    1
   655   577   578    1
   656  1679  1662    1
   657   549   551   ar
   658  1785  1771    1
   659  1859  1861    1
   660  1859  1860    1
   661  1206  1208    1
   662  1206  1207    1
   663  1206  1223    1
   664  1245  1244   ar
   665  1208  1209    1
   666  1208  1210    1
   667   501   486    1
   668   998   991   ar
   669   998   997   ar
   670    54    37    1
   671   565   555    1
   672  1149  1151   ar
   673  1149  1150    2
   674  1248  1247   ar
   675  1248  1250   ar
   676  1685  1672    1
   677  1153  1163    1
   678  1050  1051    1
   679  1050  1048    1
   680  1847  1830    1
   681  1830  1832    1
   682  1830  1831    1
   683   128   127    1
   684   128   129    1
   685    90    75    1
   686    53    37    1
   687  1490  1479    1
   688   483   482    1
   689  1862  1861    1
   690   104   103    1
   691   104   119    1
   692  1771  1784    1
   693   926   941    1
   694  1835  1836   ar
   695    75    76    1
   696   575   590    1
   697   961   960   ar
   698   961   962   ar
   699  1247  1254   ar
   700  1479  1472   ar
   701   927   942    1
   702   927   928    1
   703  1832  1833    1
   704  1832  1849    1
   705  1861  1863    1
   706  1280  1281   ar
   707  1280  1279   ar
   708   517   524   ar
   709  1235  1236    1
   710  1057  1055   ar
   711  1182  1189   ar
   712  1182  1183   ar
   713  1662  1660    1
   714  1662  1664    1
   715   591   576    1
   716  1346  1345   ar
   717  1346  1348   ar
   718  1345  1352   ar
   719  1060  1051   ar
   720  1060  1054   ar
   721   912   896    1
   722    38    40    1
   723    38    37    1
   724    38    39    1
   725  1803  1804    2
   726  1803  1805   ar
   727  1281  1288   ar
   728  1105  1103    2
   729   555   554   ar
   730  1007   997    1
   731   989  1004    1
   732  1044  1043    1
   733  1044  1046    1
   734  1704  1717    1
   735  1704  1702   ar
   736  1475  1473   ar
   737   103   105    1
   738   103   118    1
   739   991   992   ar
   740   935   928   ar
   741   935   934   ar
   742  1051  1052   ar
   743  1207  1212    1
   744  1833  1842   ar
   745    40    42    1
   746    40    56    1
   747  1333  1308    1
   748  1333  1334    1
   749  1377  1378   ar
   750   525   509    1
   751    37    36    1
   752   857   858    1
   753   857   856    1
   754  1463  1464    1
   755  1189  1188   ar
   756   595   585    1
   757   964   962   ar
   758   123   113    1
   759  1104  1103    1
   760  1259  1241    1
   761  1327  1310    1
   762  1213  1212    1
   763  1213  1214   ar
   764  1049  1066    1
   765  1049  1048    1
   766  1106  1103    1
   767  1258  1239    1
   768  1806  1805   ar
   769  1806  1807    1
   770   488   487   ar
   771   488   490   ar
   772   486   487    1
   773   486   481    1
   774   509   508    1
   775   509   526    1
   776  1395  1382    1
   777   944   934    1
   778  1382  1381   ar
   779   472   460    1
   780   997   995   ar
   781  1043  1062    1
   782  1043  1061    1
   783  1848  1831    1
   784  1268  1266    2
   785  1699  1716    1
   786  1699  1700   ar
   787  1055  1054   ar
   788  1055  1056    1
   789  1378  1379   ar
   790  1298  1286    1
   791   895   896   ar
   792   895   904   ar
   793  1673  1672   ar
   794  1673  1674   ar
   795   105   120    1
   796   105   106    1
   797  1672  1671   ar
   798  1132  1116    1
   799   878   863    1
   800  1054  1053   ar
   801  1508  1507    2
   802   482   480    1
   803   482   498    1
   804   520   521   ar
   805    59    44    1
   806  1660  1678    1
   807  1660  1658    1
   808   497   480    1
   809  1216  1214   ar
   810   502   490    1
   811  1114  1109    1
   812  1114  1115    1
   813  1114  1131    1
   814  1103  1080    1
   815  1308  1307    1
   816    42    44    1
   817    42    57    1
   818  1263  1250    1
   819   618   601    1
   820  1701  1702   ar
   821  1701  1700   ar
   822  1250  1251   ar
   823  1086  1085    2
   824   863   858    1
   825   863   864    1
   826   928   929   ar
   827   578   585   ar
   828   578   579   ar
   829   855   856    1
   830   855   852    1
   831   962   963    1
   832  1225  1210    1
   833  1184  1183    2
   834    93    83    1
   835  1681  1664    1
   836  1052  1053   ar
   837  1052  1068    1
   838  1244  1254   ar
   839  1244  1243    1
   840   896   897   ar
   841    34    33    2
   842  1048  1046    1
   843  1048  1065    1
   844  1805  1818    1
   845  1098  1083    1
   846  1183  1185   ar
   847   551   563    1
   848   551   552   ar
   849  1472  1473   ar
   850  1472  1471    1
   851  1069  1056    1
   852   934   932   ar
   853  1210  1212    1
   854  1210  1211    1
   855  1285  1286    1
   856  1285  1287   ar
   857  1254  1253   ar
   858  1212  1227    1
   859   149   129    1
   860   600   616    1
   861   600   601    1
   862   600   617    1
   863  1480  1464    1
   864  1073  1072    2
   865   585   584   ar
   866  1860  1865    1
   867  1056  1070    1
   868  1473  1474    2
   869    39    44    1
   870  1310  1309    1
   871    31    18    1
   872   866   865    2
   873   602   601    1
   874   602   607    1
   875  1820  1807    1
   876  1677  1658    1
   877   872   856    1
   878   129   130    1
   879   129   131    1
   880  1116  1115   ar
   881  1116  1117   ar
   882   487   494   ar
   883   856   873    1
   884  1214  1215    2
   885   490   491   ar
   886  1664  1665    1
   887  1664  1659    1
   888  1279  1296    1
   889  1279  1278   ar
   890  1362  1352    1
   891  1352  1351   ar
   892  1702  1703    2
   893  1836  1842   ar
   894  1836  1837   ar
   895  1360  1348    1
   896  1115  1124   ar
   897  1348  1349   ar
   898    44    45    1
   899   853   852    2
   900   524   535    1
   901   524   523   ar
   902   480   481    1
   903   480   479    1
   904  1286  1299    1
   905   459   458    2
   906   554   552   ar
   907   554   564    1
   908    76    83   ar
   909    76    77   ar
   910   159   158    2
   911  1466  1471    1
   912  1466  1465    1
   913  1046  1047    1
   914  1046  1064    1
   915   601   603    1
   916  1884  1867    1
   917  1241  1239    1
   918  1241  1243    1
   919  1241  1242    1
   920  1807  1819    1
   921   113   106   ar
   922   113   112   ar
   923  1881  1863    1
   924  1852  1838    1
   925  1464  1481    1
   926  1464  1465    1
   927  1188  1186   ar
   928  1863  1865    1
   929  1863  1864    1
   930  1288  1287   ar
   931  1288  1278   ar
   932  1236  1256    1
   933  1236  1255    1
   934  1236  1237    1
   935   460   458   ar
   936   460   461   ar
   937  1239  1237    1
   938  1239  1240    1
   939   992   993    2
   940   992   994   ar
   941  1842  1841   ar
   942   580   579    2
   943  1047  1072    1
   944  1671  1669   ar
   945   462   461    2
   946  1085  1087   ar
   947  1085  1084   ar
   948   160   158    1
   949  1238  1243    1
   950  1238  1237    1
   951  1658  1659    1
   952  1658  1657    1
   953    83    82   ar
   954   625   615    1
   955   579   581   ar
   956  1674  1665   ar
   957  1674  1668   ar
   958  1087  1088   ar
   959    30    18    1
   960   106   107   ar
   961  1522  1509    1
   962    36    33    1
   963  1381  1379   ar
   964   846   828    1
   965  1507  1509   ar
   966  1507  1506   ar
   967  1243  1261    1
   968  1117  1118   ar
   969   130   135    1
   970  1379  1380    1
   971  1552  1542    1
   972   904   903   ar
   973   904   898   ar
   974   995   994   ar
   975   995   996    2
   976   552   553    2
   977  1251  1253   ar
   978  1251  1252    1
   979  1094  1077    1
   980    18    17    1
   981  1471  1486    1
   982  1471  1469    1
   983   521   523   ar
   984   521   522    1
   985    47    46    2
   986   864   865   ar
   987   864   871   ar
   988   852   826    1
   989   852   854    1
   990  1665  1666   ar
   991   458   457   ar
   992   851   838    1
   993   132   158    1
   994   132   131    1
   995  1083  1084    1
   996  1083  1078    1
   997  1083  1081    1
   998  1237  1257    1
   999  1124  1118   ar
  1000  1124  1123   ar
  1001  1266  1240    1
  1002  1266  1269    1
  1003  1266  1267    1
  1004   622   607    1
  1005    78    77    2
  1006   865   867   ar
  1007  1185  1186   ar
  1008  1185  1198    1
  1009   158   161    1
  1010   903   902   ar
  1011  1072  1074    1
  1012  1072  1075    1
  1013   584   594    1
  1014   584   582   ar
  1015  1865  1883    1
  1016  1865  1866    1
  1017  1099  1089    1
  1018   461   463   ar
  1019   897   898   ar
  1020   122   112    1
  1021  1307  1309    1
  1022  1307  1325    1
  1023  1307  1305    1
  1024  1864  1882    1
  1025   963   977    1
  1026   963   976    1
  1027    33     6    1
  1028    33    35    1
  1029  1226  1211    1
  1030   154   137    1
  1031  1278  1277    1
  1032   994  1006    1
  1033   929   930    2
  1034   929   931   ar
  1035  1082  1097    1
  1036  1082  1081    1
  1037  1465  1482    1
  1038  1465  1467    1
  1039   131   150    1
  1040   131   133    1
  1041   828   827    1
  1042  1309  1326    1
  1043  1309  1311    1
  1044  1084  1091   ar
  1045  1583  1573    1
  1046  1186  1187    1
  1047  1509  1510   ar
  1048  1838  1837    1
  1049  1838  1851    1
  1050   523   534    1
  1051   607   608    1
  1052   607   605    1
  1053    26     8    1
  1054    77    79   ar
  1055  1118  1119   ar
  1056  1078  1077    1
  1057  1242  1260    1
  1058  1584  1573    1
  1059  1324  1305    1
  1060  1080  1079    1
  1061  1837  1839   ar
  1062   441   431    1
  1063  1553  1542    1
  1064   112   110   ar
  1065  1351  1349   ar
  1066  1351  1361    1
  1067  1123  1122   ar
  1068  1867  1866   ar
  1069  1867  1868   ar
  1070   932   931   ar
  1071   932   933    2
  1072  1349  1350    2
  1073  1088  1089    1
  1074  1088  1090   ar
  1075   826   825    1
  1076  1542  1541    1
  1077  1483  1467    1
  1078  1505  1506   ar
  1079  1505  1504   ar
  1080  1676  1657    1
  1081  1669  1668   ar
  1082  1669  1670    1
  1083   494   504    1
  1084   494   493   ar
  1085  1264  1252    1
  1086   615   608   ar
  1087   615   614   ar
  1088  1089  1100    1
  1089   491   492    2
  1090   491   493   ar
  1091  1841  1840   ar
  1092   532   522    1
  1093  1506  1513   ar
  1094  1668  1667   ar
  1095    45    46   ar
  1096    45    52   ar
  1097   495   479    1
  1098   606   605    1
  1099   606   621    1
  1100  1269  1270    1
  1101  1252  1265    1
  1102   479   478    1
  1103   479   496    1
  1104  1077  1079    1
  1105  1077  1076    1
  1106   898   899   ar
  1107   581   582   ar
  1108   581   593    1
  1109  1573  1572    1
  1110     8     7    1
  1111  1657  1675    1
  1112  1657  1656    1
  1113  1866  1875   ar
  1114   603   604    1
  1115   603   605    1
  1116   603   619    1
  1117   882   871    1
  1118   838   850    1
  1119   838   837    1
  1120   522   533    1
  1121  1081  1079    1
  1122  1081  1096    1
  1123     6     5    1
  1124    46    48   ar
  1125   624   614    1
  1126   931   943    1
  1127    82    92    1
  1128    82    80   ar
  1129   871   870   ar
  1130  1305  1306    1
  1131  1305  1304    1
  1132  1652  1639    1
  1133  1380  1394    1
  1134  1380  1393    1
  1135   107   108    2
  1136   107   109   ar
  1137   582   583    2
  1138   455   470    1
  1139   455   454    1
  1140  1467  1469    1
  1141  1467  1468    1
  1142   604   626    1
  1143   608   609   ar
  1144  1091  1090   ar
  1145  1091  1102    1
  1146  1292  1273    1
  1147  1119  1120    1
  1148  1119  1121   ar
  1149  1666  1682    1
  1150  1666  1667   ar
  1151   478   475    1
  1152    17    19   ar
  1153    17    16   ar
  1154  1122  1121   ar
  1155  1122  1135    1
  1156  1293  1275    1
  1157   605   620    1
  1158   867   868   ar
  1159  1134  1120    1
  1160  1079  1095    1
  1161  1523  1511    1
  1162  1469  1484    1
  1163  1469  1470    1
  1164  1090  1101    1
  1165   135   133    1
  1166   135   153    1
  1167   135   136    1
  1168   137   136   ar
  1169   137   138   ar
  1170   471   456    1
  1171   457   456    1
  1172   457   464   ar
  1173   493   503    1
  1174  1075  1076    1
  1175   614   612   ar
  1176  1868  1869   ar
  1177   902   915    1
  1178   902   901   ar
  1179  1683  1670    1
  1180   431   442    1
  1181   431   430    1
  1182    19    20   ar
  1183   843   823    1
  1184  1328  1311    1
  1185  1187  1200    1
  1186  1187  1199    1
  1187    63    52    1
  1188   463   464   ar
  1189   463   473    1
  1190  1120  1133    1
  1191  1670  1684    1
  1192   133   134    1
  1193   133   151    1
  1194  1510  1511    1
  1195  1510  1512   ar
  1196  1839  1840   ar
  1197  1311  1306    1
  1198  1311  1312    1
  1199   847   829    1
  1200  1840  1853    1
  1201   134   152    1
  1202  1277  1275    1
  1203  1277  1272    1
  1204  1277  1295    1
  1205   827   825    1
  1206   827   845    1
  1207   827   829    1
  1208    79    80   ar
  1209    79    91    1
  1210  1303  1304    1
  1211  1303  1300    1
  1212   161   162    1
  1213  1504  1521    1
  1214  1504  1503   ar
  1215    27     9    1
  1216    52    51   ar
  1217  1541  1540   ar
  1218  1541  1543   ar
  1219  1323  1304    1
  1220   429   430   ar
  1221   429   427   ar
  1222   110   109   ar
  1223   110   111    2
  1224    29    16    1
  1225   825   823    1
  1226   825   844    1
  1227  1076  1093    1
  1228  1076  1092    1
  1229  1511  1524    1
  1230   136   146   ar
  1231   817   804    1
  1232  1513  1512   ar
  1233  1513  1503   ar
  1234   839   837   ar
  1235   839   840   ar
  1236  1304  1322    1
  1237  1540  1538   ar
  1238   456   454    1
  1239   456   451    1
  1240   181   162    1
  1241  1639  1638   ar
  1242  1639  1640   ar
  1243  1275  1273    1
  1244  1275  1276    1
  1245   837   836   ar
  1246   464   474    1
  1247   109   121    1
  1248   138   139   ar
  1249  1656  1653    1
  1250   899   901   ar
  1251   899   900    1
  1252    80    81    2
  1253  1572  1571   ar
  1254  1572  1574   ar
  1255  1273  1271    1
  1256  1273  1274    1
  1257  1270  1290    1
  1258  1270  1271    1
  1259  1270  1289    1
  1260   870   868   ar
  1261   870   881    1
  1262    23     3    1
  1263  1272  1271    1
  1264    16    14   ar
  1265     7     5    1
  1266     7     9    1
  1267     7    25    1
  1268   454   469    1
  1269   454   452    1
  1270   377   364    1
  1271   868   869    1
  1272  1302  1300    2
  1273    48    49   ar
  1274   428   427    2
  1275   430   432   ar
  1276  1875  1869   ar
  1277  1875  1874   ar
  1278     5     3    1
  1279     5    24    1
  1280  1585  1574    1
  1281   823   824    1
  1282   823   822    1
  1283  1493  1491    2
  1284   609   610    2
  1285   609   611   ar
  1286  1638  1636   ar
  1287   829   824    1
  1288   829   830    1
  1289   182   162    1
  1290  1468  1491    1
  1291   162   163    1
  1292  1470  1485    1
  1293   626   627    2
  1294   626   628    1
  1295   626   629    1
  1296  1869  1870   ar
  1297  1503  1502    1
  1298     9    10    1
  1299     9     4    1
  1300  1617  1604    1
  1301  1271  1291    1
  1302   612   611   ar
  1303   612   613    2
  1304  1640  1641   ar
  1305  1554  1543    1
  1306   427   426   ar
  1307  1571  1569   ar
  1308  1312  1313   ar
  1309  1312  1321   ar
  1310    20    10   ar
  1311    20    13   ar
  1312   475   476    2
  1313   475   453    1
  1314   475   477    1
  1315   397   396    2
  1316  1543  1544   ar
  1317  1574  1575   ar
  1318   365   366   ar
  1319   365   363   ar
  1320   364   378    1
  1321   364   363    1
  1322   411   398    1
  1323   379   366    1
  1324  1300  1274    1
  1325  1300  1301    1
  1326  1329  1313    1
  1327   188   171    1
  1328   914   900    1
  1329   842   822    1
  1330     3     4    1
  1331     3     2    1
  1332   655   644    1
  1333   804   803   ar
  1334   804   805   ar
  1335   611   623    1
  1336  1646  1629    1
  1337    51    49   ar
  1338    51    62    1
  1339  1654  1653    2
  1340   900   913    1
  1341   453   452    1
  1342  1647  1630    1
  1343   840   830   ar
  1344   840   833   ar
  1345  1538  1539    2
  1346  1538  1537   ar
  1347  1655  1653    1
  1348   849   836    1
  1349  1874  1873   ar
  1350  1653  1628    1
  1351   836   834   ar
  1352   366   367   ar
  1353  1650  1637    1
  1354   363   362   ar
  1355  1619  1606    1
  1356   146   139   ar
  1357   146   145   ar
  1358  1276  1294    1
  1359  1491  1494    1
  1360  1491  1492    1
  1361   451   450    1
  1362    49    50    1
  1363  1313  1314   ar
  1364  1605  1606   ar
  1365  1605  1603   ar
  1366   822   841    1
  1367   822   821    1
  1368   803   801   ar
  1369   869   879    1
  1370   869   880    1
  1371    10    11   ar
  1372  1630  1629    1
  1373   139   140   ar
  1374   646   630    1
  1375   344   332    1
  1376   830   831   ar
  1377   654   643    1
  1378  1604  1618    1
  1379  1604  1603    1
  1380  1320  1321   ar
  1381  1320  1319   ar
  1382     1    32    1
  1383     1     2    1
  1384   452   450    1
  1385   452   468    1
  1386  1636  1637    1
  1387  1636  1635   ar
  1388    14    13   ar
  1389    14    15    2
  1390   412   400    1
  1391  1321  1315   ar
  1392   398   396   ar
  1393   398   399   ar
  1394   629   630    1
  1395  1886  1871    1
  1396   396   395   ar
  1397   432   443    1
  1398   432   433   ar
  1399  1514  1495    1
  1400  1606  1607   ar
  1401  1641  1635   ar
  1402  1641  1632   ar
  1403    13    12   ar
  1404  1637  1651    1
  1405   467   450    1
  1406  1629  1631    1
  1407  1629  1627    1
  1408   805   806   ar
  1409   171   172   ar
  1410   171   170   ar
  1411  1603  1602   ar
  1412  1497  1502    1
  1413  1497  1496    1
  1414  1502  1520    1
  1415  1502  1500    1
  1416   172   173   ar
  1417   163   164    1
  1418   163   183    1
  1419   163   165    1
  1420  1870  1871    1
  1421  1870  1872   ar
  1422   656   645    1
  1423   184   165    1
  1424  1544  1537   ar
  1425  1544  1555    1
  1426   644   645   ar
  1427   644   642   ar
  1428   194   192    2
  1429  1569  1570    2
  1430  1569  1568   ar
  1431     2    21    1
  1432     2    22    1
  1433   450   449    1
  1434   367   368   ar
  1435   426   433   ar
  1436   426   425    1
  1437  1494  1495    1
  1438   164   169    1
  1439   334   333    2
  1440   362   368   ar
  1441   362   361   ar
  1442  1575  1586    1
  1443  1575  1568   ar
  1444   630   647    1
  1445   630   631    1
  1446  1648  1631    1
  1447   815   802    1
  1448   784   771    1
  1449  1537  1536    1
  1450   209   208    2
  1451  1635  1634   ar
  1452   332   333   ar
  1453   332   330   ar
  1454   145   143   ar
  1455  1871  1885    1
  1456  1314  1315   ar
  1457   643   642    1
  1458   643   653    1
  1459  1332  1319    1
  1460   400   399    1
  1461   400   413    1
  1462   220   210    1
  1463  1319  1318   ar
  1464   833   834   ar
  1465   833   832   ar
  1466   331   330    2
  1467   812   795    1
  1468   368   359   ar
  1469  1873  1872   ar
  1470  1873  1887    1
  1471  1517  1498    1
  1472   834   835    2
  1473   440   425    1
  1474  1315  1316   ar
  1475  1495  1496    1
  1476  1495  1515    1
  1477   433   444    1
  1478  1518  1500    1
  1479   645   638   ar
  1480    50    60    1
  1481    50    61    1
  1482   399   401   ar
  1483   165   166    1
  1484   165   167    1
  1485  1628  1627    1
  1486   801   802    1
  1487   801   800   ar
  1488  1631  1632    1
  1489  1631  1626    1
  1490   821   818    1
  1491    11    12   ar
  1492    11    28    1
  1493   140   141    2
  1494   140   142   ar
  1495   439   424    1
  1496   688   674    1
  1497  1568  1567    1
  1498  1632  1633   ar
  1499   361   360   ar
  1500   333   335   ar
  1501   831   848    1
  1502   831   832   ar
  1503  1607  1608   ar
  1504   795   794    1
  1505   395   394   ar
  1506   395   402   ar
  1507   193   192    1
  1508   642   641   ar
  1509   330   329   ar
  1510   802   816    1
  1511  1602  1608   ar
  1512  1602  1601   ar
  1513   782   769    1
  1514  1496  1498    1
  1515  1496  1516    1
  1516  1627  1645    1
  1517  1627  1625    1
  1518   770   771   ar
  1519   770   768   ar
  1520   166   192    1
  1521  1500  1498    1
  1522  1500  1501    1
  1523   192   195    1
  1524   425   423    1
  1525   425   420    1
  1526   438   423    1
  1527   170   169    1
  1528   170   180   ar
  1529   424   423    1
  1530   771   772   ar
  1531   687   674    1
  1532   806   800   ar
  1533   806   797   ar
  1534  1498  1499    1
  1535   394   393   ar
  1536   208   210   ar
  1537   208   207   ar
  1538   375   358    1
  1539  1551  1536    1
  1540   239   238    2
  1541   359   360   ar
  1542   359   358    1
  1543   169   167    1
  1544   169   187    1
  1545  1608  1599   ar
  1546   210   211   ar
  1547   173   180   ar
  1548   173   174   ar
  1549   632   631    1
  1550   632   637    1
  1551  1318  1316   ar
  1552   813   796    1
  1553   819   818    2
  1554   360   376    1
  1555   674   673    1
  1556   423   421    1
  1557  1536  1531    1
  1558  1536  1534    1
  1559   304   303    2
  1560   631   648    1
  1561   631   633    1
  1562  1634  1633   ar
  1563  1316  1317    1
  1564   143   142   ar
  1565   143   144    1
  1566   449   448    1
  1567   449   465    1
  1568   449   466    1
  1569   800   799   ar
  1570   175   174    2
  1571   401   402   ar
  1572  1633  1649    1
  1573   142   155    1
  1574   348   347    2
  1575   402   392   ar
  1576  1601  1600   ar
  1577   341   326    1
  1578   448   445    1
  1579   327   342    1
  1580   327   326    1
  1581   638   637    1
  1582   638   639   ar
  1583   167   185    1
  1584   167   168    1
  1585   283   273    1
  1586   769   768    1
  1587   769   783    1
  1588   358   353    1
  1589   358   356    1
  1590   818   793    1
  1591   818   820    1
  1592   748   738    1
  1593  1549  1534    1
  1594  1626  1625    1
  1595   353   352    1
  1596   314   302    1
  1597   335   345    1
  1598   335   336   ar
  1599   180   179   ar
  1600   649   633    1
  1601   768   767   ar
  1602   174   176   ar
  1603  1531  1530    1
  1604   329   336   ar
  1605   329   328    1
  1606   641   639   ar
  1607   794   796    1
  1608   794   811    1
  1609   794   792    1
  1610  1567  1582    1
  1611  1567  1562    1
  1612  1567  1565    1
  1613  1625  1644    1
  1614  1625  1624    1
  1615  1527  1525    2
  1616  1501  1519    1
  1617   420   419    1
  1618   796   797    1
  1619   796   791    1
  1620   772   773   ar
  1621   797   798   ar
  1622   393   392   ar
  1623   393   410    1
  1624  1599  1600   ar
  1625  1599  1598    1
  1626  1580  1565    1
  1627   793   792    1
  1628   637   652    1
  1629   637   635    1
  1630   284   273    1
  1631   326   328    1
  1632   326   324    1
  1633   374   357    1
  1634  1534  1535    1
  1635  1534  1532    1
  1636   671   672   ar
  1637   671   670   ar
  1638  1317  1331    1
  1639  1317  1330    1
  1640   195   196    1
  1641   343   328    1
  1642   207   219    1
  1643   207   205   ar
  1644   238   240   ar
  1645   238   237   ar
  1646   633   634    1
  1647   633   635    1
  1648   253   240    1
  1649   211   221    1
  1650   211   204   ar
  1651  1600  1616    1
  1652   303   302   ar
  1653   303   305   ar
  1654   273   272    1
  1655  1499  1525    1
  1656  1550  1535    1
  1657   407   389    1
  1658   157   144    1
  1659   336   346    1
  1660   144   156    1
  1661   639   640    2
  1662   392   391    1
  1663   673   672   ar
  1664   673   675   ar
  1665   302   300   ar
  1666  1562  1561    1
  1667   328   323    1
  1668   738   749    1
  1669   738   737    1
  1670   717   707    1
  1671  1615  1598    1
  1672   168   186    1
  1673   350   347    1
  1674   350   351    1
  1675  1593  1598    1
  1676  1593  1592    1
  1677  1528  1525    1
  1678  1528  1529    1
  1679  1565  1566    1
  1680  1565  1563    1
  1681   718   707    1
  1682  1548  1532    1
  1683   421   419    1
  1684   421   437    1
  1685   421   422    1
  1686   809   790    1
  1687   799   798   ar
  1688   347   325    1
  1689   347   349    1
  1690  1566  1581    1
  1691   371   352    1
  1692  1525  1526    1
  1693   240   241   ar
  1694  1598  1596    1
  1695   792   790    1
  1696   792   810    1
  1697   672   678   ar
  1698   212   196    1
  1699   390   389    1
  1700   390   408    1
  1701   352   351    1
  1702   352   354    1
  1703   436   419    1
  1704   236   237   ar
  1705   236   235   ar
  1706   686   670    1
  1707  1642  1624    1
  1708   634   657    1
  1709   419   418    1
  1710   798   814    1
  1711   767   773   ar
  1712   767   766   ar
  1713   356   357    1
  1714   356   373    1
  1715   356   354    1
  1716   447   445    2
  1717   773   764   ar
  1718   445   422    1
  1719   445   446    1
  1720  1609  1591    1
  1721   179   177   ar
  1722   707   706    1
  1723   635   650    1
  1724   635   636    1
  1725  1532  1530    1
  1726  1532  1533    1
  1727  1530  1529    1
  1728  1530  1547    1
  1729   176   189    1
  1730   176   177   ar
  1731   791   790    1
  1732   237   244   ar
  1733   670   669   ar
  1734   389   391    1
  1735   389   387    1
  1736  1624  1643    1
  1737  1624  1623    1
  1738   659   657    2
  1739   196   213    1
  1740   196   197    1
  1741   315   305    1
  1742   790   789    1
  1743   675   676   ar
  1744   272   271   ar
  1745   272   274   ar
  1746   305   306   ar
  1747   204   205   ar
  1748   204   203    1
  1749   205   206    2
  1750   324   325    1
  1751   324   340    1
  1752   324   322    1
  1753   271   269   ar
  1754   391   409    1
  1755   391   386    1
  1756   351   369    1
  1757   351   370    1
  1758   300   301    2
  1759   300   299   ar
  1760   736   737   ar
  1761   736   734   ar
  1762  1529  1545    1
  1763  1529  1546    1
  1764   737   739   ar
  1765  1577  1560    1
  1766   215   199    1
  1767   403   384    1
  1768   177   178    1
  1769  1611  1592    1
  1770  1592  1591    1
  1771  1592  1594    1
  1772   354   355    1
  1773   354   372    1
  1774  1561  1563    1
  1775  1561  1560    1
  1776  1561  1578    1
  1777   651   636    1
  1778   254   242    1
  1779   323   322    1
  1780  1563  1579    1
  1781  1563  1564    1
  1782   355   380    1
  1783  1591  1610    1
  1784  1591  1590    1
  1785   406   387    1
  1786   657   660    1
  1787   657   658    1
  1788   224   222    2
  1789   404   384    1
  1790  1623  1620    1
  1791   241   242    1
  1792   241   243   ar
  1793   780   763    1
  1794   235   252    1
  1795   235   234   ar
  1796   285   274    1
  1797   678   669   ar
  1798   678   677   ar
  1799   274   275   ar
  1800  1559  1560    1
  1801  1559  1556    1
  1802  1596  1613    1
  1803  1596  1597    1
  1804  1596  1594    1
  1805   766   765   ar
  1806  1560  1576    1
  1807   387   385    1
  1808   387   388    1
  1809   764   763    1
  1810   764   765   ar
  1811   706   705   ar
  1812   706   708   ar
  1813   669   668    1
  1814   198   197    1
  1815   198   203    1
  1816   418   417    1
  1817   418   434    1
  1818   418   435    1
  1819  1533  1556    1
  1820   306   299   ar
  1821   306   316    1
  1822   244   243   ar
  1823   244   234   ar
  1824   417   414    1
  1825   322   339    1
  1826   322   321    1
  1827   197   199    1
  1828   197   214    1
  1829   384   385    1
  1830   384   383    1
  1831   242   255    1
  1832   269   270    2
  1833   269   268   ar
  1834   299   298    1
  1835   386   385    1
  1836   676   677   ar
  1837   676   689    1
  1838   778   761    1
  1839   203   218    1
  1840   203   201    1
  1841   199   201    1
  1842   199   200    1
  1843   311   296    1
  1844   735   734    2
  1845   319   317    2
  1846   779   762    1
  1847   734   733   ar
  1848   719   708    1
  1849   660   661    1
  1850   762   761    1
  1851   789   808    1
  1852   789   807    1
  1853   789   788    1
  1854  1597  1614    1
  1855   763   761    1
  1856   763   758    1
  1857   739   750    1
  1858   739   740   ar
  1859  1590  1587    1
  1860   705   703   ar
  1861  1594  1595    1
  1862  1594  1612    1
  1863  1564  1587    1
  1864   385   405    1
  1865   765   781    1
  1866   178   191    1
  1867   178   190    1
  1868   216   201    1
  1869   761   759    1
  1870   234   233    1
  1871   708   709   ar
  1872  1595  1620    1
  1873  1558  1556    2
  1874  1556  1557    1
  1875   310   294    1
  1876   388   414    1
  1877   201   202    1
  1878   275   268   ar
  1879   275   286    1
  1880   663   668    1
  1881   663   662    1
  1882   679   661    1
  1883   380   381    2
  1884   380   383    1
  1885   380   382    1
  1886   268   267    1
  1887   222   200    1
  1888   222   225    1
  1889   222   223    1
  1890   281   266    1
  1891  1620  1621    2
  1892  1620  1622    1
  1893   788   785    1
  1894   668   685    1
  1895   668   666    1
  1896   296   298    1
  1897   296   294    1
  1898   296   297    1
  1899   683   666    1
  1900   320   321    1
  1901   320   317    1
  1902   414   415    2
  1903   414   416    1
  1904   661   662    1
  1905   661   680    1
  1906   321   337    1
  1907   321   338    1
  1908   298   313    1
  1909   298   293    1
  1910  1587  1588    2
  1911  1587  1589    1
  1912   733   740   ar
  1913   733   732    1
  1914   317   295    1
  1915   317   318    1
  1916   740   751    1
  1917   294   295    1
  1918   294   292    1
  1919   249   231    1
  1920   758   757    1
  1921   225   226    1
  1922   682   664    1
  1923   703   704    2
  1924   703   702   ar
  1925   666   664    1
  1926   666   667    1
  1927   662   664    1
  1928   662   681    1
  1929   709   702   ar
  1930   709   720    1
  1931   280   265    1
  1932   248   229    1
  1933   307   291    1
  1934   233   231    1
  1935   233   251    1
  1936   233   228    1
  1937   297   312    1
  1938   308   291    1
  1939   759   777    1
  1940   759   760    1
  1941   759   757    1
  1942   746   731    1
  1943   282   267    1
  1944   267   265    1
  1945   267   262    1
  1946   202   217    1
  1947   664   665    1
  1948   265   263    1
  1949   293   292    1
  1950   745   730    1
  1951   231   229    1
  1952   231   232    1
  1953   747   732    1
  1954   702   701    1
  1955   258   256    2
  1956   228   227    1
  1957   291   292    1
  1958   291   290    1
  1959   760   785    1
  1960   292   309    1
  1961   732   730    1
  1962   732   727    1
  1963   757   776    1
  1964   757   756    1
  1965   785   786    2
  1966   785   787    1
  1967   229   227    1
  1968   229   230    1
  1969   684   667    1
  1970   731   730    1
  1971   226   245    1
  1972   226   227    1
  1973   226   246    1
  1974   730   728    1
  1975   692   690    2
  1976   227   247    1
  1977   262   261    1
  1978   250   232    1
  1979   665   690    1
  1980   727   726    1
  1981   263   279    1
  1982   263   264    1
  1983   263   261    1
  1984   755   756    1
  1985   755   752    1
  1986   256   230    1
  1987   256   259    1
  1988   256   257    1
  1989   701   716    1
  1990   701   696    1
  1991   701   699    1
  1992   290   287    1
  1993   756   774    1
  1994   756   775    1
  1995   259   260    1
  1996   714   699    1
  1997   264   287    1
  1998   690   693    1
  1999   690   691    1
  2000   261   260    1
  2001   261   278    1
  2002   696   695    1
  2003   728   744    1
  2004   728   726    1
  2005   728   729    1
  2006   713   697    1
  2007   754   752    2
  2008   693   694    1
  2009   699   697    1
  2010   699   700    1
  2011   260   277    1
  2012   260   276    1
  2013   726   743    1
  2014   726   725    1
  2015   287   288    2
  2016   287   289    1
  2017   752   729    1
  2018   752   753    1
  2019   697   695    1
  2020   697   698    1
  2021   710   694    1
  2022   695   694    1
  2023   695   712    1
  2024   724   725    1
  2025   724   721    1
  2026   694   711    1
  2027   700   715    1
  2028   723   721    2
  2029   725   741    1
  2030   725   742    1
  2031   698   721    1
  2032   721   722    1
